data_image0
_cell_length_a       12.674
_cell_length_b       13.425
_cell_length_c       14.107
_cell_angle_alpha    104.87
_cell_angle_beta     106.02
_cell_angle_gamma    108.53

_symmetry_space_group_name_H-M    "P 1"
_symmetry_int_tables_number       1

loop_
  _symmetry_equiv_pos_as_xyz
  'x, y, z'

loop_
  _atom_site_label
  _atom_site_occupancy
  _atom_site_fract_x
  _atom_site_fract_y
  _atom_site_fract_z
  _atom_site_thermal_displace_type
  _atom_site_B_iso_or_equiv
  _atom_site_type_symbol
  C1       1.0000 0.29800  0.06099  0.25538  Biso   1.000  C
  O1       1.0000 0.26428  0.95809  0.22264  Biso   1.000  O
  O2       1.0000 0.26430  0.95817  0.22264  Biso   1.000  O
  O3       1.0000 0.26422  0.95817  0.22264  Biso   1.000  O
  N1       1.0000 0.36915  0.13373  0.22335  Biso   1.000  N
  N2       1.0000 0.26777  0.12303  0.32834  Biso   1.000  N
  N3       1.0000 0.36911  0.13370  0.22327  Biso   1.000  N
  N4       1.0000 0.36923  0.13373  0.22335  Biso   1.000  N
  C2       1.0000 0.29812  0.06102  0.25545  Biso   1.000  C
  C3       1.0000 0.29808  0.06099  0.25538  Biso   1.000  C
  C4       1.0000 0.29804  0.06102  0.25545  Biso   1.000  C
  C5       1.0000 0.39801  0.25105  0.28198  Biso   1.000  C
  C6       1.0000 0.44644  0.10062  0.17349  Biso   1.000  C
  C7       1.0000 0.39798  0.25097  0.28198  Biso   1.000  C
  C8       1.0000 0.44641  0.10054  0.17349  Biso   1.000  C
  C9       1.0000 0.39793  0.25105  0.28198  Biso   1.000  C
  C10      1.0000 0.39790  0.25097  0.28198  Biso   1.000  C
  C11      1.0000 0.32231  0.24302  0.35104  Biso   1.000  C
  C12      1.0000 0.21238  0.07770  0.39294  Biso   1.000  C
  C13      1.0000 0.21241  0.07778  0.39294  Biso   1.000  C
  C14      1.0000 0.32223  0.24302  0.35104  Biso   1.000  C
  H1       1.0000 0.48452  0.29415  0.32603  Biso   1.000  H
  N5       1.0000 0.35382  0.30730  0.21698  Biso   1.000  N
  H2       1.0000 0.48449  0.29407  0.32603  Biso   1.000  H
  N6       1.0000 0.35390  0.30730  0.21698  Biso   1.000  N
  H3       1.0000 0.48444  0.29415  0.32603  Biso   1.000  H
  H4       1.0000 0.48441  0.29407  0.32603  Biso   1.000  H
  H5       1.0000 0.44556  0.02994  0.17922  Biso   1.000  H
  H6       1.0000 0.52887  0.15812  0.21212  Biso   1.000  H
  N7       1.0000 0.40865  0.08634  0.06149  Biso   1.000  N
  H7       1.0000 0.44553  0.02987  0.17922  Biso   1.000  H
  N8       1.0000 0.40863  0.08626  0.06149  Biso   1.000  N
  H8       1.0000 0.37231  0.28726  0.42679  Biso   1.000  H
  N9       1.0000 0.23707  0.28682  0.30938  Biso   1.000  N
  H9       1.0000 0.37228  0.28718  0.42679  Biso   1.000  H
  N10      1.0000 0.23705  0.28674  0.30938  Biso   1.000  N
  H10      1.0000 0.25682  0.13011  0.46654  Biso   1.000  H
  H11      1.0000 0.21897  0.00680  0.38856  Biso   1.000  H
  N11      1.0000 0.08655  0.05749  0.36323  Biso   1.000  N
  H12      1.0000 0.21893  0.00677  0.38848  Biso   1.000  H
  H13      1.0000 0.25684  0.13018  0.46654  Biso   1.000  H
  H14      1.0000 0.21896  0.00685  0.38848  Biso   1.000  H
  N12      1.0000 0.08657  0.05757  0.36323  Biso   1.000  N
  H15      1.0000 0.25674  0.13011  0.46654  Biso   1.000  H
  H16      1.0000 0.25676  0.13018  0.46654  Biso   1.000  H
  C15      1.0000 0.26352  0.33036  0.23602  Biso   1.000  C
  C16      1.0000 0.40366  0.34039  0.14442  Biso   1.000  C
  C17      1.0000 0.26349  0.33028  0.23602  Biso   1.000  C
  C18      1.0000 0.40369  0.34047  0.14442  Biso   1.000  C
  C19      1.0000 0.26344  0.33036  0.23602  Biso   1.000  C
  C20      1.0000 0.26341  0.33028  0.23602  Biso   1.000  C
  C21      1.0000 0.35024  0.98119  0.98040  Biso   1.000  C
  C22      1.0000 0.35027  0.98127  0.98040  Biso   1.000  C
  C23      1.0000 0.43185  0.17841  0.02557  Biso   1.000  C
  C24      1.0000 0.43182  0.17833  0.02557  Biso   1.000  C
  C25      1.0000 0.16493  0.31673  0.36514  Biso   1.000  C
  C26      1.0000 0.16485  0.31673  0.36514  Biso   1.000  C
  C27      1.0000 0.99693  0.95053  0.30612  Biso   1.000  C
  C28      1.0000 0.99691  0.95045  0.30612  Biso   1.000  C
  C29      1.0000 0.99686  0.95053  0.30612  Biso   1.000  C
  C30      1.0000 0.99683  0.95045  0.30612  Biso   1.000  C
  C31      1.0000 0.04087  0.14272  0.39676  Biso   1.000  C
  C32      1.0000 0.04084  0.14268  0.39668  Biso   1.000  C
  O4       1.0000 0.21020  0.38162  0.19531  Biso   1.000  O
  O5       1.0000 0.21012  0.38162  0.19531  Biso   1.000  O
  H17      1.0000 0.49112  0.37378  0.17859  Biso   1.000  H
  H18      1.0000 0.37975  0.39815  0.12864  Biso   1.000  H
  N13      1.0000 0.36524  0.24692  0.04548  Biso   1.000  N
  H19      1.0000 0.37969  0.39804  0.12856  Biso   1.000  H
  N14      1.0000 0.36521  0.24684  0.04548  Biso   1.000  N
  H20      1.0000 0.37981  0.39807  0.12864  Biso   1.000  H
  H21      1.0000 0.37980  0.39812  0.12856  Biso   1.000  H
  H22      1.0000 0.37973  0.39807  0.12864  Biso   1.000  H
  H23      1.0000 0.37972  0.39812  0.12856  Biso   1.000  H
  N15      1.0000 0.32873  0.99947  0.88625  Biso   1.000  N
  O6       1.0000 0.32437  0.88992  0.98980  Biso   1.000  O
  N16      1.0000 0.32876  0.99955  0.88625  Biso   1.000  N
  O7       1.0000 0.32440  0.89000  0.98980  Biso   1.000  O
  C33      1.0000 0.37490  0.11733  0.90250  Biso   1.000  C
  C34      1.0000 0.37487  0.11725  0.90250  Biso   1.000  C
  C35      1.0000 0.37482  0.11733  0.90250  Biso   1.000  C
  C36      1.0000 0.37480  0.11725  0.90250  Biso   1.000  C
  H24      1.0000 0.51862  0.22553  0.05170  Biso   1.000  H
  H25      1.0000 0.51859  0.22546  0.05170  Biso   1.000  H
  H26      1.0000 0.14457  0.37471  0.34602  Biso   1.000  H
  H27      1.0000 0.21260  0.34884  0.44121  Biso   1.000  H
  N17      1.0000 0.05338  0.22098  0.34196  Biso   1.000  N
  N18      1.0000 0.05332  0.22087  0.34188  Biso   1.000  N
  N19      1.0000 0.05344  0.22090  0.34196  Biso   1.000  N
  N20      1.0000 0.05343  0.22095  0.34188  Biso   1.000  N
  N21      1.0000 0.05336  0.22090  0.34196  Biso   1.000  N
  N22      1.0000 0.05335  0.22095  0.34188  Biso   1.000  N
  O8       1.0000 0.01305  0.86505  0.27194  Biso   1.000  O
  O9       1.0000 0.01303  0.86497  0.27194  Biso   1.000  O
  N23      1.0000 0.88893  0.95453  0.29791  Biso   1.000  N
  N24      1.0000 0.88890  0.95445  0.29791  Biso   1.000  N
  N25      1.0000 0.88885  0.95453  0.29791  Biso   1.000  N
  N26      1.0000 0.88882  0.95445  0.29791  Biso   1.000  N
  C37      1.0000 0.90027  0.06925  0.34833  Biso   1.000  C
  C38      1.0000 0.90025  0.06917  0.34833  Biso   1.000  C
  C39      1.0000 0.09204  0.20156  0.51760  Biso   1.000  C
  C40      1.0000 0.09202  0.20148  0.51760  Biso   1.000  C
  C41      1.0000 0.09196  0.20156  0.51760  Biso   1.000  C
  C42      1.0000 0.09194  0.20148  0.51760  Biso   1.000  C
  C43      1.0000 0.28129  0.23602  0.95340  Biso   1.000  C
  C44      1.0000 0.28126  0.23594  0.95340  Biso   1.000  C
  C45      1.0000 0.27120  0.90887  0.78334  Biso   1.000  C
  C46      1.0000 0.27123  0.90895  0.78334  Biso   1.000  C
  H28      1.0000 0.43527  0.13658  0.87168  Biso   1.000  H
  N27      1.0000 0.28385  0.15977  0.86937  Biso   1.000  N
  H29      1.0000 0.43524  0.13650  0.87168  Biso   1.000  H
  N28      1.0000 0.28383  0.15969  0.86937  Biso   1.000  N
  H30      1.0000 0.43519  0.13658  0.87168  Biso   1.000  H
  C47      1.0000 0.94538  0.20582  0.27051  Biso   1.000  C
  C48      1.0000 0.77667  0.85418  0.23968  Biso   1.000  C
  C49      1.0000 0.77664  0.85411  0.23968  Biso   1.000  C
  C50      1.0000 0.84830  0.07811  0.43476  Biso   1.000  C
  N29      1.0000 0.85536  0.11671  0.27162  Biso   1.000  N
  C51      1.0000 0.84832  0.07819  0.43476  Biso   1.000  C
  H31      1.0000 0.17672  0.25199  0.54277  Biso   1.000  H
  H32      1.0000 0.08671  0.14494  0.54946  Biso   1.000  H
  C52      1.0000 0.02373  0.26977  0.55337  Biso   1.000  C
  H33      1.0000 0.17665  0.25188  0.54269  Biso   1.000  H
  C53      1.0000 0.02371  0.26969  0.55337  Biso   1.000  C
  H34      1.0000 0.17669  0.25192  0.54277  Biso   1.000  H
  H35      1.0000 0.17668  0.25196  0.54269  Biso   1.000  H
  O10      1.0000 0.21534  0.28598  0.94775  Biso   1.000  O
  O11      1.0000 0.21531  0.28590  0.94775  Biso   1.000  O
  H36      1.0000 0.31461  0.92912  0.73937  Biso   1.000  H
  H37      1.0000 0.27694  0.84109  0.79178  Biso   1.000  H
  N30      1.0000 0.14485  0.88340  0.72845  Biso   1.000  N
  H38      1.0000 0.27696  0.84117  0.79178  Biso   1.000  H
  N31      1.0000 0.14477  0.88340  0.72845  Biso   1.000  N
  C54      1.0000 0.22358  0.14600  0.76040  Biso   1.000  C
  C55      1.0000 0.22354  0.14597  0.76032  Biso   1.000  C
  C56      1.0000 0.22351  0.14589  0.76032  Biso   1.000  C
  O12      1.0000 0.93146  0.26202  0.21730  Biso   1.000  O
  H39      1.0000 0.72282  0.85729  0.27648  Biso   1.000  H
  H40      1.0000 0.79281  0.78811  0.23928  Biso   1.000  H
  N32      1.0000 0.71639  0.84042  0.13071  Biso   1.000  N
  H41      1.0000 0.72279  0.85721  0.27648  Biso   1.000  H
  H42      1.0000 0.79278  0.78803  0.23928  Biso   1.000  H
  N33      1.0000 0.71636  0.84034  0.13071  Biso   1.000  N
  H43      1.0000 0.72274  0.85729  0.27648  Biso   1.000  H
  H44      1.0000 0.79273  0.78811  0.23928  Biso   1.000  H
  H45      1.0000 0.72271  0.85721  0.27648  Biso   1.000  H
  H46      1.0000 0.79270  0.78803  0.23928  Biso   1.000  H
  C57      1.0000 0.88793  0.20222  0.50302  Biso   1.000  C
  H47      1.0000 0.76070  0.04063  0.40154  Biso   1.000  H
  H48      1.0000 0.87582  0.04004  0.47953  Biso   1.000  H
  H49      1.0000 0.87580  0.03996  0.47953  Biso   1.000  H
  C58      1.0000 0.88785  0.20222  0.50302  Biso   1.000  C
  H50      1.0000 0.87574  0.04004  0.47953  Biso   1.000  H
  C59      1.0000 0.72902  0.09124  0.21674  Biso   1.000  C
  C60      1.0000 0.72899  0.09116  0.21674  Biso   1.000  C
  C61      1.0000 0.72894  0.09124  0.21674  Biso   1.000  C
  C62      1.0000 0.72891  0.09116  0.21674  Biso   1.000  C
  H51      1.0000 0.05015  0.29544  0.63023  Biso   1.000  H
  H52      1.0000 0.04414  0.33632  0.53505  Biso   1.000  H
  H53      1.0000 0.05007  0.29544  0.63023  Biso   1.000  H
  H54      1.0000 0.04406  0.33632  0.53505  Biso   1.000  H
  C63      1.0000 0.09994  0.93086  0.65175  Biso   1.000  C
  C64      1.0000 0.05484  0.79429  0.72957  Biso   1.000  C
  C65      1.0000 0.09997  0.93093  0.65175  Biso   1.000  C
  C66      1.0000 0.09986  0.93086  0.65175  Biso   1.000  C
  C67      1.0000 0.09989  0.93093  0.65175  Biso   1.000  C
  H55      1.0000 0.27742  0.14290  0.72360  Biso   1.000  H
  H56      1.0000 0.20744  0.21208  0.76079  Biso   1.000  H
  N34      1.0000 0.11131  0.04566  0.70217  Biso   1.000  N
  H57      1.0000 0.27739  0.14287  0.72352  Biso   1.000  H
  H58      1.0000 0.27736  0.14279  0.72352  Biso   1.000  H
  C68      1.0000 0.71896  0.76417  0.04668  Biso   1.000  C
  C69      1.0000 0.62534  0.88286  0.09758  Biso   1.000  C
  C70      1.0000 0.71893  0.76409  0.04668  Biso   1.000  C
  C71      1.0000 0.62531  0.88278  0.09758  Biso   1.000  C
  H59      1.0000 0.85244  0.23747  0.45905  Biso   1.000  H
  H60      1.0000 0.85699  0.20532  0.55894  Biso   1.000  H
  H61      1.0000 0.85241  0.23739  0.45905  Biso   1.000  H
  H62      1.0000 0.68560  0.07099  0.26071  Biso   1.000  H
  H63      1.0000 0.72328  0.15902  0.20830  Biso   1.000  H
  N35      1.0000 0.67148  0.00064  0.11383  Biso   1.000  N
  N36      1.0000 0.67145  0.00056  0.11383  Biso   1.000  N
  H64      1.0000 0.68553  0.07099  0.26071  Biso   1.000  H
  C72      1.0000 0.95934  0.85739  0.60332  Biso   1.000  C
  C73      1.0000 0.95926  0.85739  0.60332  Biso   1.000  C
  C74      1.0000 0.15192  0.92200  0.56532  Biso   1.000  C
  N37      1.0000 0.94683  0.77913  0.65812  Biso   1.000  N
  N38      1.0000 0.94678  0.77921  0.65812  Biso   1.000  N
  N39      1.0000 0.94686  0.77921  0.65812  Biso   1.000  N
  N40      1.0000 0.94675  0.77913  0.65812  Biso   1.000  N
  O13      1.0000 0.06875  0.73809  0.78278  Biso   1.000  O
  O14      1.0000 0.06878  0.73817  0.78278  Biso   1.000  O
  O15      1.0000 0.06870  0.73817  0.78278  Biso   1.000  O
  C75      1.0000 0.00331  0.04966  0.69396  Biso   1.000  C
  C76      1.0000 0.00328  0.04958  0.69396  Biso   1.000  C
  N41      1.0000 0.63498  0.75319  0.95460  Biso   1.000  N
  N42      1.0000 0.63500  0.75327  0.95460  Biso   1.000  N
  O16      1.0000 0.78490  0.71420  0.05233  Biso   1.000  O
  O17      1.0000 0.78488  0.71413  0.05233  Biso   1.000  O
  O18      1.0000 0.78483  0.71420  0.05233  Biso   1.000  O
  O19      1.0000 0.78480  0.71413  0.05233  Biso   1.000  O
  C77      1.0000 0.56837  0.82170  0.97451  Biso   1.000  C
  C78      1.0000 0.56840  0.82178  0.97451  Biso   1.000  C
  H65      1.0000 0.56497  0.86360  0.12840  Biso   1.000  H
  H66      1.0000 0.56494  0.86353  0.12840  Biso   1.000  H
  C79      1.0000 0.64997  0.01892  0.01967  Biso   1.000  C
  C80      1.0000 0.64995  0.01884  0.01967  Biso   1.000  C
  C81      1.0000 0.64990  0.01892  0.01967  Biso   1.000  C
  C82      1.0000 0.64987  0.01884  0.01967  Biso   1.000  C
  C83      1.0000 0.90817  0.79855  0.48248  Biso   1.000  C
  N43      1.0000 0.91367  0.94262  0.63685  Biso   1.000  N
  C84      1.0000 0.90816  0.79859  0.48240  Biso   1.000  C
  C85      1.0000 0.90820  0.79862  0.48248  Biso   1.000  C
  C86      1.0000 0.90814  0.79851  0.48240  Biso   1.000  C
  N44      1.0000 0.91359  0.94262  0.63685  Biso   1.000  N
  C87      1.0000 0.11229  0.79789  0.49706  Biso   1.000  C
  H67      1.0000 0.23952  0.95948  0.59854  Biso   1.000  H
  H68      1.0000 0.12439  0.96007  0.52055  Biso   1.000  H
  H69      1.0000 0.12442  0.96015  0.52055  Biso   1.000  H
  C88      1.0000 0.83528  0.68338  0.63494  Biso   1.000  C
  O20      1.0000 0.98719  0.13514  0.72814  Biso   1.000  O
  O21      1.0000 0.98713  0.13503  0.72806  Biso   1.000  O
  O22      1.0000 0.98716  0.13506  0.72814  Biso   1.000  O
  O23      1.0000 0.98705  0.13503  0.72806  Biso   1.000  O
  C89      1.0000 0.59656  0.65972  0.85566  Biso   1.000  C
  N45      1.0000 0.59156  0.91377  0.93859  Biso   1.000  N
  H70      1.0000 0.48160  0.77457  0.94838  Biso   1.000  H
  N46      1.0000 0.59159  0.91385  0.93859  Biso   1.000  N
  H71      1.0000 0.48162  0.77465  0.94838  Biso   1.000  H
  H72      1.0000 0.48152  0.77457  0.94838  Biso   1.000  H
  H73      1.0000 0.48154  0.77465  0.94838  Biso   1.000  H
  O24      1.0000 0.67584  0.11019  0.01028  Biso   1.000  O
  H74      1.0000 0.82350  0.74811  0.45731  Biso   1.000  H
  H75      1.0000 0.91350  0.85517  0.45062  Biso   1.000  H
  C90      1.0000 0.97648  0.73034  0.44671  Biso   1.000  C
  H76      1.0000 0.82353  0.74819  0.45731  Biso   1.000  H
  C91      1.0000 0.97651  0.73042  0.44671  Biso   1.000  C
  H77      1.0000 0.82342  0.74811  0.45731  Biso   1.000  H
  H78      1.0000 0.82345  0.74819  0.45731  Biso   1.000  H
  C92      1.0000 0.78783  0.92241  0.60714  Biso   1.000  C
  H79      1.0000 0.14778  0.76264  0.54103  Biso   1.000  H
  H80      1.0000 0.14322  0.79479  0.44114  Biso   1.000  H
  H81      1.0000 0.14780  0.76272  0.54103  Biso   1.000  H
  H82      1.0000 0.14315  0.79479  0.44114  Biso   1.000  H
  H83      1.0000 0.85564  0.62540  0.65406  Biso   1.000  H
  H84      1.0000 0.78762  0.65127  0.55887  Biso   1.000  H
  N47      1.0000 0.76314  0.71329  0.69070  Biso   1.000  N
  H85      1.0000 0.78764  0.65135  0.55887  Biso   1.000  H
  N48      1.0000 0.76313  0.71333  0.69062  Biso   1.000  N
  N49      1.0000 0.76317  0.71336  0.69070  Biso   1.000  N
  N50      1.0000 0.76311  0.71325  0.69062  Biso   1.000  N
  H86      1.0000 0.85557  0.62540  0.65406  Biso   1.000  H
  H87      1.0000 0.50909  0.62632  0.82149  Biso   1.000  H
  H88      1.0000 0.62046  0.60196  0.87144  Biso   1.000  H
  N51      1.0000 0.64640  0.69281  0.78310  Biso   1.000  N
  H89      1.0000 0.62049  0.60204  0.87144  Biso   1.000  H
  N52      1.0000 0.64636  0.69278  0.78302  Biso   1.000  N
  H90      1.0000 0.50901  0.62632  0.82149  Biso   1.000  H
  H91      1.0000 0.62038  0.60196  0.87144  Biso   1.000  H
  N53      1.0000 0.64632  0.69281  0.78310  Biso   1.000  N
  H92      1.0000 0.62041  0.60204  0.87144  Biso   1.000  H
  N54      1.0000 0.64628  0.69278  0.78302  Biso   1.000  N
  C93      1.0000 0.55377  0.89949  0.82659  Biso   1.000  C
  C94      1.0000 0.55380  0.89957  0.82659  Biso   1.000  C
  H93      1.0000 0.95007  0.70466  0.36985  Biso   1.000  H
  H94      1.0000 0.95608  0.66379  0.46503  Biso   1.000  H
  H95      1.0000 0.74340  0.87000  0.53354  Biso   1.000  H
  H96      1.0000 0.78125  0.99330  0.61152  Biso   1.000  H
  N55      1.0000 0.73245  0.87708  0.67174  Biso   1.000  N
  N56      1.0000 0.73248  0.87715  0.67174  Biso   1.000  N
  H97      1.0000 0.78117  0.99330  0.61152  Biso   1.000  H
  N57      1.0000 0.73237  0.87708  0.67174  Biso   1.000  N
  N58      1.0000 0.73240  0.87715  0.67174  Biso   1.000  N
  C95      1.0000 0.67790  0.75709  0.64904  Biso   1.000  C
  C96      1.0000 0.73670  0.66975  0.76406  Biso   1.000  C
  C97      1.0000 0.73673  0.66983  0.76406  Biso   1.000  C
  C98      1.0000 0.60221  0.74906  0.71810  Biso   1.000  C
  C99      1.0000 0.60220  0.74911  0.71802  Biso   1.000  C
  C100     1.0000 0.60231  0.74914  0.71810  Biso   1.000  C
  C101     1.0000 0.60217  0.74903  0.71802  Biso   1.000  C
  C102     1.0000 0.60223  0.74914  0.71810  Biso   1.000  C
  H98      1.0000 0.55466  0.97016  0.82086  Biso   1.000  H
  H99      1.0000 0.47134  0.84199  0.78796  Biso   1.000  H
  N59      1.0000 0.63107  0.86638  0.77673  Biso   1.000  N
  H100     1.0000 0.55469  0.97024  0.82086  Biso   1.000  H
  N60      1.0000 0.63099  0.86638  0.77673  Biso   1.000  N
  C103     1.0000 0.70210  0.93909  0.74462  Biso   1.000  C
  C104     1.0000 0.70218  0.93909  0.74462  Biso   1.000  C
  H101     1.0000 0.62791  0.71285  0.57329  Biso   1.000  H
  H102     1.0000 0.62790  0.71290  0.57321  Biso   1.000  H
  H103     1.0000 0.62793  0.71293  0.57329  Biso   1.000  H
  H104     1.0000 0.62787  0.71282  0.57321  Biso   1.000  H
  O25      1.0000 0.79002  0.61849  0.80476  Biso   1.000  O
  H105     1.0000 0.51570  0.70596  0.67405  Biso   1.000  H
  H106     1.0000 0.51573  0.70604  0.67405  Biso   1.000  H
  O26      1.0000 0.73594  0.04202  0.77744  Biso   1.000  O
  O27      1.0000 0.73591  0.04194  0.77744  Biso   1.000  O
  C105     1.0000 0.29800  0.06099  0.25538  Biso   1.000  C
  O28      1.0000 0.26428  0.95809  0.22264  Biso   1.000  O
  O29      1.0000 0.26430  0.95817  0.22264  Biso   1.000  O
  O30      1.0000 0.26422  0.95817  0.22264  Biso   1.000  O
  N61      1.0000 0.36915  0.13373  0.22335  Biso   1.000  N
  N62      1.0000 0.26777  0.12303  0.32834  Biso   1.000  N
  N63      1.0000 0.36911  0.13370  0.22327  Biso   1.000  N
  N64      1.0000 0.36923  0.13373  0.22335  Biso   1.000  N
  C106     1.0000 0.29812  0.06102  0.25545  Biso   1.000  C
  C107     1.0000 0.29808  0.06099  0.25538  Biso   1.000  C
  C108     1.0000 0.29804  0.06102  0.25545  Biso   1.000  C
  C109     1.0000 0.39801  0.25105  0.28198  Biso   1.000  C
  C110     1.0000 0.44644  0.10062  0.17349  Biso   1.000  C
  C111     1.0000 0.39798  0.25097  0.28198  Biso   1.000  C
  C112     1.0000 0.44641  0.10054  0.17349  Biso   1.000  C
  C113     1.0000 0.39793  0.25105  0.28198  Biso   1.000  C
  C114     1.0000 0.39790  0.25097  0.28198  Biso   1.000  C
  C115     1.0000 0.32231  0.24302  0.35104  Biso   1.000  C
  C116     1.0000 0.21238  0.07770  0.39294  Biso   1.000  C
  C117     1.0000 0.21241  0.07778  0.39294  Biso   1.000  C
  C118     1.0000 0.32223  0.24302  0.35104  Biso   1.000  C
  H107     1.0000 0.48452  0.29415  0.32603  Biso   1.000  H
  N65      1.0000 0.35382  0.30730  0.21698  Biso   1.000  N
  H108     1.0000 0.48449  0.29407  0.32603  Biso   1.000  H
  N66      1.0000 0.35390  0.30730  0.21698  Biso   1.000  N
  H109     1.0000 0.48444  0.29415  0.32603  Biso   1.000  H
  H110     1.0000 0.48441  0.29407  0.32603  Biso   1.000  H
  H111     1.0000 0.44556  0.02994  0.17922  Biso   1.000  H
  H112     1.0000 0.52887  0.15812  0.21212  Biso   1.000  H
  N67      1.0000 0.40865  0.08634  0.06149  Biso   1.000  N
  H113     1.0000 0.44553  0.02987  0.17922  Biso   1.000  H
  N68      1.0000 0.40863  0.08626  0.06149  Biso   1.000  N
  H114     1.0000 0.37231  0.28726  0.42679  Biso   1.000  H
  N69      1.0000 0.23707  0.28682  0.30938  Biso   1.000  N
  H115     1.0000 0.37228  0.28718  0.42679  Biso   1.000  H
  N70      1.0000 0.23705  0.28674  0.30938  Biso   1.000  N
  H116     1.0000 0.25682  0.13011  0.46654  Biso   1.000  H
  H117     1.0000 0.21897  0.00680  0.38856  Biso   1.000  H
  N71      1.0000 0.08655  0.05749  0.36323  Biso   1.000  N
  H118     1.0000 0.21893  0.00677  0.38848  Biso   1.000  H
  H119     1.0000 0.25684  0.13018  0.46654  Biso   1.000  H
  H120     1.0000 0.21896  0.00685  0.38848  Biso   1.000  H
  N72      1.0000 0.08657  0.05757  0.36323  Biso   1.000  N
  H121     1.0000 0.25674  0.13011  0.46654  Biso   1.000  H
  H122     1.0000 0.25676  0.13018  0.46654  Biso   1.000  H
  C119     1.0000 0.26352  0.33036  0.23602  Biso   1.000  C
  C120     1.0000 0.40366  0.34039  0.14442  Biso   1.000  C
  C121     1.0000 0.26349  0.33028  0.23602  Biso   1.000  C
  C122     1.0000 0.40369  0.34047  0.14442  Biso   1.000  C
  C123     1.0000 0.26344  0.33036  0.23602  Biso   1.000  C
  C124     1.0000 0.26341  0.33028  0.23602  Biso   1.000  C
  C125     1.0000 0.35024  0.98119  0.98040  Biso   1.000  C
  C126     1.0000 0.35027  0.98127  0.98040  Biso   1.000  C
  C127     1.0000 0.43185  0.17841  0.02557  Biso   1.000  C
  C128     1.0000 0.43182  0.17833  0.02557  Biso   1.000  C
  C129     1.0000 0.16493  0.31673  0.36514  Biso   1.000  C
  C130     1.0000 0.16485  0.31673  0.36514  Biso   1.000  C
  C131     1.0000 0.99693  0.95053  0.30612  Biso   1.000  C
  C132     1.0000 0.99691  0.95045  0.30612  Biso   1.000  C
  C133     1.0000 0.99686  0.95053  0.30612  Biso   1.000  C
  C134     1.0000 0.99683  0.95045  0.30612  Biso   1.000  C
  C135     1.0000 0.04087  0.14272  0.39676  Biso   1.000  C
  C136     1.0000 0.04084  0.14268  0.39668  Biso   1.000  C
  O31      1.0000 0.21020  0.38162  0.19531  Biso   1.000  O
  O32      1.0000 0.21012  0.38162  0.19531  Biso   1.000  O
  H123     1.0000 0.49112  0.37378  0.17859  Biso   1.000  H
  H124     1.0000 0.37975  0.39815  0.12864  Biso   1.000  H
  N73      1.0000 0.36524  0.24692  0.04548  Biso   1.000  N
  H125     1.0000 0.37969  0.39804  0.12856  Biso   1.000  H
  N74      1.0000 0.36521  0.24684  0.04548  Biso   1.000  N
  H126     1.0000 0.37981  0.39807  0.12864  Biso   1.000  H
  H127     1.0000 0.37980  0.39812  0.12856  Biso   1.000  H
  H128     1.0000 0.37973  0.39807  0.12864  Biso   1.000  H
  H129     1.0000 0.37972  0.39812  0.12856  Biso   1.000  H
  N75      1.0000 0.32873  0.99947  0.88625  Biso   1.000  N
  O33      1.0000 0.32437  0.88992  0.98980  Biso   1.000  O
  N76      1.0000 0.32876  0.99955  0.88625  Biso   1.000  N
  O34      1.0000 0.32440  0.89000  0.98980  Biso   1.000  O
  C137     1.0000 0.37490  0.11733  0.90250  Biso   1.000  C
  C138     1.0000 0.37487  0.11725  0.90250  Biso   1.000  C
  C139     1.0000 0.37482  0.11733  0.90250  Biso   1.000  C
  C140     1.0000 0.37480  0.11725  0.90250  Biso   1.000  C
  H130     1.0000 0.51862  0.22553  0.05170  Biso   1.000  H
  H131     1.0000 0.51859  0.22546  0.05170  Biso   1.000  H
  H132     1.0000 0.14457  0.37471  0.34602  Biso   1.000  H
  H133     1.0000 0.21260  0.34884  0.44121  Biso   1.000  H
  N77      1.0000 0.05338  0.22098  0.34196  Biso   1.000  N
  N78      1.0000 0.05332  0.22087  0.34188  Biso   1.000  N
  N79      1.0000 0.05344  0.22090  0.34196  Biso   1.000  N
  N80      1.0000 0.05343  0.22095  0.34188  Biso   1.000  N
  N81      1.0000 0.05336  0.22090  0.34196  Biso   1.000  N
  N82      1.0000 0.05335  0.22095  0.34188  Biso   1.000  N
  O35      1.0000 0.01305  0.86505  0.27194  Biso   1.000  O
  O36      1.0000 0.01303  0.86497  0.27194  Biso   1.000  O
  N83      1.0000 0.88893  0.95453  0.29791  Biso   1.000  N
  N84      1.0000 0.88890  0.95445  0.29791  Biso   1.000  N
  N85      1.0000 0.88885  0.95453  0.29791  Biso   1.000  N
  N86      1.0000 0.88882  0.95445  0.29791  Biso   1.000  N
  C141     1.0000 0.90027  0.06925  0.34833  Biso   1.000  C
  C142     1.0000 0.90025  0.06917  0.34833  Biso   1.000  C
  C143     1.0000 0.09204  0.20156  0.51760  Biso   1.000  C
  C144     1.0000 0.09202  0.20148  0.51760  Biso   1.000  C
  C145     1.0000 0.09196  0.20156  0.51760  Biso   1.000  C
  C146     1.0000 0.09194  0.20148  0.51760  Biso   1.000  C
  C147     1.0000 0.28129  0.23602  0.95340  Biso   1.000  C
  C148     1.0000 0.28126  0.23594  0.95340  Biso   1.000  C
  C149     1.0000 0.27120  0.90887  0.78334  Biso   1.000  C
  C150     1.0000 0.27123  0.90895  0.78334  Biso   1.000  C
  H134     1.0000 0.43527  0.13658  0.87168  Biso   1.000  H
  N87      1.0000 0.28385  0.15977  0.86937  Biso   1.000  N
  H135     1.0000 0.43524  0.13650  0.87168  Biso   1.000  H
  N88      1.0000 0.28383  0.15969  0.86937  Biso   1.000  N
  H136     1.0000 0.43519  0.13658  0.87168  Biso   1.000  H
  C151     1.0000 0.94538  0.20582  0.27051  Biso   1.000  C
  C152     1.0000 0.77667  0.85418  0.23968  Biso   1.000  C
  C153     1.0000 0.77664  0.85411  0.23968  Biso   1.000  C
  C154     1.0000 0.84830  0.07811  0.43476  Biso   1.000  C
  N89      1.0000 0.85536  0.11671  0.27162  Biso   1.000  N
  C155     1.0000 0.84832  0.07819  0.43476  Biso   1.000  C
  H137     1.0000 0.17672  0.25199  0.54277  Biso   1.000  H
  H138     1.0000 0.08671  0.14494  0.54946  Biso   1.000  H
  C156     1.0000 0.02373  0.26977  0.55337  Biso   1.000  C
  H139     1.0000 0.17665  0.25188  0.54269  Biso   1.000  H
  C157     1.0000 0.02371  0.26969  0.55337  Biso   1.000  C
  H140     1.0000 0.17669  0.25192  0.54277  Biso   1.000  H
  H141     1.0000 0.17668  0.25196  0.54269  Biso   1.000  H
  O37      1.0000 0.21534  0.28598  0.94775  Biso   1.000  O
  O38      1.0000 0.21531  0.28590  0.94775  Biso   1.000  O
  H142     1.0000 0.31461  0.92912  0.73937  Biso   1.000  H
  H143     1.0000 0.27694  0.84109  0.79178  Biso   1.000  H
  N90      1.0000 0.14485  0.88340  0.72845  Biso   1.000  N
  H144     1.0000 0.27696  0.84117  0.79178  Biso   1.000  H
  N91      1.0000 0.14477  0.88340  0.72845  Biso   1.000  N
  C158     1.0000 0.22358  0.14600  0.76040  Biso   1.000  C
  C159     1.0000 0.22354  0.14597  0.76032  Biso   1.000  C
  C160     1.0000 0.22351  0.14589  0.76032  Biso   1.000  C
  O39      1.0000 0.93146  0.26202  0.21730  Biso   1.000  O
  H145     1.0000 0.72282  0.85729  0.27648  Biso   1.000  H
  H146     1.0000 0.79281  0.78811  0.23928  Biso   1.000  H
  N92      1.0000 0.71639  0.84042  0.13071  Biso   1.000  N
  H147     1.0000 0.72279  0.85721  0.27648  Biso   1.000  H
  H148     1.0000 0.79278  0.78803  0.23928  Biso   1.000  H
  N93      1.0000 0.71636  0.84034  0.13071  Biso   1.000  N
  H149     1.0000 0.72274  0.85729  0.27648  Biso   1.000  H
  H150     1.0000 0.79273  0.78811  0.23928  Biso   1.000  H
  H151     1.0000 0.72271  0.85721  0.27648  Biso   1.000  H
  H152     1.0000 0.79270  0.78803  0.23928  Biso   1.000  H
  C161     1.0000 0.88793  0.20222  0.50302  Biso   1.000  C
  H153     1.0000 0.76070  0.04063  0.40154  Biso   1.000  H
  H154     1.0000 0.87582  0.04004  0.47953  Biso   1.000  H
  H155     1.0000 0.87580  0.03996  0.47953  Biso   1.000  H
  C162     1.0000 0.88785  0.20222  0.50302  Biso   1.000  C
  H156     1.0000 0.87574  0.04004  0.47953  Biso   1.000  H
  C163     1.0000 0.72902  0.09124  0.21674  Biso   1.000  C
  C164     1.0000 0.72899  0.09116  0.21674  Biso   1.000  C
  C165     1.0000 0.72894  0.09124  0.21674  Biso   1.000  C
  C166     1.0000 0.72891  0.09116  0.21674  Biso   1.000  C
  H157     1.0000 0.05015  0.29544  0.63023  Biso   1.000  H
  H158     1.0000 0.04414  0.33632  0.53505  Biso   1.000  H
  H159     1.0000 0.05007  0.29544  0.63023  Biso   1.000  H
  H160     1.0000 0.04406  0.33632  0.53505  Biso   1.000  H
  C167     1.0000 0.09994  0.93086  0.65175  Biso   1.000  C
  C168     1.0000 0.05484  0.79429  0.72957  Biso   1.000  C
  C169     1.0000 0.09997  0.93093  0.65175  Biso   1.000  C
  C170     1.0000 0.09986  0.93086  0.65175  Biso   1.000  C
  C171     1.0000 0.09989  0.93093  0.65175  Biso   1.000  C
  H161     1.0000 0.27742  0.14290  0.72360  Biso   1.000  H
  H162     1.0000 0.20744  0.21208  0.76079  Biso   1.000  H
  N94      1.0000 0.11131  0.04566  0.70217  Biso   1.000  N
  H163     1.0000 0.27739  0.14287  0.72352  Biso   1.000  H
  H164     1.0000 0.27736  0.14279  0.72352  Biso   1.000  H
  C172     1.0000 0.71896  0.76417  0.04668  Biso   1.000  C
  C173     1.0000 0.62534  0.88286  0.09758  Biso   1.000  C
  C174     1.0000 0.71893  0.76409  0.04668  Biso   1.000  C
  C175     1.0000 0.62531  0.88278  0.09758  Biso   1.000  C
  H165     1.0000 0.85244  0.23747  0.45905  Biso   1.000  H
  H166     1.0000 0.85699  0.20532  0.55894  Biso   1.000  H
  H167     1.0000 0.85241  0.23739  0.45905  Biso   1.000  H
  H168     1.0000 0.68560  0.07099  0.26071  Biso   1.000  H
  H169     1.0000 0.72328  0.15902  0.20830  Biso   1.000  H
  N95      1.0000 0.67148  0.00064  0.11383  Biso   1.000  N
  N96      1.0000 0.67145  0.00056  0.11383  Biso   1.000  N
  H170     1.0000 0.68553  0.07099  0.26071  Biso   1.000  H
  C176     1.0000 0.95934  0.85739  0.60332  Biso   1.000  C
  C177     1.0000 0.95926  0.85739  0.60332  Biso   1.000  C
  C178     1.0000 0.15192  0.92200  0.56532  Biso   1.000  C
  N97      1.0000 0.94683  0.77913  0.65812  Biso   1.000  N
  N98      1.0000 0.94678  0.77921  0.65812  Biso   1.000  N
  N99      1.0000 0.94686  0.77921  0.65812  Biso   1.000  N
  N100     1.0000 0.94675  0.77913  0.65812  Biso   1.000  N
  O40      1.0000 0.06875  0.73809  0.78278  Biso   1.000  O
  O41      1.0000 0.06878  0.73817  0.78278  Biso   1.000  O
  O42      1.0000 0.06870  0.73817  0.78278  Biso   1.000  O
  C179     1.0000 0.00331  0.04966  0.69396  Biso   1.000  C
  C180     1.0000 0.00328  0.04958  0.69396  Biso   1.000  C
  N101     1.0000 0.63498  0.75319  0.95460  Biso   1.000  N
  N102     1.0000 0.63500  0.75327  0.95460  Biso   1.000  N
  O43      1.0000 0.78490  0.71420  0.05233  Biso   1.000  O
  O44      1.0000 0.78488  0.71413  0.05233  Biso   1.000  O
  O45      1.0000 0.78483  0.71420  0.05233  Biso   1.000  O
  O46      1.0000 0.78480  0.71413  0.05233  Biso   1.000  O
  C181     1.0000 0.56837  0.82170  0.97451  Biso   1.000  C
  C182     1.0000 0.56840  0.82178  0.97451  Biso   1.000  C
  H171     1.0000 0.56497  0.86360  0.12840  Biso   1.000  H
  H172     1.0000 0.56494  0.86353  0.12840  Biso   1.000  H
  C183     1.0000 0.64997  0.01892  0.01967  Biso   1.000  C
  C184     1.0000 0.64995  0.01884  0.01967  Biso   1.000  C
  C185     1.0000 0.64990  0.01892  0.01967  Biso   1.000  C
  C186     1.0000 0.64987  0.01884  0.01967  Biso   1.000  C
  C187     1.0000 0.90817  0.79855  0.48248  Biso   1.000  C
  N103     1.0000 0.91367  0.94262  0.63685  Biso   1.000  N
  C188     1.0000 0.90816  0.79859  0.48240  Biso   1.000  C
  C189     1.0000 0.90820  0.79862  0.48248  Biso   1.000  C
  C190     1.0000 0.90814  0.79851  0.48240  Biso   1.000  C
  N104     1.0000 0.91359  0.94262  0.63685  Biso   1.000  N
  C191     1.0000 0.11229  0.79789  0.49706  Biso   1.000  C
  H173     1.0000 0.23952  0.95948  0.59854  Biso   1.000  H
  H174     1.0000 0.12439  0.96007  0.52055  Biso   1.000  H
  H175     1.0000 0.12442  0.96015  0.52055  Biso   1.000  H
  C192     1.0000 0.83528  0.68338  0.63494  Biso   1.000  C
  O47      1.0000 0.98719  0.13514  0.72814  Biso   1.000  O
  O48      1.0000 0.98713  0.13503  0.72806  Biso   1.000  O
  O49      1.0000 0.98716  0.13506  0.72814  Biso   1.000  O
  O50      1.0000 0.98705  0.13503  0.72806  Biso   1.000  O
  C193     1.0000 0.59656  0.65972  0.85566  Biso   1.000  C
  N105     1.0000 0.59156  0.91377  0.93859  Biso   1.000  N
  H176     1.0000 0.48160  0.77457  0.94838  Biso   1.000  H
  N106     1.0000 0.59159  0.91385  0.93859  Biso   1.000  N
  H177     1.0000 0.48162  0.77465  0.94838  Biso   1.000  H
  H178     1.0000 0.48152  0.77457  0.94838  Biso   1.000  H
  H179     1.0000 0.48154  0.77465  0.94838  Biso   1.000  H
  O51      1.0000 0.67584  0.11019  0.01028  Biso   1.000  O
  H180     1.0000 0.82350  0.74811  0.45731  Biso   1.000  H
  H181     1.0000 0.91350  0.85517  0.45062  Biso   1.000  H
  C194     1.0000 0.97648  0.73034  0.44671  Biso   1.000  C
  H182     1.0000 0.82353  0.74819  0.45731  Biso   1.000  H
  C195     1.0000 0.97651  0.73042  0.44671  Biso   1.000  C
  H183     1.0000 0.82342  0.74811  0.45731  Biso   1.000  H
  H184     1.0000 0.82345  0.74819  0.45731  Biso   1.000  H
  C196     1.0000 0.78783  0.92241  0.60714  Biso   1.000  C
  H185     1.0000 0.14778  0.76264  0.54103  Biso   1.000  H
  H186     1.0000 0.14322  0.79479  0.44114  Biso   1.000  H
  H187     1.0000 0.14780  0.76272  0.54103  Biso   1.000  H
  H188     1.0000 0.14315  0.79479  0.44114  Biso   1.000  H
  H189     1.0000 0.85564  0.62540  0.65406  Biso   1.000  H
  H190     1.0000 0.78762  0.65127  0.55887  Biso   1.000  H
  N107     1.0000 0.76314  0.71329  0.69070  Biso   1.000  N
  H191     1.0000 0.78764  0.65135  0.55887  Biso   1.000  H
  N108     1.0000 0.76313  0.71333  0.69062  Biso   1.000  N
  N109     1.0000 0.76317  0.71336  0.69070  Biso   1.000  N
  N110     1.0000 0.76311  0.71325  0.69062  Biso   1.000  N
  H192     1.0000 0.85557  0.62540  0.65406  Biso   1.000  H
  H193     1.0000 0.50909  0.62632  0.82149  Biso   1.000  H
  H194     1.0000 0.62046  0.60196  0.87144  Biso   1.000  H
  N111     1.0000 0.64640  0.69281  0.78310  Biso   1.000  N
  H195     1.0000 0.62049  0.60204  0.87144  Biso   1.000  H
  N112     1.0000 0.64636  0.69278  0.78302  Biso   1.000  N
  H196     1.0000 0.50901  0.62632  0.82149  Biso   1.000  H
  H197     1.0000 0.62038  0.60196  0.87144  Biso   1.000  H
  N113     1.0000 0.64632  0.69281  0.78310  Biso   1.000  N
  H198     1.0000 0.62041  0.60204  0.87144  Biso   1.000  H
  N114     1.0000 0.64628  0.69278  0.78302  Biso   1.000  N
  C197     1.0000 0.55377  0.89949  0.82659  Biso   1.000  C
  C198     1.0000 0.55380  0.89957  0.82659  Biso   1.000  C
  H199     1.0000 0.95007  0.70466  0.36985  Biso   1.000  H
  H200     1.0000 0.95608  0.66379  0.46503  Biso   1.000  H
  H201     1.0000 0.74340  0.87000  0.53354  Biso   1.000  H
  H202     1.0000 0.78125  0.99330  0.61152  Biso   1.000  H
  N115     1.0000 0.73245  0.87708  0.67174  Biso   1.000  N
  N116     1.0000 0.73248  0.87715  0.67174  Biso   1.000  N
  H203     1.0000 0.78117  0.99330  0.61152  Biso   1.000  H
  N117     1.0000 0.73237  0.87708  0.67174  Biso   1.000  N
  N118     1.0000 0.73240  0.87715  0.67174  Biso   1.000  N
  C199     1.0000 0.67790  0.75709  0.64904  Biso   1.000  C
  C200     1.0000 0.73670  0.66975  0.76406  Biso   1.000  C
  C201     1.0000 0.73673  0.66983  0.76406  Biso   1.000  C
  C202     1.0000 0.60221  0.74906  0.71810  Biso   1.000  C
  C203     1.0000 0.60220  0.74911  0.71802  Biso   1.000  C
  C204     1.0000 0.60231  0.74914  0.71810  Biso   1.000  C
  C205     1.0000 0.60217  0.74903  0.71802  Biso   1.000  C
  C206     1.0000 0.60223  0.74914  0.71810  Biso   1.000  C
  H204     1.0000 0.55466  0.97016  0.82086  Biso   1.000  H
  H205     1.0000 0.47134  0.84199  0.78796  Biso   1.000  H
  N119     1.0000 0.63107  0.86638  0.77673  Biso   1.000  N
  H206     1.0000 0.55469  0.97024  0.82086  Biso   1.000  H
  N120     1.0000 0.63099  0.86638  0.77673  Biso   1.000  N
  C207     1.0000 0.70210  0.93909  0.74462  Biso   1.000  C
  C208     1.0000 0.70218  0.93909  0.74462  Biso   1.000  C
  H207     1.0000 0.62791  0.71285  0.57329  Biso   1.000  H
  H208     1.0000 0.62790  0.71290  0.57321  Biso   1.000  H
  H209     1.0000 0.62793  0.71293  0.57329  Biso   1.000  H
  H210     1.0000 0.62787  0.71282  0.57321  Biso   1.000  H
  O52      1.0000 0.79002  0.61849  0.80476  Biso   1.000  O
  H211     1.0000 0.51570  0.70596  0.67405  Biso   1.000  H
  H212     1.0000 0.51573  0.70604  0.67405  Biso   1.000  H
  O53      1.0000 0.73594  0.04202  0.77744  Biso   1.000  O
  O54      1.0000 0.73591  0.04194  0.77744  Biso   1.000  O
  C209     1.0000 0.29800  0.06099  0.25538  Biso   1.000  C
  O55      1.0000 0.26430  0.95817  0.22264  Biso   1.000  O
  O56      1.0000 0.26428  0.95809  0.22264  Biso   1.000  O
  O57      1.0000 0.26422  0.95817  0.22264  Biso   1.000  O
  N121     1.0000 0.36915  0.13373  0.22335  Biso   1.000  N
  N122     1.0000 0.26777  0.12303  0.32834  Biso   1.000  N
  N123     1.0000 0.36911  0.13370  0.22327  Biso   1.000  N
  N124     1.0000 0.36923  0.13373  0.22335  Biso   1.000  N
  C210     1.0000 0.29812  0.06102  0.25545  Biso   1.000  C
  C211     1.0000 0.29808  0.06099  0.25538  Biso   1.000  C
  C212     1.0000 0.29804  0.06102  0.25545  Biso   1.000  C
  C213     1.0000 0.39801  0.25105  0.28198  Biso   1.000  C
  C214     1.0000 0.44644  0.10062  0.17349  Biso   1.000  C
  C215     1.0000 0.39798  0.25097  0.28198  Biso   1.000  C
  C216     1.0000 0.44641  0.10054  0.17349  Biso   1.000  C
  C217     1.0000 0.39793  0.25105  0.28198  Biso   1.000  C
  C218     1.0000 0.39790  0.25097  0.28198  Biso   1.000  C
  C219     1.0000 0.32231  0.24302  0.35104  Biso   1.000  C
  C220     1.0000 0.21238  0.07770  0.39294  Biso   1.000  C
  C221     1.0000 0.21241  0.07778  0.39294  Biso   1.000  C
  C222     1.0000 0.32223  0.24302  0.35104  Biso   1.000  C
  H213     1.0000 0.48452  0.29415  0.32603  Biso   1.000  H
  N125     1.0000 0.35382  0.30730  0.21698  Biso   1.000  N
  H214     1.0000 0.48449  0.29407  0.32603  Biso   1.000  H
  N126     1.0000 0.35390  0.30730  0.21698  Biso   1.000  N
  H215     1.0000 0.48444  0.29415  0.32603  Biso   1.000  H
  H216     1.0000 0.48441  0.29407  0.32603  Biso   1.000  H
  H217     1.0000 0.44556  0.02994  0.17922  Biso   1.000  H
  H218     1.0000 0.52887  0.15812  0.21212  Biso   1.000  H
  N127     1.0000 0.40865  0.08634  0.06149  Biso   1.000  N
  H219     1.0000 0.44553  0.02987  0.17922  Biso   1.000  H
  N128     1.0000 0.40863  0.08626  0.06149  Biso   1.000  N
  H220     1.0000 0.37231  0.28726  0.42679  Biso   1.000  H
  N129     1.0000 0.23707  0.28682  0.30938  Biso   1.000  N
  H221     1.0000 0.37228  0.28718  0.42679  Biso   1.000  H
  N130     1.0000 0.23705  0.28674  0.30938  Biso   1.000  N
  H222     1.0000 0.25682  0.13011  0.46654  Biso   1.000  H
  H223     1.0000 0.21897  0.00680  0.38856  Biso   1.000  H
  N131     1.0000 0.08655  0.05749  0.36323  Biso   1.000  N
  H224     1.0000 0.21893  0.00677  0.38848  Biso   1.000  H
  H225     1.0000 0.25684  0.13018  0.46654  Biso   1.000  H
  H226     1.0000 0.21896  0.00685  0.38848  Biso   1.000  H
  N132     1.0000 0.08657  0.05757  0.36323  Biso   1.000  N
  H227     1.0000 0.25674  0.13011  0.46654  Biso   1.000  H
  H228     1.0000 0.25676  0.13018  0.46654  Biso   1.000  H
  C223     1.0000 0.26352  0.33036  0.23602  Biso   1.000  C
  C224     1.0000 0.40366  0.34039  0.14442  Biso   1.000  C
  C225     1.0000 0.26349  0.33028  0.23602  Biso   1.000  C
  C226     1.0000 0.40369  0.34047  0.14442  Biso   1.000  C
  C227     1.0000 0.26344  0.33036  0.23602  Biso   1.000  C
  C228     1.0000 0.26341  0.33028  0.23602  Biso   1.000  C
  C229     1.0000 0.35024  0.98119  0.98040  Biso   1.000  C
  C230     1.0000 0.35027  0.98127  0.98040  Biso   1.000  C
  C231     1.0000 0.43185  0.17841  0.02557  Biso   1.000  C
  C232     1.0000 0.43182  0.17833  0.02557  Biso   1.000  C
  C233     1.0000 0.16493  0.31673  0.36514  Biso   1.000  C
  C234     1.0000 0.16485  0.31673  0.36514  Biso   1.000  C
  C235     1.0000 0.99693  0.95053  0.30612  Biso   1.000  C
  C236     1.0000 0.99691  0.95045  0.30612  Biso   1.000  C
  C237     1.0000 0.99686  0.95053  0.30612  Biso   1.000  C
  C238     1.0000 0.99683  0.95045  0.30612  Biso   1.000  C
  C239     1.0000 0.04087  0.14272  0.39676  Biso   1.000  C
  C240     1.0000 0.04084  0.14268  0.39668  Biso   1.000  C
  O58      1.0000 0.21020  0.38162  0.19531  Biso   1.000  O
  O59      1.0000 0.21012  0.38162  0.19531  Biso   1.000  O
  H229     1.0000 0.49112  0.37378  0.17859  Biso   1.000  H
  H230     1.0000 0.37975  0.39815  0.12864  Biso   1.000  H
  N133     1.0000 0.36524  0.24692  0.04548  Biso   1.000  N
  H231     1.0000 0.37969  0.39804  0.12856  Biso   1.000  H
  N134     1.0000 0.36521  0.24684  0.04548  Biso   1.000  N
  H232     1.0000 0.37981  0.39807  0.12864  Biso   1.000  H
  H233     1.0000 0.37980  0.39812  0.12856  Biso   1.000  H
  H234     1.0000 0.37973  0.39807  0.12864  Biso   1.000  H
  H235     1.0000 0.37972  0.39812  0.12856  Biso   1.000  H
  N135     1.0000 0.32873  0.99947  0.88625  Biso   1.000  N
  O60      1.0000 0.32437  0.88992  0.98980  Biso   1.000  O
  N136     1.0000 0.32876  0.99955  0.88625  Biso   1.000  N
  O61      1.0000 0.32440  0.89000  0.98980  Biso   1.000  O
  C241     1.0000 0.37490  0.11733  0.90250  Biso   1.000  C
  C242     1.0000 0.37487  0.11725  0.90250  Biso   1.000  C
  C243     1.0000 0.37482  0.11733  0.90250  Biso   1.000  C
  C244     1.0000 0.37480  0.11725  0.90250  Biso   1.000  C
  H236     1.0000 0.51862  0.22553  0.05170  Biso   1.000  H
  H237     1.0000 0.51859  0.22546  0.05170  Biso   1.000  H
  H238     1.0000 0.14457  0.37471  0.34602  Biso   1.000  H
  H239     1.0000 0.21260  0.34884  0.44121  Biso   1.000  H
  N137     1.0000 0.05338  0.22098  0.34196  Biso   1.000  N
  N138     1.0000 0.05332  0.22087  0.34188  Biso   1.000  N
  N139     1.0000 0.05344  0.22090  0.34196  Biso   1.000  N
  N140     1.0000 0.05343  0.22095  0.34188  Biso   1.000  N
  N141     1.0000 0.05336  0.22090  0.34196  Biso   1.000  N
  N142     1.0000 0.05335  0.22095  0.34188  Biso   1.000  N
  O62      1.0000 0.01305  0.86505  0.27194  Biso   1.000  O
  N143     1.0000 0.88893  0.95453  0.29791  Biso   1.000  N
  N144     1.0000 0.88890  0.95445  0.29791  Biso   1.000  N
  N145     1.0000 0.88885  0.95453  0.29791  Biso   1.000  N
  N146     1.0000 0.88882  0.95445  0.29791  Biso   1.000  N
  O63      1.0000 0.01303  0.86497  0.27194  Biso   1.000  O
  C245     1.0000 0.90027  0.06925  0.34833  Biso   1.000  C
  C246     1.0000 0.90025  0.06917  0.34833  Biso   1.000  C
  C247     1.0000 0.09204  0.20156  0.51760  Biso   1.000  C
  C248     1.0000 0.09202  0.20148  0.51760  Biso   1.000  C
  C249     1.0000 0.09196  0.20156  0.51760  Biso   1.000  C
  C250     1.0000 0.09194  0.20148  0.51760  Biso   1.000  C
  C251     1.0000 0.28129  0.23602  0.95340  Biso   1.000  C
  C252     1.0000 0.28126  0.23594  0.95340  Biso   1.000  C
  C253     1.0000 0.27120  0.90887  0.78334  Biso   1.000  C
  C254     1.0000 0.27123  0.90895  0.78334  Biso   1.000  C
  H240     1.0000 0.43527  0.13658  0.87168  Biso   1.000  H
  N147     1.0000 0.28385  0.15977  0.86937  Biso   1.000  N
  H241     1.0000 0.43524  0.13650  0.87168  Biso   1.000  H
  N148     1.0000 0.28383  0.15969  0.86937  Biso   1.000  N
  H242     1.0000 0.43519  0.13658  0.87168  Biso   1.000  H
  C255     1.0000 0.94538  0.20582  0.27051  Biso   1.000  C
  C256     1.0000 0.77667  0.85418  0.23968  Biso   1.000  C
  C257     1.0000 0.77664  0.85411  0.23968  Biso   1.000  C
  C258     1.0000 0.84830  0.07811  0.43476  Biso   1.000  C
  N149     1.0000 0.85536  0.11671  0.27162  Biso   1.000  N
  C259     1.0000 0.84832  0.07819  0.43476  Biso   1.000  C
  H243     1.0000 0.17672  0.25199  0.54277  Biso   1.000  H
  H244     1.0000 0.08671  0.14494  0.54946  Biso   1.000  H
  C260     1.0000 0.02373  0.26977  0.55337  Biso   1.000  C
  H245     1.0000 0.17665  0.25188  0.54269  Biso   1.000  H
  C261     1.0000 0.02371  0.26969  0.55337  Biso   1.000  C
  H246     1.0000 0.17669  0.25192  0.54277  Biso   1.000  H
  H247     1.0000 0.17668  0.25196  0.54269  Biso   1.000  H
  O64      1.0000 0.21534  0.28598  0.94775  Biso   1.000  O
  O65      1.0000 0.21531  0.28590  0.94775  Biso   1.000  O
  H248     1.0000 0.31461  0.92912  0.73937  Biso   1.000  H
  H249     1.0000 0.27694  0.84109  0.79178  Biso   1.000  H
  N150     1.0000 0.14485  0.88340  0.72845  Biso   1.000  N
  H250     1.0000 0.27696  0.84117  0.79178  Biso   1.000  H
  N151     1.0000 0.14477  0.88340  0.72845  Biso   1.000  N
  C262     1.0000 0.22358  0.14600  0.76040  Biso   1.000  C
  C263     1.0000 0.22354  0.14597  0.76032  Biso   1.000  C
  C264     1.0000 0.22351  0.14589  0.76032  Biso   1.000  C
  O66      1.0000 0.93146  0.26202  0.21730  Biso   1.000  O
  H251     1.0000 0.72282  0.85729  0.27648  Biso   1.000  H
  H252     1.0000 0.79281  0.78811  0.23928  Biso   1.000  H
  N152     1.0000 0.71639  0.84042  0.13071  Biso   1.000  N
  H253     1.0000 0.72279  0.85721  0.27648  Biso   1.000  H
  H254     1.0000 0.79278  0.78803  0.23928  Biso   1.000  H
  N153     1.0000 0.71636  0.84034  0.13071  Biso   1.000  N
  H255     1.0000 0.72274  0.85729  0.27648  Biso   1.000  H
  H256     1.0000 0.79273  0.78811  0.23928  Biso   1.000  H
  H257     1.0000 0.72271  0.85721  0.27648  Biso   1.000  H
  H258     1.0000 0.79270  0.78803  0.23928  Biso   1.000  H
  C265     1.0000 0.88793  0.20222  0.50302  Biso   1.000  C
  H259     1.0000 0.76070  0.04063  0.40154  Biso   1.000  H
  H260     1.0000 0.87582  0.04004  0.47953  Biso   1.000  H
  H261     1.0000 0.87580  0.03996  0.47953  Biso   1.000  H
  C266     1.0000 0.88785  0.20222  0.50302  Biso   1.000  C
  H262     1.0000 0.87574  0.04004  0.47953  Biso   1.000  H
  C267     1.0000 0.72902  0.09124  0.21674  Biso   1.000  C
  C268     1.0000 0.72899  0.09116  0.21674  Biso   1.000  C
  C269     1.0000 0.72894  0.09124  0.21674  Biso   1.000  C
  C270     1.0000 0.72891  0.09116  0.21674  Biso   1.000  C
  H263     1.0000 0.05015  0.29544  0.63023  Biso   1.000  H
  H264     1.0000 0.04414  0.33632  0.53505  Biso   1.000  H
  H265     1.0000 0.05007  0.29544  0.63023  Biso   1.000  H
  H266     1.0000 0.04406  0.33632  0.53505  Biso   1.000  H
  C271     1.0000 0.09994  0.93086  0.65175  Biso   1.000  C
  C272     1.0000 0.05484  0.79429  0.72957  Biso   1.000  C
  C273     1.0000 0.09997  0.93093  0.65175  Biso   1.000  C
  C274     1.0000 0.09986  0.93086  0.65175  Biso   1.000  C
  C275     1.0000 0.09989  0.93093  0.65175  Biso   1.000  C
  H267     1.0000 0.27742  0.14290  0.72360  Biso   1.000  H
  H268     1.0000 0.20744  0.21208  0.76079  Biso   1.000  H
  N154     1.0000 0.11131  0.04566  0.70217  Biso   1.000  N
  H269     1.0000 0.27739  0.14287  0.72352  Biso   1.000  H
  H270     1.0000 0.27736  0.14279  0.72352  Biso   1.000  H
  C276     1.0000 0.71896  0.76417  0.04668  Biso   1.000  C
  C277     1.0000 0.62534  0.88286  0.09758  Biso   1.000  C
  C278     1.0000 0.71893  0.76409  0.04668  Biso   1.000  C
  C279     1.0000 0.62531  0.88278  0.09758  Biso   1.000  C
  H271     1.0000 0.85244  0.23747  0.45905  Biso   1.000  H
  H272     1.0000 0.85699  0.20532  0.55894  Biso   1.000  H
  H273     1.0000 0.85241  0.23739  0.45905  Biso   1.000  H
  H274     1.0000 0.68560  0.07099  0.26071  Biso   1.000  H
  H275     1.0000 0.72328  0.15902  0.20830  Biso   1.000  H
  N155     1.0000 0.67148  0.00064  0.11383  Biso   1.000  N
  N156     1.0000 0.67145  0.00056  0.11383  Biso   1.000  N
  H276     1.0000 0.68553  0.07099  0.26071  Biso   1.000  H
  C280     1.0000 0.95934  0.85739  0.60332  Biso   1.000  C
  C281     1.0000 0.95926  0.85739  0.60332  Biso   1.000  C
  C282     1.0000 0.15192  0.92200  0.56532  Biso   1.000  C
  N157     1.0000 0.94683  0.77913  0.65812  Biso   1.000  N
  N158     1.0000 0.94678  0.77921  0.65812  Biso   1.000  N
  N159     1.0000 0.94686  0.77921  0.65812  Biso   1.000  N
  N160     1.0000 0.94675  0.77913  0.65812  Biso   1.000  N
  O67      1.0000 0.06875  0.73809  0.78278  Biso   1.000  O
  O68      1.0000 0.06878  0.73817  0.78278  Biso   1.000  O
  O69      1.0000 0.06870  0.73817  0.78278  Biso   1.000  O
  C283     1.0000 0.00331  0.04966  0.69396  Biso   1.000  C
  C284     1.0000 0.00328  0.04958  0.69396  Biso   1.000  C
  N161     1.0000 0.63498  0.75319  0.95460  Biso   1.000  N
  N162     1.0000 0.63500  0.75327  0.95460  Biso   1.000  N
  O70      1.0000 0.78490  0.71420  0.05233  Biso   1.000  O
  O71      1.0000 0.78488  0.71413  0.05233  Biso   1.000  O
  O72      1.0000 0.78483  0.71420  0.05233  Biso   1.000  O
  O73      1.0000 0.78480  0.71413  0.05233  Biso   1.000  O
  C285     1.0000 0.56837  0.82170  0.97451  Biso   1.000  C
  C286     1.0000 0.56840  0.82178  0.97451  Biso   1.000  C
  H277     1.0000 0.56497  0.86360  0.12840  Biso   1.000  H
  H278     1.0000 0.56494  0.86353  0.12840  Biso   1.000  H
  C287     1.0000 0.64997  0.01892  0.01967  Biso   1.000  C
  C288     1.0000 0.64995  0.01884  0.01967  Biso   1.000  C
  C289     1.0000 0.64990  0.01892  0.01967  Biso   1.000  C
  C290     1.0000 0.64987  0.01884  0.01967  Biso   1.000  C
  C291     1.0000 0.90817  0.79855  0.48248  Biso   1.000  C
  N163     1.0000 0.91367  0.94262  0.63685  Biso   1.000  N
  C292     1.0000 0.90816  0.79859  0.48240  Biso   1.000  C
  C293     1.0000 0.90820  0.79862  0.48248  Biso   1.000  C
  C294     1.0000 0.90814  0.79851  0.48240  Biso   1.000  C
  N164     1.0000 0.91359  0.94262  0.63685  Biso   1.000  N
  C295     1.0000 0.11229  0.79789  0.49706  Biso   1.000  C
  H279     1.0000 0.23952  0.95948  0.59854  Biso   1.000  H
  H280     1.0000 0.12439  0.96007  0.52055  Biso   1.000  H
  H281     1.0000 0.12442  0.96015  0.52055  Biso   1.000  H
  C296     1.0000 0.83528  0.68338  0.63494  Biso   1.000  C
  O74      1.0000 0.98719  0.13514  0.72814  Biso   1.000  O
  O75      1.0000 0.98713  0.13503  0.72806  Biso   1.000  O
  O76      1.0000 0.98716  0.13506  0.72814  Biso   1.000  O
  O77      1.0000 0.98705  0.13503  0.72806  Biso   1.000  O
  C297     1.0000 0.59656  0.65972  0.85566  Biso   1.000  C
  N165     1.0000 0.59156  0.91377  0.93859  Biso   1.000  N
  H282     1.0000 0.48160  0.77457  0.94838  Biso   1.000  H
  N166     1.0000 0.59159  0.91385  0.93859  Biso   1.000  N
  H283     1.0000 0.48162  0.77465  0.94838  Biso   1.000  H
  H284     1.0000 0.48152  0.77457  0.94838  Biso   1.000  H
  H285     1.0000 0.48154  0.77465  0.94838  Biso   1.000  H
  O78      1.0000 0.67584  0.11019  0.01028  Biso   1.000  O
  H286     1.0000 0.82350  0.74811  0.45731  Biso   1.000  H
  H287     1.0000 0.91350  0.85517  0.45062  Biso   1.000  H
  C298     1.0000 0.97648  0.73034  0.44671  Biso   1.000  C
  H288     1.0000 0.82353  0.74819  0.45731  Biso   1.000  H
  C299     1.0000 0.97651  0.73042  0.44671  Biso   1.000  C
  H289     1.0000 0.82342  0.74811  0.45731  Biso   1.000  H
  H290     1.0000 0.82345  0.74819  0.45731  Biso   1.000  H
  C300     1.0000 0.78783  0.92241  0.60714  Biso   1.000  C
  H291     1.0000 0.14778  0.76264  0.54103  Biso   1.000  H
  H292     1.0000 0.14322  0.79479  0.44114  Biso   1.000  H
  H293     1.0000 0.14780  0.76272  0.54103  Biso   1.000  H
  H294     1.0000 0.14315  0.79479  0.44114  Biso   1.000  H
  H295     1.0000 0.85564  0.62540  0.65406  Biso   1.000  H
  H296     1.0000 0.78762  0.65127  0.55887  Biso   1.000  H
  N167     1.0000 0.76314  0.71329  0.69070  Biso   1.000  N
  H297     1.0000 0.78764  0.65135  0.55887  Biso   1.000  H
  N168     1.0000 0.76313  0.71333  0.69062  Biso   1.000  N
  N169     1.0000 0.76317  0.71336  0.69070  Biso   1.000  N
  N170     1.0000 0.76311  0.71325  0.69062  Biso   1.000  N
  H298     1.0000 0.85557  0.62540  0.65406  Biso   1.000  H
  H299     1.0000 0.50909  0.62632  0.82149  Biso   1.000  H
  H300     1.0000 0.62046  0.60196  0.87144  Biso   1.000  H
  N171     1.0000 0.64640  0.69281  0.78310  Biso   1.000  N
  H301     1.0000 0.62049  0.60204  0.87144  Biso   1.000  H
  N172     1.0000 0.64636  0.69278  0.78302  Biso   1.000  N
  H302     1.0000 0.50901  0.62632  0.82149  Biso   1.000  H
  H303     1.0000 0.62038  0.60196  0.87144  Biso   1.000  H
  N173     1.0000 0.64632  0.69281  0.78310  Biso   1.000  N
  H304     1.0000 0.62041  0.60204  0.87144  Biso   1.000  H
  N174     1.0000 0.64628  0.69278  0.78302  Biso   1.000  N
  C301     1.0000 0.55377  0.89949  0.82659  Biso   1.000  C
  C302     1.0000 0.55380  0.89957  0.82659  Biso   1.000  C
  H305     1.0000 0.95007  0.70466  0.36985  Biso   1.000  H
  H306     1.0000 0.95608  0.66379  0.46503  Biso   1.000  H
  H307     1.0000 0.74340  0.87000  0.53354  Biso   1.000  H
  H308     1.0000 0.78125  0.99330  0.61152  Biso   1.000  H
  N175     1.0000 0.73245  0.87708  0.67174  Biso   1.000  N
  N176     1.0000 0.73248  0.87715  0.67174  Biso   1.000  N
  H309     1.0000 0.78117  0.99330  0.61152  Biso   1.000  H
  N177     1.0000 0.73237  0.87708  0.67174  Biso   1.000  N
  N178     1.0000 0.73240  0.87715  0.67174  Biso   1.000  N
  C303     1.0000 0.67790  0.75709  0.64904  Biso   1.000  C
  C304     1.0000 0.73670  0.66975  0.76406  Biso   1.000  C
  C305     1.0000 0.73673  0.66983  0.76406  Biso   1.000  C
  C306     1.0000 0.60221  0.74906  0.71810  Biso   1.000  C
  C307     1.0000 0.60220  0.74911  0.71802  Biso   1.000  C
  C308     1.0000 0.60231  0.74914  0.71810  Biso   1.000  C
  C309     1.0000 0.60217  0.74903  0.71802  Biso   1.000  C
  C310     1.0000 0.60223  0.74914  0.71810  Biso   1.000  C
  H310     1.0000 0.55466  0.97016  0.82086  Biso   1.000  H
  H311     1.0000 0.47134  0.84199  0.78796  Biso   1.000  H
  N179     1.0000 0.63107  0.86638  0.77673  Biso   1.000  N
  H312     1.0000 0.55469  0.97024  0.82086  Biso   1.000  H
  N180     1.0000 0.63099  0.86638  0.77673  Biso   1.000  N
  C311     1.0000 0.70210  0.93909  0.74462  Biso   1.000  C
  C312     1.0000 0.70218  0.93909  0.74462  Biso   1.000  C
  H313     1.0000 0.62791  0.71285  0.57329  Biso   1.000  H
  H314     1.0000 0.62790  0.71290  0.57321  Biso   1.000  H
  H315     1.0000 0.62793  0.71293  0.57329  Biso   1.000  H
  H316     1.0000 0.62787  0.71282  0.57321  Biso   1.000  H
  O79      1.0000 0.79002  0.61849  0.80476  Biso   1.000  O
  H317     1.0000 0.51570  0.70596  0.67405  Biso   1.000  H
  H318     1.0000 0.51573  0.70604  0.67405  Biso   1.000  H
  O80      1.0000 0.73594  0.04202  0.77744  Biso   1.000  O
  O81      1.0000 0.73591  0.04194  0.77744  Biso   1.000  O
  C313     1.0000 0.29800  0.06099  0.25538  Biso   1.000  C
  O82      1.0000 0.26430  0.95817  0.22264  Biso   1.000  O
  O83      1.0000 0.26428  0.95809  0.22264  Biso   1.000  O
  O84      1.0000 0.26422  0.95817  0.22264  Biso   1.000  O
  N181     1.0000 0.36915  0.13373  0.22335  Biso   1.000  N
  N182     1.0000 0.26777  0.12303  0.32834  Biso   1.000  N
  N183     1.0000 0.36911  0.13370  0.22327  Biso   1.000  N
  N184     1.0000 0.36923  0.13373  0.22335  Biso   1.000  N
  C314     1.0000 0.29812  0.06102  0.25545  Biso   1.000  C
  C315     1.0000 0.29808  0.06099  0.25538  Biso   1.000  C
  C316     1.0000 0.29804  0.06102  0.25545  Biso   1.000  C
  C317     1.0000 0.39801  0.25105  0.28198  Biso   1.000  C
  C318     1.0000 0.44644  0.10062  0.17349  Biso   1.000  C
  C319     1.0000 0.39798  0.25097  0.28198  Biso   1.000  C
  C320     1.0000 0.44641  0.10054  0.17349  Biso   1.000  C
  C321     1.0000 0.39793  0.25105  0.28198  Biso   1.000  C
  C322     1.0000 0.39790  0.25097  0.28198  Biso   1.000  C
  C323     1.0000 0.32231  0.24302  0.35104  Biso   1.000  C
  C324     1.0000 0.21238  0.07770  0.39294  Biso   1.000  C
  C325     1.0000 0.21241  0.07778  0.39294  Biso   1.000  C
  C326     1.0000 0.32223  0.24302  0.35104  Biso   1.000  C
  H319     1.0000 0.48452  0.29415  0.32603  Biso   1.000  H
  N185     1.0000 0.35382  0.30730  0.21698  Biso   1.000  N
  H320     1.0000 0.48449  0.29407  0.32603  Biso   1.000  H
  N186     1.0000 0.35390  0.30730  0.21698  Biso   1.000  N
  H321     1.0000 0.48444  0.29415  0.32603  Biso   1.000  H
  H322     1.0000 0.48441  0.29407  0.32603  Biso   1.000  H
  H323     1.0000 0.44556  0.02994  0.17922  Biso   1.000  H
  H324     1.0000 0.52887  0.15812  0.21212  Biso   1.000  H
  N187     1.0000 0.40865  0.08634  0.06149  Biso   1.000  N
  H325     1.0000 0.44553  0.02987  0.17922  Biso   1.000  H
  N188     1.0000 0.40863  0.08626  0.06149  Biso   1.000  N
  H326     1.0000 0.37231  0.28726  0.42679  Biso   1.000  H
  N189     1.0000 0.23707  0.28682  0.30938  Biso   1.000  N
  H327     1.0000 0.37228  0.28718  0.42679  Biso   1.000  H
  N190     1.0000 0.23705  0.28674  0.30938  Biso   1.000  N
  H328     1.0000 0.25682  0.13011  0.46654  Biso   1.000  H
  H329     1.0000 0.21897  0.00680  0.38856  Biso   1.000  H
  N191     1.0000 0.08655  0.05749  0.36323  Biso   1.000  N
  H330     1.0000 0.21893  0.00677  0.38848  Biso   1.000  H
  H331     1.0000 0.25684  0.13018  0.46654  Biso   1.000  H
  H332     1.0000 0.21896  0.00685  0.38848  Biso   1.000  H
  N192     1.0000 0.08657  0.05757  0.36323  Biso   1.000  N
  H333     1.0000 0.25674  0.13011  0.46654  Biso   1.000  H
  H334     1.0000 0.25676  0.13018  0.46654  Biso   1.000  H
  C327     1.0000 0.26352  0.33036  0.23602  Biso   1.000  C
  C328     1.0000 0.40366  0.34039  0.14442  Biso   1.000  C
  C329     1.0000 0.26349  0.33028  0.23602  Biso   1.000  C
  C330     1.0000 0.40369  0.34047  0.14442  Biso   1.000  C
  C331     1.0000 0.26344  0.33036  0.23602  Biso   1.000  C
  C332     1.0000 0.26341  0.33028  0.23602  Biso   1.000  C
  C333     1.0000 0.35024  0.98119  0.98040  Biso   1.000  C
  C334     1.0000 0.35027  0.98127  0.98040  Biso   1.000  C
  C335     1.0000 0.43185  0.17841  0.02557  Biso   1.000  C
  C336     1.0000 0.43182  0.17833  0.02557  Biso   1.000  C
  C337     1.0000 0.16493  0.31673  0.36514  Biso   1.000  C
  C338     1.0000 0.16485  0.31673  0.36514  Biso   1.000  C
  C339     1.0000 0.99693  0.95053  0.30612  Biso   1.000  C
  C340     1.0000 0.99691  0.95045  0.30612  Biso   1.000  C
  C341     1.0000 0.99686  0.95053  0.30612  Biso   1.000  C
  C342     1.0000 0.99683  0.95045  0.30612  Biso   1.000  C
  C343     1.0000 0.04087  0.14272  0.39676  Biso   1.000  C
  C344     1.0000 0.04084  0.14268  0.39668  Biso   1.000  C
  O85      1.0000 0.21020  0.38162  0.19531  Biso   1.000  O
  O86      1.0000 0.21012  0.38162  0.19531  Biso   1.000  O
  H335     1.0000 0.49112  0.37378  0.17859  Biso   1.000  H
  H336     1.0000 0.37975  0.39815  0.12864  Biso   1.000  H
  N193     1.0000 0.36524  0.24692  0.04548  Biso   1.000  N
  H337     1.0000 0.37969  0.39804  0.12856  Biso   1.000  H
  N194     1.0000 0.36521  0.24684  0.04548  Biso   1.000  N
  H338     1.0000 0.37981  0.39807  0.12864  Biso   1.000  H
  H339     1.0000 0.37980  0.39812  0.12856  Biso   1.000  H
  H340     1.0000 0.37973  0.39807  0.12864  Biso   1.000  H
  H341     1.0000 0.37972  0.39812  0.12856  Biso   1.000  H
  N195     1.0000 0.32873  0.99947  0.88625  Biso   1.000  N
  O87      1.0000 0.32437  0.88992  0.98980  Biso   1.000  O
  N196     1.0000 0.32876  0.99955  0.88625  Biso   1.000  N
  O88      1.0000 0.32440  0.89000  0.98980  Biso   1.000  O
  C345     1.0000 0.37490  0.11733  0.90250  Biso   1.000  C
  C346     1.0000 0.37487  0.11725  0.90250  Biso   1.000  C
  C347     1.0000 0.37482  0.11733  0.90250  Biso   1.000  C
  C348     1.0000 0.37480  0.11725  0.90250  Biso   1.000  C
  H342     1.0000 0.51862  0.22553  0.05170  Biso   1.000  H
  H343     1.0000 0.51859  0.22546  0.05170  Biso   1.000  H
  H344     1.0000 0.14457  0.37471  0.34602  Biso   1.000  H
  H345     1.0000 0.21260  0.34884  0.44121  Biso   1.000  H
  N197     1.0000 0.05338  0.22098  0.34196  Biso   1.000  N
  N198     1.0000 0.05332  0.22087  0.34188  Biso   1.000  N
  N199     1.0000 0.05344  0.22090  0.34196  Biso   1.000  N
  N200     1.0000 0.05343  0.22095  0.34188  Biso   1.000  N
  N201     1.0000 0.05336  0.22090  0.34196  Biso   1.000  N
  N202     1.0000 0.05335  0.22095  0.34188  Biso   1.000  N
  O89      1.0000 0.01305  0.86505  0.27194  Biso   1.000  O
  N203     1.0000 0.88893  0.95453  0.29791  Biso   1.000  N
  N204     1.0000 0.88890  0.95445  0.29791  Biso   1.000  N
  N205     1.0000 0.88885  0.95453  0.29791  Biso   1.000  N
  N206     1.0000 0.88882  0.95445  0.29791  Biso   1.000  N
  O90      1.0000 0.01303  0.86497  0.27194  Biso   1.000  O
  C349     1.0000 0.90027  0.06925  0.34833  Biso   1.000  C
  C350     1.0000 0.90025  0.06917  0.34833  Biso   1.000  C
  C351     1.0000 0.09204  0.20156  0.51760  Biso   1.000  C
  C352     1.0000 0.09202  0.20148  0.51760  Biso   1.000  C
  C353     1.0000 0.09196  0.20156  0.51760  Biso   1.000  C
  C354     1.0000 0.09194  0.20148  0.51760  Biso   1.000  C
  C355     1.0000 0.28129  0.23602  0.95340  Biso   1.000  C
  C356     1.0000 0.28126  0.23594  0.95340  Biso   1.000  C
  C357     1.0000 0.27120  0.90887  0.78334  Biso   1.000  C
  C358     1.0000 0.27123  0.90895  0.78334  Biso   1.000  C
  H346     1.0000 0.43527  0.13658  0.87168  Biso   1.000  H
  N207     1.0000 0.28385  0.15977  0.86937  Biso   1.000  N
  H347     1.0000 0.43524  0.13650  0.87168  Biso   1.000  H
  N208     1.0000 0.28383  0.15969  0.86937  Biso   1.000  N
  H348     1.0000 0.43519  0.13658  0.87168  Biso   1.000  H
  C359     1.0000 0.94538  0.20582  0.27051  Biso   1.000  C
  C360     1.0000 0.77667  0.85418  0.23968  Biso   1.000  C
  C361     1.0000 0.77664  0.85411  0.23968  Biso   1.000  C
  C362     1.0000 0.84830  0.07811  0.43476  Biso   1.000  C
  N209     1.0000 0.85536  0.11671  0.27162  Biso   1.000  N
  C363     1.0000 0.84832  0.07819  0.43476  Biso   1.000  C
  H349     1.0000 0.17672  0.25199  0.54277  Biso   1.000  H
  H350     1.0000 0.08671  0.14494  0.54946  Biso   1.000  H
  C364     1.0000 0.02373  0.26977  0.55337  Biso   1.000  C
  H351     1.0000 0.17665  0.25188  0.54269  Biso   1.000  H
  C365     1.0000 0.02371  0.26969  0.55337  Biso   1.000  C
  H352     1.0000 0.17669  0.25192  0.54277  Biso   1.000  H
  H353     1.0000 0.17668  0.25196  0.54269  Biso   1.000  H
  O91      1.0000 0.21534  0.28598  0.94775  Biso   1.000  O
  O92      1.0000 0.21531  0.28590  0.94775  Biso   1.000  O
  H354     1.0000 0.31461  0.92912  0.73937  Biso   1.000  H
  H355     1.0000 0.27694  0.84109  0.79178  Biso   1.000  H
  N210     1.0000 0.14485  0.88340  0.72845  Biso   1.000  N
  H356     1.0000 0.27696  0.84117  0.79178  Biso   1.000  H
  N211     1.0000 0.14477  0.88340  0.72845  Biso   1.000  N
  C366     1.0000 0.22358  0.14600  0.76040  Biso   1.000  C
  C367     1.0000 0.22354  0.14597  0.76032  Biso   1.000  C
  C368     1.0000 0.22351  0.14589  0.76032  Biso   1.000  C
  O93      1.0000 0.93146  0.26202  0.21730  Biso   1.000  O
  H357     1.0000 0.72282  0.85729  0.27648  Biso   1.000  H
  H358     1.0000 0.79281  0.78811  0.23928  Biso   1.000  H
  N212     1.0000 0.71639  0.84042  0.13071  Biso   1.000  N
  H359     1.0000 0.72279  0.85721  0.27648  Biso   1.000  H
  H360     1.0000 0.79278  0.78803  0.23928  Biso   1.000  H
  N213     1.0000 0.71636  0.84034  0.13071  Biso   1.000  N
  H361     1.0000 0.72274  0.85729  0.27648  Biso   1.000  H
  H362     1.0000 0.79273  0.78811  0.23928  Biso   1.000  H
  H363     1.0000 0.72271  0.85721  0.27648  Biso   1.000  H
  H364     1.0000 0.79270  0.78803  0.23928  Biso   1.000  H
  C369     1.0000 0.88793  0.20222  0.50302  Biso   1.000  C
  H365     1.0000 0.76070  0.04063  0.40154  Biso   1.000  H
  H366     1.0000 0.87582  0.04004  0.47953  Biso   1.000  H
  H367     1.0000 0.87580  0.03996  0.47953  Biso   1.000  H
  C370     1.0000 0.88785  0.20222  0.50302  Biso   1.000  C
  H368     1.0000 0.87574  0.04004  0.47953  Biso   1.000  H
  C371     1.0000 0.72902  0.09124  0.21674  Biso   1.000  C
  C372     1.0000 0.72899  0.09116  0.21674  Biso   1.000  C
  C373     1.0000 0.72894  0.09124  0.21674  Biso   1.000  C
  C374     1.0000 0.72891  0.09116  0.21674  Biso   1.000  C
  H369     1.0000 0.05015  0.29544  0.63023  Biso   1.000  H
  H370     1.0000 0.04414  0.33632  0.53505  Biso   1.000  H
  H371     1.0000 0.05007  0.29544  0.63023  Biso   1.000  H
  H372     1.0000 0.04406  0.33632  0.53505  Biso   1.000  H
  C375     1.0000 0.09994  0.93086  0.65175  Biso   1.000  C
  C376     1.0000 0.05484  0.79429  0.72957  Biso   1.000  C
  C377     1.0000 0.09997  0.93093  0.65175  Biso   1.000  C
  C378     1.0000 0.09986  0.93086  0.65175  Biso   1.000  C
  C379     1.0000 0.09989  0.93093  0.65175  Biso   1.000  C
  H373     1.0000 0.27742  0.14290  0.72360  Biso   1.000  H
  H374     1.0000 0.20744  0.21208  0.76079  Biso   1.000  H
  N214     1.0000 0.11131  0.04566  0.70217  Biso   1.000  N
  H375     1.0000 0.27739  0.14287  0.72352  Biso   1.000  H
  H376     1.0000 0.27736  0.14279  0.72352  Biso   1.000  H
  C380     1.0000 0.71896  0.76417  0.04668  Biso   1.000  C
  C381     1.0000 0.62534  0.88286  0.09758  Biso   1.000  C
  C382     1.0000 0.71893  0.76409  0.04668  Biso   1.000  C
  C383     1.0000 0.62531  0.88278  0.09758  Biso   1.000  C
  H377     1.0000 0.85244  0.23747  0.45905  Biso   1.000  H
  H378     1.0000 0.85699  0.20532  0.55894  Biso   1.000  H
  H379     1.0000 0.85241  0.23739  0.45905  Biso   1.000  H
  H380     1.0000 0.68560  0.07099  0.26071  Biso   1.000  H
  H381     1.0000 0.72328  0.15902  0.20830  Biso   1.000  H
  N215     1.0000 0.67148  0.00064  0.11383  Biso   1.000  N
  N216     1.0000 0.67145  0.00056  0.11383  Biso   1.000  N
  H382     1.0000 0.68553  0.07099  0.26071  Biso   1.000  H
  C384     1.0000 0.95934  0.85739  0.60332  Biso   1.000  C
  C385     1.0000 0.95926  0.85739  0.60332  Biso   1.000  C
  C386     1.0000 0.15192  0.92200  0.56532  Biso   1.000  C
  N217     1.0000 0.94683  0.77913  0.65812  Biso   1.000  N
  N218     1.0000 0.94678  0.77921  0.65812  Biso   1.000  N
  N219     1.0000 0.94686  0.77921  0.65812  Biso   1.000  N
  N220     1.0000 0.94675  0.77913  0.65812  Biso   1.000  N
  O94      1.0000 0.06875  0.73809  0.78278  Biso   1.000  O
  O95      1.0000 0.06878  0.73817  0.78278  Biso   1.000  O
  O96      1.0000 0.06870  0.73817  0.78278  Biso   1.000  O
  C387     1.0000 0.00331  0.04966  0.69396  Biso   1.000  C
  C388     1.0000 0.00328  0.04958  0.69396  Biso   1.000  C
  N221     1.0000 0.63498  0.75319  0.95460  Biso   1.000  N
  N222     1.0000 0.63500  0.75327  0.95460  Biso   1.000  N
  O97      1.0000 0.78490  0.71420  0.05233  Biso   1.000  O
  O98      1.0000 0.78488  0.71413  0.05233  Biso   1.000  O
  O99      1.0000 0.78483  0.71420  0.05233  Biso   1.000  O
  O100     1.0000 0.78480  0.71413  0.05233  Biso   1.000  O
  C389     1.0000 0.56837  0.82170  0.97451  Biso   1.000  C
  C390     1.0000 0.56840  0.82178  0.97451  Biso   1.000  C
  H383     1.0000 0.56497  0.86360  0.12840  Biso   1.000  H
  H384     1.0000 0.56494  0.86353  0.12840  Biso   1.000  H
  C391     1.0000 0.64997  0.01892  0.01967  Biso   1.000  C
  C392     1.0000 0.64995  0.01884  0.01967  Biso   1.000  C
  C393     1.0000 0.64990  0.01892  0.01967  Biso   1.000  C
  C394     1.0000 0.64987  0.01884  0.01967  Biso   1.000  C
  C395     1.0000 0.90817  0.79855  0.48248  Biso   1.000  C
  N223     1.0000 0.91367  0.94262  0.63685  Biso   1.000  N
  C396     1.0000 0.90816  0.79859  0.48240  Biso   1.000  C
  C397     1.0000 0.90820  0.79862  0.48248  Biso   1.000  C
  C398     1.0000 0.90814  0.79851  0.48240  Biso   1.000  C
  N224     1.0000 0.91359  0.94262  0.63685  Biso   1.000  N
  C399     1.0000 0.11229  0.79789  0.49706  Biso   1.000  C
  H385     1.0000 0.23952  0.95948  0.59854  Biso   1.000  H
  H386     1.0000 0.12439  0.96007  0.52055  Biso   1.000  H
  H387     1.0000 0.12442  0.96015  0.52055  Biso   1.000  H
  C400     1.0000 0.83528  0.68338  0.63494  Biso   1.000  C
  O101     1.0000 0.98719  0.13514  0.72814  Biso   1.000  O
  O102     1.0000 0.98713  0.13503  0.72806  Biso   1.000  O
  O103     1.0000 0.98716  0.13506  0.72814  Biso   1.000  O
  O104     1.0000 0.98705  0.13503  0.72806  Biso   1.000  O
  C401     1.0000 0.59656  0.65972  0.85566  Biso   1.000  C
  N225     1.0000 0.59156  0.91377  0.93859  Biso   1.000  N
  H388     1.0000 0.48160  0.77457  0.94838  Biso   1.000  H
  N226     1.0000 0.59159  0.91385  0.93859  Biso   1.000  N
  H389     1.0000 0.48162  0.77465  0.94838  Biso   1.000  H
  H390     1.0000 0.48152  0.77457  0.94838  Biso   1.000  H
  H391     1.0000 0.48154  0.77465  0.94838  Biso   1.000  H
  O105     1.0000 0.67584  0.11019  0.01028  Biso   1.000  O
  H392     1.0000 0.82350  0.74811  0.45731  Biso   1.000  H
  H393     1.0000 0.91350  0.85517  0.45062  Biso   1.000  H
  C402     1.0000 0.97648  0.73034  0.44671  Biso   1.000  C
  H394     1.0000 0.82353  0.74819  0.45731  Biso   1.000  H
  C403     1.0000 0.97651  0.73042  0.44671  Biso   1.000  C
  H395     1.0000 0.82342  0.74811  0.45731  Biso   1.000  H
  H396     1.0000 0.82345  0.74819  0.45731  Biso   1.000  H
  C404     1.0000 0.78783  0.92241  0.60714  Biso   1.000  C
  H397     1.0000 0.14778  0.76264  0.54103  Biso   1.000  H
  H398     1.0000 0.14322  0.79479  0.44114  Biso   1.000  H
  H399     1.0000 0.14780  0.76272  0.54103  Biso   1.000  H
  H400     1.0000 0.14315  0.79479  0.44114  Biso   1.000  H
  H401     1.0000 0.85564  0.62540  0.65406  Biso   1.000  H
  H402     1.0000 0.78762  0.65127  0.55887  Biso   1.000  H
  N227     1.0000 0.76314  0.71329  0.69070  Biso   1.000  N
  H403     1.0000 0.78764  0.65135  0.55887  Biso   1.000  H
  N228     1.0000 0.76313  0.71333  0.69062  Biso   1.000  N
  N229     1.0000 0.76317  0.71336  0.69070  Biso   1.000  N
  N230     1.0000 0.76311  0.71325  0.69062  Biso   1.000  N
  H404     1.0000 0.85557  0.62540  0.65406  Biso   1.000  H
  H405     1.0000 0.50909  0.62632  0.82149  Biso   1.000  H
  H406     1.0000 0.62046  0.60196  0.87144  Biso   1.000  H
  N231     1.0000 0.64640  0.69281  0.78310  Biso   1.000  N
  H407     1.0000 0.62049  0.60204  0.87144  Biso   1.000  H
  N232     1.0000 0.64636  0.69278  0.78302  Biso   1.000  N
  H408     1.0000 0.50901  0.62632  0.82149  Biso   1.000  H
  H409     1.0000 0.62038  0.60196  0.87144  Biso   1.000  H
  N233     1.0000 0.64632  0.69281  0.78310  Biso   1.000  N
  H410     1.0000 0.62041  0.60204  0.87144  Biso   1.000  H
  N234     1.0000 0.64628  0.69278  0.78302  Biso   1.000  N
  C405     1.0000 0.55377  0.89949  0.82659  Biso   1.000  C
  C406     1.0000 0.55380  0.89957  0.82659  Biso   1.000  C
  H411     1.0000 0.95007  0.70466  0.36985  Biso   1.000  H
  H412     1.0000 0.95608  0.66379  0.46503  Biso   1.000  H
  H413     1.0000 0.74340  0.87000  0.53354  Biso   1.000  H
  H414     1.0000 0.78125  0.99330  0.61152  Biso   1.000  H
  N235     1.0000 0.73245  0.87708  0.67174  Biso   1.000  N
  N236     1.0000 0.73248  0.87715  0.67174  Biso   1.000  N
  H415     1.0000 0.78117  0.99330  0.61152  Biso   1.000  H
  N237     1.0000 0.73237  0.87708  0.67174  Biso   1.000  N
  N238     1.0000 0.73240  0.87715  0.67174  Biso   1.000  N
  C407     1.0000 0.67790  0.75709  0.64904  Biso   1.000  C
  C408     1.0000 0.73670  0.66975  0.76406  Biso   1.000  C
  C409     1.0000 0.73673  0.66983  0.76406  Biso   1.000  C
  C410     1.0000 0.60221  0.74906  0.71810  Biso   1.000  C
  C411     1.0000 0.60220  0.74911  0.71802  Biso   1.000  C
  C412     1.0000 0.60231  0.74914  0.71810  Biso   1.000  C
  C413     1.0000 0.60217  0.74903  0.71802  Biso   1.000  C
  C414     1.0000 0.60223  0.74914  0.71810  Biso   1.000  C
  H416     1.0000 0.55466  0.97016  0.82086  Biso   1.000  H
  H417     1.0000 0.47134  0.84199  0.78796  Biso   1.000  H
  N239     1.0000 0.63107  0.86638  0.77673  Biso   1.000  N
  H418     1.0000 0.55469  0.97024  0.82086  Biso   1.000  H
  N240     1.0000 0.63099  0.86638  0.77673  Biso   1.000  N
  C415     1.0000 0.70210  0.93909  0.74462  Biso   1.000  C
  C416     1.0000 0.70218  0.93909  0.74462  Biso   1.000  C
  H419     1.0000 0.62791  0.71285  0.57329  Biso   1.000  H
  H420     1.0000 0.62790  0.71290  0.57321  Biso   1.000  H
  H421     1.0000 0.62793  0.71293  0.57329  Biso   1.000  H
  H422     1.0000 0.62787  0.71282  0.57321  Biso   1.000  H
  O106     1.0000 0.79002  0.61849  0.80476  Biso   1.000  O
  H423     1.0000 0.51570  0.70596  0.67405  Biso   1.000  H
  H424     1.0000 0.51573  0.70604  0.67405  Biso   1.000  H
  O107     1.0000 0.73594  0.04202  0.77744  Biso   1.000  O
  O108     1.0000 0.73591  0.04194  0.77744  Biso   1.000  O
  C417     1.0000 0.29800  0.06099  0.25538  Biso   1.000  C
  N241     1.0000 0.26777  0.12303  0.32834  Biso   1.000  N
  O109     1.0000 0.26430  0.95817  0.22264  Biso   1.000  O
  O110     1.0000 0.26428  0.95809  0.22264  Biso   1.000  O
  O111     1.0000 0.26422  0.95817  0.22264  Biso   1.000  O
  N242     1.0000 0.36915  0.13373  0.22335  Biso   1.000  N
  N243     1.0000 0.36911  0.13370  0.22327  Biso   1.000  N
  N244     1.0000 0.36923  0.13373  0.22335  Biso   1.000  N
  C418     1.0000 0.21238  0.07770  0.39294  Biso   1.000  C
  C419     1.0000 0.21241  0.07778  0.39294  Biso   1.000  C
  C420     1.0000 0.29812  0.06102  0.25545  Biso   1.000  C
  C421     1.0000 0.32231  0.24302  0.35104  Biso   1.000  C
  C422     1.0000 0.29808  0.06099  0.25538  Biso   1.000  C
  C423     1.0000 0.29804  0.06102  0.25545  Biso   1.000  C
  C424     1.0000 0.32223  0.24302  0.35104  Biso   1.000  C
  C425     1.0000 0.39801  0.25105  0.28198  Biso   1.000  C
  C426     1.0000 0.39798  0.25097  0.28198  Biso   1.000  C
  C427     1.0000 0.39793  0.25105  0.28198  Biso   1.000  C
  C428     1.0000 0.39790  0.25097  0.28198  Biso   1.000  C
  C429     1.0000 0.44644  0.10062  0.17349  Biso   1.000  C
  C430     1.0000 0.44641  0.10054  0.17349  Biso   1.000  C
  N245     1.0000 0.08655  0.05749  0.36323  Biso   1.000  N
  N246     1.0000 0.08657  0.05757  0.36323  Biso   1.000  N
  H425     1.0000 0.25682  0.13011  0.46654  Biso   1.000  H
  H426     1.0000 0.21897  0.00680  0.38856  Biso   1.000  H
  H427     1.0000 0.21893  0.00677  0.38848  Biso   1.000  H
  H428     1.0000 0.25684  0.13018  0.46654  Biso   1.000  H
  H429     1.0000 0.21896  0.00685  0.38848  Biso   1.000  H
  H430     1.0000 0.25674  0.13011  0.46654  Biso   1.000  H
  H431     1.0000 0.25676  0.13018  0.46654  Biso   1.000  H
  H432     1.0000 0.37231  0.28726  0.42679  Biso   1.000  H
  N247     1.0000 0.23707  0.28682  0.30938  Biso   1.000  N
  H433     1.0000 0.37228  0.28718  0.42679  Biso   1.000  H
  N248     1.0000 0.23705  0.28674  0.30938  Biso   1.000  N
  H434     1.0000 0.48452  0.29415  0.32603  Biso   1.000  H
  N249     1.0000 0.35382  0.30730  0.21698  Biso   1.000  N
  H435     1.0000 0.48449  0.29407  0.32603  Biso   1.000  H
  N250     1.0000 0.35390  0.30730  0.21698  Biso   1.000  N
  H436     1.0000 0.48444  0.29415  0.32603  Biso   1.000  H
  H437     1.0000 0.48441  0.29407  0.32603  Biso   1.000  H
  H438     1.0000 0.44556  0.02994  0.17922  Biso   1.000  H
  H439     1.0000 0.52887  0.15812  0.21212  Biso   1.000  H
  N251     1.0000 0.40865  0.08634  0.06149  Biso   1.000  N
  H440     1.0000 0.44553  0.02987  0.17922  Biso   1.000  H
  N252     1.0000 0.40863  0.08626  0.06149  Biso   1.000  N
  C431     1.0000 0.99693  0.95053  0.30612  Biso   1.000  C
  C432     1.0000 0.99691  0.95045  0.30612  Biso   1.000  C
  C433     1.0000 0.99686  0.95053  0.30612  Biso   1.000  C
  C434     1.0000 0.99683  0.95045  0.30612  Biso   1.000  C
  C435     1.0000 0.04087  0.14272  0.39676  Biso   1.000  C
  C436     1.0000 0.04084  0.14268  0.39668  Biso   1.000  C
  C437     1.0000 0.16493  0.31673  0.36514  Biso   1.000  C
  C438     1.0000 0.16485  0.31673  0.36514  Biso   1.000  C
  C439     1.0000 0.26352  0.33036  0.23602  Biso   1.000  C
  C440     1.0000 0.26349  0.33028  0.23602  Biso   1.000  C
  C441     1.0000 0.26344  0.33036  0.23602  Biso   1.000  C
  C442     1.0000 0.26341  0.33028  0.23602  Biso   1.000  C
  C443     1.0000 0.40366  0.34039  0.14442  Biso   1.000  C
  C444     1.0000 0.40369  0.34047  0.14442  Biso   1.000  C
  C445     1.0000 0.35024  0.98119  0.98040  Biso   1.000  C
  C446     1.0000 0.35027  0.98127  0.98040  Biso   1.000  C
  C447     1.0000 0.43185  0.17841  0.02557  Biso   1.000  C
  C448     1.0000 0.43182  0.17833  0.02557  Biso   1.000  C
  O112     1.0000 0.01305  0.86505  0.27194  Biso   1.000  O
  N253     1.0000 0.88893  0.95453  0.29791  Biso   1.000  N
  N254     1.0000 0.88890  0.95445  0.29791  Biso   1.000  N
  N255     1.0000 0.88885  0.95453  0.29791  Biso   1.000  N
  N256     1.0000 0.88882  0.95445  0.29791  Biso   1.000  N
  O113     1.0000 0.01303  0.86497  0.27194  Biso   1.000  O
  C449     1.0000 0.90027  0.06925  0.34833  Biso   1.000  C
  C450     1.0000 0.90025  0.06917  0.34833  Biso   1.000  C
  C451     1.0000 0.09204  0.20156  0.51760  Biso   1.000  C
  N257     1.0000 0.05338  0.22098  0.34196  Biso   1.000  N
  C452     1.0000 0.09202  0.20148  0.51760  Biso   1.000  C
  N258     1.0000 0.05332  0.22087  0.34188  Biso   1.000  N
  N259     1.0000 0.05344  0.22090  0.34196  Biso   1.000  N
  N260     1.0000 0.05343  0.22095  0.34188  Biso   1.000  N
  C453     1.0000 0.09196  0.20156  0.51760  Biso   1.000  C
  C454     1.0000 0.09194  0.20148  0.51760  Biso   1.000  C
  N261     1.0000 0.05336  0.22090  0.34196  Biso   1.000  N
  N262     1.0000 0.05335  0.22095  0.34188  Biso   1.000  N
  H441     1.0000 0.14457  0.37471  0.34602  Biso   1.000  H
  H442     1.0000 0.21260  0.34884  0.44121  Biso   1.000  H
  O114     1.0000 0.21020  0.38162  0.19531  Biso   1.000  O
  O115     1.0000 0.21012  0.38162  0.19531  Biso   1.000  O
  H443     1.0000 0.49112  0.37378  0.17859  Biso   1.000  H
  H444     1.0000 0.37975  0.39815  0.12864  Biso   1.000  H
  N263     1.0000 0.36524  0.24692  0.04548  Biso   1.000  N
  H445     1.0000 0.37969  0.39804  0.12856  Biso   1.000  H
  N264     1.0000 0.36521  0.24684  0.04548  Biso   1.000  N
  H446     1.0000 0.37981  0.39807  0.12864  Biso   1.000  H
  H447     1.0000 0.37980  0.39812  0.12856  Biso   1.000  H
  H448     1.0000 0.37973  0.39807  0.12864  Biso   1.000  H
  H449     1.0000 0.37972  0.39812  0.12856  Biso   1.000  H
  N265     1.0000 0.32873  0.99947  0.88625  Biso   1.000  N
  O116     1.0000 0.32437  0.88992  0.98980  Biso   1.000  O
  N266     1.0000 0.32876  0.99955  0.88625  Biso   1.000  N
  O117     1.0000 0.32440  0.89000  0.98980  Biso   1.000  O
  C455     1.0000 0.37490  0.11733  0.90250  Biso   1.000  C
  C456     1.0000 0.37487  0.11725  0.90250  Biso   1.000  C
  C457     1.0000 0.37482  0.11733  0.90250  Biso   1.000  C
  C458     1.0000 0.37480  0.11725  0.90250  Biso   1.000  C
  H450     1.0000 0.51862  0.22553  0.05170  Biso   1.000  H
  H451     1.0000 0.51859  0.22546  0.05170  Biso   1.000  H
  C459     1.0000 0.77667  0.85418  0.23968  Biso   1.000  C
  C460     1.0000 0.77664  0.85411  0.23968  Biso   1.000  C
  C461     1.0000 0.84830  0.07811  0.43476  Biso   1.000  C
  N267     1.0000 0.85536  0.11671  0.27162  Biso   1.000  N
  C462     1.0000 0.84832  0.07819  0.43476  Biso   1.000  C
  H452     1.0000 0.17672  0.25199  0.54277  Biso   1.000  H
  H453     1.0000 0.08671  0.14494  0.54946  Biso   1.000  H
  C463     1.0000 0.02373  0.26977  0.55337  Biso   1.000  C
  H454     1.0000 0.17665  0.25188  0.54269  Biso   1.000  H
  C464     1.0000 0.02371  0.26969  0.55337  Biso   1.000  C
  H455     1.0000 0.17669  0.25192  0.54277  Biso   1.000  H
  H456     1.0000 0.17668  0.25196  0.54269  Biso   1.000  H
  C465     1.0000 0.94538  0.20582  0.27051  Biso   1.000  C
  C466     1.0000 0.28129  0.23602  0.95340  Biso   1.000  C
  C467     1.0000 0.28126  0.23594  0.95340  Biso   1.000  C
  C468     1.0000 0.27120  0.90887  0.78334  Biso   1.000  C
  C469     1.0000 0.27123  0.90895  0.78334  Biso   1.000  C
  H457     1.0000 0.43527  0.13658  0.87168  Biso   1.000  H
  N268     1.0000 0.28385  0.15977  0.86937  Biso   1.000  N
  H458     1.0000 0.43524  0.13650  0.87168  Biso   1.000  H
  N269     1.0000 0.28383  0.15969  0.86937  Biso   1.000  N
  H459     1.0000 0.43519  0.13658  0.87168  Biso   1.000  H
  H460     1.0000 0.72282  0.85729  0.27648  Biso   1.000  H
  H461     1.0000 0.79281  0.78811  0.23928  Biso   1.000  H
  N270     1.0000 0.71639  0.84042  0.13071  Biso   1.000  N
  H462     1.0000 0.72279  0.85721  0.27648  Biso   1.000  H
  H463     1.0000 0.79278  0.78803  0.23928  Biso   1.000  H
  N271     1.0000 0.71636  0.84034  0.13071  Biso   1.000  N
  H464     1.0000 0.72274  0.85729  0.27648  Biso   1.000  H
  H465     1.0000 0.79273  0.78811  0.23928  Biso   1.000  H
  H466     1.0000 0.72271  0.85721  0.27648  Biso   1.000  H
  H467     1.0000 0.79270  0.78803  0.23928  Biso   1.000  H
  C470     1.0000 0.88793  0.20222  0.50302  Biso   1.000  C
  H468     1.0000 0.76070  0.04063  0.40154  Biso   1.000  H
  H469     1.0000 0.87582  0.04004  0.47953  Biso   1.000  H
  H470     1.0000 0.87580  0.03996  0.47953  Biso   1.000  H
  C471     1.0000 0.88785  0.20222  0.50302  Biso   1.000  C
  H471     1.0000 0.87574  0.04004  0.47953  Biso   1.000  H
  C472     1.0000 0.72902  0.09124  0.21674  Biso   1.000  C
  C473     1.0000 0.72899  0.09116  0.21674  Biso   1.000  C
  C474     1.0000 0.72894  0.09124  0.21674  Biso   1.000  C
  C475     1.0000 0.72891  0.09116  0.21674  Biso   1.000  C
  H472     1.0000 0.05015  0.29544  0.63023  Biso   1.000  H
  H473     1.0000 0.04414  0.33632  0.53505  Biso   1.000  H
  H474     1.0000 0.05007  0.29544  0.63023  Biso   1.000  H
  H475     1.0000 0.04406  0.33632  0.53505  Biso   1.000  H
  O118     1.0000 0.93146  0.26202  0.21730  Biso   1.000  O
  O119     1.0000 0.21534  0.28598  0.94775  Biso   1.000  O
  O120     1.0000 0.21531  0.28590  0.94775  Biso   1.000  O
  H476     1.0000 0.31461  0.92912  0.73937  Biso   1.000  H
  H477     1.0000 0.27694  0.84109  0.79178  Biso   1.000  H
  N272     1.0000 0.14485  0.88340  0.72845  Biso   1.000  N
  H478     1.0000 0.27696  0.84117  0.79178  Biso   1.000  H
  N273     1.0000 0.14477  0.88340  0.72845  Biso   1.000  N
  C476     1.0000 0.22358  0.14600  0.76040  Biso   1.000  C
  C477     1.0000 0.22354  0.14597  0.76032  Biso   1.000  C
  C478     1.0000 0.22351  0.14589  0.76032  Biso   1.000  C
  C479     1.0000 0.71896  0.76417  0.04668  Biso   1.000  C
  C480     1.0000 0.62534  0.88286  0.09758  Biso   1.000  C
  C481     1.0000 0.71893  0.76409  0.04668  Biso   1.000  C
  C482     1.0000 0.62531  0.88278  0.09758  Biso   1.000  C
  H479     1.0000 0.85244  0.23747  0.45905  Biso   1.000  H
  H480     1.0000 0.85699  0.20532  0.55894  Biso   1.000  H
  H481     1.0000 0.85241  0.23739  0.45905  Biso   1.000  H
  N274     1.0000 0.67148  0.00064  0.11383  Biso   1.000  N
  N275     1.0000 0.67145  0.00056  0.11383  Biso   1.000  N
  H482     1.0000 0.68560  0.07099  0.26071  Biso   1.000  H
  H483     1.0000 0.72328  0.15902  0.20830  Biso   1.000  H
  H484     1.0000 0.68553  0.07099  0.26071  Biso   1.000  H
  C483     1.0000 0.05484  0.79429  0.72957  Biso   1.000  C
  C484     1.0000 0.09994  0.93086  0.65175  Biso   1.000  C
  C485     1.0000 0.09997  0.93093  0.65175  Biso   1.000  C
  C486     1.0000 0.09986  0.93086  0.65175  Biso   1.000  C
  C487     1.0000 0.09989  0.93093  0.65175  Biso   1.000  C
  H485     1.0000 0.27742  0.14290  0.72360  Biso   1.000  H
  H486     1.0000 0.20744  0.21208  0.76079  Biso   1.000  H
  N276     1.0000 0.11131  0.04566  0.70217  Biso   1.000  N
  H487     1.0000 0.27739  0.14287  0.72352  Biso   1.000  H
  H488     1.0000 0.27736  0.14279  0.72352  Biso   1.000  H
  N277     1.0000 0.63498  0.75319  0.95460  Biso   1.000  N
  N278     1.0000 0.63500  0.75327  0.95460  Biso   1.000  N
  O121     1.0000 0.78490  0.71420  0.05233  Biso   1.000  O
  O122     1.0000 0.78488  0.71413  0.05233  Biso   1.000  O
  O123     1.0000 0.78483  0.71420  0.05233  Biso   1.000  O
  O124     1.0000 0.78480  0.71413  0.05233  Biso   1.000  O
  C488     1.0000 0.56837  0.82170  0.97451  Biso   1.000  C
  C489     1.0000 0.56840  0.82178  0.97451  Biso   1.000  C
  H489     1.0000 0.56497  0.86360  0.12840  Biso   1.000  H
  H490     1.0000 0.56494  0.86353  0.12840  Biso   1.000  H
  C490     1.0000 0.64997  0.01892  0.01967  Biso   1.000  C
  C491     1.0000 0.64995  0.01884  0.01967  Biso   1.000  C
  C492     1.0000 0.64990  0.01892  0.01967  Biso   1.000  C
  C493     1.0000 0.64987  0.01884  0.01967  Biso   1.000  C
  N279     1.0000 0.94683  0.77913  0.65812  Biso   1.000  N
  N280     1.0000 0.94678  0.77921  0.65812  Biso   1.000  N
  N281     1.0000 0.94686  0.77921  0.65812  Biso   1.000  N
  N282     1.0000 0.94675  0.77913  0.65812  Biso   1.000  N
  O125     1.0000 0.06875  0.73809  0.78278  Biso   1.000  O
  O126     1.0000 0.06878  0.73817  0.78278  Biso   1.000  O
  O127     1.0000 0.06870  0.73817  0.78278  Biso   1.000  O
  C494     1.0000 0.95934  0.85739  0.60332  Biso   1.000  C
  C495     1.0000 0.95926  0.85739  0.60332  Biso   1.000  C
  C496     1.0000 0.15192  0.92200  0.56532  Biso   1.000  C
  C497     1.0000 0.00331  0.04966  0.69396  Biso   1.000  C
  C498     1.0000 0.00328  0.04958  0.69396  Biso   1.000  C
  C499     1.0000 0.59656  0.65972  0.85566  Biso   1.000  C
  N283     1.0000 0.59156  0.91377  0.93859  Biso   1.000  N
  H491     1.0000 0.48160  0.77457  0.94838  Biso   1.000  H
  N284     1.0000 0.59159  0.91385  0.93859  Biso   1.000  N
  H492     1.0000 0.48162  0.77465  0.94838  Biso   1.000  H
  H493     1.0000 0.48152  0.77457  0.94838  Biso   1.000  H
  H494     1.0000 0.48154  0.77465  0.94838  Biso   1.000  H
  O128     1.0000 0.67584  0.11019  0.01028  Biso   1.000  O
  C500     1.0000 0.83528  0.68338  0.63494  Biso   1.000  C
  N285     1.0000 0.91367  0.94262  0.63685  Biso   1.000  N
  N286     1.0000 0.91359  0.94262  0.63685  Biso   1.000  N
  C501     1.0000 0.90817  0.79855  0.48248  Biso   1.000  C
  C502     1.0000 0.90816  0.79859  0.48240  Biso   1.000  C
  C503     1.0000 0.90820  0.79862  0.48248  Biso   1.000  C
  C504     1.0000 0.90814  0.79851  0.48240  Biso   1.000  C
  C505     1.0000 0.11229  0.79789  0.49706  Biso   1.000  C
  H495     1.0000 0.23952  0.95948  0.59854  Biso   1.000  H
  H496     1.0000 0.12439  0.96007  0.52055  Biso   1.000  H
  H497     1.0000 0.12442  0.96015  0.52055  Biso   1.000  H
  O129     1.0000 0.98719  0.13514  0.72814  Biso   1.000  O
  O130     1.0000 0.98713  0.13503  0.72806  Biso   1.000  O
  O131     1.0000 0.98716  0.13506  0.72814  Biso   1.000  O
  O132     1.0000 0.98705  0.13503  0.72806  Biso   1.000  O
  H498     1.0000 0.50909  0.62632  0.82149  Biso   1.000  H
  H499     1.0000 0.62046  0.60196  0.87144  Biso   1.000  H
  N287     1.0000 0.64640  0.69281  0.78310  Biso   1.000  N
  H500     1.0000 0.62049  0.60204  0.87144  Biso   1.000  H
  N288     1.0000 0.64636  0.69278  0.78302  Biso   1.000  N
  H501     1.0000 0.50901  0.62632  0.82149  Biso   1.000  H
  H502     1.0000 0.62038  0.60196  0.87144  Biso   1.000  H
  N289     1.0000 0.64632  0.69281  0.78310  Biso   1.000  N
  H503     1.0000 0.62041  0.60204  0.87144  Biso   1.000  H
  N290     1.0000 0.64628  0.69278  0.78302  Biso   1.000  N
  C506     1.0000 0.55377  0.89949  0.82659  Biso   1.000  C
  C507     1.0000 0.55380  0.89957  0.82659  Biso   1.000  C
  N291     1.0000 0.76314  0.71329  0.69070  Biso   1.000  N
  N292     1.0000 0.76313  0.71333  0.69062  Biso   1.000  N
  N293     1.0000 0.76317  0.71336  0.69070  Biso   1.000  N
  N294     1.0000 0.76311  0.71325  0.69062  Biso   1.000  N
  H504     1.0000 0.85564  0.62540  0.65406  Biso   1.000  H
  H505     1.0000 0.78762  0.65127  0.55887  Biso   1.000  H
  H506     1.0000 0.78764  0.65135  0.55887  Biso   1.000  H
  H507     1.0000 0.85557  0.62540  0.65406  Biso   1.000  H
  C508     1.0000 0.78783  0.92241  0.60714  Biso   1.000  C
  H508     1.0000 0.82350  0.74811  0.45731  Biso   1.000  H
  H509     1.0000 0.91350  0.85517  0.45062  Biso   1.000  H
  C509     1.0000 0.97648  0.73034  0.44671  Biso   1.000  C
  H510     1.0000 0.82353  0.74819  0.45731  Biso   1.000  H
  C510     1.0000 0.97651  0.73042  0.44671  Biso   1.000  C
  H511     1.0000 0.82342  0.74811  0.45731  Biso   1.000  H
  H512     1.0000 0.82345  0.74819  0.45731  Biso   1.000  H
  H513     1.0000 0.14778  0.76264  0.54103  Biso   1.000  H
  H514     1.0000 0.14322  0.79479  0.44114  Biso   1.000  H
  H515     1.0000 0.14780  0.76272  0.54103  Biso   1.000  H
  H516     1.0000 0.14315  0.79479  0.44114  Biso   1.000  H
  C511     1.0000 0.60221  0.74906  0.71810  Biso   1.000  C
  C512     1.0000 0.73670  0.66975  0.76406  Biso   1.000  C
  C513     1.0000 0.60220  0.74911  0.71802  Biso   1.000  C
  C514     1.0000 0.73673  0.66983  0.76406  Biso   1.000  C
  C515     1.0000 0.60231  0.74914  0.71810  Biso   1.000  C
  C516     1.0000 0.60217  0.74903  0.71802  Biso   1.000  C
  C517     1.0000 0.60223  0.74914  0.71810  Biso   1.000  C
  H517     1.0000 0.55466  0.97016  0.82086  Biso   1.000  H
  H518     1.0000 0.47134  0.84199  0.78796  Biso   1.000  H
  N295     1.0000 0.63107  0.86638  0.77673  Biso   1.000  N
  H519     1.0000 0.55469  0.97024  0.82086  Biso   1.000  H
  N296     1.0000 0.63099  0.86638  0.77673  Biso   1.000  N
  C518     1.0000 0.67790  0.75709  0.64904  Biso   1.000  C
  N297     1.0000 0.73245  0.87708  0.67174  Biso   1.000  N
  N298     1.0000 0.73248  0.87715  0.67174  Biso   1.000  N
  N299     1.0000 0.73237  0.87708  0.67174  Biso   1.000  N
  N300     1.0000 0.73240  0.87715  0.67174  Biso   1.000  N
  H520     1.0000 0.74340  0.87000  0.53354  Biso   1.000  H
  H521     1.0000 0.78125  0.99330  0.61152  Biso   1.000  H
  H522     1.0000 0.78117  0.99330  0.61152  Biso   1.000  H
  H523     1.0000 0.95007  0.70466  0.36985  Biso   1.000  H
  H524     1.0000 0.95608  0.66379  0.46503  Biso   1.000  H
  H525     1.0000 0.51570  0.70596  0.67405  Biso   1.000  H
  H526     1.0000 0.51573  0.70604  0.67405  Biso   1.000  H
  O133     1.0000 0.79002  0.61849  0.80476  Biso   1.000  O
  C519     1.0000 0.70210  0.93909  0.74462  Biso   1.000  C
  C520     1.0000 0.70218  0.93909  0.74462  Biso   1.000  C
  H527     1.0000 0.62791  0.71285  0.57329  Biso   1.000  H
  H528     1.0000 0.62790  0.71290  0.57321  Biso   1.000  H
  H529     1.0000 0.62793  0.71293  0.57329  Biso   1.000  H
  H530     1.0000 0.62787  0.71282  0.57321  Biso   1.000  H
  O134     1.0000 0.73594  0.04202  0.77744  Biso   1.000  O
  O135     1.0000 0.73591  0.04194  0.77744  Biso   1.000  O
  C521     1.0000 0.29800  0.06099  0.25538  Biso   1.000  C
  N301     1.0000 0.26777  0.12303  0.32834  Biso   1.000  N
  O136     1.0000 0.26430  0.95817  0.22264  Biso   1.000  O
  O137     1.0000 0.26428  0.95809  0.22264  Biso   1.000  O
  O138     1.0000 0.26422  0.95817  0.22264  Biso   1.000  O
  N302     1.0000 0.36915  0.13373  0.22335  Biso   1.000  N
  N303     1.0000 0.36911  0.13370  0.22327  Biso   1.000  N
  N304     1.0000 0.36923  0.13373  0.22335  Biso   1.000  N
  C522     1.0000 0.21238  0.07770  0.39294  Biso   1.000  C
  C523     1.0000 0.21241  0.07778  0.39294  Biso   1.000  C
  C524     1.0000 0.29812  0.06102  0.25545  Biso   1.000  C
  C525     1.0000 0.32231  0.24302  0.35104  Biso   1.000  C
  C526     1.0000 0.29808  0.06099  0.25538  Biso   1.000  C
  C527     1.0000 0.29804  0.06102  0.25545  Biso   1.000  C
  C528     1.0000 0.32223  0.24302  0.35104  Biso   1.000  C
  C529     1.0000 0.39801  0.25105  0.28198  Biso   1.000  C
  C530     1.0000 0.39798  0.25097  0.28198  Biso   1.000  C
  C531     1.0000 0.39793  0.25105  0.28198  Biso   1.000  C
  C532     1.0000 0.39790  0.25097  0.28198  Biso   1.000  C
  C533     1.0000 0.44644  0.10062  0.17349  Biso   1.000  C
  C534     1.0000 0.44641  0.10054  0.17349  Biso   1.000  C
  N305     1.0000 0.08655  0.05749  0.36323  Biso   1.000  N
  N306     1.0000 0.08657  0.05757  0.36323  Biso   1.000  N
  H531     1.0000 0.25682  0.13011  0.46654  Biso   1.000  H
  H532     1.0000 0.21897  0.00680  0.38856  Biso   1.000  H
  H533     1.0000 0.21893  0.00677  0.38848  Biso   1.000  H
  H534     1.0000 0.25684  0.13018  0.46654  Biso   1.000  H
  H535     1.0000 0.21896  0.00685  0.38848  Biso   1.000  H
  H536     1.0000 0.25674  0.13011  0.46654  Biso   1.000  H
  H537     1.0000 0.25676  0.13018  0.46654  Biso   1.000  H
  H538     1.0000 0.37231  0.28726  0.42679  Biso   1.000  H
  N307     1.0000 0.23707  0.28682  0.30938  Biso   1.000  N
  H539     1.0000 0.37228  0.28718  0.42679  Biso   1.000  H
  N308     1.0000 0.23705  0.28674  0.30938  Biso   1.000  N
  H540     1.0000 0.48452  0.29415  0.32603  Biso   1.000  H
  N309     1.0000 0.35382  0.30730  0.21698  Biso   1.000  N
  H541     1.0000 0.48449  0.29407  0.32603  Biso   1.000  H
  N310     1.0000 0.35390  0.30730  0.21698  Biso   1.000  N
  H542     1.0000 0.48444  0.29415  0.32603  Biso   1.000  H
  H543     1.0000 0.48441  0.29407  0.32603  Biso   1.000  H
  H544     1.0000 0.44556  0.02994  0.17922  Biso   1.000  H
  H545     1.0000 0.52887  0.15812  0.21212  Biso   1.000  H
  N311     1.0000 0.40865  0.08634  0.06149  Biso   1.000  N
  H546     1.0000 0.44553  0.02987  0.17922  Biso   1.000  H
  N312     1.0000 0.40863  0.08626  0.06149  Biso   1.000  N
  C535     1.0000 0.99693  0.95053  0.30612  Biso   1.000  C
  C536     1.0000 0.99691  0.95045  0.30612  Biso   1.000  C
  C537     1.0000 0.99686  0.95053  0.30612  Biso   1.000  C
  C538     1.0000 0.99683  0.95045  0.30612  Biso   1.000  C
  C539     1.0000 0.04087  0.14272  0.39676  Biso   1.000  C
  C540     1.0000 0.04084  0.14268  0.39668  Biso   1.000  C
  C541     1.0000 0.16493  0.31673  0.36514  Biso   1.000  C
  C542     1.0000 0.16485  0.31673  0.36514  Biso   1.000  C
  C543     1.0000 0.26352  0.33036  0.23602  Biso   1.000  C
  C544     1.0000 0.26349  0.33028  0.23602  Biso   1.000  C
  C545     1.0000 0.26344  0.33036  0.23602  Biso   1.000  C
  C546     1.0000 0.26341  0.33028  0.23602  Biso   1.000  C
  C547     1.0000 0.40366  0.34039  0.14442  Biso   1.000  C
  C548     1.0000 0.40369  0.34047  0.14442  Biso   1.000  C
  C549     1.0000 0.35024  0.98119  0.98040  Biso   1.000  C
  C550     1.0000 0.35027  0.98127  0.98040  Biso   1.000  C
  C551     1.0000 0.43185  0.17841  0.02557  Biso   1.000  C
  C552     1.0000 0.43182  0.17833  0.02557  Biso   1.000  C
  O139     1.0000 0.01305  0.86505  0.27194  Biso   1.000  O
  N313     1.0000 0.88893  0.95453  0.29791  Biso   1.000  N
  N314     1.0000 0.88890  0.95445  0.29791  Biso   1.000  N
  N315     1.0000 0.88885  0.95453  0.29791  Biso   1.000  N
  N316     1.0000 0.88882  0.95445  0.29791  Biso   1.000  N
  O140     1.0000 0.01303  0.86497  0.27194  Biso   1.000  O
  C553     1.0000 0.90027  0.06925  0.34833  Biso   1.000  C
  C554     1.0000 0.90025  0.06917  0.34833  Biso   1.000  C
  C555     1.0000 0.09204  0.20156  0.51760  Biso   1.000  C
  N317     1.0000 0.05338  0.22098  0.34196  Biso   1.000  N
  C556     1.0000 0.09202  0.20148  0.51760  Biso   1.000  C
  N318     1.0000 0.05332  0.22087  0.34188  Biso   1.000  N
  N319     1.0000 0.05344  0.22090  0.34196  Biso   1.000  N
  N320     1.0000 0.05343  0.22095  0.34188  Biso   1.000  N
  C557     1.0000 0.09196  0.20156  0.51760  Biso   1.000  C
  C558     1.0000 0.09194  0.20148  0.51760  Biso   1.000  C
  N321     1.0000 0.05336  0.22090  0.34196  Biso   1.000  N
  N322     1.0000 0.05335  0.22095  0.34188  Biso   1.000  N
  H547     1.0000 0.14457  0.37471  0.34602  Biso   1.000  H
  H548     1.0000 0.21260  0.34884  0.44121  Biso   1.000  H
  O141     1.0000 0.21020  0.38162  0.19531  Biso   1.000  O
  O142     1.0000 0.21012  0.38162  0.19531  Biso   1.000  O
  H549     1.0000 0.49112  0.37378  0.17859  Biso   1.000  H
  H550     1.0000 0.37975  0.39815  0.12864  Biso   1.000  H
  N323     1.0000 0.36524  0.24692  0.04548  Biso   1.000  N
  H551     1.0000 0.37969  0.39804  0.12856  Biso   1.000  H
  N324     1.0000 0.36521  0.24684  0.04548  Biso   1.000  N
  H552     1.0000 0.37981  0.39807  0.12864  Biso   1.000  H
  H553     1.0000 0.37980  0.39812  0.12856  Biso   1.000  H
  H554     1.0000 0.37973  0.39807  0.12864  Biso   1.000  H
  H555     1.0000 0.37972  0.39812  0.12856  Biso   1.000  H
  N325     1.0000 0.32873  0.99947  0.88625  Biso   1.000  N
  O143     1.0000 0.32437  0.88992  0.98980  Biso   1.000  O
  N326     1.0000 0.32876  0.99955  0.88625  Biso   1.000  N
  O144     1.0000 0.32440  0.89000  0.98980  Biso   1.000  O
  C559     1.0000 0.37490  0.11733  0.90250  Biso   1.000  C
  C560     1.0000 0.37487  0.11725  0.90250  Biso   1.000  C
  C561     1.0000 0.37482  0.11733  0.90250  Biso   1.000  C
  C562     1.0000 0.37480  0.11725  0.90250  Biso   1.000  C
  H556     1.0000 0.51862  0.22553  0.05170  Biso   1.000  H
  H557     1.0000 0.51859  0.22546  0.05170  Biso   1.000  H
  C563     1.0000 0.77667  0.85418  0.23968  Biso   1.000  C
  C564     1.0000 0.77664  0.85411  0.23968  Biso   1.000  C
  C565     1.0000 0.84830  0.07811  0.43476  Biso   1.000  C
  N327     1.0000 0.85536  0.11671  0.27162  Biso   1.000  N
  C566     1.0000 0.84832  0.07819  0.43476  Biso   1.000  C
  H558     1.0000 0.17672  0.25199  0.54277  Biso   1.000  H
  H559     1.0000 0.08671  0.14494  0.54946  Biso   1.000  H
  C567     1.0000 0.02373  0.26977  0.55337  Biso   1.000  C
  H560     1.0000 0.17665  0.25188  0.54269  Biso   1.000  H
  C568     1.0000 0.02371  0.26969  0.55337  Biso   1.000  C
  H561     1.0000 0.17669  0.25192  0.54277  Biso   1.000  H
  H562     1.0000 0.17668  0.25196  0.54269  Biso   1.000  H
  C569     1.0000 0.94538  0.20582  0.27051  Biso   1.000  C
  C570     1.0000 0.28129  0.23602  0.95340  Biso   1.000  C
  C571     1.0000 0.28126  0.23594  0.95340  Biso   1.000  C
  C572     1.0000 0.27120  0.90887  0.78334  Biso   1.000  C
  C573     1.0000 0.27123  0.90895  0.78334  Biso   1.000  C
  H563     1.0000 0.43527  0.13658  0.87168  Biso   1.000  H
  N328     1.0000 0.28385  0.15977  0.86937  Biso   1.000  N
  H564     1.0000 0.43524  0.13650  0.87168  Biso   1.000  H
  N329     1.0000 0.28383  0.15969  0.86937  Biso   1.000  N
  H565     1.0000 0.43519  0.13658  0.87168  Biso   1.000  H
  H566     1.0000 0.72282  0.85729  0.27648  Biso   1.000  H
  H567     1.0000 0.79281  0.78811  0.23928  Biso   1.000  H
  N330     1.0000 0.71639  0.84042  0.13071  Biso   1.000  N
  H568     1.0000 0.72279  0.85721  0.27648  Biso   1.000  H
  H569     1.0000 0.79278  0.78803  0.23928  Biso   1.000  H
  N331     1.0000 0.71636  0.84034  0.13071  Biso   1.000  N
  H570     1.0000 0.72274  0.85729  0.27648  Biso   1.000  H
  H571     1.0000 0.79273  0.78811  0.23928  Biso   1.000  H
  H572     1.0000 0.72271  0.85721  0.27648  Biso   1.000  H
  H573     1.0000 0.79270  0.78803  0.23928  Biso   1.000  H
  C574     1.0000 0.88793  0.20222  0.50302  Biso   1.000  C
  H574     1.0000 0.76070  0.04063  0.40154  Biso   1.000  H
  H575     1.0000 0.87582  0.04004  0.47953  Biso   1.000  H
  H576     1.0000 0.87580  0.03996  0.47953  Biso   1.000  H
  C575     1.0000 0.88785  0.20222  0.50302  Biso   1.000  C
  H577     1.0000 0.87574  0.04004  0.47953  Biso   1.000  H
  C576     1.0000 0.72902  0.09124  0.21674  Biso   1.000  C
  C577     1.0000 0.72899  0.09116  0.21674  Biso   1.000  C
  C578     1.0000 0.72894  0.09124  0.21674  Biso   1.000  C
  C579     1.0000 0.72891  0.09116  0.21674  Biso   1.000  C
  H578     1.0000 0.05015  0.29544  0.63023  Biso   1.000  H
  H579     1.0000 0.04414  0.33632  0.53505  Biso   1.000  H
  H580     1.0000 0.05007  0.29544  0.63023  Biso   1.000  H
  H581     1.0000 0.04406  0.33632  0.53505  Biso   1.000  H
  O145     1.0000 0.93146  0.26202  0.21730  Biso   1.000  O
  O146     1.0000 0.21534  0.28598  0.94775  Biso   1.000  O
  O147     1.0000 0.21531  0.28590  0.94775  Biso   1.000  O
  H582     1.0000 0.31461  0.92912  0.73937  Biso   1.000  H
  H583     1.0000 0.27694  0.84109  0.79178  Biso   1.000  H
  N332     1.0000 0.14485  0.88340  0.72845  Biso   1.000  N
  H584     1.0000 0.27696  0.84117  0.79178  Biso   1.000  H
  N333     1.0000 0.14477  0.88340  0.72845  Biso   1.000  N
  C580     1.0000 0.22358  0.14600  0.76040  Biso   1.000  C
  C581     1.0000 0.22354  0.14597  0.76032  Biso   1.000  C
  C582     1.0000 0.22351  0.14589  0.76032  Biso   1.000  C
  C583     1.0000 0.71896  0.76417  0.04668  Biso   1.000  C
  C584     1.0000 0.62534  0.88286  0.09758  Biso   1.000  C
  C585     1.0000 0.71893  0.76409  0.04668  Biso   1.000  C
  C586     1.0000 0.62531  0.88278  0.09758  Biso   1.000  C
  H585     1.0000 0.85244  0.23747  0.45905  Biso   1.000  H
  H586     1.0000 0.85699  0.20532  0.55894  Biso   1.000  H
  H587     1.0000 0.85241  0.23739  0.45905  Biso   1.000  H
  N334     1.0000 0.67148  0.00064  0.11383  Biso   1.000  N
  N335     1.0000 0.67145  0.00056  0.11383  Biso   1.000  N
  H588     1.0000 0.68560  0.07099  0.26071  Biso   1.000  H
  H589     1.0000 0.72328  0.15902  0.20830  Biso   1.000  H
  H590     1.0000 0.68553  0.07099  0.26071  Biso   1.000  H
  C587     1.0000 0.05484  0.79429  0.72957  Biso   1.000  C
  C588     1.0000 0.09994  0.93086  0.65175  Biso   1.000  C
  C589     1.0000 0.09997  0.93093  0.65175  Biso   1.000  C
  C590     1.0000 0.09986  0.93086  0.65175  Biso   1.000  C
  C591     1.0000 0.09989  0.93093  0.65175  Biso   1.000  C
  H591     1.0000 0.27742  0.14290  0.72360  Biso   1.000  H
  H592     1.0000 0.20744  0.21208  0.76079  Biso   1.000  H
  N336     1.0000 0.11131  0.04566  0.70217  Biso   1.000  N
  H593     1.0000 0.27739  0.14287  0.72352  Biso   1.000  H
  H594     1.0000 0.27736  0.14279  0.72352  Biso   1.000  H
  N337     1.0000 0.63498  0.75319  0.95460  Biso   1.000  N
  N338     1.0000 0.63500  0.75327  0.95460  Biso   1.000  N
  O148     1.0000 0.78490  0.71420  0.05233  Biso   1.000  O
  O149     1.0000 0.78488  0.71413  0.05233  Biso   1.000  O
  O150     1.0000 0.78483  0.71420  0.05233  Biso   1.000  O
  O151     1.0000 0.78480  0.71413  0.05233  Biso   1.000  O
  C592     1.0000 0.56837  0.82170  0.97451  Biso   1.000  C
  C593     1.0000 0.56840  0.82178  0.97451  Biso   1.000  C
  H595     1.0000 0.56497  0.86360  0.12840  Biso   1.000  H
  H596     1.0000 0.56494  0.86353  0.12840  Biso   1.000  H
  C594     1.0000 0.64997  0.01892  0.01967  Biso   1.000  C
  C595     1.0000 0.64995  0.01884  0.01967  Biso   1.000  C
  C596     1.0000 0.64990  0.01892  0.01967  Biso   1.000  C
  C597     1.0000 0.64987  0.01884  0.01967  Biso   1.000  C
  N339     1.0000 0.94683  0.77913  0.65812  Biso   1.000  N
  N340     1.0000 0.94678  0.77921  0.65812  Biso   1.000  N
  N341     1.0000 0.94686  0.77921  0.65812  Biso   1.000  N
  N342     1.0000 0.94675  0.77913  0.65812  Biso   1.000  N
  O152     1.0000 0.06875  0.73809  0.78278  Biso   1.000  O
  O153     1.0000 0.06878  0.73817  0.78278  Biso   1.000  O
  O154     1.0000 0.06870  0.73817  0.78278  Biso   1.000  O
  C598     1.0000 0.95934  0.85739  0.60332  Biso   1.000  C
  C599     1.0000 0.95926  0.85739  0.60332  Biso   1.000  C
  C600     1.0000 0.15192  0.92200  0.56532  Biso   1.000  C
  C601     1.0000 0.00331  0.04966  0.69396  Biso   1.000  C
  C602     1.0000 0.00328  0.04958  0.69396  Biso   1.000  C
  C603     1.0000 0.59656  0.65972  0.85566  Biso   1.000  C
  N343     1.0000 0.59156  0.91377  0.93859  Biso   1.000  N
  H597     1.0000 0.48160  0.77457  0.94838  Biso   1.000  H
  N344     1.0000 0.59159  0.91385  0.93859  Biso   1.000  N
  H598     1.0000 0.48162  0.77465  0.94838  Biso   1.000  H
  H599     1.0000 0.48152  0.77457  0.94838  Biso   1.000  H
  H600     1.0000 0.48154  0.77465  0.94838  Biso   1.000  H
  O155     1.0000 0.67584  0.11019  0.01028  Biso   1.000  O
  C604     1.0000 0.83528  0.68338  0.63494  Biso   1.000  C
  N345     1.0000 0.91367  0.94262  0.63685  Biso   1.000  N
  N346     1.0000 0.91359  0.94262  0.63685  Biso   1.000  N
  C605     1.0000 0.90817  0.79855  0.48248  Biso   1.000  C
  C606     1.0000 0.90816  0.79859  0.48240  Biso   1.000  C
  C607     1.0000 0.90820  0.79862  0.48248  Biso   1.000  C
  C608     1.0000 0.90814  0.79851  0.48240  Biso   1.000  C
  C609     1.0000 0.11229  0.79789  0.49706  Biso   1.000  C
  H601     1.0000 0.23952  0.95948  0.59854  Biso   1.000  H
  H602     1.0000 0.12439  0.96007  0.52055  Biso   1.000  H
  H603     1.0000 0.12442  0.96015  0.52055  Biso   1.000  H
  O156     1.0000 0.98719  0.13514  0.72814  Biso   1.000  O
  O157     1.0000 0.98713  0.13503  0.72806  Biso   1.000  O
  O158     1.0000 0.98716  0.13506  0.72814  Biso   1.000  O
  O159     1.0000 0.98705  0.13503  0.72806  Biso   1.000  O
  H604     1.0000 0.50909  0.62632  0.82149  Biso   1.000  H
  H605     1.0000 0.62046  0.60196  0.87144  Biso   1.000  H
  N347     1.0000 0.64640  0.69281  0.78310  Biso   1.000  N
  H606     1.0000 0.62049  0.60204  0.87144  Biso   1.000  H
  N348     1.0000 0.64636  0.69278  0.78302  Biso   1.000  N
  H607     1.0000 0.50901  0.62632  0.82149  Biso   1.000  H
  H608     1.0000 0.62038  0.60196  0.87144  Biso   1.000  H
  N349     1.0000 0.64632  0.69281  0.78310  Biso   1.000  N
  H609     1.0000 0.62041  0.60204  0.87144  Biso   1.000  H
  N350     1.0000 0.64628  0.69278  0.78302  Biso   1.000  N
  C610     1.0000 0.55377  0.89949  0.82659  Biso   1.000  C
  C611     1.0000 0.55380  0.89957  0.82659  Biso   1.000  C
  N351     1.0000 0.76314  0.71329  0.69070  Biso   1.000  N
  N352     1.0000 0.76313  0.71333  0.69062  Biso   1.000  N
  N353     1.0000 0.76317  0.71336  0.69070  Biso   1.000  N
  N354     1.0000 0.76311  0.71325  0.69062  Biso   1.000  N
  H610     1.0000 0.85564  0.62540  0.65406  Biso   1.000  H
  H611     1.0000 0.78762  0.65127  0.55887  Biso   1.000  H
  H612     1.0000 0.78764  0.65135  0.55887  Biso   1.000  H
  H613     1.0000 0.85557  0.62540  0.65406  Biso   1.000  H
  C612     1.0000 0.78783  0.92241  0.60714  Biso   1.000  C
  H614     1.0000 0.82350  0.74811  0.45731  Biso   1.000  H
  H615     1.0000 0.91350  0.85517  0.45062  Biso   1.000  H
  C613     1.0000 0.97648  0.73034  0.44671  Biso   1.000  C
  H616     1.0000 0.82353  0.74819  0.45731  Biso   1.000  H
  C614     1.0000 0.97651  0.73042  0.44671  Biso   1.000  C
  H617     1.0000 0.82342  0.74811  0.45731  Biso   1.000  H
  H618     1.0000 0.82345  0.74819  0.45731  Biso   1.000  H
  H619     1.0000 0.14778  0.76264  0.54103  Biso   1.000  H
  H620     1.0000 0.14322  0.79479  0.44114  Biso   1.000  H
  H621     1.0000 0.14780  0.76272  0.54103  Biso   1.000  H
  H622     1.0000 0.14315  0.79479  0.44114  Biso   1.000  H
  C615     1.0000 0.60221  0.74906  0.71810  Biso   1.000  C
  C616     1.0000 0.73670  0.66975  0.76406  Biso   1.000  C
  C617     1.0000 0.60220  0.74911  0.71802  Biso   1.000  C
  C618     1.0000 0.73673  0.66983  0.76406  Biso   1.000  C
  C619     1.0000 0.60231  0.74914  0.71810  Biso   1.000  C
  C620     1.0000 0.60217  0.74903  0.71802  Biso   1.000  C
  C621     1.0000 0.60223  0.74914  0.71810  Biso   1.000  C
  H623     1.0000 0.55466  0.97016  0.82086  Biso   1.000  H
  H624     1.0000 0.47134  0.84199  0.78796  Biso   1.000  H
  N355     1.0000 0.63107  0.86638  0.77673  Biso   1.000  N
  H625     1.0000 0.55469  0.97024  0.82086  Biso   1.000  H
  N356     1.0000 0.63099  0.86638  0.77673  Biso   1.000  N
  C622     1.0000 0.67790  0.75709  0.64904  Biso   1.000  C
  N357     1.0000 0.73245  0.87708  0.67174  Biso   1.000  N
  N358     1.0000 0.73248  0.87715  0.67174  Biso   1.000  N
  N359     1.0000 0.73237  0.87708  0.67174  Biso   1.000  N
  N360     1.0000 0.73240  0.87715  0.67174  Biso   1.000  N
  H626     1.0000 0.74340  0.87000  0.53354  Biso   1.000  H
  H627     1.0000 0.78125  0.99330  0.61152  Biso   1.000  H
  H628     1.0000 0.78117  0.99330  0.61152  Biso   1.000  H
  H629     1.0000 0.95007  0.70466  0.36985  Biso   1.000  H
  H630     1.0000 0.95608  0.66379  0.46503  Biso   1.000  H
  H631     1.0000 0.51570  0.70596  0.67405  Biso   1.000  H
  H632     1.0000 0.51573  0.70604  0.67405  Biso   1.000  H
  O160     1.0000 0.79002  0.61849  0.80476  Biso   1.000  O
  C623     1.0000 0.70210  0.93909  0.74462  Biso   1.000  C
  C624     1.0000 0.70218  0.93909  0.74462  Biso   1.000  C
  H633     1.0000 0.62791  0.71285  0.57329  Biso   1.000  H
  H634     1.0000 0.62790  0.71290  0.57321  Biso   1.000  H
  H635     1.0000 0.62793  0.71293  0.57329  Biso   1.000  H
  H636     1.0000 0.62787  0.71282  0.57321  Biso   1.000  H
  O161     1.0000 0.73594  0.04202  0.77744  Biso   1.000  O
  O162     1.0000 0.73591  0.04194  0.77744  Biso   1.000  O
