data_image0
_cell_length_a       16.861
_cell_length_b       32.059
_cell_length_c       29.48
_cell_angle_alpha    90
_cell_angle_beta     90
_cell_angle_gamma    90

_symmetry_space_group_name_H-M    "P 1"
_symmetry_int_tables_number       1

loop_
  _symmetry_equiv_pos_as_xyz
  'x, y, z'

loop_
  _atom_site_label
  _atom_site_occupancy
  _atom_site_fract_x
  _atom_site_fract_y
  _atom_site_fract_z
  _atom_site_thermal_displace_type
  _atom_site_B_iso_or_equiv
  _atom_site_type_symbol
  C1       1.0000 0.41581  0.45369  0.46591  Biso   1.000  C
  C2       1.0000 0.33041  0.46349  0.45641  Biso   1.000  C
  N1       1.0000 0.43509  0.42051  0.48494  Biso   1.000  N
  H1       1.0000 0.45573  0.47300  0.45729  Biso   1.000  H
  C3       1.0000 0.27122  0.43729  0.47090  Biso   1.000  C
  C4       1.0000 0.31362  0.50011  0.43440  Biso   1.000  C
  C5       1.0000 0.52091  0.41530  0.49291  Biso   1.000  C
  C6       1.0000 0.19097  0.44920  0.46381  Biso   1.000  C
  H2       1.0000 0.28361  0.41158  0.48531  Biso   1.000  H
  C7       1.0000 0.23528  0.51249  0.42741  Biso   1.000  C
  H3       1.0000 0.35567  0.51720  0.42371  Biso   1.000  H
  C8       1.0000 0.54012  0.40781  0.54328  Biso   1.000  C
  C9       1.0000 0.55382  0.37490  0.47201  Biso   1.000  C
  H4       1.0000 0.55068  0.44000  0.48131  Biso   1.000  H
  C10      1.0000 0.17520  0.48651  0.44199  Biso   1.000  C
  C11      1.0000 0.12739  0.42441  0.48491  Biso   1.000  C
  C12      1.0000 0.21440  0.55351  0.40889  Biso   1.000  C
  N2       1.0000 0.53312  0.44502  0.57018  Biso   1.000  N
  C13      1.0000 0.62570  0.39259  0.54271  Biso   1.000  C
  H5       1.0000 0.50477  0.38551  0.55580  Biso   1.000  H
  C14      1.0000 0.62950  0.36689  0.49718  Biso   1.000  C
  H6       1.0000 0.51610  0.35160  0.47609  Biso   1.000  H
  H7       1.0000 0.56408  0.37861  0.43911  Biso   1.000  H
  H8       1.0000 0.12158  0.49431  0.43680  Biso   1.000  H
  N3       1.0000 0.05510  0.43124  0.47880  Biso   1.000  N
  H9       1.0000 0.14198  0.40192  0.50421  Biso   1.000  H
  N4       1.0000 0.26772  0.57921  0.39678  Biso   1.000  N
  H10      1.0000 0.16019  0.56100  0.40590  Biso   1.000  H
  C15      1.0000 0.49362  0.44181  0.60689  Biso   1.000  C
  H11      1.0000 0.63721  0.37459  0.56930  Biso   1.000  H
  H12      1.0000 0.66342  0.41620  0.54230  Biso   1.000  H
  H13      1.0000 0.67558  0.37590  0.47880  Biso   1.000  H
  H14      1.0000 0.63508  0.33679  0.50370  Biso   1.000  H
  C16      1.0000 0.99840  0.40569  0.50319  Biso   1.000  C
  C17      1.0000 0.23949  0.61939  0.37951  Biso   1.000  C
  C18      1.0000 0.48247  0.47569  0.64009  Biso   1.000  C
  H15      1.0000 0.46949  0.41570  0.61340  Biso   1.000  H
  H16      1.0000 0.02710  0.38591  0.52361  Biso   1.000  H
  C19      1.0000 0.94217  0.38089  0.47059  Biso   1.000  C
  C20      1.0000 0.94051  0.43280  0.53141  Biso   1.000  C
  C21      1.0000 0.28201  0.65570  0.40288  Biso   1.000  C
  C22      1.0000 0.25977  0.62709  0.32961  Biso   1.000  C
  H17      1.0000 0.18101  0.62179  0.38409  Biso   1.000  H
  C23      1.0000 0.51930  0.51489  0.63470  Biso   1.000  C
  C24      1.0000 0.43378  0.47001  0.67720  Biso   1.000  C
  C25      1.0000 0.85979  0.38629  0.48670  Biso   1.000  C
  H18      1.0000 0.94739  0.39159  0.43931  Biso   1.000  H
  H19      1.0000 0.95653  0.35101  0.47069  Biso   1.000  H
  N5       1.0000 0.97509  0.44262  0.57510  Biso   1.000  N
  C26      1.0000 0.86750  0.40532  0.53331  Biso   1.000  C
  H20      1.0000 0.92818  0.45909  0.51469  Biso   1.000  H
  N6       1.0000 0.25319  0.66449  0.44902  Biso   1.000  N
  C27      1.0000 0.25959  0.69391  0.37140  Biso   1.000  C
  H21      1.0000 0.34073  0.65111  0.40299  Biso   1.000  H
  C28      1.0000 0.26048  0.67419  0.32269  Biso   1.000  C
  H22      1.0000 0.31238  0.61508  0.32229  Biso   1.000  H
  H23      1.0000 0.21968  0.61390  0.30970  Biso   1.000  H
  C29      1.0000 0.50602  0.54811  0.66499  Biso   1.000  C
  H24      1.0000 0.55418  0.51901  0.60980  Biso   1.000  H
  C30      1.0000 0.41973  0.50170  0.70811  Biso   1.000  C
  H25      1.0000 0.40923  0.44359  0.68161  Biso   1.000  H
  H26      1.0000 0.83222  0.35909  0.48820  Biso   1.000  H
  H27      1.0000 0.82990  0.40500  0.46621  Biso   1.000  H
  C31      1.0000 0.97147  0.48171  0.58721  Biso   1.000  C
  H28      1.0000 0.87379  0.38329  0.55661  Biso   1.000  H
  H29      1.0000 0.81988  0.42210  0.54081  Biso   1.000  H
  C32      1.0000 0.30313  0.66481  0.48060  Biso   1.000  C
  H30      1.0000 0.20651  0.70501  0.37900  Biso   1.000  H
  H31      1.0000 0.29921  0.71659  0.37402  Biso   1.000  H
  H32      1.0000 0.21339  0.68312  0.30529  Biso   1.000  H
  H33      1.0000 0.30882  0.68280  0.30600  Biso   1.000  H
  C33      1.0000 0.45383  0.53969  0.70129  Biso   1.000  C
  C34      1.0000 0.53953  0.58851  0.65719  Biso   1.000  C
  C35      1.0000 0.36748  0.49409  0.74739  Biso   1.000  C
  C36      1.0000 0.00231  0.49721  0.62982  Biso   1.000  C
  H34      1.0000 0.94751  0.50111  0.56699  Biso   1.000  H
  C37      1.0000 0.28088  0.67385  0.52710  Biso   1.000  C
  H35      1.0000 0.35698  0.65891  0.47391  Biso   1.000  H
  H36      1.0000 0.44191  0.56150  0.72201  Biso   1.000  H
  N7       1.0000 0.53069  0.61870  0.68321  Biso   1.000  N
  H37      1.0000 0.57031  0.59241  0.63060  Biso   1.000  H
  N8       1.0000 0.34079  0.45831  0.75892  Biso   1.000  N
  H38      1.0000 0.35259  0.51739  0.76540  Biso   1.000  H
  C38      1.0000 0.04418  0.47250  0.66041  Biso   1.000  C
  C39      1.0000 0.99792  0.54019  0.63799  Biso   1.000  C
  C40      1.0000 0.20343  0.67769  0.54040  Biso   1.000  C
  C41      1.0000 0.34061  0.67759  0.55980  Biso   1.000  C
  C42      1.0000 0.56711  0.65928  0.67212  Biso   1.000  C
  C43      1.0000 0.28913  0.45500  0.79841  Biso   1.000  C
  C44      1.0000 0.07669  0.48782  0.70000  Biso   1.000  C
  H39      1.0000 0.05059  0.44371  0.65370  Biso   1.000  H
  C45      1.0000 0.03031  0.55750  0.67910  Biso   1.000  C
  H40      1.0000 0.97349  0.55800  0.61638  Biso   1.000  H
  C46      1.0000 0.18409  0.68661  0.58589  Biso   1.000  C
  H41      1.0000 0.16221  0.67451  0.51859  Biso   1.000  H
  C47      1.0000 0.32098  0.68580  0.60560  Biso   1.000  C
  H42      1.0000 0.39458  0.67469  0.55119  Biso   1.000  H
  C48      1.0000 0.62861  0.67429  0.70621  Biso   1.000  C
  C49      1.0000 0.50982  0.69310  0.67191  Biso   1.000  C
  H43      1.0000 0.59237  0.65741  0.64149  Biso   1.000  H
  C50      1.0000 0.20622  0.44019  0.78742  Biso   1.000  C
  C51      1.0000 0.31843  0.42169  0.83172  Biso   1.000  C
  H44      1.0000 0.28628  0.48249  0.81421  Biso   1.000  H
  C52      1.0000 0.07040  0.53040  0.70739  Biso   1.000  C
  C53      1.0000 0.12330  0.45971  0.72931  Biso   1.000  C
  C54      1.0000 0.02372  0.59999  0.68942  Biso   1.000  C
  C55      1.0000 0.24061  0.68929  0.61740  Biso   1.000  C
  C56      1.0000 0.09857  0.68820  0.59851  Biso   1.000  C
  C57      1.0000 0.38373  0.69001  0.64081  Biso   1.000  C
  C58      1.0000 0.62980  0.71970  0.70390  Biso   1.000  C
  H45      1.0000 0.61420  0.66499  0.73711  Biso   1.000  H
  H46      1.0000 0.68151  0.66290  0.69851  Biso   1.000  H
  N9       1.0000 0.45531  0.69070  0.63250  Biso   1.000  N
  C59      1.0000 0.56432  0.73181  0.67218  Biso   1.000  C
  H47      1.0000 0.47820  0.69229  0.70061  Biso   1.000  H
  N10      1.0000 0.16150  0.47197  0.76316  Biso   1.000  N
  C60      1.0000 0.17472  0.43211  0.83558  Biso   1.000  C
  H48      1.0000 0.20788  0.41361  0.76961  Biso   1.000  H
  C61      1.0000 0.24388  0.41430  0.86211  Biso   1.000  C
  H49      1.0000 0.36380  0.43198  0.84980  Biso   1.000  H
  H50      1.0000 0.33408  0.39590  0.81560  Biso   1.000  H
  H51      1.0000 0.09531  0.54169  0.73351  Biso   1.000  H
  H52      1.0000 0.12449  0.43080  0.72201  Biso   1.000  H
  H53      1.0000 0.05783  0.61090  0.71211  Biso   1.000  H
  N11      1.0000 0.97420  0.62544  0.67001  Biso   1.000  N
  H54      1.0000 0.22632  0.69369  0.64820  Biso   1.000  H
  N12      1.0000 0.07449  0.69993  0.63731  Biso   1.000  N
  H55      1.0000 0.06038  0.68000  0.57649  Biso   1.000  H
  H56      1.0000 0.36748  0.69241  0.67161  Biso   1.000  H
  H57      1.0000 0.68157  0.72959  0.69230  Biso   1.000  H
  H58      1.0000 0.62078  0.73181  0.73440  Biso   1.000  H
  H59      1.0000 0.58520  0.73770  0.64149  Biso   1.000  H
  H60      1.0000 0.53567  0.75670  0.68351  Biso   1.000  H
  H61      1.0000 0.15598  0.45840  0.84949  Biso   1.000  H
  H62      1.0000 0.13012  0.41199  0.83480  Biso   1.000  H
  H63      1.0000 0.23611  0.38420  0.86781  Biso   1.000  H
  H64      1.0000 0.24981  0.42880  0.89149  Biso   1.000  H
  C62      1.0000 0.97201  0.66699  0.68589  Biso   1.000  C
  C63      1.0000 0.99099  0.69871  0.64640  Biso   1.000  C
  H65      1.0000 0.01002  0.67079  0.71160  Biso   1.000  H
  C64      1.0000 0.88749  0.68271  0.69939  Biso   1.000  C
  C65      1.0000 0.95920  0.74151  0.66659  Biso   1.000  C
  H66      1.0000 0.96098  0.69110  0.61828  Biso   1.000  H
  C66      1.0000 0.89158  0.72931  0.69902  Biso   1.000  C
  H67      1.0000 0.84740  0.67270  0.67741  Biso   1.000  H
  H68      1.0000 0.87302  0.67251  0.72999  Biso   1.000  H
  H69      1.0000 0.00190  0.75629  0.68331  Biso   1.000  H
  H70      1.0000 0.93939  0.75991  0.64210  Biso   1.000  H
  H71      1.0000 0.90232  0.74001  0.72988  Biso   1.000  H
  H72      1.0000 0.84070  0.74110  0.68820  Biso   1.000  H
  C67      1.0000 0.41581  0.54631  0.53409  Biso   1.000  C
  C68      1.0000 0.33041  0.53651  0.54359  Biso   1.000  C
  N13      1.0000 0.43509  0.57949  0.51506  Biso   1.000  N
  H73      1.0000 0.45573  0.52700  0.54271  Biso   1.000  H
  C69      1.0000 0.31362  0.49989  0.56560  Biso   1.000  C
  C70      1.0000 0.27122  0.56271  0.52910  Biso   1.000  C
  C71      1.0000 0.52091  0.58470  0.50709  Biso   1.000  C
  C72      1.0000 0.23528  0.48751  0.57259  Biso   1.000  C
  H74      1.0000 0.35567  0.48280  0.57629  Biso   1.000  H
  C73      1.0000 0.19097  0.55080  0.53619  Biso   1.000  C
  H75      1.0000 0.28361  0.58842  0.51469  Biso   1.000  H
  C74      1.0000 0.54012  0.59219  0.45672  Biso   1.000  C
  C75      1.0000 0.55382  0.62510  0.52799  Biso   1.000  C
  H76      1.0000 0.55068  0.56000  0.51869  Biso   1.000  H
  C76      1.0000 0.21440  0.44649  0.59111  Biso   1.000  C
  C77      1.0000 0.17520  0.51349  0.55801  Biso   1.000  C
  C78      1.0000 0.12739  0.57559  0.51509  Biso   1.000  C
  N14      1.0000 0.53312  0.55498  0.42982  Biso   1.000  N
  C79      1.0000 0.62570  0.60741  0.45729  Biso   1.000  C
  H77      1.0000 0.50477  0.61449  0.44420  Biso   1.000  H
  C80      1.0000 0.62950  0.63311  0.50282  Biso   1.000  C
  H78      1.0000 0.51610  0.64840  0.52391  Biso   1.000  H
  H79      1.0000 0.56408  0.62139  0.56089  Biso   1.000  H
  N15      1.0000 0.26772  0.42079  0.60322  Biso   1.000  N
  H80      1.0000 0.16019  0.43900  0.59410  Biso   1.000  H
  H81      1.0000 0.12158  0.50569  0.56320  Biso   1.000  H
  N16      1.0000 0.05510  0.56876  0.52120  Biso   1.000  N
  H82      1.0000 0.14198  0.59808  0.49579  Biso   1.000  H
  C81      1.0000 0.49362  0.55819  0.39311  Biso   1.000  C
  H83      1.0000 0.63721  0.62541  0.43070  Biso   1.000  H
  H84      1.0000 0.66342  0.58380  0.45770  Biso   1.000  H
  H85      1.0000 0.67558  0.62410  0.52120  Biso   1.000  H
  H86      1.0000 0.63508  0.66321  0.49630  Biso   1.000  H
  C82      1.0000 0.23949  0.38061  0.62049  Biso   1.000  C
  C83      1.0000 0.99840  0.59431  0.49681  Biso   1.000  C
  C84      1.0000 0.48247  0.52431  0.35991  Biso   1.000  C
  H87      1.0000 0.46949  0.58430  0.38660  Biso   1.000  H
  C85      1.0000 0.28201  0.34430  0.59712  Biso   1.000  C
  C86      1.0000 0.25977  0.37291  0.67039  Biso   1.000  C
  H88      1.0000 0.18101  0.37821  0.61591  Biso   1.000  H
  C87      1.0000 0.94051  0.56720  0.46859  Biso   1.000  C
  H89      1.0000 0.02710  0.61409  0.47639  Biso   1.000  H
  C88      1.0000 0.94217  0.61911  0.52941  Biso   1.000  C
  C89      1.0000 0.51930  0.48511  0.36530  Biso   1.000  C
  C90      1.0000 0.43378  0.52999  0.32280  Biso   1.000  C
  N17      1.0000 0.25319  0.33551  0.55098  Biso   1.000  N
  C91      1.0000 0.25959  0.30609  0.62860  Biso   1.000  C
  H90      1.0000 0.34073  0.34889  0.59701  Biso   1.000  H
  C92      1.0000 0.26048  0.32581  0.67731  Biso   1.000  C
  H91      1.0000 0.31238  0.38492  0.67771  Biso   1.000  H
  H92      1.0000 0.21968  0.38610  0.69030  Biso   1.000  H
  N18      1.0000 0.97509  0.55738  0.42490  Biso   1.000  N
  C93      1.0000 0.86750  0.59468  0.46669  Biso   1.000  C
  H93      1.0000 0.92818  0.54091  0.48531  Biso   1.000  H
  C94      1.0000 0.85979  0.61371  0.51330  Biso   1.000  C
  H94      1.0000 0.94739  0.60841  0.56069  Biso   1.000  H
  H95      1.0000 0.95653  0.64899  0.52931  Biso   1.000  H
  C95      1.0000 0.50602  0.45189  0.33501  Biso   1.000  C
  H96      1.0000 0.55418  0.48099  0.39020  Biso   1.000  H
  C96      1.0000 0.41973  0.49830  0.29189  Biso   1.000  C
  H97      1.0000 0.40923  0.55641  0.31839  Biso   1.000  H
  C97      1.0000 0.30313  0.33519  0.51940  Biso   1.000  C
  H98      1.0000 0.20651  0.29499  0.62100  Biso   1.000  H
  H99      1.0000 0.29921  0.28341  0.62598  Biso   1.000  H
  H100     1.0000 0.21339  0.31688  0.69471  Biso   1.000  H
  H101     1.0000 0.30882  0.31720  0.69400  Biso   1.000  H
  C98      1.0000 0.97147  0.51829  0.41279  Biso   1.000  C
  H102     1.0000 0.87379  0.61671  0.44339  Biso   1.000  H
  H103     1.0000 0.81988  0.57790  0.45919  Biso   1.000  H
  H104     1.0000 0.83222  0.64091  0.51180  Biso   1.000  H
  H105     1.0000 0.82990  0.59500  0.53379  Biso   1.000  H
  C99      1.0000 0.53953  0.41149  0.34281  Biso   1.000  C
  C100     1.0000 0.45383  0.46031  0.29871  Biso   1.000  C
  C101     1.0000 0.36748  0.50591  0.25261  Biso   1.000  C
  C102     1.0000 0.28088  0.32615  0.47290  Biso   1.000  C
  H106     1.0000 0.35698  0.34109  0.52609  Biso   1.000  H
  C103     1.0000 0.00231  0.50279  0.37018  Biso   1.000  C
  H107     1.0000 0.94751  0.49889  0.43301  Biso   1.000  H
  N19      1.0000 0.53069  0.38130  0.31679  Biso   1.000  N
  H108     1.0000 0.57031  0.40759  0.36940  Biso   1.000  H
  H109     1.0000 0.44191  0.43850  0.27799  Biso   1.000  H
  N20      1.0000 0.34079  0.54169  0.24108  Biso   1.000  N
  H110     1.0000 0.35259  0.48261  0.23460  Biso   1.000  H
  C104     1.0000 0.34061  0.32241  0.44020  Biso   1.000  C
  C105     1.0000 0.20343  0.32231  0.45960  Biso   1.000  C
  C106     1.0000 0.99792  0.45981  0.36201  Biso   1.000  C
  C107     1.0000 0.04418  0.52750  0.33959  Biso   1.000  C
  C108     1.0000 0.56711  0.34072  0.32788  Biso   1.000  C
  C109     1.0000 0.28913  0.54500  0.20159  Biso   1.000  C
  C110     1.0000 0.32098  0.31420  0.39440  Biso   1.000  C
  H111     1.0000 0.39458  0.32531  0.44881  Biso   1.000  H
  C111     1.0000 0.18409  0.31339  0.41411  Biso   1.000  C
  H112     1.0000 0.16221  0.32549  0.48141  Biso   1.000  H
  C112     1.0000 0.03031  0.44250  0.32090  Biso   1.000  C
  H113     1.0000 0.97349  0.44200  0.38362  Biso   1.000  H
  C113     1.0000 0.07669  0.51218  0.30000  Biso   1.000  C
  H114     1.0000 0.05059  0.55629  0.34630  Biso   1.000  H
  C114     1.0000 0.50982  0.30690  0.32809  Biso   1.000  C
  C115     1.0000 0.62861  0.32571  0.29379  Biso   1.000  C
  H115     1.0000 0.59237  0.34259  0.35851  Biso   1.000  H
  C116     1.0000 0.31843  0.57831  0.16828  Biso   1.000  C
  C117     1.0000 0.20622  0.55981  0.21258  Biso   1.000  C
  H116     1.0000 0.28628  0.51751  0.18579  Biso   1.000  H
  C118     1.0000 0.38373  0.30999  0.35919  Biso   1.000  C
  C119     1.0000 0.24061  0.31071  0.38260  Biso   1.000  C
  C120     1.0000 0.09857  0.31180  0.40149  Biso   1.000  C
  C121     1.0000 0.02372  0.40001  0.31058  Biso   1.000  C
  C122     1.0000 0.07040  0.46960  0.29261  Biso   1.000  C
  C123     1.0000 0.12330  0.54029  0.27069  Biso   1.000  C
  N21      1.0000 0.45531  0.30930  0.36750  Biso   1.000  N
  C124     1.0000 0.56432  0.26819  0.32782  Biso   1.000  C
  H117     1.0000 0.47820  0.30771  0.29939  Biso   1.000  H
  C125     1.0000 0.62980  0.28030  0.29610  Biso   1.000  C
  H118     1.0000 0.61420  0.33501  0.26289  Biso   1.000  H
  H119     1.0000 0.68151  0.33710  0.30149  Biso   1.000  H
  C126     1.0000 0.24388  0.58570  0.13789  Biso   1.000  C
  H120     1.0000 0.36380  0.56802  0.15020  Biso   1.000  H
  H121     1.0000 0.33408  0.60410  0.18440  Biso   1.000  H
  N22      1.0000 0.16150  0.52803  0.23684  Biso   1.000  N
  C127     1.0000 0.17472  0.56789  0.16442  Biso   1.000  C
  H122     1.0000 0.20788  0.58639  0.23039  Biso   1.000  H
  H123     1.0000 0.36748  0.30759  0.32839  Biso   1.000  H
  H124     1.0000 0.22632  0.30631  0.35180  Biso   1.000  H
  N23      1.0000 0.07449  0.30007  0.36269  Biso   1.000  N
  H125     1.0000 0.06038  0.32000  0.42351  Biso   1.000  H
  N24      1.0000 0.97420  0.37456  0.32999  Biso   1.000  N
  H126     1.0000 0.05783  0.38910  0.28789  Biso   1.000  H
  H127     1.0000 0.09531  0.45831  0.26649  Biso   1.000  H
  H128     1.0000 0.12449  0.56920  0.27799  Biso   1.000  H
  H129     1.0000 0.58520  0.26230  0.35851  Biso   1.000  H
  H130     1.0000 0.53567  0.24330  0.31649  Biso   1.000  H
  H131     1.0000 0.68157  0.27041  0.30770  Biso   1.000  H
  H132     1.0000 0.62078  0.26819  0.26560  Biso   1.000  H
  H133     1.0000 0.23611  0.61580  0.13219  Biso   1.000  H
  H134     1.0000 0.24981  0.57120  0.10851  Biso   1.000  H
  H135     1.0000 0.15598  0.54160  0.15051  Biso   1.000  H
  H136     1.0000 0.13012  0.58801  0.16520  Biso   1.000  H
  C128     1.0000 0.99099  0.30129  0.35360  Biso   1.000  C
  C129     1.0000 0.97201  0.33301  0.31411  Biso   1.000  C
  C130     1.0000 0.95920  0.25849  0.33341  Biso   1.000  C
  H137     1.0000 0.96098  0.30890  0.38172  Biso   1.000  H
  H138     1.0000 0.01002  0.32921  0.28840  Biso   1.000  H
  C131     1.0000 0.88749  0.31729  0.30061  Biso   1.000  C
  H139     1.0000 0.00190  0.24371  0.31669  Biso   1.000  H
  C132     1.0000 0.89158  0.27069  0.30098  Biso   1.000  C
  H140     1.0000 0.93939  0.24009  0.35790  Biso   1.000  H
  H141     1.0000 0.84740  0.32730  0.32259  Biso   1.000  H
  H142     1.0000 0.87302  0.32749  0.27001  Biso   1.000  H
  H143     1.0000 0.90232  0.25999  0.27012  Biso   1.000  H
  H144     1.0000 0.84070  0.25890  0.31180  Biso   1.000  H
  C133     1.0000 0.68157  0.42169  0.66828  Biso   1.000  C
  C134     1.0000 0.75612  0.41430  0.63789  Biso   1.000  C
  C135     1.0000 0.71087  0.45500  0.70159  Biso   1.000  C
  H145     1.0000 0.63620  0.43198  0.65020  Biso   1.000  H
  H146     1.0000 0.66592  0.39590  0.68440  Biso   1.000  H
  C136     1.0000 0.82528  0.43211  0.66442  Biso   1.000  C
  H147     1.0000 0.76389  0.38420  0.63219  Biso   1.000  H
  H148     1.0000 0.75019  0.42880  0.60851  Biso   1.000  H
  C137     1.0000 0.79378  0.44019  0.71258  Biso   1.000  C
  N25      1.0000 0.65921  0.45831  0.74108  Biso   1.000  N
  H149     1.0000 0.71372  0.48249  0.68579  Biso   1.000  H
  H150     1.0000 0.84402  0.45840  0.65051  Biso   1.000  H
  H151     1.0000 0.86988  0.41199  0.66520  Biso   1.000  H
  N26      1.0000 0.83850  0.47197  0.73684  Biso   1.000  N
  H152     1.0000 0.79212  0.41361  0.73039  Biso   1.000  H
  C138     1.0000 0.63252  0.49409  0.75261  Biso   1.000  C
  C139     1.0000 0.87670  0.45971  0.77069  Biso   1.000  C
  C140     1.0000 0.58027  0.50170  0.79189  Biso   1.000  C
  H153     1.0000 0.64741  0.51739  0.73460  Biso   1.000  H
  C141     1.0000 0.92331  0.48782  0.80000  Biso   1.000  C
  H154     1.0000 0.87551  0.43080  0.77799  Biso   1.000  H
  C142     1.0000 0.54617  0.53969  0.79871  Biso   1.000  C
  C143     1.0000 0.56622  0.47001  0.82280  Biso   1.000  C
  C144     1.0000 0.92960  0.53040  0.79261  Biso   1.000  C
  C145     1.0000 0.95582  0.47250  0.83959  Biso   1.000  C
  C146     1.0000 0.49398  0.54811  0.83501  Biso   1.000  C
  H155     1.0000 0.55809  0.56150  0.77799  Biso   1.000  H
  C147     1.0000 0.51753  0.47569  0.85991  Biso   1.000  C
  H156     1.0000 0.59077  0.44359  0.81839  Biso   1.000  H
  C148     1.0000 0.96969  0.55750  0.82090  Biso   1.000  C
  H157     1.0000 0.90469  0.54169  0.76649  Biso   1.000  H
  C149     1.0000 0.99769  0.49721  0.87018  Biso   1.000  C
  H158     1.0000 0.94941  0.44371  0.84630  Biso   1.000  H
  C150     1.0000 0.48070  0.51489  0.86530  Biso   1.000  C
  C151     1.0000 0.46047  0.58851  0.84281  Biso   1.000  C
  C152     1.0000 0.50638  0.44181  0.89311  Biso   1.000  C
  C153     1.0000 0.97628  0.59999  0.81058  Biso   1.000  C
  C154     1.0000 0.00208  0.54019  0.86201  Biso   1.000  C
  C155     1.0000 0.02853  0.48171  0.91279  Biso   1.000  C
  H159     1.0000 0.44582  0.51901  0.89020  Biso   1.000  H
  N27      1.0000 0.46931  0.61870  0.81679  Biso   1.000  N
  H160     1.0000 0.42969  0.59241  0.86940  Biso   1.000  H
  N28      1.0000 0.46688  0.44502  0.92982  Biso   1.000  N
  H161     1.0000 0.53051  0.41570  0.88660  Biso   1.000  H
  H162     1.0000 0.94217  0.61090  0.78789  Biso   1.000  H
  N29      1.0000 0.02580  0.62544  0.82999  Biso   1.000  N
  H163     1.0000 0.02651  0.55800  0.88362  Biso   1.000  H
  N30      1.0000 0.02491  0.44262  0.92490  Biso   1.000  N
  H164     1.0000 0.05249  0.50111  0.93301  Biso   1.000  H
  C156     1.0000 0.43289  0.65928  0.82788  Biso   1.000  C
  C157     1.0000 0.45988  0.40781  0.95672  Biso   1.000  C
  C158     1.0000 0.02799  0.66699  0.81411  Biso   1.000  C
  C159     1.0000 0.05949  0.43280  0.96859  Biso   1.000  C
  C160     1.0000 0.37139  0.67429  0.79379  Biso   1.000  C
  C161     1.0000 0.49018  0.69310  0.82809  Biso   1.000  C
  H165     1.0000 0.40763  0.65741  0.85851  Biso   1.000  H
  C162     1.0000 0.37430  0.39259  0.95729  Biso   1.000  C
  H166     1.0000 0.49523  0.38551  0.94420  Biso   1.000  H
  C163     1.0000 0.47909  0.41530  0.00709  Biso   1.000  C
  H167     1.0000 0.98998  0.67079  0.78840  Biso   1.000  H
  C164     1.0000 0.11251  0.68271  0.80061  Biso   1.000  C
  C165     1.0000 0.00901  0.69871  0.85360  Biso   1.000  C
  C166     1.0000 0.00160  0.40569  0.99681  Biso   1.000  C
  C167     1.0000 0.13250  0.40532  0.96669  Biso   1.000  C
  H168     1.0000 0.07182  0.45909  0.98531  Biso   1.000  H
  C168     1.0000 0.37020  0.71970  0.79610  Biso   1.000  C
  H169     1.0000 0.38580  0.66499  0.76289  Biso   1.000  H
  H170     1.0000 0.31849  0.66290  0.80149  Biso   1.000  H
  N31      1.0000 0.54469  0.69070  0.86750  Biso   1.000  N
  C169     1.0000 0.43568  0.73181  0.82782  Biso   1.000  C
  H171     1.0000 0.52180  0.69229  0.79939  Biso   1.000  H
  H172     1.0000 0.36279  0.37459  0.93070  Biso   1.000  H
  H173     1.0000 0.33658  0.41620  0.95770  Biso   1.000  H
  C170     1.0000 0.37050  0.36689  0.00282  Biso   1.000  C
  N32      1.0000 0.56491  0.42051  0.01506  Biso   1.000  N
  C171     1.0000 0.44618  0.37490  0.02799  Biso   1.000  C
  H174     1.0000 0.44932  0.44000  0.01869  Biso   1.000  H
  C172     1.0000 0.10842  0.72931  0.80098  Biso   1.000  C
  H175     1.0000 0.15260  0.67270  0.82259  Biso   1.000  H
  H176     1.0000 0.12698  0.67251  0.77001  Biso   1.000  H
  N33      1.0000 0.92551  0.69993  0.86269  Biso   1.000  N
  C173     1.0000 0.04080  0.74151  0.83341  Biso   1.000  C
  H177     1.0000 0.03902  0.69110  0.88172  Biso   1.000  H
  H178     1.0000 0.97290  0.38591  0.97639  Biso   1.000  H
  N34      1.0000 0.94490  0.43124  0.02120  Biso   1.000  N
  C174     1.0000 0.05783  0.38089  0.02941  Biso   1.000  C
  H179     1.0000 0.12621  0.38329  0.94339  Biso   1.000  H
  H180     1.0000 0.18012  0.42210  0.95919  Biso   1.000  H
  C175     1.0000 0.14021  0.38629  0.01330  Biso   1.000  C
  H181     1.0000 0.31843  0.72959  0.80770  Biso   1.000  H
  H182     1.0000 0.37922  0.73181  0.76560  Biso   1.000  H
  C176     1.0000 0.61627  0.69001  0.85919  Biso   1.000  C
  H183     1.0000 0.41480  0.73770  0.85851  Biso   1.000  H
  H184     1.0000 0.46433  0.75670  0.81649  Biso   1.000  H
  H185     1.0000 0.36492  0.33679  0.99630  Biso   1.000  H
  H186     1.0000 0.32442  0.37590  0.02120  Biso   1.000  H
  C177     1.0000 0.58419  0.45369  0.03409  Biso   1.000  C
  H187     1.0000 0.48390  0.35160  0.02391  Biso   1.000  H
  H188     1.0000 0.43592  0.37861  0.06089  Biso   1.000  H
  H189     1.0000 0.09768  0.74001  0.77012  Biso   1.000  H
  H190     1.0000 0.15930  0.74110  0.81180  Biso   1.000  H
  C178     1.0000 0.90143  0.68820  0.90149  Biso   1.000  C
  H191     1.0000 0.99810  0.75629  0.81669  Biso   1.000  H
  H192     1.0000 0.06061  0.75991  0.85790  Biso   1.000  H
  C179     1.0000 0.87261  0.42441  0.01509  Biso   1.000  C
  H193     1.0000 0.05261  0.39159  0.06069  Biso   1.000  H
  H194     1.0000 0.04347  0.35101  0.02931  Biso   1.000  H
  H195     1.0000 0.16778  0.35909  0.01180  Biso   1.000  H
  H196     1.0000 0.17010  0.40500  0.03379  Biso   1.000  H
  C180     1.0000 0.67902  0.68580  0.89440  Biso   1.000  C
  H197     1.0000 0.63252  0.69241  0.82839  Biso   1.000  H
  C181     1.0000 0.66959  0.46349  0.04359  Biso   1.000  C
  H198     1.0000 0.54427  0.47300  0.04271  Biso   1.000  H
  C182     1.0000 0.81591  0.68661  0.91411  Biso   1.000  C
  H199     1.0000 0.93962  0.68000  0.92351  Biso   1.000  H
  H200     1.0000 0.85802  0.40192  0.99579  Biso   1.000  H
  C183     1.0000 0.80903  0.44920  0.03619  Biso   1.000  C
  C184     1.0000 0.65939  0.67759  0.94020  Biso   1.000  C
  C185     1.0000 0.75939  0.68929  0.88260  Biso   1.000  C
  C186     1.0000 0.72878  0.43729  0.02910  Biso   1.000  C
  C187     1.0000 0.68638  0.50011  0.06560  Biso   1.000  C
  C188     1.0000 0.79657  0.67769  0.95960  Biso   1.000  C
  C189     1.0000 0.82480  0.48651  0.05801  Biso   1.000  C
  C190     1.0000 0.71912  0.67385  0.97290  Biso   1.000  C
  H201     1.0000 0.60542  0.67469  0.94881  Biso   1.000  H
  H202     1.0000 0.77368  0.69369  0.85180  Biso   1.000  H
  H203     1.0000 0.71639  0.41158  0.01469  Biso   1.000  H
  C191     1.0000 0.76472  0.51249  0.07259  Biso   1.000  C
  H204     1.0000 0.64433  0.51720  0.07629  Biso   1.000  H
  H205     1.0000 0.83779  0.67451  0.98141  Biso   1.000  H
  H206     1.0000 0.87842  0.49431  0.06320  Biso   1.000  H
  C192     1.0000 0.69687  0.66481  0.01940  Biso   1.000  C
  C193     1.0000 0.78560  0.55351  0.09111  Biso   1.000  C
  N35      1.0000 0.74681  0.66449  0.05098  Biso   1.000  N
  H207     1.0000 0.64302  0.65891  0.02609  Biso   1.000  H
  N36      1.0000 0.73228  0.57921  0.10322  Biso   1.000  N
  H208     1.0000 0.83981  0.56100  0.09410  Biso   1.000  H
  C194     1.0000 0.71799  0.65570  0.09712  Biso   1.000  C
  C195     1.0000 0.76051  0.61939  0.12049  Biso   1.000  C
  C196     1.0000 0.74041  0.69391  0.12860  Biso   1.000  C
  H209     1.0000 0.65927  0.65111  0.09701  Biso   1.000  H
  C197     1.0000 0.74023  0.62709  0.17039  Biso   1.000  C
  H210     1.0000 0.81899  0.62179  0.11591  Biso   1.000  H
  C198     1.0000 0.73952  0.67419  0.17731  Biso   1.000  C
  H211     1.0000 0.79349  0.70501  0.12100  Biso   1.000  H
  H212     1.0000 0.70079  0.71659  0.12598  Biso   1.000  H
  H213     1.0000 0.68762  0.61508  0.17771  Biso   1.000  H
  H214     1.0000 0.78032  0.61390  0.19030  Biso   1.000  H
  H215     1.0000 0.78661  0.68312  0.19471  Biso   1.000  H
  H216     1.0000 0.69118  0.68280  0.19400  Biso   1.000  H
  C199     1.0000 0.68157  0.57831  0.33172  Biso   1.000  C
  C200     1.0000 0.71087  0.54500  0.29841  Biso   1.000  C
  C201     1.0000 0.75612  0.58570  0.36211  Biso   1.000  C
  H217     1.0000 0.63620  0.56802  0.34980  Biso   1.000  H
  H218     1.0000 0.66592  0.60410  0.31560  Biso   1.000  H
  N37      1.0000 0.65921  0.54169  0.25892  Biso   1.000  N
  C202     1.0000 0.79378  0.55981  0.28742  Biso   1.000  C
  H219     1.0000 0.71372  0.51751  0.31421  Biso   1.000  H
  C203     1.0000 0.82528  0.56789  0.33558  Biso   1.000  C
  H220     1.0000 0.76389  0.61580  0.36781  Biso   1.000  H
  H221     1.0000 0.75019  0.57120  0.39149  Biso   1.000  H
  C204     1.0000 0.63252  0.50591  0.24739  Biso   1.000  C
  N38      1.0000 0.83850  0.52803  0.26316  Biso   1.000  N
  H222     1.0000 0.79212  0.58639  0.26961  Biso   1.000  H
  H223     1.0000 0.84402  0.54160  0.34949  Biso   1.000  H
  H224     1.0000 0.86988  0.58801  0.33480  Biso   1.000  H
  C205     1.0000 0.58027  0.49830  0.20811  Biso   1.000  C
  H225     1.0000 0.64741  0.48261  0.26540  Biso   1.000  H
  C206     1.0000 0.87670  0.54029  0.22931  Biso   1.000  C
  C207     1.0000 0.54617  0.46031  0.20129  Biso   1.000  C
  C208     1.0000 0.56622  0.52999  0.17720  Biso   1.000  C
  C209     1.0000 0.92331  0.51218  0.20000  Biso   1.000  C
  H226     1.0000 0.87551  0.56920  0.22201  Biso   1.000  H
  C210     1.0000 0.49398  0.45189  0.16499  Biso   1.000  C
  H227     1.0000 0.55809  0.43850  0.22201  Biso   1.000  H
  C211     1.0000 0.51753  0.52431  0.14009  Biso   1.000  C
  H228     1.0000 0.59077  0.55641  0.18161  Biso   1.000  H
  C212     1.0000 0.92960  0.46960  0.20739  Biso   1.000  C
  C213     1.0000 0.95582  0.52750  0.16041  Biso   1.000  C
  C214     1.0000 0.46047  0.41149  0.15719  Biso   1.000  C
  C215     1.0000 0.48070  0.48511  0.13470  Biso   1.000  C
  C216     1.0000 0.50638  0.55819  0.10689  Biso   1.000  C
  C217     1.0000 0.96969  0.44250  0.17910  Biso   1.000  C
  H229     1.0000 0.90469  0.45831  0.23351  Biso   1.000  H
  C218     1.0000 0.99769  0.50279  0.12982  Biso   1.000  C
  H230     1.0000 0.94941  0.55629  0.15370  Biso   1.000  H
  N39      1.0000 0.46931  0.38130  0.18321  Biso   1.000  N
  H231     1.0000 0.42969  0.40759  0.13060  Biso   1.000  H
  H232     1.0000 0.44582  0.48099  0.10980  Biso   1.000  H
  N40      1.0000 0.46688  0.55498  0.07018  Biso   1.000  N
  H233     1.0000 0.53051  0.58430  0.11340  Biso   1.000  H
  C219     1.0000 0.97628  0.40001  0.18942  Biso   1.000  C
  C220     1.0000 0.00208  0.45981  0.13799  Biso   1.000  C
  C221     1.0000 0.02853  0.51829  0.08721  Biso   1.000  C
  C222     1.0000 0.43289  0.34072  0.17212  Biso   1.000  C
  C223     1.0000 0.45988  0.59219  0.04328  Biso   1.000  C
  N41      1.0000 0.02580  0.37456  0.17001  Biso   1.000  N
  H234     1.0000 0.94217  0.38910  0.21211  Biso   1.000  H
  H235     1.0000 0.02651  0.44200  0.11638  Biso   1.000  H
  N42      1.0000 0.02491  0.55738  0.07510  Biso   1.000  N
  H236     1.0000 0.05249  0.49889  0.06699  Biso   1.000  H
  C224     1.0000 0.37139  0.32571  0.20621  Biso   1.000  C
  C225     1.0000 0.49018  0.30690  0.17191  Biso   1.000  C
  H237     1.0000 0.40763  0.34259  0.14149  Biso   1.000  H
  C226     1.0000 0.37430  0.60741  0.04271  Biso   1.000  C
  H238     1.0000 0.49523  0.61449  0.05580  Biso   1.000  H
  C227     1.0000 0.47909  0.58470  0.99291  Biso   1.000  C
  C228     1.0000 0.02799  0.33301  0.18589  Biso   1.000  C
  C229     1.0000 0.05949  0.56720  0.03141  Biso   1.000  C
  C230     1.0000 0.37020  0.28030  0.20390  Biso   1.000  C
  H239     1.0000 0.38580  0.33501  0.23711  Biso   1.000  H
  H240     1.0000 0.31849  0.33710  0.19851  Biso   1.000  H
  C231     1.0000 0.43568  0.26819  0.17218  Biso   1.000  C
  N43      1.0000 0.54469  0.30930  0.13250  Biso   1.000  N
  H241     1.0000 0.52180  0.30771  0.20061  Biso   1.000  H
  H242     1.0000 0.36279  0.62541  0.06930  Biso   1.000  H
  H243     1.0000 0.33658  0.58380  0.04230  Biso   1.000  H
  C232     1.0000 0.37050  0.63311  0.99718  Biso   1.000  C
  N44      1.0000 0.56491  0.57949  0.98494  Biso   1.000  N
  C233     1.0000 0.44618  0.62510  0.97201  Biso   1.000  C
  H244     1.0000 0.44932  0.56000  0.98131  Biso   1.000  H
  C234     1.0000 0.00901  0.30129  0.14640  Biso   1.000  C
  H245     1.0000 0.98998  0.32921  0.21160  Biso   1.000  H
  C235     1.0000 0.11251  0.31729  0.19939  Biso   1.000  C
  C236     1.0000 0.00160  0.59431  0.00319  Biso   1.000  C
  C237     1.0000 0.13250  0.59468  0.03331  Biso   1.000  C
  H246     1.0000 0.07182  0.54091  0.01469  Biso   1.000  H
  H247     1.0000 0.31843  0.27041  0.19230  Biso   1.000  H
  H248     1.0000 0.37922  0.26819  0.23440  Biso   1.000  H
  H249     1.0000 0.41480  0.26230  0.14149  Biso   1.000  H
  H250     1.0000 0.46433  0.24330  0.18351  Biso   1.000  H
  C238     1.0000 0.61627  0.30999  0.14081  Biso   1.000  C
  H251     1.0000 0.36492  0.66321  0.00370  Biso   1.000  H
  H252     1.0000 0.32442  0.62410  0.97880  Biso   1.000  H
  C239     1.0000 0.58419  0.54631  0.96591  Biso   1.000  C
  H253     1.0000 0.48390  0.64840  0.97609  Biso   1.000  H
  H254     1.0000 0.43592  0.62139  0.93911  Biso   1.000  H
  N45      1.0000 0.92551  0.30007  0.13731  Biso   1.000  N
  C240     1.0000 0.04080  0.25849  0.16659  Biso   1.000  C
  H255     1.0000 0.03902  0.30890  0.11828  Biso   1.000  H
  C241     1.0000 0.10842  0.27069  0.19902  Biso   1.000  C
  H256     1.0000 0.15260  0.32730  0.17741  Biso   1.000  H
  H257     1.0000 0.12698  0.32749  0.22999  Biso   1.000  H
  N46      1.0000 0.94490  0.56876  0.97880  Biso   1.000  N
  H258     1.0000 0.97290  0.61409  0.02361  Biso   1.000  H
  C242     1.0000 0.05783  0.61911  0.97059  Biso   1.000  C
  C243     1.0000 0.14021  0.61371  0.98670  Biso   1.000  C
  H259     1.0000 0.12621  0.61671  0.05661  Biso   1.000  H
  H260     1.0000 0.18012  0.57790  0.04081  Biso   1.000  H
  C244     1.0000 0.67902  0.31420  0.10560  Biso   1.000  C
  H261     1.0000 0.63252  0.30759  0.17161  Biso   1.000  H
  C245     1.0000 0.66959  0.53651  0.95641  Biso   1.000  C
  H262     1.0000 0.54427  0.52700  0.95729  Biso   1.000  H
  C246     1.0000 0.90143  0.31180  0.09851  Biso   1.000  C
  H263     1.0000 0.99810  0.24371  0.18331  Biso   1.000  H
  H264     1.0000 0.06061  0.24009  0.14210  Biso   1.000  H
  H265     1.0000 0.09768  0.25999  0.22988  Biso   1.000  H
  H266     1.0000 0.15930  0.25890  0.18820  Biso   1.000  H
  C247     1.0000 0.87261  0.57559  0.98491  Biso   1.000  C
  H267     1.0000 0.05261  0.60841  0.93931  Biso   1.000  H
  H268     1.0000 0.04347  0.64899  0.97069  Biso   1.000  H
  H269     1.0000 0.16778  0.64091  0.98820  Biso   1.000  H
  H270     1.0000 0.17010  0.59500  0.96621  Biso   1.000  H
  C248     1.0000 0.65939  0.32241  0.05980  Biso   1.000  C
  C249     1.0000 0.75939  0.31071  0.11740  Biso   1.000  C
  C250     1.0000 0.72878  0.56271  0.97090  Biso   1.000  C
  C251     1.0000 0.68638  0.49989  0.93440  Biso   1.000  C
  C252     1.0000 0.81591  0.31339  0.08589  Biso   1.000  C
  H271     1.0000 0.93962  0.32000  0.07649  Biso   1.000  H
  C253     1.0000 0.80903  0.55080  0.96381  Biso   1.000  C
  H272     1.0000 0.85802  0.59808  0.00421  Biso   1.000  H
  C254     1.0000 0.71912  0.32615  0.02710  Biso   1.000  C
  H273     1.0000 0.60542  0.32531  0.05119  Biso   1.000  H
  H274     1.0000 0.77368  0.30631  0.14820  Biso   1.000  H
  H275     1.0000 0.71639  0.58842  0.98531  Biso   1.000  H
  C255     1.0000 0.76472  0.48751  0.92741  Biso   1.000  C
  H276     1.0000 0.64433  0.48280  0.92371  Biso   1.000  H
  C256     1.0000 0.79657  0.32231  0.04040  Biso   1.000  C
  C257     1.0000 0.82480  0.51349  0.94199  Biso   1.000  C
  C258     1.0000 0.69687  0.33519  0.98060  Biso   1.000  C
  C259     1.0000 0.78560  0.44649  0.90889  Biso   1.000  C
  H277     1.0000 0.83779  0.32549  0.01859  Biso   1.000  H
  H278     1.0000 0.87842  0.50569  0.93680  Biso   1.000  H
  N47      1.0000 0.74681  0.33551  0.94902  Biso   1.000  N
  H279     1.0000 0.64302  0.34109  0.97391  Biso   1.000  H
  N48      1.0000 0.73228  0.42079  0.89678  Biso   1.000  N
  H280     1.0000 0.83981  0.43900  0.90590  Biso   1.000  H
  C260     1.0000 0.71799  0.34430  0.90288  Biso   1.000  C
  C261     1.0000 0.76051  0.38061  0.87951  Biso   1.000  C
  C262     1.0000 0.74041  0.30609  0.87140  Biso   1.000  C
  H281     1.0000 0.65927  0.34889  0.90299  Biso   1.000  H
  C263     1.0000 0.74023  0.37291  0.82961  Biso   1.000  C
  H282     1.0000 0.81899  0.37821  0.88409  Biso   1.000  H
  C264     1.0000 0.73952  0.32581  0.82269  Biso   1.000  C
  H283     1.0000 0.79349  0.29499  0.87900  Biso   1.000  H
  H284     1.0000 0.70079  0.28341  0.87402  Biso   1.000  H
  H285     1.0000 0.68762  0.38492  0.82229  Biso   1.000  H
  H286     1.0000 0.78032  0.38610  0.80970  Biso   1.000  H
  H287     1.0000 0.78661  0.31688  0.80529  Biso   1.000  H
  H288     1.0000 0.69118  0.31720  0.80600  Biso   1.000  H
  C265     1.0000 0.45923  0.75851  0.33341  Biso   1.000  C
  C266     1.0000 0.39161  0.77070  0.30098  Biso   1.000  C
  C267     1.0000 0.49101  0.80130  0.35360  Biso   1.000  C
  H289     1.0000 0.50193  0.74369  0.31669  Biso   1.000  H
  H290     1.0000 0.43942  0.74010  0.35790  Biso   1.000  H
  C268     1.0000 0.38752  0.81731  0.30061  Biso   1.000  C
  H291     1.0000 0.40229  0.76000  0.27012  Biso   1.000  H
  H292     1.0000 0.34073  0.75891  0.31180  Biso   1.000  H
  N49      1.0000 0.57452  0.80006  0.36269  Biso   1.000  N
  C269     1.0000 0.47198  0.83300  0.31411  Biso   1.000  C
  H293     1.0000 0.46100  0.80891  0.38172  Biso   1.000  H
  H294     1.0000 0.34743  0.82729  0.32259  Biso   1.000  H
  H295     1.0000 0.37299  0.82751  0.27001  Biso   1.000  H
  C270     1.0000 0.59860  0.81178  0.40149  Biso   1.000  C
  N50      1.0000 0.47417  0.87454  0.32999  Biso   1.000  N
  H296     1.0000 0.50999  0.82919  0.28840  Biso   1.000  H
  C271     1.0000 0.68412  0.81341  0.41411  Biso   1.000  C
  H297     1.0000 0.56041  0.81999  0.42351  Biso   1.000  H
  C272     1.0000 0.52369  0.90000  0.31058  Biso   1.000  C
  C273     1.0000 0.70340  0.82230  0.45960  Biso   1.000  C
  C274     1.0000 0.74058  0.81069  0.38260  Biso   1.000  C
  C275     1.0000 0.53028  0.94251  0.32090  Biso   1.000  C
  H298     1.0000 0.55780  0.88911  0.28789  Biso   1.000  H
  C276     1.0000 0.78091  0.82616  0.47290  Biso   1.000  C
  H299     1.0000 0.66218  0.82551  0.48141  Biso   1.000  H
  C277     1.0000 0.82101  0.81419  0.39440  Biso   1.000  C
  H300     1.0000 0.72629  0.80629  0.35180  Biso   1.000  H
  C278     1.0000 0.57043  0.96959  0.29261  Biso   1.000  C
  C279     1.0000 0.49789  0.95979  0.36201  Biso   1.000  C
  C280     1.0000 0.84058  0.82239  0.44020  Biso   1.000  C
  C281     1.0000 0.80310  0.83521  0.51940  Biso   1.000  C
  C282     1.0000 0.88370  0.81001  0.35919  Biso   1.000  C
  H301     1.0000 0.59528  0.95830  0.26649  Biso   1.000  H
  C283     1.0000 0.57672  0.01220  0.30000  Biso   1.000  C
  H302     1.0000 0.47352  0.94201  0.38362  Biso   1.000  H
  C284     1.0000 0.50228  0.00281  0.37018  Biso   1.000  C
  H303     1.0000 0.89461  0.82529  0.44881  Biso   1.000  H
  N51      1.0000 0.75322  0.83549  0.55098  Biso   1.000  N
  H304     1.0000 0.85701  0.84111  0.52609  Biso   1.000  H
  N52      1.0000 0.95528  0.80929  0.36750  Biso   1.000  N
  H305     1.0000 0.86750  0.80760  0.32839  Biso   1.000  H
  C285     1.0000 0.54421  0.02751  0.33959  Biso   1.000  C
  C286     1.0000 0.62327  0.04030  0.27069  Biso   1.000  C
  C287     1.0000 0.47150  0.01831  0.41279  Biso   1.000  C
  C288     1.0000 0.78198  0.84429  0.59712  Biso   1.000  C
  C289     1.0000 0.00979  0.80689  0.32809  Biso   1.000  C
  H306     1.0000 0.55062  0.05630  0.34630  Biso   1.000  H
  N53      1.0000 0.66153  0.02804  0.23684  Biso   1.000  N
  H307     1.0000 0.62452  0.06918  0.27799  Biso   1.000  H
  H308     1.0000 0.44748  0.99891  0.43301  Biso   1.000  H
  N54      1.0000 0.47512  0.05739  0.42490  Biso   1.000  N
  C290     1.0000 0.75962  0.80611  0.62860  Biso   1.000  C
  C291     1.0000 0.73952  0.88060  0.62049  Biso   1.000  C
  H309     1.0000 0.84070  0.84890  0.59701  Biso   1.000  H
  H310     1.0000 0.97817  0.80770  0.29939  Biso   1.000  H
  C292     1.0000 0.06708  0.84070  0.32788  Biso   1.000  C
  C293     1.0000 0.06429  0.76821  0.32782  Biso   1.000  C
  C294     1.0000 0.70619  0.05980  0.21258  Biso   1.000  C
  C295     1.0000 0.44048  0.06719  0.46859  Biso   1.000  C
  C296     1.0000 0.76051  0.82579  0.67731  Biso   1.000  C
  H311     1.0000 0.70648  0.79500  0.62100  Biso   1.000  H
  H312     1.0000 0.79918  0.78340  0.62598  Biso   1.000  H
  N55      1.0000 0.76769  0.92077  0.60322  Biso   1.000  N
  C297     1.0000 0.75980  0.87289  0.67039  Biso   1.000  C
  H313     1.0000 0.68098  0.87819  0.61591  Biso   1.000  H
  N56      1.0000 0.03072  0.88131  0.31679  Biso   1.000  N
  C298     1.0000 0.12858  0.82570  0.29379  Biso   1.000  C
  H314     1.0000 0.09240  0.84260  0.35851  Biso   1.000  H
  C299     1.0000 0.12983  0.78031  0.29610  Biso   1.000  C
  H315     1.0000 0.08523  0.76231  0.35851  Biso   1.000  H
  H316     1.0000 0.03570  0.74329  0.31649  Biso   1.000  H
  C300     1.0000 0.78910  0.04501  0.20159  Biso   1.000  C
  C301     1.0000 0.67469  0.06791  0.16442  Biso   1.000  C
  H317     1.0000 0.70791  0.08640  0.23039  Biso   1.000  H
  C302     1.0000 0.49843  0.09429  0.49681  Biso   1.000  C
  C303     1.0000 0.36748  0.09470  0.46669  Biso   1.000  C
  H318     1.0000 0.42821  0.04089  0.48531  Biso   1.000  H
  H319     1.0000 0.71342  0.81690  0.69471  Biso   1.000  H
  H320     1.0000 0.80879  0.81721  0.69400  Biso   1.000  H
  C304     1.0000 0.71437  0.94650  0.59111  Biso   1.000  C
  H321     1.0000 0.81241  0.88490  0.67771  Biso   1.000  H
  H322     1.0000 0.71971  0.88609  0.69030  Biso   1.000  H
  C305     1.0000 0.03950  0.91151  0.34281  Biso   1.000  C
  H323     1.0000 0.11423  0.83499  0.26289  Biso   1.000  H
  H324     1.0000 0.18148  0.83711  0.30149  Biso   1.000  H
  H325     1.0000 0.18160  0.77039  0.30770  Biso   1.000  H
  H326     1.0000 0.12081  0.76821  0.26560  Biso   1.000  H
  N57      1.0000 0.84082  0.04170  0.24108  Biso   1.000  N
  C306     1.0000 0.81840  0.07829  0.16828  Biso   1.000  C
  H327     1.0000 0.78631  0.01750  0.18579  Biso   1.000  H
  C307     1.0000 0.74391  0.08569  0.13789  Biso   1.000  C
  H328     1.0000 0.65601  0.04161  0.15051  Biso   1.000  H
  H329     1.0000 0.63009  0.08799  0.16520  Biso   1.000  H
  N58      1.0000 0.55513  0.06878  0.52120  Biso   1.000  N
  C308     1.0000 0.44220  0.11909  0.52941  Biso   1.000  C
  H330     1.0000 0.52707  0.11410  0.47639  Biso   1.000  H
  C309     1.0000 0.35982  0.11370  0.51330  Biso   1.000  C
  H331     1.0000 0.37382  0.11669  0.44339  Biso   1.000  H
  H332     1.0000 0.31991  0.07789  0.45919  Biso   1.000  H
  C310     1.0000 0.73531  0.98749  0.57259  Biso   1.000  C
  H333     1.0000 0.66022  0.93899  0.59410  Biso   1.000  H
  C311     1.0000 0.00599  0.95190  0.33501  Biso   1.000  C
  H334     1.0000 0.07028  0.90761  0.36940  Biso   1.000  H
  C312     1.0000 0.86750  0.00590  0.25261  Biso   1.000  C
  H335     1.0000 0.86383  0.06800  0.15020  Biso   1.000  H
  H336     1.0000 0.83411  0.10409  0.18440  Biso   1.000  H
  H337     1.0000 0.73608  0.11579  0.13219  Biso   1.000  H
  H338     1.0000 0.74978  0.07121  0.10851  Biso   1.000  H
  C313     1.0000 0.62742  0.07561  0.51509  Biso   1.000  C
  H339     1.0000 0.44742  0.10839  0.56069  Biso   1.000  H
  H340     1.0000 0.45650  0.14901  0.52931  Biso   1.000  H
  H341     1.0000 0.33219  0.14090  0.51180  Biso   1.000  H
  H342     1.0000 0.32987  0.09501  0.53379  Biso   1.000  H
  C314     1.0000 0.81359  0.99991  0.56560  Biso   1.000  C
  C315     1.0000 0.67523  0.01351  0.55801  Biso   1.000  C
  C316     1.0000 0.95380  0.96029  0.29871  Biso   1.000  C
  C317     1.0000 0.01928  0.98509  0.36530  Biso   1.000  C
  C318     1.0000 0.91970  0.99828  0.29189  Biso   1.000  C
  H343     1.0000 0.85262  0.98259  0.23460  Biso   1.000  H
  C319     1.0000 0.69100  0.05081  0.53619  Biso   1.000  C
  H344     1.0000 0.64201  0.09810  0.49579  Biso   1.000  H
  H345     1.0000 0.85570  0.98281  0.57629  Biso   1.000  H
  C320     1.0000 0.83038  0.03650  0.54359  Biso   1.000  C
  H346     1.0000 0.62161  0.00571  0.56320  Biso   1.000  H
  H347     1.0000 0.94188  0.93849  0.27799  Biso   1.000  H
  C321     1.0000 0.98250  0.02430  0.35991  Biso   1.000  C
  H348     1.0000 0.05421  0.98100  0.39020  Biso   1.000  H
  C322     1.0000 0.93381  0.03001  0.32280  Biso   1.000  C
  C323     1.0000 0.77119  0.06270  0.52910  Biso   1.000  C
  C324     1.0000 0.91578  0.04629  0.53409  Biso   1.000  C
  C325     1.0000 0.99359  0.05821  0.39311  Biso   1.000  C
  H349     1.0000 0.90920  0.05640  0.31839  Biso   1.000  H
  H350     1.0000 0.78358  0.08840  0.51469  Biso   1.000  H
  N59      1.0000 0.93512  0.07951  0.51506  Biso   1.000  N
  H351     1.0000 0.95570  0.02701  0.54271  Biso   1.000  H
  H352     1.0000 0.96952  0.08431  0.38660  Biso   1.000  H
  N60      1.0000 0.03309  0.05496  0.42982  Biso   1.000  N
  C326     1.0000 0.02088  0.08469  0.50709  Biso   1.000  C
  C327     1.0000 0.04009  0.09220  0.45672  Biso   1.000  C
  C328     1.0000 0.05379  0.12511  0.52799  Biso   1.000  C
  H353     1.0000 0.05071  0.06001  0.51869  Biso   1.000  H
  C329     1.0000 0.12567  0.10740  0.45729  Biso   1.000  C
  H354     1.0000 0.00480  0.11451  0.44420  Biso   1.000  H
  C330     1.0000 0.12947  0.13310  0.50282  Biso   1.000  C
  H355     1.0000 0.01607  0.14841  0.52391  Biso   1.000  H
  H356     1.0000 0.06411  0.12140  0.56089  Biso   1.000  H
  H357     1.0000 0.13718  0.12539  0.43070  Biso   1.000  H
  H358     1.0000 0.16339  0.08381  0.45770  Biso   1.000  H
  H359     1.0000 0.17561  0.12411  0.52120  Biso   1.000  H
  H360     1.0000 0.13510  0.16320  0.49630  Biso   1.000  H
  C331     1.0000 0.45923  0.24149  0.66659  Biso   1.000  C
  C332     1.0000 0.49101  0.19870  0.64640  Biso   1.000  C
  C333     1.0000 0.39161  0.22930  0.69902  Biso   1.000  C
  H361     1.0000 0.50193  0.25631  0.68331  Biso   1.000  H
  H362     1.0000 0.43942  0.25990  0.64210  Biso   1.000  H
  N61      1.0000 0.57452  0.19994  0.63731  Biso   1.000  N
  C334     1.0000 0.47198  0.16700  0.68589  Biso   1.000  C
  H363     1.0000 0.46100  0.19109  0.61828  Biso   1.000  H
  C335     1.0000 0.38752  0.18269  0.69939  Biso   1.000  C
  H364     1.0000 0.40229  0.24000  0.72988  Biso   1.000  H
  H365     1.0000 0.34073  0.24109  0.68820  Biso   1.000  H
  C336     1.0000 0.59860  0.18822  0.59851  Biso   1.000  C
  N62      1.0000 0.47417  0.12546  0.67001  Biso   1.000  N
  H366     1.0000 0.50999  0.17081  0.71160  Biso   1.000  H
  H367     1.0000 0.34743  0.17271  0.67741  Biso   1.000  H
  H368     1.0000 0.37299  0.17249  0.72999  Biso   1.000  H
  C337     1.0000 0.68412  0.18659  0.58589  Biso   1.000  C
  H369     1.0000 0.56041  0.18001  0.57649  Biso   1.000  H
  C338     1.0000 0.52369  0.10000  0.68942  Biso   1.000  C
  C339     1.0000 0.70340  0.17770  0.54040  Biso   1.000  C
  C340     1.0000 0.74058  0.18931  0.61740  Biso   1.000  C
  C341     1.0000 0.53028  0.05749  0.67910  Biso   1.000  C
  H370     1.0000 0.55780  0.11089  0.71211  Biso   1.000  H
  C342     1.0000 0.78091  0.17384  0.52710  Biso   1.000  C
  H371     1.0000 0.66218  0.17449  0.51859  Biso   1.000  H
  C343     1.0000 0.82101  0.18581  0.60560  Biso   1.000  C
  H372     1.0000 0.72629  0.19371  0.64820  Biso   1.000  H
  C344     1.0000 0.57043  0.03041  0.70739  Biso   1.000  C
  C345     1.0000 0.49789  0.04021  0.63799  Biso   1.000  C
  C346     1.0000 0.80310  0.16479  0.48060  Biso   1.000  C
  C347     1.0000 0.84058  0.17761  0.55980  Biso   1.000  C
  C348     1.0000 0.88370  0.18999  0.64081  Biso   1.000  C
  H373     1.0000 0.59528  0.04170  0.73351  Biso   1.000  H
  C349     1.0000 0.57672  0.98780  0.70000  Biso   1.000  C
  C350     1.0000 0.50228  0.99719  0.62982  Biso   1.000  C
  H374     1.0000 0.47352  0.05799  0.61638  Biso   1.000  H
  N63      1.0000 0.75322  0.16451  0.44902  Biso   1.000  N
  H375     1.0000 0.85701  0.15889  0.47391  Biso   1.000  H
  H376     1.0000 0.89461  0.17471  0.55119  Biso   1.000  H
  N64      1.0000 0.95528  0.19071  0.63250  Biso   1.000  N
  H377     1.0000 0.86750  0.19240  0.67161  Biso   1.000  H
  C351     1.0000 0.54421  0.97249  0.66041  Biso   1.000  C
  C352     1.0000 0.62327  0.95970  0.72931  Biso   1.000  C
  C353     1.0000 0.47150  0.98169  0.58721  Biso   1.000  C
  C354     1.0000 0.78198  0.15571  0.40288  Biso   1.000  C
  C355     1.0000 0.00979  0.19311  0.67191  Biso   1.000  C
  H378     1.0000 0.55062  0.94370  0.65370  Biso   1.000  H
  N65      1.0000 0.66153  0.97196  0.76316  Biso   1.000  N
  H379     1.0000 0.62452  0.93082  0.72201  Biso   1.000  H
  N66      1.0000 0.47512  0.94261  0.57510  Biso   1.000  N
  H380     1.0000 0.44748  0.00109  0.56699  Biso   1.000  H
  C356     1.0000 0.75962  0.19389  0.37140  Biso   1.000  C
  C357     1.0000 0.73952  0.11940  0.37951  Biso   1.000  C
  H381     1.0000 0.84070  0.15110  0.40299  Biso   1.000  H
  H382     1.0000 0.97817  0.19230  0.70061  Biso   1.000  H
  C358     1.0000 0.06708  0.15930  0.67212  Biso   1.000  C
  C359     1.0000 0.06429  0.23179  0.67218  Biso   1.000  C
  C360     1.0000 0.70619  0.94020  0.78742  Biso   1.000  C
  C361     1.0000 0.44048  0.93281  0.53141  Biso   1.000  C
  C362     1.0000 0.76051  0.17421  0.32269  Biso   1.000  C
  H383     1.0000 0.70648  0.20500  0.37900  Biso   1.000  H
  H384     1.0000 0.79918  0.21660  0.37402  Biso   1.000  H
  C363     1.0000 0.75980  0.12711  0.32961  Biso   1.000  C
  N67      1.0000 0.76769  0.07923  0.39678  Biso   1.000  N
  H385     1.0000 0.68098  0.12181  0.38409  Biso   1.000  H
  N68      1.0000 0.03072  0.11869  0.68321  Biso   1.000  N
  C364     1.0000 0.12858  0.17430  0.70621  Biso   1.000  C
  H386     1.0000 0.09240  0.15740  0.64149  Biso   1.000  H
  C365     1.0000 0.12983  0.21969  0.70390  Biso   1.000  C
  H387     1.0000 0.08523  0.23769  0.64149  Biso   1.000  H
  H388     1.0000 0.03570  0.25671  0.68351  Biso   1.000  H
  C366     1.0000 0.78910  0.95499  0.79841  Biso   1.000  C
  C367     1.0000 0.67469  0.93209  0.83558  Biso   1.000  C
  H389     1.0000 0.70791  0.91360  0.76961  Biso   1.000  H
  C368     1.0000 0.49843  0.90571  0.50319  Biso   1.000  C
  C369     1.0000 0.36748  0.90530  0.53331  Biso   1.000  C
  H390     1.0000 0.42821  0.95911  0.51469  Biso   1.000  H
  H391     1.0000 0.71342  0.18310  0.30529  Biso   1.000  H
  H392     1.0000 0.80879  0.18279  0.30600  Biso   1.000  H
  H393     1.0000 0.81241  0.11510  0.32229  Biso   1.000  H
  H394     1.0000 0.71971  0.11391  0.30970  Biso   1.000  H
  C370     1.0000 0.71437  0.05350  0.40889  Biso   1.000  C
  C371     1.0000 0.03950  0.08849  0.65719  Biso   1.000  C
  H395     1.0000 0.11423  0.16501  0.73711  Biso   1.000  H
  H396     1.0000 0.18148  0.16289  0.69851  Biso   1.000  H
  H397     1.0000 0.18160  0.22961  0.69230  Biso   1.000  H
  H398     1.0000 0.12081  0.23179  0.73440  Biso   1.000  H
  N69      1.0000 0.84082  0.95830  0.75892  Biso   1.000  N
  C372     1.0000 0.81840  0.92171  0.83172  Biso   1.000  C
  H399     1.0000 0.78631  0.98250  0.81421  Biso   1.000  H
  C373     1.0000 0.74391  0.91431  0.86211  Biso   1.000  C
  H400     1.0000 0.65601  0.95839  0.84949  Biso   1.000  H
  H401     1.0000 0.63009  0.91201  0.83480  Biso   1.000  H
  N70      1.0000 0.55513  0.93122  0.47880  Biso   1.000  N
  C374     1.0000 0.44220  0.88091  0.47059  Biso   1.000  C
  H402     1.0000 0.52707  0.88590  0.52361  Biso   1.000  H
  C375     1.0000 0.35982  0.88630  0.48670  Biso   1.000  C
  H403     1.0000 0.37382  0.88331  0.55661  Biso   1.000  H
  H404     1.0000 0.31991  0.92211  0.54081  Biso   1.000  H
  C376     1.0000 0.73531  0.01251  0.42741  Biso   1.000  C
  H405     1.0000 0.66022  0.06101  0.40590  Biso   1.000  H
  C377     1.0000 0.00599  0.04810  0.66499  Biso   1.000  C
  H406     1.0000 0.07028  0.09239  0.63060  Biso   1.000  H
  C378     1.0000 0.86750  0.99410  0.74739  Biso   1.000  C
  H407     1.0000 0.86383  0.93200  0.84980  Biso   1.000  H
  H408     1.0000 0.83411  0.89591  0.81560  Biso   1.000  H
  H409     1.0000 0.73608  0.88421  0.86781  Biso   1.000  H
  H410     1.0000 0.74978  0.92879  0.89149  Biso   1.000  H
  C379     1.0000 0.62742  0.92439  0.48491  Biso   1.000  C
  H411     1.0000 0.44742  0.89161  0.43931  Biso   1.000  H
  H412     1.0000 0.45650  0.85099  0.47069  Biso   1.000  H
  H413     1.0000 0.33219  0.85910  0.48820  Biso   1.000  H
  H414     1.0000 0.32987  0.90499  0.46621  Biso   1.000  H
  C380     1.0000 0.81359  0.00009  0.43440  Biso   1.000  C
  C381     1.0000 0.67523  0.98649  0.44199  Biso   1.000  C
  C382     1.0000 0.95380  0.03971  0.70129  Biso   1.000  C
  C383     1.0000 0.01928  0.01491  0.63470  Biso   1.000  C
  C384     1.0000 0.91970  0.00172  0.70811  Biso   1.000  C
  H415     1.0000 0.85262  0.01741  0.76540  Biso   1.000  H
  C385     1.0000 0.69100  0.94919  0.46381  Biso   1.000  C
  H416     1.0000 0.64201  0.90190  0.50421  Biso   1.000  H
  H417     1.0000 0.85570  0.01719  0.42371  Biso   1.000  H
  C386     1.0000 0.83038  0.96350  0.45641  Biso   1.000  C
  H418     1.0000 0.62161  0.99429  0.43680  Biso   1.000  H
  H419     1.0000 0.94188  0.06151  0.72201  Biso   1.000  H
  C387     1.0000 0.98250  0.97570  0.64009  Biso   1.000  C
  H420     1.0000 0.05421  0.01900  0.60980  Biso   1.000  H
  C388     1.0000 0.93381  0.96999  0.67720  Biso   1.000  C
  C389     1.0000 0.77119  0.93730  0.47090  Biso   1.000  C
  C390     1.0000 0.91578  0.95371  0.46591  Biso   1.000  C
  C391     1.0000 0.99359  0.94179  0.60689  Biso   1.000  C
  H421     1.0000 0.90920  0.94360  0.68161  Biso   1.000  H
  H422     1.0000 0.78358  0.91160  0.48531  Biso   1.000  H
  N71      1.0000 0.93512  0.92049  0.48494  Biso   1.000  N
  H423     1.0000 0.95570  0.97299  0.45729  Biso   1.000  H
  N72      1.0000 0.03309  0.94504  0.57018  Biso   1.000  N
  H424     1.0000 0.96952  0.91569  0.61340  Biso   1.000  H
  C392     1.0000 0.02088  0.91531  0.49291  Biso   1.000  C
  C393     1.0000 0.04009  0.90780  0.54328  Biso   1.000  C
  C394     1.0000 0.05379  0.87489  0.47201  Biso   1.000  C
  H425     1.0000 0.05071  0.93999  0.48131  Biso   1.000  H
  C395     1.0000 0.12567  0.89260  0.54271  Biso   1.000  C
  H426     1.0000 0.00480  0.88549  0.55580  Biso   1.000  H
  C396     1.0000 0.12947  0.86690  0.49718  Biso   1.000  C
  H427     1.0000 0.01607  0.85159  0.47609  Biso   1.000  H
  H428     1.0000 0.06411  0.87860  0.43911  Biso   1.000  H
  H429     1.0000 0.13718  0.87461  0.56930  Biso   1.000  H
  H430     1.0000 0.16339  0.91619  0.54230  Biso   1.000  H
  H431     1.0000 0.17561  0.87589  0.47880  Biso   1.000  H
  H432     1.0000 0.13510  0.83680  0.50370  Biso   1.000  H
  C397     1.0000 0.60839  0.77070  0.19902  Biso   1.000  C
  C398     1.0000 0.54077  0.75851  0.16659  Biso   1.000  C
  C399     1.0000 0.61248  0.81731  0.19939  Biso   1.000  C
  H433     1.0000 0.59771  0.76000  0.22988  Biso   1.000  H
  H434     1.0000 0.65927  0.75891  0.18820  Biso   1.000  H
  C400     1.0000 0.50899  0.80130  0.14640  Biso   1.000  C
  H435     1.0000 0.49807  0.74369  0.18331  Biso   1.000  H
  H436     1.0000 0.56058  0.74010  0.14210  Biso   1.000  H
  C401     1.0000 0.52802  0.83300  0.18589  Biso   1.000  C
  H437     1.0000 0.65257  0.82729  0.17741  Biso   1.000  H
  H438     1.0000 0.62701  0.82751  0.22999  Biso   1.000  H
  N73      1.0000 0.42548  0.80006  0.13731  Biso   1.000  N
  H439     1.0000 0.53900  0.80891  0.11828  Biso   1.000  H
  N74      1.0000 0.52583  0.87454  0.17001  Biso   1.000  N
  H440     1.0000 0.49001  0.82919  0.21160  Biso   1.000  H
  C402     1.0000 0.40140  0.81178  0.09851  Biso   1.000  C
  C403     1.0000 0.47631  0.90000  0.18942  Biso   1.000  C
  C404     1.0000 0.31588  0.81341  0.08589  Biso   1.000  C
  H441     1.0000 0.43959  0.81999  0.07649  Biso   1.000  H
  C405     1.0000 0.46972  0.94251  0.17910  Biso   1.000  C
  H442     1.0000 0.44220  0.88911  0.21211  Biso   1.000  H
  C406     1.0000 0.29660  0.82230  0.04040  Biso   1.000  C
  C407     1.0000 0.25942  0.81069  0.11740  Biso   1.000  C
  C408     1.0000 0.42957  0.96959  0.20739  Biso   1.000  C
  C409     1.0000 0.50211  0.95979  0.13799  Biso   1.000  C
  C410     1.0000 0.21909  0.82616  0.02710  Biso   1.000  C
  H443     1.0000 0.33782  0.82551  0.01859  Biso   1.000  H
  C411     1.0000 0.17899  0.81419  0.10560  Biso   1.000  C
  H444     1.0000 0.27371  0.80629  0.14820  Biso   1.000  H
  H445     1.0000 0.40472  0.95830  0.23351  Biso   1.000  H
  C412     1.0000 0.42328  0.01220  0.20000  Biso   1.000  C
  H446     1.0000 0.52648  0.94201  0.11638  Biso   1.000  H
  C413     1.0000 0.49772  0.00281  0.12982  Biso   1.000  C
  C414     1.0000 0.15942  0.82239  0.05980  Biso   1.000  C
  C415     1.0000 0.19690  0.83521  0.98060  Biso   1.000  C
  C416     1.0000 0.11630  0.81001  0.14081  Biso   1.000  C
  C417     1.0000 0.45579  0.02751  0.16041  Biso   1.000  C
  C418     1.0000 0.37673  0.04030  0.22931  Biso   1.000  C
  C419     1.0000 0.52850  0.01831  0.08721  Biso   1.000  C
  H447     1.0000 0.10539  0.82529  0.05119  Biso   1.000  H
  N75      1.0000 0.24678  0.83549  0.94902  Biso   1.000  N
  H448     1.0000 0.14299  0.84111  0.97391  Biso   1.000  H
  N76      1.0000 0.04472  0.80929  0.13250  Biso   1.000  N
  H449     1.0000 0.13250  0.80760  0.17161  Biso   1.000  H
  H450     1.0000 0.44938  0.05630  0.15370  Biso   1.000  H
  N77      1.0000 0.33847  0.02804  0.26316  Biso   1.000  N
  H451     1.0000 0.37548  0.06918  0.22201  Biso   1.000  H
  H452     1.0000 0.55252  0.99891  0.06699  Biso   1.000  H
  N78      1.0000 0.52488  0.05739  0.07510  Biso   1.000  N
  C420     1.0000 0.21802  0.84429  0.90288  Biso   1.000  C
  C421     1.0000 0.99021  0.80689  0.17191  Biso   1.000  C
  C422     1.0000 0.29381  0.05980  0.28742  Biso   1.000  C
  C423     1.0000 0.55952  0.06719  0.03141  Biso   1.000  C
  C424     1.0000 0.24038  0.80611  0.87140  Biso   1.000  C
  C425     1.0000 0.26048  0.88060  0.87951  Biso   1.000  C
  H453     1.0000 0.15930  0.84890  0.90299  Biso   1.000  H
  H454     1.0000 0.02183  0.80770  0.20061  Biso   1.000  H
  C426     1.0000 0.93292  0.84070  0.17212  Biso   1.000  C
  C427     1.0000 0.93571  0.76821  0.17218  Biso   1.000  C
  C428     1.0000 0.21090  0.04501  0.29841  Biso   1.000  C
  C429     1.0000 0.32531  0.06791  0.33558  Biso   1.000  C
  H455     1.0000 0.29209  0.08640  0.26961  Biso   1.000  H
  C430     1.0000 0.50157  0.09429  0.00319  Biso   1.000  C
  C431     1.0000 0.63252  0.09470  0.03331  Biso   1.000  C
  H456     1.0000 0.57179  0.04089  0.01469  Biso   1.000  H
  C432     1.0000 0.23949  0.82579  0.82269  Biso   1.000  C
  H457     1.0000 0.29352  0.79500  0.87900  Biso   1.000  H
  H458     1.0000 0.20082  0.78340  0.87402  Biso   1.000  H
  N79      1.0000 0.23231  0.92077  0.89678  Biso   1.000  N
  C433     1.0000 0.24020  0.87289  0.82961  Biso   1.000  C
  H459     1.0000 0.31902  0.87819  0.88409  Biso   1.000  H
  N80      1.0000 0.96928  0.88131  0.18321  Biso   1.000  N
  C434     1.0000 0.87142  0.82570  0.20621  Biso   1.000  C
  H460     1.0000 0.90760  0.84260  0.14149  Biso   1.000  H
  C435     1.0000 0.87017  0.78031  0.20390  Biso   1.000  C
  H461     1.0000 0.91477  0.76231  0.14149  Biso   1.000  H
  H462     1.0000 0.96430  0.74329  0.18351  Biso   1.000  H
  N81      1.0000 0.15918  0.04170  0.25892  Biso   1.000  N
  C436     1.0000 0.18160  0.07829  0.33172  Biso   1.000  C
  H463     1.0000 0.21369  0.01750  0.31421  Biso   1.000  H
  C437     1.0000 0.25609  0.08569  0.36211  Biso   1.000  C
  H464     1.0000 0.34399  0.04161  0.34949  Biso   1.000  H
  H465     1.0000 0.36991  0.08799  0.33480  Biso   1.000  H
  N82      1.0000 0.44487  0.06878  0.97880  Biso   1.000  N
  C438     1.0000 0.55780  0.11909  0.97059  Biso   1.000  C
  H466     1.0000 0.47293  0.11410  0.02361  Biso   1.000  H
  C439     1.0000 0.64018  0.11370  0.98670  Biso   1.000  C
  H467     1.0000 0.62618  0.11669  0.05661  Biso   1.000  H
  H468     1.0000 0.68009  0.07789  0.04081  Biso   1.000  H
  H469     1.0000 0.28658  0.81690  0.80529  Biso   1.000  H
  H470     1.0000 0.19121  0.81721  0.80600  Biso   1.000  H
  C440     1.0000 0.28563  0.94650  0.90889  Biso   1.000  C
  H471     1.0000 0.18759  0.88490  0.82229  Biso   1.000  H
  H472     1.0000 0.28029  0.88609  0.80970  Biso   1.000  H
  C441     1.0000 0.96050  0.91151  0.15719  Biso   1.000  C
  H473     1.0000 0.88577  0.83499  0.23711  Biso   1.000  H
  H474     1.0000 0.81852  0.83711  0.19851  Biso   1.000  H
  H475     1.0000 0.81840  0.77039  0.19230  Biso   1.000  H
  H476     1.0000 0.87919  0.76821  0.23440  Biso   1.000  H
  C442     1.0000 0.13250  0.00590  0.24739  Biso   1.000  C
  H477     1.0000 0.13617  0.06800  0.34980  Biso   1.000  H
  H478     1.0000 0.16589  0.10409  0.31560  Biso   1.000  H
  H479     1.0000 0.26392  0.11579  0.36781  Biso   1.000  H
  H480     1.0000 0.25022  0.07121  0.39149  Biso   1.000  H
  C443     1.0000 0.37258  0.07561  0.98491  Biso   1.000  C
  H481     1.0000 0.55258  0.10839  0.93931  Biso   1.000  H
  H482     1.0000 0.54350  0.14901  0.97069  Biso   1.000  H
  H483     1.0000 0.66781  0.14090  0.98820  Biso   1.000  H
  H484     1.0000 0.67013  0.09501  0.96621  Biso   1.000  H
  C444     1.0000 0.26469  0.98749  0.92741  Biso   1.000  C
  H485     1.0000 0.33978  0.93899  0.90590  Biso   1.000  H
  C445     1.0000 0.99401  0.95190  0.16499  Biso   1.000  C
  H486     1.0000 0.92972  0.90761  0.13060  Biso   1.000  H
  C446     1.0000 0.08030  0.99828  0.20811  Biso   1.000  C
  H487     1.0000 0.14738  0.98259  0.26540  Biso   1.000  H
  C447     1.0000 0.30900  0.05081  0.96381  Biso   1.000  C
  H488     1.0000 0.35799  0.09810  0.00421  Biso   1.000  H
  C448     1.0000 0.18641  0.99991  0.93440  Biso   1.000  C
  C449     1.0000 0.32477  0.01351  0.94199  Biso   1.000  C
  C450     1.0000 0.04620  0.96029  0.20129  Biso   1.000  C
  C451     1.0000 0.98072  0.98509  0.13470  Biso   1.000  C
  C452     1.0000 0.06619  0.03001  0.17720  Biso   1.000  C
  C453     1.0000 0.22881  0.06270  0.97090  Biso   1.000  C
  H489     1.0000 0.14430  0.98281  0.92371  Biso   1.000  H
  C454     1.0000 0.16962  0.03650  0.95641  Biso   1.000  C
  H490     1.0000 0.37839  0.00571  0.93680  Biso   1.000  H
  H491     1.0000 0.05812  0.93849  0.22201  Biso   1.000  H
  H492     1.0000 0.94579  0.98100  0.10980  Biso   1.000  H
  C455     1.0000 0.01750  0.02430  0.14009  Biso   1.000  C
  H493     1.0000 0.09080  0.05640  0.18161  Biso   1.000  H
  H494     1.0000 0.21642  0.08840  0.98531  Biso   1.000  H
  C456     1.0000 0.08422  0.04629  0.96591  Biso   1.000  C
  C457     1.0000 0.00641  0.05821  0.10689  Biso   1.000  C
  N83      1.0000 0.06488  0.07951  0.98494  Biso   1.000  N
  H495     1.0000 0.04430  0.02701  0.95729  Biso   1.000  H
  N84      1.0000 0.96691  0.05496  0.07018  Biso   1.000  N
  H496     1.0000 0.03048  0.08431  0.11340  Biso   1.000  H
  C458     1.0000 0.97912  0.08469  0.99291  Biso   1.000  C
  C459     1.0000 0.95991  0.09220  0.04328  Biso   1.000  C
  C460     1.0000 0.94621  0.12511  0.97201  Biso   1.000  C
  H497     1.0000 0.94929  0.06001  0.98131  Biso   1.000  H
  C461     1.0000 0.87433  0.10740  0.04271  Biso   1.000  C
  H498     1.0000 0.99520  0.11451  0.05580  Biso   1.000  H
  C462     1.0000 0.87053  0.13310  0.99718  Biso   1.000  C
  H499     1.0000 0.98393  0.14841  0.97609  Biso   1.000  H
  H500     1.0000 0.93589  0.12140  0.93911  Biso   1.000  H
  H501     1.0000 0.86282  0.12539  0.06930  Biso   1.000  H
  H502     1.0000 0.83661  0.08381  0.04230  Biso   1.000  H
  H503     1.0000 0.82439  0.12411  0.97880  Biso   1.000  H
  H504     1.0000 0.86490  0.16320  0.00370  Biso   1.000  H
  C463     1.0000 0.60839  0.22930  0.80098  Biso   1.000  C
  C464     1.0000 0.61248  0.18269  0.80061  Biso   1.000  C
  C465     1.0000 0.54077  0.24149  0.83341  Biso   1.000  C
  H505     1.0000 0.59771  0.24000  0.77012  Biso   1.000  H
  H506     1.0000 0.65927  0.24109  0.81180  Biso   1.000  H
  C466     1.0000 0.52802  0.16700  0.81411  Biso   1.000  C
  H507     1.0000 0.65257  0.17271  0.82259  Biso   1.000  H
  H508     1.0000 0.62701  0.17249  0.77001  Biso   1.000  H
  C467     1.0000 0.50899  0.19870  0.85360  Biso   1.000  C
  H509     1.0000 0.49807  0.25631  0.81669  Biso   1.000  H
  H510     1.0000 0.56058  0.25990  0.85790  Biso   1.000  H
  N85      1.0000 0.52583  0.12546  0.82999  Biso   1.000  N
  H511     1.0000 0.49001  0.17081  0.78840  Biso   1.000  H
  N86      1.0000 0.42548  0.19994  0.86269  Biso   1.000  N
  H512     1.0000 0.53900  0.19109  0.88172  Biso   1.000  H
  C468     1.0000 0.47631  0.10000  0.81058  Biso   1.000  C
  C469     1.0000 0.40140  0.18822  0.90149  Biso   1.000  C
  C470     1.0000 0.46972  0.05749  0.82090  Biso   1.000  C
  H513     1.0000 0.44220  0.11089  0.78789  Biso   1.000  H
  C471     1.0000 0.31588  0.18659  0.91411  Biso   1.000  C
  H514     1.0000 0.43959  0.18001  0.92351  Biso   1.000  H
  C472     1.0000 0.42957  0.03041  0.79261  Biso   1.000  C
  C473     1.0000 0.50211  0.04021  0.86201  Biso   1.000  C
  C474     1.0000 0.29660  0.17770  0.95960  Biso   1.000  C
  C475     1.0000 0.25942  0.18931  0.88260  Biso   1.000  C
  H515     1.0000 0.40472  0.04170  0.76649  Biso   1.000  H
  C476     1.0000 0.42328  0.98780  0.80000  Biso   1.000  C
  H516     1.0000 0.52648  0.05799  0.88362  Biso   1.000  H
  C477     1.0000 0.49772  0.99719  0.87018  Biso   1.000  C
  C478     1.0000 0.21909  0.17384  0.97290  Biso   1.000  C
  H517     1.0000 0.33782  0.17449  0.98141  Biso   1.000  H
  C479     1.0000 0.17899  0.18581  0.89440  Biso   1.000  C
  H518     1.0000 0.27371  0.19371  0.85180  Biso   1.000  H
  C480     1.0000 0.45579  0.97249  0.83959  Biso   1.000  C
  C481     1.0000 0.37673  0.95970  0.77069  Biso   1.000  C
  C482     1.0000 0.52850  0.98169  0.91279  Biso   1.000  C
  C483     1.0000 0.15942  0.17761  0.94020  Biso   1.000  C
  C484     1.0000 0.19690  0.16479  0.01940  Biso   1.000  C
  C485     1.0000 0.11630  0.18999  0.85919  Biso   1.000  C
  H519     1.0000 0.44938  0.94370  0.84630  Biso   1.000  H
  N87      1.0000 0.33847  0.97196  0.73684  Biso   1.000  N
  H520     1.0000 0.37548  0.93082  0.77799  Biso   1.000  H
  H521     1.0000 0.55252  0.00109  0.93301  Biso   1.000  H
  N88      1.0000 0.52488  0.94261  0.92490  Biso   1.000  N
  H522     1.0000 0.10539  0.17471  0.94881  Biso   1.000  H
  N89      1.0000 0.24678  0.16451  0.05098  Biso   1.000  N
  H523     1.0000 0.14299  0.15889  0.02609  Biso   1.000  H
  N90      1.0000 0.04472  0.19071  0.86750  Biso   1.000  N
  H524     1.0000 0.13250  0.19240  0.82839  Biso   1.000  H
  C486     1.0000 0.29381  0.94020  0.71258  Biso   1.000  C
  C487     1.0000 0.55952  0.93281  0.96859  Biso   1.000  C
  C488     1.0000 0.21802  0.15571  0.09712  Biso   1.000  C
  C489     1.0000 0.99021  0.19311  0.82809  Biso   1.000  C
  C490     1.0000 0.21090  0.95499  0.70159  Biso   1.000  C
  C491     1.0000 0.32531  0.93209  0.66442  Biso   1.000  C
  H525     1.0000 0.29209  0.91360  0.73039  Biso   1.000  H
  C492     1.0000 0.50157  0.90571  0.99681  Biso   1.000  C
  C493     1.0000 0.63252  0.90530  0.96669  Biso   1.000  C
  H526     1.0000 0.57179  0.95911  0.98531  Biso   1.000  H
  C494     1.0000 0.24038  0.19389  0.12860  Biso   1.000  C
  C495     1.0000 0.26048  0.11940  0.12049  Biso   1.000  C
  H527     1.0000 0.15930  0.15110  0.09701  Biso   1.000  H
  H528     1.0000 0.02183  0.19230  0.79939  Biso   1.000  H
  C496     1.0000 0.93292  0.15930  0.82788  Biso   1.000  C
  C497     1.0000 0.93571  0.23179  0.82782  Biso   1.000  C
  N91      1.0000 0.15918  0.95830  0.74108  Biso   1.000  N
  C498     1.0000 0.18160  0.92171  0.66828  Biso   1.000  C
  H529     1.0000 0.21369  0.98250  0.68579  Biso   1.000  H
  C499     1.0000 0.25609  0.91431  0.63789  Biso   1.000  C
  H530     1.0000 0.34399  0.95839  0.65051  Biso   1.000  H
  H531     1.0000 0.36991  0.91201  0.66520  Biso   1.000  H
  H532     1.0000 0.47293  0.88590  0.97639  Biso   1.000  H
  N92      1.0000 0.44487  0.93122  0.02120  Biso   1.000  N
  C500     1.0000 0.55780  0.88091  0.02941  Biso   1.000  C
  H533     1.0000 0.62618  0.88331  0.94339  Biso   1.000  H
  H534     1.0000 0.68009  0.92211  0.95919  Biso   1.000  H
  C501     1.0000 0.64018  0.88630  0.01330  Biso   1.000  C
  C502     1.0000 0.23949  0.17421  0.17731  Biso   1.000  C
  H535     1.0000 0.29352  0.20500  0.12100  Biso   1.000  H
  H536     1.0000 0.20082  0.21660  0.12598  Biso   1.000  H
  N93      1.0000 0.23231  0.07923  0.10322  Biso   1.000  N
  C503     1.0000 0.24020  0.12711  0.17039  Biso   1.000  C
  H537     1.0000 0.31902  0.12181  0.11591  Biso   1.000  H
  N94      1.0000 0.96928  0.11869  0.81679  Biso   1.000  N
  C504     1.0000 0.87142  0.17430  0.79379  Biso   1.000  C
  H538     1.0000 0.90760  0.15740  0.85851  Biso   1.000  H
  C505     1.0000 0.87017  0.21969  0.79610  Biso   1.000  C
  H539     1.0000 0.91477  0.23769  0.85851  Biso   1.000  H
  H540     1.0000 0.96430  0.25671  0.81649  Biso   1.000  H
  C506     1.0000 0.13250  0.99410  0.75261  Biso   1.000  C
  H541     1.0000 0.13617  0.93200  0.65020  Biso   1.000  H
  H542     1.0000 0.16589  0.89591  0.68440  Biso   1.000  H
  H543     1.0000 0.26392  0.88421  0.63219  Biso   1.000  H
  H544     1.0000 0.25022  0.92879  0.60851  Biso   1.000  H
  C507     1.0000 0.37258  0.92439  0.01509  Biso   1.000  C
  H545     1.0000 0.55258  0.89161  0.06069  Biso   1.000  H
  H546     1.0000 0.54350  0.85099  0.02931  Biso   1.000  H
  H547     1.0000 0.66781  0.85910  0.01180  Biso   1.000  H
  H548     1.0000 0.67013  0.90499  0.03379  Biso   1.000  H
  H549     1.0000 0.28658  0.18310  0.19471  Biso   1.000  H
  H550     1.0000 0.19121  0.18279  0.19400  Biso   1.000  H
  C508     1.0000 0.28563  0.05350  0.09111  Biso   1.000  C
  H551     1.0000 0.18759  0.11510  0.17771  Biso   1.000  H
  H552     1.0000 0.28029  0.11391  0.19030  Biso   1.000  H
  C509     1.0000 0.96050  0.08849  0.84281  Biso   1.000  C
  H553     1.0000 0.88577  0.16501  0.76289  Biso   1.000  H
  H554     1.0000 0.81852  0.16289  0.80149  Biso   1.000  H
  H555     1.0000 0.81840  0.22961  0.80770  Biso   1.000  H
  H556     1.0000 0.87919  0.23179  0.76560  Biso   1.000  H
  C510     1.0000 0.08030  0.00172  0.79189  Biso   1.000  C
  H557     1.0000 0.14738  0.01741  0.73460  Biso   1.000  H
  H558     1.0000 0.35799  0.90190  0.99579  Biso   1.000  H
  C511     1.0000 0.30900  0.94919  0.03619  Biso   1.000  C
  C512     1.0000 0.26469  0.01251  0.07259  Biso   1.000  C
  H559     1.0000 0.33978  0.06101  0.09410  Biso   1.000  H
  C513     1.0000 0.99401  0.04810  0.83501  Biso   1.000  C
  H560     1.0000 0.92972  0.09239  0.86940  Biso   1.000  H
  C514     1.0000 0.04620  0.03971  0.79871  Biso   1.000  C
  C515     1.0000 0.06619  0.96999  0.82280  Biso   1.000  C
  C516     1.0000 0.32477  0.98649  0.05801  Biso   1.000  C
  C517     1.0000 0.22881  0.93730  0.02910  Biso   1.000  C
  C518     1.0000 0.18641  0.00009  0.06560  Biso   1.000  C
  C519     1.0000 0.98072  0.01491  0.86530  Biso   1.000  C
  H561     1.0000 0.05812  0.06151  0.77799  Biso   1.000  H
  C520     1.0000 0.01750  0.97570  0.85991  Biso   1.000  C
  H562     1.0000 0.09080  0.94360  0.81839  Biso   1.000  H
  H563     1.0000 0.37839  0.99429  0.06320  Biso   1.000  H
  C521     1.0000 0.16962  0.96350  0.04359  Biso   1.000  C
  H564     1.0000 0.21642  0.91160  0.01469  Biso   1.000  H
  H565     1.0000 0.14430  0.01719  0.07629  Biso   1.000  H
  H566     1.0000 0.94579  0.01900  0.89020  Biso   1.000  H
  C522     1.0000 0.00641  0.94179  0.89311  Biso   1.000  C
  C523     1.0000 0.08422  0.95371  0.03409  Biso   1.000  C
  N95      1.0000 0.96691  0.94504  0.92982  Biso   1.000  N
  H567     1.0000 0.03048  0.91569  0.88660  Biso   1.000  H
  N96      1.0000 0.06488  0.92049  0.01506  Biso   1.000  N
  H568     1.0000 0.04430  0.97299  0.04271  Biso   1.000  H
  C524     1.0000 0.95991  0.90780  0.95672  Biso   1.000  C
  C525     1.0000 0.97912  0.91531  0.00709  Biso   1.000  C
  C526     1.0000 0.87433  0.89260  0.95729  Biso   1.000  C
  H569     1.0000 0.99520  0.88549  0.94420  Biso   1.000  H
  C527     1.0000 0.94621  0.87489  0.02799  Biso   1.000  C
  H570     1.0000 0.94929  0.93999  0.01869  Biso   1.000  H
  H571     1.0000 0.86282  0.87461  0.93070  Biso   1.000  H
  H572     1.0000 0.83661  0.91619  0.95770  Biso   1.000  H
  C528     1.0000 0.87053  0.86690  0.00282  Biso   1.000  C
  H573     1.0000 0.98393  0.85159  0.02391  Biso   1.000  H
  H574     1.0000 0.93589  0.87860  0.06089  Biso   1.000  H
  H575     1.0000 0.86490  0.83680  0.99630  Biso   1.000  H
  H576     1.0000 0.82439  0.87589  0.02120  Biso   1.000  H
  Ne1      1.0000 0.74546  0.45428  0.09221  Biso   1.000  Ne
  He1      1.0000 0.74376  0.41217  0.17876  Biso   1.000  He
  He2      1.0000 0.75249  0.54611  0.10107  Biso   1.000  He
  He3      1.0000 0.87439  0.43417  0.03455  Biso   1.000  He
  He4      1.0000 0.59925  0.43687  0.03497  Biso   1.000  He
  Ar1      1.0000 0.74384  0.46070  0.08348  Biso   1.000  Ar
  Ne2      1.0000 0.25454  0.45428  0.40779  Biso   1.000  Ne
  He5      1.0000 0.38388  0.43970  0.45911  Biso   1.000  He
  He6      1.0000 0.13372  0.43577  0.46253  Biso   1.000  He
  He7      1.0000 0.24785  0.53907  0.40035  Biso   1.000  He
  He8      1.0000 0.25627  0.41034  0.31740  Biso   1.000  He
  Ar2      1.0000 0.25702  0.45509  0.40782  Biso   1.000  Ar
  Ne3      1.0000 0.25454  0.54572  0.59221  Biso   1.000  Ne
  He9      1.0000 0.25626  0.58873  0.68064  Biso   1.000  He
  He10     1.0000 0.24815  0.46690  0.59846  Biso   1.000  He
  He11     1.0000 0.09991  0.57091  0.52530  Biso   1.000  He
  He12     1.0000 0.39617  0.56236  0.53658  Biso   1.000  He
  Ar3      1.0000 0.25702  0.54491  0.59218  Biso   1.000  Ar
  Ne4      1.0000 0.75454  0.04572  0.59221  Biso   1.000  Ne
  He13     1.0000 0.75625  0.08875  0.68063  Biso   1.000  He
  He14     1.0000 0.74818  0.96689  0.59847  Biso   1.000  He
  He15     1.0000 0.59995  0.07090  0.52530  Biso   1.000  He
  He16     1.0000 0.89614  0.06237  0.53657  Biso   1.000  He
  Ar4      1.0000 0.75701  0.04489  0.59219  Biso   1.000  Ar
  Ne5      1.0000 0.74546  0.54572  0.90779  Biso   1.000  Ne
  He17     1.0000 0.62416  0.55896  0.95630  Biso   1.000  He
  He18     1.0000 0.87202  0.56537  0.96460  Biso   1.000  He
  He19     1.0000 0.75205  0.46284  0.90073  Biso   1.000  He
  He20     1.0000 0.74374  0.58868  0.81945  Biso   1.000  He
  Ar5      1.0000 0.74298  0.54491  0.90782  Biso   1.000  Ar
  Ne6      1.0000 0.24546  0.04572  0.90779  Biso   1.000  Ne
  He21     1.0000 0.12420  0.05897  0.95631  Biso   1.000  He
  He22     1.0000 0.37204  0.06537  0.96461  Biso   1.000  He
  He23     1.0000 0.25202  0.96283  0.90072  Biso   1.000  He
  He24     1.0000 0.24375  0.08871  0.81945  Biso   1.000  He
  Ar6      1.0000 0.24299  0.04489  0.90781  Biso   1.000  Ar
  Ne7      1.0000 0.75454  0.95428  0.40779  Biso   1.000  Ne
  He25     1.0000 0.88384  0.93969  0.45912  Biso   1.000  He
  He26     1.0000 0.63370  0.93576  0.46255  Biso   1.000  He
  He27     1.0000 0.74788  0.03908  0.40033  Biso   1.000  He
  He28     1.0000 0.75626  0.91032  0.31741  Biso   1.000  He
  Ar7      1.0000 0.75701  0.95511  0.40781  Biso   1.000  Ar
  Ne8      1.0000 0.24546  0.95428  0.09221  Biso   1.000  Ne
  He29     1.0000 0.24376  0.91214  0.17877  Biso   1.000  He
  He30     1.0000 0.25292  0.05537  0.10292  Biso   1.000  He
  He31     1.0000 0.36571  0.93588  0.03767  Biso   1.000  He
  He32     1.0000 0.10903  0.93849  0.03838  Biso   1.000  He
  Ar8      1.0000 0.24299  0.95511  0.09219  Biso   1.000  Ar
