data_image0
_cell_length_a       12.199
_cell_length_b       12.238
_cell_length_c       26.488
_cell_angle_alpha    88.94
_cell_angle_beta     85.61
_cell_angle_gamma    84.5

_symmetry_space_group_name_H-M    "P 1"
_symmetry_int_tables_number       1

loop_
  _symmetry_equiv_pos_as_xyz
  'x, y, z'

loop_
  _atom_site_label
  _atom_site_occupancy
  _atom_site_fract_x
  _atom_site_fract_y
  _atom_site_fract_z
  _atom_site_thermal_displace_type
  _atom_site_B_iso_or_equiv
  _atom_site_type_symbol
  N1       1.0000 0.86388  0.13815  0.84215  Biso   1.000  N
  C1       1.0000 0.82670  0.03505  0.82810  Biso   1.000  C
  C2       1.0000 0.79375  0.23101  0.86169  Biso   1.000  C
  C3       1.0000 0.97726  0.13519  0.83885  Biso   1.000  C
  C4       1.0000 0.82662  0.03497  0.82814  Biso   1.000  C
  C5       1.0000 0.79376  0.23101  0.86165  Biso   1.000  C
  C6       1.0000 0.97727  0.13519  0.83882  Biso   1.000  C
  C7       1.0000 0.97726  0.13527  0.83885  Biso   1.000  C
  C8       1.0000 0.82661  0.03505  0.82814  Biso   1.000  C
  C9       1.0000 0.79384  0.23101  0.86165  Biso   1.000  C
  C10      1.0000 0.82671  0.03497  0.82810  Biso   1.000  C
  H1       1.0000 0.77639  0.04516  0.80091  Biso   1.000  H
  N2       1.0000 0.86380  0.13806  0.84219  Biso   1.000  N
  H2       1.0000 0.77646  0.04524  0.80091  Biso   1.000  H
  N3       1.0000 0.86387  0.13814  0.84219  Biso   1.000  N
  H3       1.0000 0.77647  0.04516  0.80091  Biso   1.000  H
  N4       1.0000 0.86389  0.13806  0.84215  Biso   1.000  N
  C11      1.0000 0.93534  0.96481  0.81038  Biso   1.000  C
  N5       1.0000 0.78082  0.97058  0.86968  Biso   1.000  N
  C12      1.0000 0.93526  0.96481  0.81034  Biso   1.000  C
  N6       1.0000 0.78074  0.97058  0.86964  Biso   1.000  N
  C13      1.0000 0.93527  0.96472  0.81038  Biso   1.000  C
  N7       1.0000 0.78074  0.97058  0.86968  Biso   1.000  N
  N8       1.0000 0.78083  0.97058  0.86964  Biso   1.000  N
  H4       1.0000 0.83293  0.29606  0.85661  Biso   1.000  H
  H5       1.0000 0.72904  0.24100  0.84230  Biso   1.000  H
  N9       1.0000 0.75784  0.22150  0.91504  Biso   1.000  N
  H6       1.0000 0.83300  0.29615  0.85661  Biso   1.000  H
  H7       1.0000 0.83292  0.29615  0.85661  Biso   1.000  H
  N10      1.0000 0.75783  0.22158  0.91504  Biso   1.000  N
  H8       1.0000 0.83301  0.29606  0.85661  Biso   1.000  H
  H9       1.0000 0.72912  0.24100  0.84230  Biso   1.000  H
  N11      1.0000 0.75792  0.22150  0.91504  Biso   1.000  N
  N12      1.0000 0.02000  0.03470  0.82235  Biso   1.000  N
  N13      1.0000 0.02008  0.03470  0.82235  Biso   1.000  N
  O1       1.0000 0.02947  0.21163  0.84844  Biso   1.000  O
  O2       1.0000 0.02947  0.21171  0.84840  Biso   1.000  O
  O3       1.0000 0.02947  0.21171  0.84844  Biso   1.000  O
  O4       1.0000 0.02948  0.21163  0.84840  Biso   1.000  O
  N14      1.0000 0.93132  0.86620  0.84132  Biso   1.000  N
  H10      1.0000 0.93898  0.94870  0.77410  Biso   1.000  H
  N15      1.0000 0.93124  0.86620  0.84132  Biso   1.000  N
  C14      1.0000 0.66740  0.99100  0.89069  Biso   1.000  C
  C15      1.0000 0.83738  0.86740  0.87267  Biso   1.000  C
  C16      1.0000 0.66733  0.99092  0.89069  Biso   1.000  C
  C17      1.0000 0.83739  0.86732  0.87267  Biso   1.000  C
  C18      1.0000 0.79671  0.28349  0.95162  Biso   1.000  C
  C19      1.0000 0.65360  0.18012  0.93193  Biso   1.000  C
  C20      1.0000 0.79679  0.28349  0.95162  Biso   1.000  C
  C21      1.0000 0.65368  0.18012  0.93189  Biso   1.000  C
  C22      1.0000 0.79678  0.28357  0.95162  Biso   1.000  C
  C23      1.0000 0.65368  0.18012  0.93193  Biso   1.000  C
  C24      1.0000 0.13648  0.00822  0.80758  Biso   1.000  C
  C25      1.0000 0.13657  0.00822  0.80758  Biso   1.000  C
  C26      1.0000 0.00440  0.76678  0.83151  Biso   1.000  C
  C27      1.0000 0.00432  0.76678  0.83147  Biso   1.000  C
  C28      1.0000 0.00432  0.76678  0.83151  Biso   1.000  C
  C29      1.0000 0.00440  0.76678  0.83147  Biso   1.000  C
  H11      1.0000 0.62259  0.02390  0.86460  Biso   1.000  H
  N16      1.0000 0.65434  0.06153  0.93394  Biso   1.000  N
  H12      1.0000 0.62267  0.02390  0.86460  Biso   1.000  H
  N17      1.0000 0.65434  0.06153  0.93390  Biso   1.000  N
  N18      1.0000 0.65443  0.06145  0.93390  Biso   1.000  N
  H13      1.0000 0.63970  0.92132  0.90043  Biso   1.000  H
  H14      1.0000 0.63970  0.92132  0.90039  Biso   1.000  H
  H15      1.0000 0.63962  0.92124  0.90043  Biso   1.000  H
  O5       1.0000 0.80842  0.79156  0.89940  Biso   1.000  O
  O6       1.0000 0.80834  0.79164  0.89937  Biso   1.000  O
  O7       1.0000 0.80834  0.79156  0.89940  Biso   1.000  O
  O8       1.0000 0.80843  0.79156  0.89937  Biso   1.000  O
  N19      1.0000 0.73251  0.27199  0.99532  Biso   1.000  N
  O9       1.0000 0.87553  0.33806  0.94541  Biso   1.000  O
  N20      1.0000 0.73260  0.27200  0.99528  Biso   1.000  N
  O10      1.0000 0.87562  0.33806  0.94537  Biso   1.000  O
  N21      1.0000 0.73259  0.27208  0.99532  Biso   1.000  N
  C30      1.0000 0.63785  0.21306  0.98835  Biso   1.000  C
  H16      1.0000 0.59320  0.21383  0.91281  Biso   1.000  H
  C31      1.0000 0.63785  0.21314  0.98835  Biso   1.000  C
  H17      1.0000 0.59328  0.21383  0.91281  Biso   1.000  H
  C32      1.0000 0.63794  0.21306  0.98835  Biso   1.000  C
  H18      1.0000 0.59329  0.21375  0.91281  Biso   1.000  H
  H19      1.0000 0.14407  0.97587  0.77422  Biso   1.000  H
  N22      1.0000 0.19212  0.93308  0.84234  Biso   1.000  N
  H20      1.0000 0.14407  0.97595  0.77418  Biso   1.000  H
  N23      1.0000 0.19203  0.93316  0.84234  Biso   1.000  N
  N24      1.0000 0.19203  0.93308  0.84234  Biso   1.000  N
  H21      1.0000 0.14408  0.97587  0.77418  Biso   1.000  H
  H22      1.0000 0.17259  0.07550  0.80542  Biso   1.000  H
  H23      1.0000 0.17268  0.07550  0.80538  Biso   1.000  H
  H24      1.0000 0.17267  0.07550  0.80542  Biso   1.000  H
  H25      1.0000 0.96528  0.70396  0.84230  Biso   1.000  H
  H26      1.0000 0.96527  0.70405  0.84230  Biso   1.000  H
  H27      1.0000 0.02228  0.76101  0.79531  Biso   1.000  H
  N25      1.0000 0.10642  0.76149  0.85650  Biso   1.000  N
  N26      1.0000 0.10634  0.76149  0.85650  Biso   1.000  N
  H28      1.0000 0.02229  0.76093  0.79531  Biso   1.000  H
  C33      1.0000 0.64011  0.02201  0.98271  Biso   1.000  C
  C34      1.0000 0.64019  0.02201  0.98271  Biso   1.000  C
  C35      1.0000 0.74017  0.34085  0.03962  Biso   1.000  C
  C36      1.0000 0.74016  0.34094  0.03962  Biso   1.000  C
  N27      1.0000 0.63692  0.10873  0.01490  Biso   1.000  N
  N28      1.0000 0.63700  0.10873  0.01490  Biso   1.000  N
  N29      1.0000 0.63701  0.10865  0.01490  Biso   1.000  N
  H29      1.0000 0.56858  0.25943  0.99562  Biso   1.000  H
  H30      1.0000 0.56858  0.25943  0.99558  Biso   1.000  H
  C37      1.0000 0.20584  0.81301  0.83764  Biso   1.000  C
  C38      1.0000 0.20575  0.81301  0.83764  Biso   1.000  C
  C39      1.0000 0.20576  0.81293  0.83764  Biso   1.000  C
  C40      1.0000 0.25910  0.97093  0.87562  Biso   1.000  C
  C41      1.0000 0.25902  0.97085  0.87562  Biso   1.000  C
  C42      1.0000 0.11783  0.70768  0.90183  Biso   1.000  C
  C43      1.0000 0.11775  0.70768  0.90183  Biso   1.000  C
  O11      1.0000 0.63030  0.92650  0.99441  Biso   1.000  O
  H31      1.0000 0.66784  0.37831  0.04871  Biso   1.000  H
  H32      1.0000 0.78975  0.39650  0.03023  Biso   1.000  H
  N30      1.0000 0.77863  0.28191  0.08347  Biso   1.000  N
  H33      1.0000 0.66792  0.37831  0.04871  Biso   1.000  H
  H34      1.0000 0.78983  0.39650  0.03019  Biso   1.000  H
  N31      1.0000 0.77872  0.28191  0.08347  Biso   1.000  N
  H35      1.0000 0.66793  0.37823  0.04871  Biso   1.000  H
  N32      1.0000 0.77872  0.28183  0.08347  Biso   1.000  N
  H36      1.0000 0.78975  0.39650  0.03019  Biso   1.000  H
  C44      1.0000 0.60018  0.10086  0.06836  Biso   1.000  C
  C45      1.0000 0.60017  0.10094  0.06836  Biso   1.000  C
  C46      1.0000 0.28909  0.77743  0.87960  Biso   1.000  C
  C47      1.0000 0.24467  0.77746  0.78387  Biso   1.000  C
  C48      1.0000 0.24467  0.77755  0.78384  Biso   1.000  C
  C49      1.0000 0.28902  0.77735  0.87960  Biso   1.000  C
  C50      1.0000 0.24467  0.77747  0.78384  Biso   1.000  C
  N33      1.0000 0.31447  0.88411  0.89800  Biso   1.000  N
  N34      1.0000 0.31448  0.88403  0.89800  Biso   1.000  N
  O12      1.0000 0.26834  0.06736  0.88361  Biso   1.000  O
  O13      1.0000 0.26834  0.06744  0.88358  Biso   1.000  O
  O14      1.0000 0.26833  0.06744  0.88361  Biso   1.000  O
  O15      1.0000 0.26843  0.06736  0.88358  Biso   1.000  O
  N35      1.0000 0.22152  0.71808  0.91656  Biso   1.000  N
  O16      1.0000 0.04708  0.65631  0.92470  Biso   1.000  O
  N36      1.0000 0.22144  0.71816  0.91652  Biso   1.000  N
  O17      1.0000 0.04707  0.65639  0.92470  Biso   1.000  O
  N37      1.0000 0.22144  0.71808  0.91656  Biso   1.000  N
  N38      1.0000 0.22153  0.71808  0.91652  Biso   1.000  N
  C51      1.0000 0.88233  0.29231  0.09820  Biso   1.000  C
  C52      1.0000 0.71106  0.22256  0.12043  Biso   1.000  C
  C53      1.0000 0.88241  0.29231  0.09816  Biso   1.000  C
  C54      1.0000 0.71106  0.22265  0.12039  Biso   1.000  C
  C55      1.0000 0.88242  0.29222  0.09820  Biso   1.000  C
  C56      1.0000 0.88233  0.29231  0.09816  Biso   1.000  C
  C57      1.0000 0.71107  0.22256  0.12039  Biso   1.000  C
  H37      1.0000 0.57362  0.02952  0.07510  Biso   1.000  H
  H38      1.0000 0.53865  0.15601  0.07571  Biso   1.000  H
  N39      1.0000 0.68569  0.11588  0.10203  Biso   1.000  N
  H39      1.0000 0.57370  0.02952  0.07510  Biso   1.000  H
  N40      1.0000 0.68568  0.11597  0.10199  Biso   1.000  N
  H40      1.0000 0.57371  0.02944  0.07510  Biso   1.000  H
  H41      1.0000 0.53866  0.15593  0.07571  Biso   1.000  H
  N41      1.0000 0.68561  0.11588  0.10199  Biso   1.000  N
  C58      1.0000 0.39491  0.70763  0.86040  Biso   1.000  C
  C59      1.0000 0.39482  0.70763  0.86040  Biso   1.000  C
  C60      1.0000 0.39483  0.70755  0.86040  Biso   1.000  C
  H42      1.0000 0.25282  0.69878  0.78232  Biso   1.000  H
  H43      1.0000 0.31449  0.80511  0.77441  Biso   1.000  H
  H44      1.0000 0.19143  0.80626  0.76100  Biso   1.000  H
  H45      1.0000 0.25274  0.69886  0.78228  Biso   1.000  H
  H46      1.0000 0.19134  0.80634  0.76100  Biso   1.000  H
  H47      1.0000 0.25274  0.69878  0.78232  Biso   1.000  H
  H48      1.0000 0.31442  0.80503  0.77441  Biso   1.000  H
  H49      1.0000 0.19135  0.80626  0.76100  Biso   1.000  H
  H50      1.0000 0.25283  0.69878  0.78228  Biso   1.000  H
  C61      1.0000 0.39998  0.89913  0.93167  Biso   1.000  C
  C62      1.0000 0.39998  0.89913  0.93163  Biso   1.000  C
  C63      1.0000 0.39999  0.89905  0.93167  Biso   1.000  C
  C64      1.0000 0.25999  0.65914  0.96041  Biso   1.000  C
  C65      1.0000 0.25999  0.65914  0.96037  Biso   1.000  C
  C66      1.0000 0.25999  0.65905  0.96041  Biso   1.000  C
  C67      1.0000 0.26000  0.65905  0.96037  Biso   1.000  C
  N42      1.0000 0.89374  0.23850  0.14353  Biso   1.000  N
  O18      1.0000 0.95308  0.34368  0.07533  Biso   1.000  O
  N43      1.0000 0.89383  0.23850  0.14349  Biso   1.000  N
  O19      1.0000 0.95309  0.34368  0.07529  Biso   1.000  O
  N44      1.0000 0.89382  0.23850  0.14353  Biso   1.000  N
  O20      1.0000 0.95309  0.34360  0.07533  Biso   1.000  O
  N45      1.0000 0.89374  0.23850  0.14349  Biso   1.000  N
  O21      1.0000 0.95300  0.34368  0.07529  Biso   1.000  O
  C68      1.0000 0.79432  0.18698  0.16239  Biso   1.000  C
  C69      1.0000 0.60525  0.29236  0.13963  Biso   1.000  C
  C70      1.0000 0.79440  0.18706  0.16235  Biso   1.000  C
  C71      1.0000 0.60533  0.29245  0.13959  Biso   1.000  C
  C72      1.0000 0.79440  0.18698  0.16239  Biso   1.000  C
  C73      1.0000 0.79433  0.18698  0.16235  Biso   1.000  C
  C74      1.0000 0.60526  0.29236  0.13959  Biso   1.000  C
  C75      1.0000 0.74106  0.02906  0.12441  Biso   1.000  C
  C76      1.0000 0.74105  0.02914  0.12441  Biso   1.000  C
  H51      1.0000 0.37630  0.63863  0.84851  Biso   1.000  H
  H52      1.0000 0.44262  0.69482  0.88751  Biso   1.000  H
  H53      1.0000 0.43207  0.74581  0.83321  Biso   1.000  H
  H54      1.0000 0.37622  0.63863  0.84851  Biso   1.000  H
  H55      1.0000 0.44254  0.69482  0.88751  Biso   1.000  H
  H56      1.0000 0.37623  0.63855  0.84851  Biso   1.000  H
  H57      1.0000 0.44255  0.69473  0.88751  Biso   1.000  H
  H58      1.0000 0.43208  0.74572  0.83321  Biso   1.000  H
  H59      1.0000 0.37631  0.63855  0.84851  Biso   1.000  H
  H60      1.0000 0.42654  0.97047  0.92493  Biso   1.000  H
  H61      1.0000 0.46151  0.84398  0.92432  Biso   1.000  H
  N46      1.0000 0.36324  0.89126  0.98513  Biso   1.000  N
  H62      1.0000 0.42645  0.97055  0.92489  Biso   1.000  H
  H63      1.0000 0.46142  0.84406  0.92428  Biso   1.000  H
  N47      1.0000 0.36316  0.89134  0.98510  Biso   1.000  N
  H64      1.0000 0.42646  0.97047  0.92493  Biso   1.000  H
  H65      1.0000 0.46143  0.84398  0.92432  Biso   1.000  H
  N48      1.0000 0.36316  0.89126  0.98513  Biso   1.000  N
  H66      1.0000 0.42654  0.97047  0.92489  Biso   1.000  H
  H67      1.0000 0.46151  0.84398  0.92428  Biso   1.000  H
  N49      1.0000 0.36325  0.89126  0.98510  Biso   1.000  N
  H68      1.0000 0.33232  0.62168  0.95132  Biso   1.000  H
  H69      1.0000 0.21041  0.60350  0.96980  Biso   1.000  H
  H70      1.0000 0.33223  0.62176  0.95128  Biso   1.000  H
  H71      1.0000 0.21033  0.60350  0.96980  Biso   1.000  H
  H72      1.0000 0.33224  0.62168  0.95132  Biso   1.000  H
  H73      1.0000 0.33232  0.62168  0.95128  Biso   1.000  H
  N50      1.0000 0.26756  0.72800  0.00471  Biso   1.000  N
  N51      1.0000 0.26757  0.72791  0.00471  Biso   1.000  N
  C77      1.0000 0.99576  0.23321  0.16852  Biso   1.000  C
  C78      1.0000 0.99577  0.23313  0.16852  Biso   1.000  C
  N52      1.0000 0.80804  0.06691  0.15769  Biso   1.000  N
  N53      1.0000 0.80813  0.06691  0.15765  Biso   1.000  N
  N54      1.0000 0.80813  0.06683  0.15769  Biso   1.000  N
  N55      1.0000 0.80805  0.06691  0.15765  Biso   1.000  N
  C79      1.0000 0.75549  0.22253  0.21616  Biso   1.000  C
  C80      1.0000 0.75550  0.22244  0.21616  Biso   1.000  C
  C81      1.0000 0.75541  0.22253  0.21616  Biso   1.000  C
  H74      1.0000 0.62386  0.36136  0.15152  Biso   1.000  H
  H75      1.0000 0.55754  0.30517  0.11252  Biso   1.000  H
  H76      1.0000 0.56809  0.25419  0.16682  Biso   1.000  H
  H77      1.0000 0.62394  0.36144  0.15148  Biso   1.000  H
  H78      1.0000 0.55761  0.30526  0.11252  Biso   1.000  H
  H79      1.0000 0.56809  0.25427  0.16678  Biso   1.000  H
  H80      1.0000 0.55762  0.30517  0.11252  Biso   1.000  H
  H81      1.0000 0.62386  0.36136  0.15148  Biso   1.000  H
  H82      1.0000 0.56801  0.25419  0.16678  Biso   1.000  H
  O22      1.0000 0.73174  0.93263  0.11642  Biso   1.000  O
  O23      1.0000 0.73174  0.93255  0.11642  Biso   1.000  O
  O24      1.0000 0.73182  0.93263  0.11642  Biso   1.000  O
  C82      1.0000 0.36222  0.78693  0.01168  Biso   1.000  C
  C83      1.0000 0.36232  0.78685  0.01164  Biso   1.000  C
  C84      1.0000 0.36223  0.78685  0.01168  Biso   1.000  C
  C85      1.0000 0.36231  0.78693  0.01164  Biso   1.000  C
  C86      1.0000 0.35996  0.97798  0.01732  Biso   1.000  C
  C87      1.0000 0.35997  0.97798  0.01728  Biso   1.000  C
  C88      1.0000 0.36005  0.97798  0.01728  Biso   1.000  C
  C89      1.0000 0.20337  0.71651  0.04841  Biso   1.000  C
  C90      1.0000 0.20338  0.71642  0.04837  Biso   1.000  C
  C91      1.0000 0.20337  0.71651  0.04837  Biso   1.000  C
  H83      1.0000 0.97787  0.23898  0.20472  Biso   1.000  H
  H84      1.0000 0.97787  0.23906  0.20468  Biso   1.000  H
  H85      1.0000 0.97788  0.23898  0.20468  Biso   1.000  H
  H86      1.0000 0.03488  0.29603  0.15773  Biso   1.000  H
  N56      1.0000 0.06884  0.13379  0.15871  Biso   1.000  N
  H87      1.0000 0.03488  0.29603  0.15769  Biso   1.000  H
  N57      1.0000 0.06892  0.13379  0.15871  Biso   1.000  N
  H88      1.0000 0.03488  0.29594  0.15773  Biso   1.000  H
  C92      1.0000 0.86359  0.99177  0.19245  Biso   1.000  C
  C93      1.0000 0.86360  0.99177  0.19241  Biso   1.000  C
  H89      1.0000 0.74734  0.30121  0.21771  Biso   1.000  H
  H90      1.0000 0.68567  0.19488  0.22562  Biso   1.000  H
  H91      1.0000 0.80872  0.19373  0.23903  Biso   1.000  H
  H92      1.0000 0.74742  0.30121  0.21771  Biso   1.000  H
  H93      1.0000 0.68566  0.19496  0.22558  Biso   1.000  H
  H94      1.0000 0.80881  0.19373  0.23899  Biso   1.000  H
  H95      1.0000 0.74743  0.30113  0.21771  Biso   1.000  H
  H96      1.0000 0.80881  0.19365  0.23903  Biso   1.000  H
  H97      1.0000 0.68567  0.19488  0.22558  Biso   1.000  H
  H98      1.0000 0.80873  0.19373  0.23899  Biso   1.000  H
  H99      1.0000 0.43150  0.74056  0.00441  Biso   1.000  H
  C94      1.0000 0.34648  0.81987  0.06810  Biso   1.000  C
  H100     1.0000 0.43158  0.74056  0.00441  Biso   1.000  H
  N58      1.0000 0.34574  0.93846  0.06609  Biso   1.000  N
  N59      1.0000 0.34582  0.93846  0.06609  Biso   1.000  N
  O25      1.0000 0.36986  0.07349  0.00562  Biso   1.000  O
  O26      1.0000 0.36986  0.07350  0.00558  Biso   1.000  O
  N60      1.0000 0.24223  0.77850  0.08499  Biso   1.000  N
  O27      1.0000 0.12454  0.66193  0.05462  Biso   1.000  O
  N61      1.0000 0.24225  0.77841  0.08495  Biso   1.000  N
  N62      1.0000 0.24232  0.77850  0.08495  Biso   1.000  N
  O28      1.0000 0.12462  0.66193  0.05462  Biso   1.000  O
  C95      1.0000 0.06482  0.03519  0.18965  Biso   1.000  C
  C96      1.0000 0.16278  0.13259  0.12736  Biso   1.000  C
  C97      1.0000 0.06489  0.03527  0.18965  Biso   1.000  C
  C98      1.0000 0.16278  0.13267  0.12732  Biso   1.000  C
  C99      1.0000 0.06490  0.03519  0.18965  Biso   1.000  C
  C100     1.0000 0.16278  0.13259  0.12732  Biso   1.000  C
  H101     1.0000 0.82748  0.92449  0.19461  Biso   1.000  H
  N63      1.0000 0.98007  0.96529  0.17768  Biso   1.000  N
  N64      1.0000 0.98009  0.96521  0.17765  Biso   1.000  N
  N65      1.0000 0.98016  0.96529  0.17765  Biso   1.000  N
  H102     1.0000 0.85608  0.02412  0.22581  Biso   1.000  H
  H103     1.0000 0.85609  0.02404  0.22581  Biso   1.000  H
  H104     1.0000 0.85600  0.02412  0.22581  Biso   1.000  H
  H105     1.0000 0.40687  0.78616  0.08722  Biso   1.000  H
  H106     1.0000 0.40688  0.78616  0.08718  Biso   1.000  H
  C101     1.0000 0.33275  0.00899  0.10933  Biso   1.000  C
  C102     1.0000 0.20632  0.76899  0.13834  Biso   1.000  C
  C103     1.0000 0.20641  0.76899  0.13834  Biso   1.000  C
  C104     1.0000 0.17346  0.96502  0.17189  Biso   1.000  C
  C105     1.0000 0.17346  0.96494  0.17189  Biso   1.000  C
  C106     1.0000 0.17354  0.96502  0.17189  Biso   1.000  C
  H107     1.0000 0.06117  0.05129  0.22593  Biso   1.000  H
  H108     1.0000 0.06118  0.05129  0.22589  Biso   1.000  H
  N66      1.0000 0.21934  0.02941  0.13035  Biso   1.000  N
  N67      1.0000 0.21942  0.02941  0.13035  Biso   1.000  N
  O29      1.0000 0.19173  0.20843  0.10063  Biso   1.000  O
  O30      1.0000 0.19182  0.20843  0.10063  Biso   1.000  O
  O31      1.0000 0.19182  0.20835  0.10063  Biso   1.000  O
  C107     1.0000 0.02281  0.86480  0.16117  Biso   1.000  C
  C108     1.0000 0.02290  0.86472  0.16117  Biso   1.000  C
  C109     1.0000 0.02289  0.86480  0.16117  Biso   1.000  C
  H109     1.0000 0.37749  0.97609  0.13542  Biso   1.000  H
  H110     1.0000 0.37750  0.97601  0.13539  Biso   1.000  H
  H111     1.0000 0.37749  0.97609  0.13539  Biso   1.000  H
  H112     1.0000 0.36046  0.07867  0.09960  Biso   1.000  H
  H113     1.0000 0.36045  0.07875  0.09960  Biso   1.000  H
  H114     1.0000 0.16714  0.70393  0.14341  Biso   1.000  H
  H115     1.0000 0.27104  0.75899  0.15773  Biso   1.000  H
  N68      1.0000 0.13627  0.86193  0.15784  Biso   1.000  N
  H116     1.0000 0.16715  0.70385  0.14341  Biso   1.000  H
  H117     1.0000 0.27105  0.75891  0.15769  Biso   1.000  H
  N69      1.0000 0.13628  0.86185  0.15784  Biso   1.000  N
  H118     1.0000 0.16723  0.70393  0.14341  Biso   1.000  H
  H119     1.0000 0.27112  0.75899  0.15769  Biso   1.000  H
  H120     1.0000 0.22369  0.95483  0.19912  Biso   1.000  H
  H121     1.0000 0.22370  0.95475  0.19908  Biso   1.000  H
  H122     1.0000 0.22369  0.95475  0.19912  Biso   1.000  H
  H123     1.0000 0.22369  0.95483  0.19908  Biso   1.000  H
  O32      1.0000 0.97060  0.78836  0.15159  Biso   1.000  O
  O33      1.0000 0.97069  0.78828  0.15159  Biso   1.000  O
  O34      1.0000 0.97068  0.78836  0.15159  Biso   1.000  O
  N70      1.0000 0.86388  0.13815  0.84215  Biso   1.000  N
  C110     1.0000 0.82670  0.03505  0.82810  Biso   1.000  C
  C111     1.0000 0.79375  0.23101  0.86169  Biso   1.000  C
  C112     1.0000 0.97727  0.13519  0.83882  Biso   1.000  C
  C113     1.0000 0.97726  0.13519  0.83885  Biso   1.000  C
  C114     1.0000 0.82662  0.03497  0.82814  Biso   1.000  C
  C115     1.0000 0.79376  0.23101  0.86165  Biso   1.000  C
  C116     1.0000 0.97726  0.13527  0.83885  Biso   1.000  C
  C117     1.0000 0.82661  0.03505  0.82814  Biso   1.000  C
  C118     1.0000 0.79384  0.23101  0.86165  Biso   1.000  C
  C119     1.0000 0.82671  0.03497  0.82810  Biso   1.000  C
  H124     1.0000 0.77646  0.04524  0.80091  Biso   1.000  H
  H125     1.0000 0.77639  0.04516  0.80091  Biso   1.000  H
  N71      1.0000 0.86380  0.13806  0.84219  Biso   1.000  N
  N72      1.0000 0.86387  0.13814  0.84219  Biso   1.000  N
  H126     1.0000 0.77647  0.04516  0.80091  Biso   1.000  H
  N73      1.0000 0.86389  0.13806  0.84215  Biso   1.000  N
  C120     1.0000 0.93534  0.96481  0.81038  Biso   1.000  C
  N74      1.0000 0.78082  0.97058  0.86968  Biso   1.000  N
  C121     1.0000 0.93526  0.96481  0.81034  Biso   1.000  C
  N75      1.0000 0.78074  0.97058  0.86964  Biso   1.000  N
  C122     1.0000 0.93527  0.96472  0.81038  Biso   1.000  C
  N76      1.0000 0.78074  0.97058  0.86968  Biso   1.000  N
  N77      1.0000 0.78083  0.97058  0.86964  Biso   1.000  N
  H127     1.0000 0.72904  0.24100  0.84230  Biso   1.000  H
  N78      1.0000 0.75784  0.22150  0.91504  Biso   1.000  N
  H128     1.0000 0.83293  0.29606  0.85661  Biso   1.000  H
  H129     1.0000 0.83300  0.29615  0.85661  Biso   1.000  H
  H130     1.0000 0.83292  0.29615  0.85661  Biso   1.000  H
  N79      1.0000 0.75783  0.22158  0.91504  Biso   1.000  N
  H131     1.0000 0.83301  0.29606  0.85661  Biso   1.000  H
  H132     1.0000 0.72912  0.24100  0.84230  Biso   1.000  H
  N80      1.0000 0.75792  0.22150  0.91504  Biso   1.000  N
  N81      1.0000 0.02000  0.03470  0.82235  Biso   1.000  N
  N82      1.0000 0.02008  0.03470  0.82235  Biso   1.000  N
  O35      1.0000 0.02947  0.21163  0.84844  Biso   1.000  O
  O36      1.0000 0.02947  0.21171  0.84840  Biso   1.000  O
  O37      1.0000 0.02947  0.21171  0.84844  Biso   1.000  O
  O38      1.0000 0.02948  0.21163  0.84840  Biso   1.000  O
  N83      1.0000 0.93132  0.86620  0.84132  Biso   1.000  N
  H133     1.0000 0.93898  0.94870  0.77410  Biso   1.000  H
  N84      1.0000 0.93124  0.86620  0.84132  Biso   1.000  N
  C123     1.0000 0.66740  0.99100  0.89069  Biso   1.000  C
  C124     1.0000 0.83738  0.86740  0.87267  Biso   1.000  C
  C125     1.0000 0.66733  0.99092  0.89069  Biso   1.000  C
  C126     1.0000 0.83739  0.86732  0.87267  Biso   1.000  C
  C127     1.0000 0.79679  0.28349  0.95162  Biso   1.000  C
  C128     1.0000 0.65368  0.18012  0.93189  Biso   1.000  C
  C129     1.0000 0.79671  0.28349  0.95162  Biso   1.000  C
  C130     1.0000 0.65360  0.18012  0.93193  Biso   1.000  C
  C131     1.0000 0.79678  0.28357  0.95162  Biso   1.000  C
  C132     1.0000 0.65368  0.18012  0.93193  Biso   1.000  C
  C133     1.0000 0.13648  0.00822  0.80758  Biso   1.000  C
  C134     1.0000 0.13657  0.00822  0.80758  Biso   1.000  C
  C135     1.0000 0.00440  0.76678  0.83151  Biso   1.000  C
  C136     1.0000 0.00432  0.76678  0.83147  Biso   1.000  C
  C137     1.0000 0.00432  0.76678  0.83151  Biso   1.000  C
  C138     1.0000 0.00440  0.76678  0.83147  Biso   1.000  C
  H134     1.0000 0.62267  0.02390  0.86460  Biso   1.000  H
  N85      1.0000 0.65434  0.06153  0.93394  Biso   1.000  N
  H135     1.0000 0.62259  0.02390  0.86460  Biso   1.000  H
  N86      1.0000 0.65434  0.06153  0.93390  Biso   1.000  N
  N87      1.0000 0.65443  0.06145  0.93390  Biso   1.000  N
  H136     1.0000 0.63970  0.92132  0.90043  Biso   1.000  H
  H137     1.0000 0.63970  0.92132  0.90039  Biso   1.000  H
  H138     1.0000 0.63962  0.92124  0.90043  Biso   1.000  H
  O39      1.0000 0.80842  0.79156  0.89940  Biso   1.000  O
  O40      1.0000 0.80834  0.79164  0.89937  Biso   1.000  O
  O41      1.0000 0.80834  0.79156  0.89940  Biso   1.000  O
  O42      1.0000 0.80843  0.79156  0.89937  Biso   1.000  O
  O43      1.0000 0.87553  0.33806  0.94541  Biso   1.000  O
  N88      1.0000 0.73260  0.27200  0.99528  Biso   1.000  N
  O44      1.0000 0.87562  0.33806  0.94537  Biso   1.000  O
  N89      1.0000 0.73251  0.27199  0.99532  Biso   1.000  N
  N90      1.0000 0.73259  0.27208  0.99532  Biso   1.000  N
  C139     1.0000 0.63785  0.21314  0.98835  Biso   1.000  C
  H139     1.0000 0.59328  0.21383  0.91281  Biso   1.000  H
  C140     1.0000 0.63785  0.21306  0.98835  Biso   1.000  C
  H140     1.0000 0.59320  0.21383  0.91281  Biso   1.000  H
  C141     1.0000 0.63794  0.21306  0.98835  Biso   1.000  C
  H141     1.0000 0.59329  0.21375  0.91281  Biso   1.000  H
  H142     1.0000 0.14407  0.97587  0.77422  Biso   1.000  H
  N91      1.0000 0.19212  0.93308  0.84234  Biso   1.000  N
  H143     1.0000 0.14407  0.97595  0.77418  Biso   1.000  H
  N92      1.0000 0.19203  0.93316  0.84234  Biso   1.000  N
  N93      1.0000 0.19203  0.93308  0.84234  Biso   1.000  N
  H144     1.0000 0.14408  0.97587  0.77418  Biso   1.000  H
  H145     1.0000 0.17259  0.07550  0.80542  Biso   1.000  H
  H146     1.0000 0.17268  0.07550  0.80538  Biso   1.000  H
  H147     1.0000 0.17267  0.07550  0.80542  Biso   1.000  H
  H148     1.0000 0.96528  0.70396  0.84230  Biso   1.000  H
  H149     1.0000 0.96527  0.70405  0.84230  Biso   1.000  H
  H150     1.0000 0.02228  0.76101  0.79531  Biso   1.000  H
  N94      1.0000 0.10642  0.76149  0.85650  Biso   1.000  N
  N95      1.0000 0.10634  0.76149  0.85650  Biso   1.000  N
  H151     1.0000 0.02229  0.76093  0.79531  Biso   1.000  H
  C142     1.0000 0.64019  0.02201  0.98271  Biso   1.000  C
  C143     1.0000 0.64011  0.02201  0.98271  Biso   1.000  C
  C144     1.0000 0.74017  0.34085  0.03962  Biso   1.000  C
  C145     1.0000 0.74016  0.34094  0.03962  Biso   1.000  C
  N96      1.0000 0.63692  0.10873  0.01490  Biso   1.000  N
  N97      1.0000 0.63700  0.10873  0.01490  Biso   1.000  N
  N98      1.0000 0.63701  0.10865  0.01490  Biso   1.000  N
  H152     1.0000 0.56858  0.25943  0.99562  Biso   1.000  H
  H153     1.0000 0.56858  0.25943  0.99558  Biso   1.000  H
  C146     1.0000 0.20584  0.81301  0.83764  Biso   1.000  C
  C147     1.0000 0.20575  0.81301  0.83764  Biso   1.000  C
  C148     1.0000 0.20576  0.81293  0.83764  Biso   1.000  C
  C149     1.0000 0.25910  0.97093  0.87562  Biso   1.000  C
  C150     1.0000 0.25902  0.97085  0.87562  Biso   1.000  C
  C151     1.0000 0.11783  0.70768  0.90183  Biso   1.000  C
  C152     1.0000 0.11775  0.70768  0.90183  Biso   1.000  C
  O45      1.0000 0.63030  0.92650  0.99441  Biso   1.000  O
  H154     1.0000 0.66784  0.37831  0.04871  Biso   1.000  H
  H155     1.0000 0.78975  0.39650  0.03023  Biso   1.000  H
  N99      1.0000 0.77863  0.28191  0.08347  Biso   1.000  N
  H156     1.0000 0.66792  0.37831  0.04871  Biso   1.000  H
  H157     1.0000 0.78983  0.39650  0.03019  Biso   1.000  H
  N100     1.0000 0.77872  0.28191  0.08347  Biso   1.000  N
  H158     1.0000 0.66793  0.37823  0.04871  Biso   1.000  H
  N101     1.0000 0.77872  0.28183  0.08347  Biso   1.000  N
  H159     1.0000 0.78975  0.39650  0.03019  Biso   1.000  H
  C153     1.0000 0.60018  0.10086  0.06836  Biso   1.000  C
  C154     1.0000 0.60017  0.10094  0.06836  Biso   1.000  C
  C155     1.0000 0.28909  0.77743  0.87960  Biso   1.000  C
  C156     1.0000 0.24467  0.77746  0.78387  Biso   1.000  C
  C157     1.0000 0.24467  0.77755  0.78384  Biso   1.000  C
  C158     1.0000 0.28902  0.77735  0.87960  Biso   1.000  C
  C159     1.0000 0.24467  0.77747  0.78384  Biso   1.000  C
  N102     1.0000 0.31447  0.88411  0.89800  Biso   1.000  N
  N103     1.0000 0.31448  0.88403  0.89800  Biso   1.000  N
  O46      1.0000 0.26834  0.06736  0.88361  Biso   1.000  O
  O47      1.0000 0.26834  0.06744  0.88358  Biso   1.000  O
  O48      1.0000 0.26833  0.06744  0.88361  Biso   1.000  O
  O49      1.0000 0.26843  0.06736  0.88358  Biso   1.000  O
  N104     1.0000 0.22152  0.71808  0.91656  Biso   1.000  N
  O50      1.0000 0.04708  0.65631  0.92470  Biso   1.000  O
  N105     1.0000 0.22144  0.71816  0.91652  Biso   1.000  N
  O51      1.0000 0.04707  0.65639  0.92470  Biso   1.000  O
  N106     1.0000 0.22144  0.71808  0.91656  Biso   1.000  N
  N107     1.0000 0.22153  0.71808  0.91652  Biso   1.000  N
  C160     1.0000 0.88233  0.29231  0.09820  Biso   1.000  C
  C161     1.0000 0.71106  0.22256  0.12043  Biso   1.000  C
  C162     1.0000 0.88241  0.29231  0.09816  Biso   1.000  C
  C163     1.0000 0.71106  0.22265  0.12039  Biso   1.000  C
  C164     1.0000 0.88242  0.29222  0.09820  Biso   1.000  C
  C165     1.0000 0.88233  0.29231  0.09816  Biso   1.000  C
  C166     1.0000 0.71107  0.22256  0.12039  Biso   1.000  C
  H160     1.0000 0.57362  0.02952  0.07510  Biso   1.000  H
  H161     1.0000 0.53865  0.15601  0.07571  Biso   1.000  H
  N108     1.0000 0.68569  0.11588  0.10203  Biso   1.000  N
  H162     1.0000 0.57370  0.02952  0.07510  Biso   1.000  H
  N109     1.0000 0.68568  0.11597  0.10199  Biso   1.000  N
  H163     1.0000 0.57371  0.02944  0.07510  Biso   1.000  H
  H164     1.0000 0.53866  0.15593  0.07571  Biso   1.000  H
  N110     1.0000 0.68561  0.11588  0.10199  Biso   1.000  N
  C167     1.0000 0.39491  0.70763  0.86040  Biso   1.000  C
  C168     1.0000 0.39482  0.70763  0.86040  Biso   1.000  C
  C169     1.0000 0.39483  0.70755  0.86040  Biso   1.000  C
  H165     1.0000 0.25282  0.69878  0.78232  Biso   1.000  H
  H166     1.0000 0.31449  0.80511  0.77441  Biso   1.000  H
  H167     1.0000 0.19143  0.80626  0.76100  Biso   1.000  H
  H168     1.0000 0.25274  0.69886  0.78228  Biso   1.000  H
  H169     1.0000 0.19134  0.80634  0.76100  Biso   1.000  H
  H170     1.0000 0.25274  0.69878  0.78232  Biso   1.000  H
  H171     1.0000 0.31442  0.80503  0.77441  Biso   1.000  H
  H172     1.0000 0.19135  0.80626  0.76100  Biso   1.000  H
  H173     1.0000 0.25283  0.69878  0.78228  Biso   1.000  H
  C170     1.0000 0.39998  0.89913  0.93167  Biso   1.000  C
  C171     1.0000 0.39998  0.89913  0.93163  Biso   1.000  C
  C172     1.0000 0.39999  0.89905  0.93167  Biso   1.000  C
  C173     1.0000 0.25999  0.65914  0.96041  Biso   1.000  C
  C174     1.0000 0.25999  0.65914  0.96037  Biso   1.000  C
  C175     1.0000 0.25999  0.65905  0.96041  Biso   1.000  C
  C176     1.0000 0.26000  0.65905  0.96037  Biso   1.000  C
  N111     1.0000 0.89374  0.23850  0.14353  Biso   1.000  N
  O52      1.0000 0.95308  0.34368  0.07533  Biso   1.000  O
  N112     1.0000 0.89383  0.23850  0.14349  Biso   1.000  N
  O53      1.0000 0.95309  0.34368  0.07529  Biso   1.000  O
  N113     1.0000 0.89382  0.23850  0.14353  Biso   1.000  N
  O54      1.0000 0.95309  0.34360  0.07533  Biso   1.000  O
  N114     1.0000 0.89374  0.23850  0.14349  Biso   1.000  N
  O55      1.0000 0.95300  0.34368  0.07529  Biso   1.000  O
  C177     1.0000 0.79432  0.18698  0.16239  Biso   1.000  C
  C178     1.0000 0.60525  0.29236  0.13963  Biso   1.000  C
  C179     1.0000 0.79440  0.18706  0.16235  Biso   1.000  C
  C180     1.0000 0.60533  0.29245  0.13959  Biso   1.000  C
  C181     1.0000 0.79440  0.18698  0.16239  Biso   1.000  C
  C182     1.0000 0.79433  0.18698  0.16235  Biso   1.000  C
  C183     1.0000 0.60526  0.29236  0.13959  Biso   1.000  C
  C184     1.0000 0.74106  0.02906  0.12441  Biso   1.000  C
  C185     1.0000 0.74105  0.02914  0.12441  Biso   1.000  C
  H174     1.0000 0.37630  0.63863  0.84851  Biso   1.000  H
  H175     1.0000 0.44262  0.69482  0.88751  Biso   1.000  H
  H176     1.0000 0.43207  0.74581  0.83321  Biso   1.000  H
  H177     1.0000 0.37622  0.63863  0.84851  Biso   1.000  H
  H178     1.0000 0.44254  0.69482  0.88751  Biso   1.000  H
  H179     1.0000 0.37623  0.63855  0.84851  Biso   1.000  H
  H180     1.0000 0.44255  0.69473  0.88751  Biso   1.000  H
  H181     1.0000 0.43208  0.74572  0.83321  Biso   1.000  H
  H182     1.0000 0.37631  0.63855  0.84851  Biso   1.000  H
  H183     1.0000 0.42654  0.97047  0.92493  Biso   1.000  H
  H184     1.0000 0.46151  0.84398  0.92432  Biso   1.000  H
  N115     1.0000 0.36324  0.89126  0.98513  Biso   1.000  N
  H185     1.0000 0.42645  0.97055  0.92489  Biso   1.000  H
  H186     1.0000 0.46142  0.84406  0.92428  Biso   1.000  H
  N116     1.0000 0.36316  0.89134  0.98510  Biso   1.000  N
  H187     1.0000 0.42646  0.97047  0.92493  Biso   1.000  H
  H188     1.0000 0.46143  0.84398  0.92432  Biso   1.000  H
  N117     1.0000 0.36316  0.89126  0.98513  Biso   1.000  N
  H189     1.0000 0.42654  0.97047  0.92489  Biso   1.000  H
  H190     1.0000 0.46151  0.84398  0.92428  Biso   1.000  H
  N118     1.0000 0.36325  0.89126  0.98510  Biso   1.000  N
  H191     1.0000 0.33232  0.62168  0.95132  Biso   1.000  H
  H192     1.0000 0.21041  0.60350  0.96980  Biso   1.000  H
  H193     1.0000 0.33223  0.62176  0.95128  Biso   1.000  H
  H194     1.0000 0.21033  0.60350  0.96980  Biso   1.000  H
  H195     1.0000 0.33224  0.62168  0.95132  Biso   1.000  H
  H196     1.0000 0.33232  0.62168  0.95128  Biso   1.000  H
  N119     1.0000 0.26756  0.72800  0.00471  Biso   1.000  N
  N120     1.0000 0.26757  0.72791  0.00471  Biso   1.000  N
  C186     1.0000 0.99576  0.23321  0.16852  Biso   1.000  C
  C187     1.0000 0.99577  0.23313  0.16852  Biso   1.000  C
  N121     1.0000 0.80804  0.06691  0.15769  Biso   1.000  N
  N122     1.0000 0.80813  0.06691  0.15765  Biso   1.000  N
  N123     1.0000 0.80813  0.06683  0.15769  Biso   1.000  N
  N124     1.0000 0.80805  0.06691  0.15765  Biso   1.000  N
  C188     1.0000 0.75549  0.22253  0.21616  Biso   1.000  C
  C189     1.0000 0.75550  0.22244  0.21616  Biso   1.000  C
  C190     1.0000 0.75541  0.22253  0.21616  Biso   1.000  C
  H197     1.0000 0.62386  0.36136  0.15152  Biso   1.000  H
  H198     1.0000 0.55754  0.30517  0.11252  Biso   1.000  H
  H199     1.0000 0.56809  0.25419  0.16682  Biso   1.000  H
  H200     1.0000 0.62394  0.36144  0.15148  Biso   1.000  H
  H201     1.0000 0.55761  0.30526  0.11252  Biso   1.000  H
  H202     1.0000 0.56809  0.25427  0.16678  Biso   1.000  H
  H203     1.0000 0.55762  0.30517  0.11252  Biso   1.000  H
  H204     1.0000 0.62386  0.36136  0.15148  Biso   1.000  H
  H205     1.0000 0.56801  0.25419  0.16678  Biso   1.000  H
  O56      1.0000 0.73174  0.93263  0.11642  Biso   1.000  O
  O57      1.0000 0.73174  0.93255  0.11642  Biso   1.000  O
  O58      1.0000 0.73182  0.93263  0.11642  Biso   1.000  O
  C191     1.0000 0.36222  0.78693  0.01168  Biso   1.000  C
  C192     1.0000 0.36232  0.78685  0.01164  Biso   1.000  C
  C193     1.0000 0.36223  0.78685  0.01168  Biso   1.000  C
  C194     1.0000 0.36231  0.78693  0.01164  Biso   1.000  C
  C195     1.0000 0.35996  0.97798  0.01732  Biso   1.000  C
  C196     1.0000 0.35997  0.97798  0.01728  Biso   1.000  C
  C197     1.0000 0.36005  0.97798  0.01728  Biso   1.000  C
  C198     1.0000 0.20337  0.71651  0.04841  Biso   1.000  C
  C199     1.0000 0.20338  0.71642  0.04837  Biso   1.000  C
  C200     1.0000 0.20337  0.71651  0.04837  Biso   1.000  C
  H206     1.0000 0.97787  0.23898  0.20472  Biso   1.000  H
  H207     1.0000 0.97787  0.23906  0.20468  Biso   1.000  H
  H208     1.0000 0.97788  0.23898  0.20468  Biso   1.000  H
  H209     1.0000 0.03488  0.29603  0.15773  Biso   1.000  H
  N125     1.0000 0.06884  0.13379  0.15871  Biso   1.000  N
  H210     1.0000 0.03488  0.29603  0.15769  Biso   1.000  H
  N126     1.0000 0.06892  0.13379  0.15871  Biso   1.000  N
  H211     1.0000 0.03488  0.29594  0.15773  Biso   1.000  H
  C201     1.0000 0.86359  0.99177  0.19245  Biso   1.000  C
  C202     1.0000 0.86360  0.99177  0.19241  Biso   1.000  C
  H212     1.0000 0.74734  0.30121  0.21771  Biso   1.000  H
  H213     1.0000 0.68567  0.19488  0.22562  Biso   1.000  H
  H214     1.0000 0.80872  0.19373  0.23903  Biso   1.000  H
  H215     1.0000 0.74742  0.30121  0.21771  Biso   1.000  H
  H216     1.0000 0.68566  0.19496  0.22558  Biso   1.000  H
  H217     1.0000 0.80881  0.19373  0.23899  Biso   1.000  H
  H218     1.0000 0.74743  0.30113  0.21771  Biso   1.000  H
  H219     1.0000 0.80881  0.19365  0.23903  Biso   1.000  H
  H220     1.0000 0.68567  0.19488  0.22558  Biso   1.000  H
  H221     1.0000 0.80873  0.19373  0.23899  Biso   1.000  H
  H222     1.0000 0.43150  0.74056  0.00441  Biso   1.000  H
  C203     1.0000 0.34648  0.81987  0.06810  Biso   1.000  C
  H223     1.0000 0.43158  0.74056  0.00441  Biso   1.000  H
  N127     1.0000 0.34574  0.93846  0.06609  Biso   1.000  N
  N128     1.0000 0.34582  0.93846  0.06609  Biso   1.000  N
  O59      1.0000 0.36986  0.07349  0.00562  Biso   1.000  O
  O60      1.0000 0.36986  0.07350  0.00558  Biso   1.000  O
  N129     1.0000 0.24223  0.77850  0.08499  Biso   1.000  N
  O61      1.0000 0.12454  0.66193  0.05462  Biso   1.000  O
  N130     1.0000 0.24225  0.77841  0.08495  Biso   1.000  N
  N131     1.0000 0.24232  0.77850  0.08495  Biso   1.000  N
  O62      1.0000 0.12462  0.66193  0.05462  Biso   1.000  O
  C204     1.0000 0.06482  0.03519  0.18965  Biso   1.000  C
  C205     1.0000 0.16278  0.13259  0.12736  Biso   1.000  C
  C206     1.0000 0.06489  0.03527  0.18965  Biso   1.000  C
  C207     1.0000 0.16278  0.13267  0.12732  Biso   1.000  C
  C208     1.0000 0.06490  0.03519  0.18965  Biso   1.000  C
  C209     1.0000 0.16278  0.13259  0.12732  Biso   1.000  C
  H224     1.0000 0.82748  0.92449  0.19461  Biso   1.000  H
  N132     1.0000 0.98007  0.96529  0.17768  Biso   1.000  N
  N133     1.0000 0.98009  0.96521  0.17765  Biso   1.000  N
  N134     1.0000 0.98016  0.96529  0.17765  Biso   1.000  N
  H225     1.0000 0.85608  0.02412  0.22581  Biso   1.000  H
  H226     1.0000 0.85609  0.02404  0.22581  Biso   1.000  H
  H227     1.0000 0.85600  0.02412  0.22581  Biso   1.000  H
  H228     1.0000 0.40687  0.78616  0.08722  Biso   1.000  H
  H229     1.0000 0.40688  0.78616  0.08718  Biso   1.000  H
  C210     1.0000 0.33275  0.00899  0.10933  Biso   1.000  C
  C211     1.0000 0.20632  0.76899  0.13834  Biso   1.000  C
  C212     1.0000 0.20641  0.76899  0.13834  Biso   1.000  C
  C213     1.0000 0.17346  0.96502  0.17189  Biso   1.000  C
  C214     1.0000 0.17346  0.96494  0.17189  Biso   1.000  C
  C215     1.0000 0.17354  0.96502  0.17189  Biso   1.000  C
  H230     1.0000 0.06117  0.05129  0.22593  Biso   1.000  H
  H231     1.0000 0.06118  0.05129  0.22589  Biso   1.000  H
  N135     1.0000 0.21934  0.02941  0.13035  Biso   1.000  N
  N136     1.0000 0.21942  0.02941  0.13035  Biso   1.000  N
  O63      1.0000 0.19173  0.20843  0.10063  Biso   1.000  O
  O64      1.0000 0.19182  0.20843  0.10063  Biso   1.000  O
  O65      1.0000 0.19182  0.20835  0.10063  Biso   1.000  O
  C216     1.0000 0.02281  0.86480  0.16117  Biso   1.000  C
  C217     1.0000 0.02290  0.86472  0.16117  Biso   1.000  C
  C218     1.0000 0.02289  0.86480  0.16117  Biso   1.000  C
  H232     1.0000 0.37749  0.97609  0.13542  Biso   1.000  H
  H233     1.0000 0.37750  0.97601  0.13539  Biso   1.000  H
  H234     1.0000 0.37749  0.97609  0.13539  Biso   1.000  H
  H235     1.0000 0.36046  0.07867  0.09960  Biso   1.000  H
  H236     1.0000 0.36045  0.07875  0.09960  Biso   1.000  H
  H237     1.0000 0.16714  0.70393  0.14341  Biso   1.000  H
  H238     1.0000 0.27104  0.75899  0.15773  Biso   1.000  H
  N137     1.0000 0.13627  0.86193  0.15784  Biso   1.000  N
  H239     1.0000 0.16715  0.70385  0.14341  Biso   1.000  H
  H240     1.0000 0.27105  0.75891  0.15769  Biso   1.000  H
  N138     1.0000 0.13628  0.86185  0.15784  Biso   1.000  N
  H241     1.0000 0.16723  0.70393  0.14341  Biso   1.000  H
  H242     1.0000 0.27112  0.75899  0.15769  Biso   1.000  H
  H243     1.0000 0.22369  0.95483  0.19912  Biso   1.000  H
  H244     1.0000 0.22370  0.95475  0.19908  Biso   1.000  H
  H245     1.0000 0.22369  0.95475  0.19912  Biso   1.000  H
  H246     1.0000 0.22369  0.95483  0.19908  Biso   1.000  H
  O66      1.0000 0.97060  0.78836  0.15159  Biso   1.000  O
  O67      1.0000 0.97069  0.78828  0.15159  Biso   1.000  O
  O68      1.0000 0.97068  0.78836  0.15159  Biso   1.000  O
  N139     1.0000 0.86388  0.13815  0.84215  Biso   1.000  N
  C219     1.0000 0.79375  0.23101  0.86169  Biso   1.000  C
  C220     1.0000 0.79376  0.23101  0.86165  Biso   1.000  C
  C221     1.0000 0.79384  0.23101  0.86165  Biso   1.000  C
  C222     1.0000 0.97727  0.13519  0.83882  Biso   1.000  C
  C223     1.0000 0.97726  0.13519  0.83885  Biso   1.000  C
  C224     1.0000 0.82662  0.03497  0.82814  Biso   1.000  C
  C225     1.0000 0.82670  0.03505  0.82810  Biso   1.000  C
  C226     1.0000 0.97726  0.13527  0.83885  Biso   1.000  C
  C227     1.0000 0.82661  0.03505  0.82814  Biso   1.000  C
  C228     1.0000 0.82671  0.03497  0.82810  Biso   1.000  C
  H247     1.0000 0.72904  0.24100  0.84230  Biso   1.000  H
  N140     1.0000 0.75784  0.22150  0.91504  Biso   1.000  N
  H248     1.0000 0.83293  0.29606  0.85661  Biso   1.000  H
  N141     1.0000 0.86380  0.13806  0.84219  Biso   1.000  N
  H249     1.0000 0.83300  0.29615  0.85661  Biso   1.000  H
  H250     1.0000 0.83292  0.29615  0.85661  Biso   1.000  H
  N142     1.0000 0.75783  0.22158  0.91504  Biso   1.000  N
  N143     1.0000 0.86387  0.13814  0.84219  Biso   1.000  N
  H251     1.0000 0.83301  0.29606  0.85661  Biso   1.000  H
  H252     1.0000 0.72912  0.24100  0.84230  Biso   1.000  H
  N144     1.0000 0.75792  0.22150  0.91504  Biso   1.000  N
  N145     1.0000 0.86389  0.13806  0.84215  Biso   1.000  N
  N146     1.0000 0.02000  0.03470  0.82235  Biso   1.000  N
  O69      1.0000 0.02947  0.21163  0.84844  Biso   1.000  O
  N147     1.0000 0.02008  0.03470  0.82235  Biso   1.000  N
  O70      1.0000 0.02947  0.21171  0.84840  Biso   1.000  O
  O71      1.0000 0.02947  0.21171  0.84844  Biso   1.000  O
  O72      1.0000 0.02948  0.21163  0.84840  Biso   1.000  O
  H253     1.0000 0.77646  0.04524  0.80091  Biso   1.000  H
  C229     1.0000 0.93534  0.96481  0.81038  Biso   1.000  C
  N148     1.0000 0.78082  0.97058  0.86968  Biso   1.000  N
  C230     1.0000 0.93526  0.96481  0.81034  Biso   1.000  C
  N149     1.0000 0.78074  0.97058  0.86964  Biso   1.000  N
  C231     1.0000 0.93527  0.96472  0.81038  Biso   1.000  C
  N150     1.0000 0.78074  0.97058  0.86968  Biso   1.000  N
  N151     1.0000 0.78083  0.97058  0.86964  Biso   1.000  N
  H254     1.0000 0.77639  0.04516  0.80091  Biso   1.000  H
  H255     1.0000 0.77647  0.04516  0.80091  Biso   1.000  H
  C232     1.0000 0.79679  0.28349  0.95162  Biso   1.000  C
  C233     1.0000 0.65368  0.18012  0.93189  Biso   1.000  C
  C234     1.0000 0.79671  0.28349  0.95162  Biso   1.000  C
  C235     1.0000 0.65360  0.18012  0.93193  Biso   1.000  C
  C236     1.0000 0.79678  0.28357  0.95162  Biso   1.000  C
  C237     1.0000 0.65368  0.18012  0.93193  Biso   1.000  C
  C238     1.0000 0.13648  0.00822  0.80758  Biso   1.000  C
  C239     1.0000 0.13657  0.00822  0.80758  Biso   1.000  C
  N152     1.0000 0.93132  0.86620  0.84132  Biso   1.000  N
  H256     1.0000 0.93898  0.94870  0.77410  Biso   1.000  H
  N153     1.0000 0.93124  0.86620  0.84132  Biso   1.000  N
  C240     1.0000 0.66740  0.99100  0.89069  Biso   1.000  C
  C241     1.0000 0.66733  0.99092  0.89069  Biso   1.000  C
  C242     1.0000 0.83738  0.86740  0.87267  Biso   1.000  C
  C243     1.0000 0.83739  0.86732  0.87267  Biso   1.000  C
  O73      1.0000 0.87553  0.33806  0.94541  Biso   1.000  O
  N154     1.0000 0.73260  0.27200  0.99528  Biso   1.000  N
  O74      1.0000 0.87562  0.33806  0.94537  Biso   1.000  O
  N155     1.0000 0.73251  0.27199  0.99532  Biso   1.000  N
  N156     1.0000 0.73259  0.27208  0.99532  Biso   1.000  N
  N157     1.0000 0.65434  0.06153  0.93394  Biso   1.000  N
  C244     1.0000 0.63785  0.21314  0.98835  Biso   1.000  C
  H257     1.0000 0.59328  0.21383  0.91281  Biso   1.000  H
  C245     1.0000 0.63785  0.21306  0.98835  Biso   1.000  C
  H258     1.0000 0.59320  0.21383  0.91281  Biso   1.000  H
  N158     1.0000 0.65434  0.06153  0.93390  Biso   1.000  N
  C246     1.0000 0.63794  0.21306  0.98835  Biso   1.000  C
  H259     1.0000 0.59329  0.21375  0.91281  Biso   1.000  H
  N159     1.0000 0.65443  0.06145  0.93390  Biso   1.000  N
  H260     1.0000 0.14407  0.97587  0.77422  Biso   1.000  H
  N160     1.0000 0.19212  0.93308  0.84234  Biso   1.000  N
  H261     1.0000 0.14407  0.97595  0.77418  Biso   1.000  H
  N161     1.0000 0.19203  0.93316  0.84234  Biso   1.000  N
  N162     1.0000 0.19203  0.93308  0.84234  Biso   1.000  N
  H262     1.0000 0.14408  0.97587  0.77418  Biso   1.000  H
  H263     1.0000 0.17259  0.07550  0.80542  Biso   1.000  H
  H264     1.0000 0.17268  0.07550  0.80538  Biso   1.000  H
  H265     1.0000 0.17267  0.07550  0.80542  Biso   1.000  H
  C247     1.0000 0.00440  0.76678  0.83151  Biso   1.000  C
  C248     1.0000 0.00432  0.76678  0.83147  Biso   1.000  C
  C249     1.0000 0.00432  0.76678  0.83151  Biso   1.000  C
  C250     1.0000 0.00440  0.76678  0.83147  Biso   1.000  C
  H266     1.0000 0.62267  0.02390  0.86460  Biso   1.000  H
  H267     1.0000 0.63970  0.92132  0.90043  Biso   1.000  H
  H268     1.0000 0.63970  0.92132  0.90039  Biso   1.000  H
  H269     1.0000 0.63962  0.92124  0.90043  Biso   1.000  H
  H270     1.0000 0.62259  0.02390  0.86460  Biso   1.000  H
  O75      1.0000 0.80842  0.79156  0.89940  Biso   1.000  O
  O76      1.0000 0.80834  0.79164  0.89937  Biso   1.000  O
  O77      1.0000 0.80834  0.79156  0.89940  Biso   1.000  O
  O78      1.0000 0.80843  0.79156  0.89937  Biso   1.000  O
  C251     1.0000 0.74017  0.34085  0.03962  Biso   1.000  C
  C252     1.0000 0.74016  0.34094  0.03962  Biso   1.000  C
  C253     1.0000 0.64019  0.02201  0.98271  Biso   1.000  C
  C254     1.0000 0.64011  0.02201  0.98271  Biso   1.000  C
  H271     1.0000 0.56858  0.25943  0.99562  Biso   1.000  H
  H272     1.0000 0.56858  0.25943  0.99558  Biso   1.000  H
  N163     1.0000 0.63692  0.10873  0.01490  Biso   1.000  N
  N164     1.0000 0.63700  0.10873  0.01490  Biso   1.000  N
  N165     1.0000 0.63701  0.10865  0.01490  Biso   1.000  N
  C255     1.0000 0.20584  0.81301  0.83764  Biso   1.000  C
  C256     1.0000 0.25910  0.97093  0.87562  Biso   1.000  C
  C257     1.0000 0.20575  0.81301  0.83764  Biso   1.000  C
  C258     1.0000 0.20576  0.81293  0.83764  Biso   1.000  C
  C259     1.0000 0.25902  0.97085  0.87562  Biso   1.000  C
  H273     1.0000 0.96528  0.70396  0.84230  Biso   1.000  H
  H274     1.0000 0.96527  0.70405  0.84230  Biso   1.000  H
  H275     1.0000 0.02228  0.76101  0.79531  Biso   1.000  H
  N166     1.0000 0.10642  0.76149  0.85650  Biso   1.000  N
  N167     1.0000 0.10634  0.76149  0.85650  Biso   1.000  N
  H276     1.0000 0.02229  0.76093  0.79531  Biso   1.000  H
  H277     1.0000 0.66784  0.37831  0.04871  Biso   1.000  H
  H278     1.0000 0.78975  0.39650  0.03023  Biso   1.000  H
  N168     1.0000 0.77863  0.28191  0.08347  Biso   1.000  N
  H279     1.0000 0.66792  0.37831  0.04871  Biso   1.000  H
  H280     1.0000 0.78983  0.39650  0.03019  Biso   1.000  H
  N169     1.0000 0.77872  0.28191  0.08347  Biso   1.000  N
  H281     1.0000 0.66793  0.37823  0.04871  Biso   1.000  H
  N170     1.0000 0.77872  0.28183  0.08347  Biso   1.000  N
  H282     1.0000 0.78975  0.39650  0.03019  Biso   1.000  H
  O79      1.0000 0.63030  0.92650  0.99441  Biso   1.000  O
  C260     1.0000 0.60018  0.10086  0.06836  Biso   1.000  C
  C261     1.0000 0.60017  0.10094  0.06836  Biso   1.000  C
  C262     1.0000 0.28909  0.77743  0.87960  Biso   1.000  C
  C263     1.0000 0.24467  0.77746  0.78387  Biso   1.000  C
  C264     1.0000 0.24467  0.77755  0.78384  Biso   1.000  C
  C265     1.0000 0.28902  0.77735  0.87960  Biso   1.000  C
  C266     1.0000 0.24467  0.77747  0.78384  Biso   1.000  C
  N171     1.0000 0.31447  0.88411  0.89800  Biso   1.000  N
  N172     1.0000 0.31448  0.88403  0.89800  Biso   1.000  N
  O80      1.0000 0.26834  0.06736  0.88361  Biso   1.000  O
  O81      1.0000 0.26834  0.06744  0.88358  Biso   1.000  O
  O82      1.0000 0.26833  0.06744  0.88361  Biso   1.000  O
  O83      1.0000 0.26843  0.06736  0.88358  Biso   1.000  O
  C267     1.0000 0.11783  0.70768  0.90183  Biso   1.000  C
  C268     1.0000 0.11775  0.70768  0.90183  Biso   1.000  C
  C269     1.0000 0.88233  0.29231  0.09820  Biso   1.000  C
  C270     1.0000 0.71106  0.22256  0.12043  Biso   1.000  C
  C271     1.0000 0.88241  0.29231  0.09816  Biso   1.000  C
  C272     1.0000 0.71106  0.22265  0.12039  Biso   1.000  C
  C273     1.0000 0.88242  0.29222  0.09820  Biso   1.000  C
  C274     1.0000 0.88233  0.29231  0.09816  Biso   1.000  C
  C275     1.0000 0.71107  0.22256  0.12039  Biso   1.000  C
  H283     1.0000 0.57362  0.02952  0.07510  Biso   1.000  H
  H284     1.0000 0.53865  0.15601  0.07571  Biso   1.000  H
  N173     1.0000 0.68569  0.11588  0.10203  Biso   1.000  N
  H285     1.0000 0.57370  0.02952  0.07510  Biso   1.000  H
  N174     1.0000 0.68568  0.11597  0.10199  Biso   1.000  N
  H286     1.0000 0.57371  0.02944  0.07510  Biso   1.000  H
  H287     1.0000 0.53866  0.15593  0.07571  Biso   1.000  H
  N175     1.0000 0.68561  0.11588  0.10199  Biso   1.000  N
  C276     1.0000 0.39491  0.70763  0.86040  Biso   1.000  C
  N176     1.0000 0.22152  0.71808  0.91656  Biso   1.000  N
  C277     1.0000 0.39482  0.70763  0.86040  Biso   1.000  C
  N177     1.0000 0.22144  0.71816  0.91652  Biso   1.000  N
  C278     1.0000 0.39483  0.70755  0.86040  Biso   1.000  C
  N178     1.0000 0.22144  0.71808  0.91656  Biso   1.000  N
  N179     1.0000 0.22153  0.71808  0.91652  Biso   1.000  N
  H288     1.0000 0.25282  0.69878  0.78232  Biso   1.000  H
  H289     1.0000 0.31449  0.80511  0.77441  Biso   1.000  H
  H290     1.0000 0.19143  0.80626  0.76100  Biso   1.000  H
  H291     1.0000 0.25274  0.69886  0.78228  Biso   1.000  H
  H292     1.0000 0.19134  0.80634  0.76100  Biso   1.000  H
  H293     1.0000 0.25274  0.69878  0.78232  Biso   1.000  H
  H294     1.0000 0.31442  0.80503  0.77441  Biso   1.000  H
  H295     1.0000 0.19135  0.80626  0.76100  Biso   1.000  H
  H296     1.0000 0.25283  0.69878  0.78228  Biso   1.000  H
  C279     1.0000 0.39998  0.89913  0.93167  Biso   1.000  C
  C280     1.0000 0.39998  0.89913  0.93163  Biso   1.000  C
  C281     1.0000 0.39999  0.89905  0.93167  Biso   1.000  C
  O84      1.0000 0.04708  0.65631  0.92470  Biso   1.000  O
  O85      1.0000 0.04707  0.65639  0.92470  Biso   1.000  O
  N180     1.0000 0.89374  0.23850  0.14353  Biso   1.000  N
  O86      1.0000 0.95308  0.34368  0.07533  Biso   1.000  O
  N181     1.0000 0.89383  0.23850  0.14349  Biso   1.000  N
  O87      1.0000 0.95309  0.34368  0.07529  Biso   1.000  O
  N182     1.0000 0.89382  0.23850  0.14353  Biso   1.000  N
  O88      1.0000 0.95309  0.34360  0.07533  Biso   1.000  O
  N183     1.0000 0.89374  0.23850  0.14349  Biso   1.000  N
  O89      1.0000 0.95300  0.34368  0.07529  Biso   1.000  O
  C282     1.0000 0.79432  0.18698  0.16239  Biso   1.000  C
  C283     1.0000 0.60525  0.29236  0.13963  Biso   1.000  C
  C284     1.0000 0.79440  0.18706  0.16235  Biso   1.000  C
  C285     1.0000 0.60533  0.29245  0.13959  Biso   1.000  C
  C286     1.0000 0.79440  0.18698  0.16239  Biso   1.000  C
  C287     1.0000 0.79433  0.18698  0.16235  Biso   1.000  C
  C288     1.0000 0.60526  0.29236  0.13959  Biso   1.000  C
  C289     1.0000 0.74106  0.02906  0.12441  Biso   1.000  C
  C290     1.0000 0.74105  0.02914  0.12441  Biso   1.000  C
  H297     1.0000 0.37630  0.63863  0.84851  Biso   1.000  H
  H298     1.0000 0.44262  0.69482  0.88751  Biso   1.000  H
  H299     1.0000 0.43207  0.74581  0.83321  Biso   1.000  H
  H300     1.0000 0.37622  0.63863  0.84851  Biso   1.000  H
  H301     1.0000 0.44254  0.69482  0.88751  Biso   1.000  H
  H302     1.0000 0.37623  0.63855  0.84851  Biso   1.000  H
  H303     1.0000 0.44255  0.69473  0.88751  Biso   1.000  H
  H304     1.0000 0.43208  0.74572  0.83321  Biso   1.000  H
  H305     1.0000 0.37631  0.63855  0.84851  Biso   1.000  H
  C291     1.0000 0.25999  0.65914  0.96041  Biso   1.000  C
  C292     1.0000 0.25999  0.65914  0.96037  Biso   1.000  C
  C293     1.0000 0.25999  0.65905  0.96041  Biso   1.000  C
  C294     1.0000 0.26000  0.65905  0.96037  Biso   1.000  C
  H306     1.0000 0.42654  0.97047  0.92493  Biso   1.000  H
  H307     1.0000 0.46151  0.84398  0.92432  Biso   1.000  H
  N184     1.0000 0.36324  0.89126  0.98513  Biso   1.000  N
  H308     1.0000 0.42645  0.97055  0.92489  Biso   1.000  H
  H309     1.0000 0.46142  0.84406  0.92428  Biso   1.000  H
  N185     1.0000 0.36316  0.89134  0.98510  Biso   1.000  N
  H310     1.0000 0.42646  0.97047  0.92493  Biso   1.000  H
  H311     1.0000 0.46143  0.84398  0.92432  Biso   1.000  H
  N186     1.0000 0.36316  0.89126  0.98513  Biso   1.000  N
  H312     1.0000 0.42654  0.97047  0.92489  Biso   1.000  H
  H313     1.0000 0.46151  0.84398  0.92428  Biso   1.000  H
  N187     1.0000 0.36325  0.89126  0.98510  Biso   1.000  N
  C295     1.0000 0.99576  0.23321  0.16852  Biso   1.000  C
  C296     1.0000 0.99577  0.23313  0.16852  Biso   1.000  C
  C297     1.0000 0.75549  0.22253  0.21616  Biso   1.000  C
  N188     1.0000 0.80804  0.06691  0.15769  Biso   1.000  N
  N189     1.0000 0.80813  0.06691  0.15765  Biso   1.000  N
  C298     1.0000 0.75550  0.22244  0.21616  Biso   1.000  C
  N190     1.0000 0.80813  0.06683  0.15769  Biso   1.000  N
  C299     1.0000 0.75541  0.22253  0.21616  Biso   1.000  C
  N191     1.0000 0.80805  0.06691  0.15765  Biso   1.000  N
  H314     1.0000 0.62386  0.36136  0.15152  Biso   1.000  H
  H315     1.0000 0.55754  0.30517  0.11252  Biso   1.000  H
  H316     1.0000 0.56809  0.25419  0.16682  Biso   1.000  H
  H317     1.0000 0.62394  0.36144  0.15148  Biso   1.000  H
  H318     1.0000 0.55761  0.30526  0.11252  Biso   1.000  H
  H319     1.0000 0.56809  0.25427  0.16678  Biso   1.000  H
  H320     1.0000 0.55762  0.30517  0.11252  Biso   1.000  H
  H321     1.0000 0.62386  0.36136  0.15148  Biso   1.000  H
  H322     1.0000 0.56801  0.25419  0.16678  Biso   1.000  H
  O90      1.0000 0.73174  0.93263  0.11642  Biso   1.000  O
  O91      1.0000 0.73174  0.93255  0.11642  Biso   1.000  O
  O92      1.0000 0.73182  0.93263  0.11642  Biso   1.000  O
  H323     1.0000 0.33232  0.62168  0.95132  Biso   1.000  H
  H324     1.0000 0.21041  0.60350  0.96980  Biso   1.000  H
  H325     1.0000 0.33223  0.62176  0.95128  Biso   1.000  H
  H326     1.0000 0.21033  0.60350  0.96980  Biso   1.000  H
  H327     1.0000 0.33224  0.62168  0.95132  Biso   1.000  H
  H328     1.0000 0.33232  0.62168  0.95128  Biso   1.000  H
  N192     1.0000 0.26756  0.72800  0.00471  Biso   1.000  N
  N193     1.0000 0.26757  0.72791  0.00471  Biso   1.000  N
  C300     1.0000 0.36222  0.78693  0.01168  Biso   1.000  C
  C301     1.0000 0.35996  0.97798  0.01732  Biso   1.000  C
  C302     1.0000 0.36232  0.78685  0.01164  Biso   1.000  C
  C303     1.0000 0.35997  0.97798  0.01728  Biso   1.000  C
  C304     1.0000 0.36223  0.78685  0.01168  Biso   1.000  C
  C305     1.0000 0.36231  0.78693  0.01164  Biso   1.000  C
  C306     1.0000 0.36005  0.97798  0.01728  Biso   1.000  C
  H329     1.0000 0.97787  0.23898  0.20472  Biso   1.000  H
  H330     1.0000 0.97787  0.23906  0.20468  Biso   1.000  H
  H331     1.0000 0.97788  0.23898  0.20468  Biso   1.000  H
  H332     1.0000 0.03488  0.29603  0.15773  Biso   1.000  H
  N194     1.0000 0.06884  0.13379  0.15871  Biso   1.000  N
  H333     1.0000 0.03488  0.29603  0.15769  Biso   1.000  H
  N195     1.0000 0.06892  0.13379  0.15871  Biso   1.000  N
  H334     1.0000 0.03488  0.29594  0.15773  Biso   1.000  H
  H335     1.0000 0.74734  0.30121  0.21771  Biso   1.000  H
  H336     1.0000 0.68567  0.19488  0.22562  Biso   1.000  H
  H337     1.0000 0.80872  0.19373  0.23903  Biso   1.000  H
  H338     1.0000 0.74742  0.30121  0.21771  Biso   1.000  H
  H339     1.0000 0.68566  0.19496  0.22558  Biso   1.000  H
  H340     1.0000 0.80881  0.19373  0.23899  Biso   1.000  H
  H341     1.0000 0.74743  0.30113  0.21771  Biso   1.000  H
  H342     1.0000 0.80881  0.19365  0.23903  Biso   1.000  H
  H343     1.0000 0.68567  0.19488  0.22558  Biso   1.000  H
  H344     1.0000 0.80873  0.19373  0.23899  Biso   1.000  H
  C307     1.0000 0.86359  0.99177  0.19245  Biso   1.000  C
  C308     1.0000 0.86360  0.99177  0.19241  Biso   1.000  C
  C309     1.0000 0.20337  0.71651  0.04841  Biso   1.000  C
  C310     1.0000 0.20338  0.71642  0.04837  Biso   1.000  C
  C311     1.0000 0.20337  0.71651  0.04837  Biso   1.000  C
  H345     1.0000 0.43150  0.74056  0.00441  Biso   1.000  H
  C312     1.0000 0.34648  0.81987  0.06810  Biso   1.000  C
  H346     1.0000 0.43158  0.74056  0.00441  Biso   1.000  H
  N196     1.0000 0.34574  0.93846  0.06609  Biso   1.000  N
  N197     1.0000 0.34582  0.93846  0.06609  Biso   1.000  N
  O93      1.0000 0.36986  0.07349  0.00562  Biso   1.000  O
  O94      1.0000 0.36986  0.07350  0.00558  Biso   1.000  O
  C313     1.0000 0.06482  0.03519  0.18965  Biso   1.000  C
  C314     1.0000 0.16278  0.13259  0.12736  Biso   1.000  C
  C315     1.0000 0.06489  0.03527  0.18965  Biso   1.000  C
  C316     1.0000 0.16278  0.13267  0.12732  Biso   1.000  C
  C317     1.0000 0.06490  0.03519  0.18965  Biso   1.000  C
  C318     1.0000 0.16278  0.13259  0.12732  Biso   1.000  C
  H347     1.0000 0.82748  0.92449  0.19461  Biso   1.000  H
  N198     1.0000 0.98007  0.96529  0.17768  Biso   1.000  N
  N199     1.0000 0.98009  0.96521  0.17765  Biso   1.000  N
  N200     1.0000 0.98016  0.96529  0.17765  Biso   1.000  N
  H348     1.0000 0.85608  0.02412  0.22581  Biso   1.000  H
  H349     1.0000 0.85609  0.02404  0.22581  Biso   1.000  H
  H350     1.0000 0.85600  0.02412  0.22581  Biso   1.000  H
  N201     1.0000 0.24223  0.77850  0.08499  Biso   1.000  N
  O95      1.0000 0.12454  0.66193  0.05462  Biso   1.000  O
  N202     1.0000 0.24225  0.77841  0.08495  Biso   1.000  N
  N203     1.0000 0.24232  0.77850  0.08495  Biso   1.000  N
  O96      1.0000 0.12462  0.66193  0.05462  Biso   1.000  O
  H351     1.0000 0.40687  0.78616  0.08722  Biso   1.000  H
  H352     1.0000 0.40688  0.78616  0.08718  Biso   1.000  H
  C319     1.0000 0.33275  0.00899  0.10933  Biso   1.000  C
  C320     1.0000 0.17346  0.96502  0.17189  Biso   1.000  C
  C321     1.0000 0.17346  0.96494  0.17189  Biso   1.000  C
  C322     1.0000 0.17354  0.96502  0.17189  Biso   1.000  C
  H353     1.0000 0.06117  0.05129  0.22593  Biso   1.000  H
  H354     1.0000 0.06118  0.05129  0.22589  Biso   1.000  H
  N204     1.0000 0.21934  0.02941  0.13035  Biso   1.000  N
  O97      1.0000 0.19173  0.20843  0.10063  Biso   1.000  O
  N205     1.0000 0.21942  0.02941  0.13035  Biso   1.000  N
  O98      1.0000 0.19182  0.20843  0.10063  Biso   1.000  O
  O99      1.0000 0.19182  0.20835  0.10063  Biso   1.000  O
  C323     1.0000 0.02281  0.86480  0.16117  Biso   1.000  C
  C324     1.0000 0.02290  0.86472  0.16117  Biso   1.000  C
  C325     1.0000 0.02289  0.86480  0.16117  Biso   1.000  C
  C326     1.0000 0.20632  0.76899  0.13834  Biso   1.000  C
  C327     1.0000 0.20641  0.76899  0.13834  Biso   1.000  C
  H355     1.0000 0.37749  0.97609  0.13542  Biso   1.000  H
  H356     1.0000 0.37750  0.97601  0.13539  Biso   1.000  H
  H357     1.0000 0.37749  0.97609  0.13539  Biso   1.000  H
  H358     1.0000 0.36046  0.07867  0.09960  Biso   1.000  H
  H359     1.0000 0.36045  0.07875  0.09960  Biso   1.000  H
  H360     1.0000 0.22369  0.95483  0.19912  Biso   1.000  H
  N206     1.0000 0.13627  0.86193  0.15784  Biso   1.000  N
  H361     1.0000 0.22370  0.95475  0.19908  Biso   1.000  H
  N207     1.0000 0.13628  0.86185  0.15784  Biso   1.000  N
  H362     1.0000 0.22369  0.95475  0.19912  Biso   1.000  H
  H363     1.0000 0.22369  0.95483  0.19908  Biso   1.000  H
  O100     1.0000 0.97060  0.78836  0.15159  Biso   1.000  O
  O101     1.0000 0.97069  0.78828  0.15159  Biso   1.000  O
  O102     1.0000 0.97068  0.78836  0.15159  Biso   1.000  O
  H364     1.0000 0.16714  0.70393  0.14341  Biso   1.000  H
  H365     1.0000 0.27104  0.75899  0.15773  Biso   1.000  H
  H366     1.0000 0.16715  0.70385  0.14341  Biso   1.000  H
  H367     1.0000 0.27105  0.75891  0.15769  Biso   1.000  H
  H368     1.0000 0.16723  0.70393  0.14341  Biso   1.000  H
  H369     1.0000 0.27112  0.75899  0.15769  Biso   1.000  H
  N208     1.0000 0.86388  0.13815  0.84215  Biso   1.000  N
  C328     1.0000 0.79375  0.23101  0.86169  Biso   1.000  C
  C329     1.0000 0.79376  0.23101  0.86165  Biso   1.000  C
  C330     1.0000 0.79384  0.23101  0.86165  Biso   1.000  C
  C331     1.0000 0.97727  0.13519  0.83882  Biso   1.000  C
  C332     1.0000 0.97726  0.13519  0.83885  Biso   1.000  C
  C333     1.0000 0.82662  0.03497  0.82814  Biso   1.000  C
  C334     1.0000 0.82670  0.03505  0.82810  Biso   1.000  C
  C335     1.0000 0.97726  0.13527  0.83885  Biso   1.000  C
  C336     1.0000 0.82661  0.03505  0.82814  Biso   1.000  C
  C337     1.0000 0.82671  0.03497  0.82810  Biso   1.000  C
  H370     1.0000 0.72904  0.24100  0.84230  Biso   1.000  H
  N209     1.0000 0.75784  0.22150  0.91504  Biso   1.000  N
  H371     1.0000 0.83293  0.29606  0.85661  Biso   1.000  H
  N210     1.0000 0.86380  0.13806  0.84219  Biso   1.000  N
  H372     1.0000 0.83300  0.29615  0.85661  Biso   1.000  H
  H373     1.0000 0.83292  0.29615  0.85661  Biso   1.000  H
  N211     1.0000 0.75783  0.22158  0.91504  Biso   1.000  N
  N212     1.0000 0.86387  0.13814  0.84219  Biso   1.000  N
  H374     1.0000 0.83301  0.29606  0.85661  Biso   1.000  H
  H375     1.0000 0.72912  0.24100  0.84230  Biso   1.000  H
  N213     1.0000 0.75792  0.22150  0.91504  Biso   1.000  N
  N214     1.0000 0.86389  0.13806  0.84215  Biso   1.000  N
  N215     1.0000 0.02000  0.03470  0.82235  Biso   1.000  N
  O103     1.0000 0.02947  0.21163  0.84844  Biso   1.000  O
  N216     1.0000 0.02008  0.03470  0.82235  Biso   1.000  N
  O104     1.0000 0.02947  0.21171  0.84840  Biso   1.000  O
  O105     1.0000 0.02947  0.21171  0.84844  Biso   1.000  O
  O106     1.0000 0.02948  0.21163  0.84840  Biso   1.000  O
  H376     1.0000 0.77646  0.04524  0.80091  Biso   1.000  H
  C338     1.0000 0.93534  0.96481  0.81038  Biso   1.000  C
  N217     1.0000 0.78082  0.97058  0.86968  Biso   1.000  N
  C339     1.0000 0.93526  0.96481  0.81034  Biso   1.000  C
  N218     1.0000 0.78074  0.97058  0.86964  Biso   1.000  N
  C340     1.0000 0.93527  0.96472  0.81038  Biso   1.000  C
  N219     1.0000 0.78074  0.97058  0.86968  Biso   1.000  N
  N220     1.0000 0.78083  0.97058  0.86964  Biso   1.000  N
  H377     1.0000 0.77639  0.04516  0.80091  Biso   1.000  H
  H378     1.0000 0.77647  0.04516  0.80091  Biso   1.000  H
  C341     1.0000 0.79679  0.28349  0.95162  Biso   1.000  C
  C342     1.0000 0.65368  0.18012  0.93189  Biso   1.000  C
  C343     1.0000 0.79671  0.28349  0.95162  Biso   1.000  C
  C344     1.0000 0.65360  0.18012  0.93193  Biso   1.000  C
  C345     1.0000 0.79678  0.28357  0.95162  Biso   1.000  C
  C346     1.0000 0.65368  0.18012  0.93193  Biso   1.000  C
  C347     1.0000 0.13648  0.00822  0.80758  Biso   1.000  C
  C348     1.0000 0.13657  0.00822  0.80758  Biso   1.000  C
  N221     1.0000 0.93132  0.86620  0.84132  Biso   1.000  N
  H379     1.0000 0.93898  0.94870  0.77410  Biso   1.000  H
  N222     1.0000 0.93124  0.86620  0.84132  Biso   1.000  N
  C349     1.0000 0.66740  0.99100  0.89069  Biso   1.000  C
  C350     1.0000 0.66733  0.99092  0.89069  Biso   1.000  C
  C351     1.0000 0.83738  0.86740  0.87267  Biso   1.000  C
  C352     1.0000 0.83739  0.86732  0.87267  Biso   1.000  C
  O107     1.0000 0.87553  0.33806  0.94541  Biso   1.000  O
  N223     1.0000 0.73260  0.27200  0.99528  Biso   1.000  N
  O108     1.0000 0.87562  0.33806  0.94537  Biso   1.000  O
  N224     1.0000 0.73251  0.27199  0.99532  Biso   1.000  N
  N225     1.0000 0.73259  0.27208  0.99532  Biso   1.000  N
  C353     1.0000 0.63785  0.21314  0.98835  Biso   1.000  C
  H380     1.0000 0.59328  0.21383  0.91281  Biso   1.000  H
  N226     1.0000 0.65434  0.06153  0.93394  Biso   1.000  N
  C354     1.0000 0.63785  0.21306  0.98835  Biso   1.000  C
  H381     1.0000 0.59320  0.21383  0.91281  Biso   1.000  H
  N227     1.0000 0.65434  0.06153  0.93390  Biso   1.000  N
  C355     1.0000 0.63794  0.21306  0.98835  Biso   1.000  C
  H382     1.0000 0.59329  0.21375  0.91281  Biso   1.000  H
  N228     1.0000 0.65443  0.06145  0.93390  Biso   1.000  N
  H383     1.0000 0.14407  0.97587  0.77422  Biso   1.000  H
  N229     1.0000 0.19212  0.93308  0.84234  Biso   1.000  N
  H384     1.0000 0.14407  0.97595  0.77418  Biso   1.000  H
  N230     1.0000 0.19203  0.93316  0.84234  Biso   1.000  N
  N231     1.0000 0.19203  0.93308  0.84234  Biso   1.000  N
  H385     1.0000 0.14408  0.97587  0.77418  Biso   1.000  H
  H386     1.0000 0.17259  0.07550  0.80542  Biso   1.000  H
  H387     1.0000 0.17268  0.07550  0.80538  Biso   1.000  H
  H388     1.0000 0.17267  0.07550  0.80542  Biso   1.000  H
  C356     1.0000 0.00440  0.76678  0.83151  Biso   1.000  C
  C357     1.0000 0.00432  0.76678  0.83147  Biso   1.000  C
  C358     1.0000 0.00432  0.76678  0.83151  Biso   1.000  C
  C359     1.0000 0.00440  0.76678  0.83147  Biso   1.000  C
  H389     1.0000 0.62267  0.02390  0.86460  Biso   1.000  H
  H390     1.0000 0.63970  0.92132  0.90043  Biso   1.000  H
  H391     1.0000 0.63970  0.92132  0.90039  Biso   1.000  H
  H392     1.0000 0.63962  0.92124  0.90043  Biso   1.000  H
  H393     1.0000 0.62259  0.02390  0.86460  Biso   1.000  H
  O109     1.0000 0.80842  0.79156  0.89940  Biso   1.000  O
  O110     1.0000 0.80834  0.79164  0.89937  Biso   1.000  O
  O111     1.0000 0.80834  0.79156  0.89940  Biso   1.000  O
  O112     1.0000 0.80843  0.79156  0.89937  Biso   1.000  O
  C360     1.0000 0.74017  0.34085  0.03962  Biso   1.000  C
  C361     1.0000 0.74016  0.34094  0.03962  Biso   1.000  C
  H394     1.0000 0.56858  0.25943  0.99562  Biso   1.000  H
  H395     1.0000 0.56858  0.25943  0.99558  Biso   1.000  H
  N232     1.0000 0.63692  0.10873  0.01490  Biso   1.000  N
  N233     1.0000 0.63700  0.10873  0.01490  Biso   1.000  N
  N234     1.0000 0.63701  0.10865  0.01490  Biso   1.000  N
  C362     1.0000 0.64019  0.02201  0.98271  Biso   1.000  C
  C363     1.0000 0.64011  0.02201  0.98271  Biso   1.000  C
  C364     1.0000 0.20584  0.81301  0.83764  Biso   1.000  C
  C365     1.0000 0.25910  0.97093  0.87562  Biso   1.000  C
  C366     1.0000 0.20575  0.81301  0.83764  Biso   1.000  C
  C367     1.0000 0.20576  0.81293  0.83764  Biso   1.000  C
  C368     1.0000 0.25902  0.97085  0.87562  Biso   1.000  C
  H396     1.0000 0.96528  0.70396  0.84230  Biso   1.000  H
  H397     1.0000 0.96527  0.70405  0.84230  Biso   1.000  H
  H398     1.0000 0.02228  0.76101  0.79531  Biso   1.000  H
  N235     1.0000 0.10642  0.76149  0.85650  Biso   1.000  N
  N236     1.0000 0.10634  0.76149  0.85650  Biso   1.000  N
  H399     1.0000 0.02229  0.76093  0.79531  Biso   1.000  H
  H400     1.0000 0.66784  0.37831  0.04871  Biso   1.000  H
  H401     1.0000 0.78975  0.39650  0.03023  Biso   1.000  H
  N237     1.0000 0.77863  0.28191  0.08347  Biso   1.000  N
  H402     1.0000 0.66792  0.37831  0.04871  Biso   1.000  H
  H403     1.0000 0.78983  0.39650  0.03019  Biso   1.000  H
  N238     1.0000 0.77872  0.28191  0.08347  Biso   1.000  N
  H404     1.0000 0.66793  0.37823  0.04871  Biso   1.000  H
  N239     1.0000 0.77872  0.28183  0.08347  Biso   1.000  N
  H405     1.0000 0.78975  0.39650  0.03019  Biso   1.000  H
  C369     1.0000 0.60018  0.10086  0.06836  Biso   1.000  C
  C370     1.0000 0.60017  0.10094  0.06836  Biso   1.000  C
  O113     1.0000 0.63030  0.92650  0.99441  Biso   1.000  O
  C371     1.0000 0.28909  0.77743  0.87960  Biso   1.000  C
  C372     1.0000 0.24467  0.77746  0.78387  Biso   1.000  C
  C373     1.0000 0.24467  0.77755  0.78384  Biso   1.000  C
  C374     1.0000 0.28902  0.77735  0.87960  Biso   1.000  C
  C375     1.0000 0.24467  0.77747  0.78384  Biso   1.000  C
  N240     1.0000 0.31447  0.88411  0.89800  Biso   1.000  N
  N241     1.0000 0.31448  0.88403  0.89800  Biso   1.000  N
  O114     1.0000 0.26834  0.06736  0.88361  Biso   1.000  O
  O115     1.0000 0.26834  0.06744  0.88358  Biso   1.000  O
  O116     1.0000 0.26833  0.06744  0.88361  Biso   1.000  O
  O117     1.0000 0.26843  0.06736  0.88358  Biso   1.000  O
  C376     1.0000 0.11783  0.70768  0.90183  Biso   1.000  C
  C377     1.0000 0.11775  0.70768  0.90183  Biso   1.000  C
  C378     1.0000 0.88233  0.29231  0.09820  Biso   1.000  C
  C379     1.0000 0.71106  0.22256  0.12043  Biso   1.000  C
  C380     1.0000 0.88241  0.29231  0.09816  Biso   1.000  C
  C381     1.0000 0.71106  0.22265  0.12039  Biso   1.000  C
  C382     1.0000 0.88242  0.29222  0.09820  Biso   1.000  C
  C383     1.0000 0.88233  0.29231  0.09816  Biso   1.000  C
  C384     1.0000 0.71107  0.22256  0.12039  Biso   1.000  C
  H406     1.0000 0.57362  0.02952  0.07510  Biso   1.000  H
  H407     1.0000 0.53865  0.15601  0.07571  Biso   1.000  H
  N242     1.0000 0.68569  0.11588  0.10203  Biso   1.000  N
  H408     1.0000 0.57370  0.02952  0.07510  Biso   1.000  H
  N243     1.0000 0.68568  0.11597  0.10199  Biso   1.000  N
  H409     1.0000 0.57371  0.02944  0.07510  Biso   1.000  H
  H410     1.0000 0.53866  0.15593  0.07571  Biso   1.000  H
  N244     1.0000 0.68561  0.11588  0.10199  Biso   1.000  N
  C385     1.0000 0.39491  0.70763  0.86040  Biso   1.000  C
  N245     1.0000 0.22152  0.71808  0.91656  Biso   1.000  N
  C386     1.0000 0.39482  0.70763  0.86040  Biso   1.000  C
  N246     1.0000 0.22144  0.71816  0.91652  Biso   1.000  N
  C387     1.0000 0.39483  0.70755  0.86040  Biso   1.000  C
  N247     1.0000 0.22144  0.71808  0.91656  Biso   1.000  N
  N248     1.0000 0.22153  0.71808  0.91652  Biso   1.000  N
  H411     1.0000 0.25282  0.69878  0.78232  Biso   1.000  H
  H412     1.0000 0.31449  0.80511  0.77441  Biso   1.000  H
  H413     1.0000 0.19143  0.80626  0.76100  Biso   1.000  H
  H414     1.0000 0.25274  0.69886  0.78228  Biso   1.000  H
  H415     1.0000 0.19134  0.80634  0.76100  Biso   1.000  H
  H416     1.0000 0.25274  0.69878  0.78232  Biso   1.000  H
  H417     1.0000 0.31442  0.80503  0.77441  Biso   1.000  H
  H418     1.0000 0.19135  0.80626  0.76100  Biso   1.000  H
  H419     1.0000 0.25283  0.69878  0.78228  Biso   1.000  H
  C388     1.0000 0.39998  0.89913  0.93167  Biso   1.000  C
  C389     1.0000 0.39998  0.89913  0.93163  Biso   1.000  C
  C390     1.0000 0.39999  0.89905  0.93167  Biso   1.000  C
  O118     1.0000 0.04708  0.65631  0.92470  Biso   1.000  O
  O119     1.0000 0.04707  0.65639  0.92470  Biso   1.000  O
  N249     1.0000 0.89374  0.23850  0.14353  Biso   1.000  N
  O120     1.0000 0.95308  0.34368  0.07533  Biso   1.000  O
  N250     1.0000 0.89383  0.23850  0.14349  Biso   1.000  N
  O121     1.0000 0.95309  0.34368  0.07529  Biso   1.000  O
  N251     1.0000 0.89382  0.23850  0.14353  Biso   1.000  N
  O122     1.0000 0.95309  0.34360  0.07533  Biso   1.000  O
  N252     1.0000 0.89374  0.23850  0.14349  Biso   1.000  N
  O123     1.0000 0.95300  0.34368  0.07529  Biso   1.000  O
  C391     1.0000 0.79432  0.18698  0.16239  Biso   1.000  C
  C392     1.0000 0.60525  0.29236  0.13963  Biso   1.000  C
  C393     1.0000 0.79440  0.18706  0.16235  Biso   1.000  C
  C394     1.0000 0.60533  0.29245  0.13959  Biso   1.000  C
  C395     1.0000 0.79440  0.18698  0.16239  Biso   1.000  C
  C396     1.0000 0.79433  0.18698  0.16235  Biso   1.000  C
  C397     1.0000 0.60526  0.29236  0.13959  Biso   1.000  C
  C398     1.0000 0.74106  0.02906  0.12441  Biso   1.000  C
  C399     1.0000 0.74105  0.02914  0.12441  Biso   1.000  C
  H420     1.0000 0.37630  0.63863  0.84851  Biso   1.000  H
  H421     1.0000 0.44262  0.69482  0.88751  Biso   1.000  H
  H422     1.0000 0.43207  0.74581  0.83321  Biso   1.000  H
  H423     1.0000 0.37622  0.63863  0.84851  Biso   1.000  H
  H424     1.0000 0.44254  0.69482  0.88751  Biso   1.000  H
  H425     1.0000 0.37623  0.63855  0.84851  Biso   1.000  H
  H426     1.0000 0.44255  0.69473  0.88751  Biso   1.000  H
  H427     1.0000 0.43208  0.74572  0.83321  Biso   1.000  H
  H428     1.0000 0.37631  0.63855  0.84851  Biso   1.000  H
  C400     1.0000 0.25999  0.65914  0.96041  Biso   1.000  C
  C401     1.0000 0.25999  0.65914  0.96037  Biso   1.000  C
  C402     1.0000 0.25999  0.65905  0.96041  Biso   1.000  C
  C403     1.0000 0.26000  0.65905  0.96037  Biso   1.000  C
  H429     1.0000 0.42654  0.97047  0.92493  Biso   1.000  H
  H430     1.0000 0.46151  0.84398  0.92432  Biso   1.000  H
  N253     1.0000 0.36324  0.89126  0.98513  Biso   1.000  N
  H431     1.0000 0.42645  0.97055  0.92489  Biso   1.000  H
  H432     1.0000 0.46142  0.84406  0.92428  Biso   1.000  H
  N254     1.0000 0.36316  0.89134  0.98510  Biso   1.000  N
  H433     1.0000 0.42646  0.97047  0.92493  Biso   1.000  H
  H434     1.0000 0.46143  0.84398  0.92432  Biso   1.000  H
  N255     1.0000 0.36316  0.89126  0.98513  Biso   1.000  N
  H435     1.0000 0.42654  0.97047  0.92489  Biso   1.000  H
  H436     1.0000 0.46151  0.84398  0.92428  Biso   1.000  H
  N256     1.0000 0.36325  0.89126  0.98510  Biso   1.000  N
  C404     1.0000 0.99576  0.23321  0.16852  Biso   1.000  C
  C405     1.0000 0.99577  0.23313  0.16852  Biso   1.000  C
  C406     1.0000 0.75549  0.22253  0.21616  Biso   1.000  C
  N257     1.0000 0.80804  0.06691  0.15769  Biso   1.000  N
  N258     1.0000 0.80813  0.06691  0.15765  Biso   1.000  N
  C407     1.0000 0.75550  0.22244  0.21616  Biso   1.000  C
  N259     1.0000 0.80813  0.06683  0.15769  Biso   1.000  N
  C408     1.0000 0.75541  0.22253  0.21616  Biso   1.000  C
  N260     1.0000 0.80805  0.06691  0.15765  Biso   1.000  N
  H437     1.0000 0.62386  0.36136  0.15152  Biso   1.000  H
  H438     1.0000 0.55754  0.30517  0.11252  Biso   1.000  H
  H439     1.0000 0.56809  0.25419  0.16682  Biso   1.000  H
  H440     1.0000 0.62394  0.36144  0.15148  Biso   1.000  H
  H441     1.0000 0.55761  0.30526  0.11252  Biso   1.000  H
  H442     1.0000 0.56809  0.25427  0.16678  Biso   1.000  H
  H443     1.0000 0.55762  0.30517  0.11252  Biso   1.000  H
  H444     1.0000 0.62386  0.36136  0.15148  Biso   1.000  H
  H445     1.0000 0.56801  0.25419  0.16678  Biso   1.000  H
  O124     1.0000 0.73174  0.93263  0.11642  Biso   1.000  O
  O125     1.0000 0.73174  0.93255  0.11642  Biso   1.000  O
  O126     1.0000 0.73182  0.93263  0.11642  Biso   1.000  O
  H446     1.0000 0.33232  0.62168  0.95132  Biso   1.000  H
  H447     1.0000 0.21041  0.60350  0.96980  Biso   1.000  H
  H448     1.0000 0.33223  0.62176  0.95128  Biso   1.000  H
  H449     1.0000 0.21033  0.60350  0.96980  Biso   1.000  H
  H450     1.0000 0.33224  0.62168  0.95132  Biso   1.000  H
  H451     1.0000 0.33232  0.62168  0.95128  Biso   1.000  H
  N261     1.0000 0.26756  0.72800  0.00471  Biso   1.000  N
  N262     1.0000 0.26757  0.72791  0.00471  Biso   1.000  N
  C409     1.0000 0.36222  0.78693  0.01168  Biso   1.000  C
  C410     1.0000 0.35996  0.97798  0.01732  Biso   1.000  C
  C411     1.0000 0.36232  0.78685  0.01164  Biso   1.000  C
  C412     1.0000 0.35997  0.97798  0.01728  Biso   1.000  C
  C413     1.0000 0.36223  0.78685  0.01168  Biso   1.000  C
  C414     1.0000 0.36231  0.78693  0.01164  Biso   1.000  C
  C415     1.0000 0.36005  0.97798  0.01728  Biso   1.000  C
  H452     1.0000 0.97787  0.23898  0.20472  Biso   1.000  H
  H453     1.0000 0.97787  0.23906  0.20468  Biso   1.000  H
  H454     1.0000 0.97788  0.23898  0.20468  Biso   1.000  H
  H455     1.0000 0.03488  0.29603  0.15773  Biso   1.000  H
  N263     1.0000 0.06884  0.13379  0.15871  Biso   1.000  N
  H456     1.0000 0.03488  0.29603  0.15769  Biso   1.000  H
  N264     1.0000 0.06892  0.13379  0.15871  Biso   1.000  N
  H457     1.0000 0.03488  0.29594  0.15773  Biso   1.000  H
  H458     1.0000 0.74734  0.30121  0.21771  Biso   1.000  H
  H459     1.0000 0.68567  0.19488  0.22562  Biso   1.000  H
  H460     1.0000 0.80872  0.19373  0.23903  Biso   1.000  H
  H461     1.0000 0.74742  0.30121  0.21771  Biso   1.000  H
  H462     1.0000 0.68566  0.19496  0.22558  Biso   1.000  H
  H463     1.0000 0.80881  0.19373  0.23899  Biso   1.000  H
  H464     1.0000 0.74743  0.30113  0.21771  Biso   1.000  H
  H465     1.0000 0.80881  0.19365  0.23903  Biso   1.000  H
  H466     1.0000 0.68567  0.19488  0.22558  Biso   1.000  H
  H467     1.0000 0.80873  0.19373  0.23899  Biso   1.000  H
  C416     1.0000 0.86359  0.99177  0.19245  Biso   1.000  C
  C417     1.0000 0.86360  0.99177  0.19241  Biso   1.000  C
  C418     1.0000 0.20337  0.71651  0.04841  Biso   1.000  C
  C419     1.0000 0.20338  0.71642  0.04837  Biso   1.000  C
  C420     1.0000 0.20337  0.71651  0.04837  Biso   1.000  C
  H468     1.0000 0.43150  0.74056  0.00441  Biso   1.000  H
  C421     1.0000 0.34648  0.81987  0.06810  Biso   1.000  C
  H469     1.0000 0.43158  0.74056  0.00441  Biso   1.000  H
  N265     1.0000 0.34574  0.93846  0.06609  Biso   1.000  N
  N266     1.0000 0.34582  0.93846  0.06609  Biso   1.000  N
  O127     1.0000 0.36986  0.07349  0.00562  Biso   1.000  O
  O128     1.0000 0.36986  0.07350  0.00558  Biso   1.000  O
  C422     1.0000 0.06482  0.03519  0.18965  Biso   1.000  C
  C423     1.0000 0.16278  0.13259  0.12736  Biso   1.000  C
  C424     1.0000 0.06489  0.03527  0.18965  Biso   1.000  C
  C425     1.0000 0.16278  0.13267  0.12732  Biso   1.000  C
  C426     1.0000 0.06490  0.03519  0.18965  Biso   1.000  C
  C427     1.0000 0.16278  0.13259  0.12732  Biso   1.000  C
  H470     1.0000 0.82748  0.92449  0.19461  Biso   1.000  H
  N267     1.0000 0.98007  0.96529  0.17768  Biso   1.000  N
  N268     1.0000 0.98009  0.96521  0.17765  Biso   1.000  N
  N269     1.0000 0.98016  0.96529  0.17765  Biso   1.000  N
  H471     1.0000 0.85608  0.02412  0.22581  Biso   1.000  H
  H472     1.0000 0.85609  0.02404  0.22581  Biso   1.000  H
  H473     1.0000 0.85600  0.02412  0.22581  Biso   1.000  H
  N270     1.0000 0.24223  0.77850  0.08499  Biso   1.000  N
  O129     1.0000 0.12454  0.66193  0.05462  Biso   1.000  O
  N271     1.0000 0.24225  0.77841  0.08495  Biso   1.000  N
  N272     1.0000 0.24232  0.77850  0.08495  Biso   1.000  N
  O130     1.0000 0.12462  0.66193  0.05462  Biso   1.000  O
  H474     1.0000 0.40687  0.78616  0.08722  Biso   1.000  H
  H475     1.0000 0.40688  0.78616  0.08718  Biso   1.000  H
  C428     1.0000 0.33275  0.00899  0.10933  Biso   1.000  C
  C429     1.0000 0.17346  0.96502  0.17189  Biso   1.000  C
  C430     1.0000 0.17346  0.96494  0.17189  Biso   1.000  C
  C431     1.0000 0.17354  0.96502  0.17189  Biso   1.000  C
  H476     1.0000 0.06117  0.05129  0.22593  Biso   1.000  H
  H477     1.0000 0.06118  0.05129  0.22589  Biso   1.000  H
  N273     1.0000 0.21934  0.02941  0.13035  Biso   1.000  N
  O131     1.0000 0.19173  0.20843  0.10063  Biso   1.000  O
  N274     1.0000 0.21942  0.02941  0.13035  Biso   1.000  N
  O132     1.0000 0.19182  0.20843  0.10063  Biso   1.000  O
  O133     1.0000 0.19182  0.20835  0.10063  Biso   1.000  O
  C432     1.0000 0.02281  0.86480  0.16117  Biso   1.000  C
  C433     1.0000 0.02290  0.86472  0.16117  Biso   1.000  C
  C434     1.0000 0.02289  0.86480  0.16117  Biso   1.000  C
  C435     1.0000 0.20632  0.76899  0.13834  Biso   1.000  C
  C436     1.0000 0.20641  0.76899  0.13834  Biso   1.000  C
  H478     1.0000 0.37749  0.97609  0.13542  Biso   1.000  H
  H479     1.0000 0.37750  0.97601  0.13539  Biso   1.000  H
  H480     1.0000 0.37749  0.97609  0.13539  Biso   1.000  H
  H481     1.0000 0.36046  0.07867  0.09960  Biso   1.000  H
  H482     1.0000 0.36045  0.07875  0.09960  Biso   1.000  H
  H483     1.0000 0.22369  0.95483  0.19912  Biso   1.000  H
  N275     1.0000 0.13627  0.86193  0.15784  Biso   1.000  N
  H484     1.0000 0.22370  0.95475  0.19908  Biso   1.000  H
  N276     1.0000 0.13628  0.86185  0.15784  Biso   1.000  N
  H485     1.0000 0.22369  0.95475  0.19912  Biso   1.000  H
  H486     1.0000 0.22369  0.95483  0.19908  Biso   1.000  H
  O134     1.0000 0.97060  0.78836  0.15159  Biso   1.000  O
  O135     1.0000 0.97069  0.78828  0.15159  Biso   1.000  O
  O136     1.0000 0.97068  0.78836  0.15159  Biso   1.000  O
  H487     1.0000 0.16714  0.70393  0.14341  Biso   1.000  H
  H488     1.0000 0.27104  0.75899  0.15773  Biso   1.000  H
  H489     1.0000 0.16715  0.70385  0.14341  Biso   1.000  H
  H490     1.0000 0.27105  0.75891  0.15769  Biso   1.000  H
  H491     1.0000 0.16723  0.70393  0.14341  Biso   1.000  H
  H492     1.0000 0.27112  0.75899  0.15769  Biso   1.000  H
  N277     1.0000 0.86388  0.13815  0.84215  Biso   1.000  N
  C437     1.0000 0.82662  0.03497  0.82814  Biso   1.000  C
  C438     1.0000 0.82670  0.03505  0.82810  Biso   1.000  C
  C439     1.0000 0.82661  0.03505  0.82814  Biso   1.000  C
  C440     1.0000 0.82671  0.03497  0.82810  Biso   1.000  C
  C441     1.0000 0.79375  0.23101  0.86169  Biso   1.000  C
  C442     1.0000 0.79376  0.23101  0.86165  Biso   1.000  C
  C443     1.0000 0.79384  0.23101  0.86165  Biso   1.000  C
  C444     1.0000 0.97726  0.13519  0.83885  Biso   1.000  C
  C445     1.0000 0.97727  0.13519  0.83882  Biso   1.000  C
  C446     1.0000 0.97726  0.13527  0.83885  Biso   1.000  C
  N278     1.0000 0.78082  0.97058  0.86968  Biso   1.000  N
  N279     1.0000 0.78074  0.97058  0.86964  Biso   1.000  N
  N280     1.0000 0.78074  0.97058  0.86968  Biso   1.000  N
  N281     1.0000 0.78083  0.97058  0.86964  Biso   1.000  N
  C447     1.0000 0.93534  0.96481  0.81038  Biso   1.000  C
  C448     1.0000 0.93526  0.96481  0.81034  Biso   1.000  C
  C449     1.0000 0.93527  0.96472  0.81038  Biso   1.000  C
  H493     1.0000 0.77639  0.04516  0.80091  Biso   1.000  H
  N282     1.0000 0.86380  0.13806  0.84219  Biso   1.000  N
  H494     1.0000 0.77646  0.04524  0.80091  Biso   1.000  H
  N283     1.0000 0.86387  0.13814  0.84219  Biso   1.000  N
  H495     1.0000 0.77647  0.04516  0.80091  Biso   1.000  H
  N284     1.0000 0.86389  0.13806  0.84215  Biso   1.000  N
  N285     1.0000 0.75784  0.22150  0.91504  Biso   1.000  N
  N286     1.0000 0.75783  0.22158  0.91504  Biso   1.000  N
  N287     1.0000 0.75792  0.22150  0.91504  Biso   1.000  N
  H496     1.0000 0.72904  0.24100  0.84230  Biso   1.000  H
  H497     1.0000 0.83293  0.29606  0.85661  Biso   1.000  H
  H498     1.0000 0.83300  0.29615  0.85661  Biso   1.000  H
  H499     1.0000 0.83292  0.29615  0.85661  Biso   1.000  H
  H500     1.0000 0.83301  0.29606  0.85661  Biso   1.000  H
  H501     1.0000 0.72912  0.24100  0.84230  Biso   1.000  H
  N288     1.0000 0.02000  0.03470  0.82235  Biso   1.000  N
  N289     1.0000 0.02008  0.03470  0.82235  Biso   1.000  N
  O137     1.0000 0.02947  0.21163  0.84844  Biso   1.000  O
  O138     1.0000 0.02947  0.21171  0.84840  Biso   1.000  O
  O139     1.0000 0.02947  0.21171  0.84844  Biso   1.000  O
  O140     1.0000 0.02948  0.21163  0.84840  Biso   1.000  O
  C450     1.0000 0.66740  0.99100  0.89069  Biso   1.000  C
  C451     1.0000 0.66733  0.99092  0.89069  Biso   1.000  C
  C452     1.0000 0.83738  0.86740  0.87267  Biso   1.000  C
  C453     1.0000 0.83739  0.86732  0.87267  Biso   1.000  C
  N290     1.0000 0.93132  0.86620  0.84132  Biso   1.000  N
  N291     1.0000 0.93124  0.86620  0.84132  Biso   1.000  N
  H502     1.0000 0.93898  0.94870  0.77410  Biso   1.000  H
  C454     1.0000 0.65360  0.18012  0.93193  Biso   1.000  C
  C455     1.0000 0.65368  0.18012  0.93189  Biso   1.000  C
  C456     1.0000 0.65368  0.18012  0.93193  Biso   1.000  C
  C457     1.0000 0.79671  0.28349  0.95162  Biso   1.000  C
  C458     1.0000 0.79679  0.28349  0.95162  Biso   1.000  C
  C459     1.0000 0.79678  0.28357  0.95162  Biso   1.000  C
  C460     1.0000 0.13648  0.00822  0.80758  Biso   1.000  C
  C461     1.0000 0.13657  0.00822  0.80758  Biso   1.000  C
  N292     1.0000 0.65434  0.06153  0.93394  Biso   1.000  N
  N293     1.0000 0.65434  0.06153  0.93390  Biso   1.000  N
  N294     1.0000 0.65443  0.06145  0.93390  Biso   1.000  N
  H503     1.0000 0.62267  0.02390  0.86460  Biso   1.000  H
  H504     1.0000 0.63970  0.92132  0.90043  Biso   1.000  H
  H505     1.0000 0.63970  0.92132  0.90039  Biso   1.000  H
  H506     1.0000 0.63962  0.92124  0.90043  Biso   1.000  H
  H507     1.0000 0.62259  0.02390  0.86460  Biso   1.000  H
  O141     1.0000 0.80842  0.79156  0.89940  Biso   1.000  O
  O142     1.0000 0.80834  0.79164  0.89937  Biso   1.000  O
  O143     1.0000 0.80834  0.79156  0.89940  Biso   1.000  O
  O144     1.0000 0.80843  0.79156  0.89937  Biso   1.000  O
  C462     1.0000 0.00440  0.76678  0.83151  Biso   1.000  C
  C463     1.0000 0.00432  0.76678  0.83147  Biso   1.000  C
  C464     1.0000 0.00432  0.76678  0.83151  Biso   1.000  C
  C465     1.0000 0.00440  0.76678  0.83147  Biso   1.000  C
  C466     1.0000 0.63785  0.21306  0.98835  Biso   1.000  C
  C467     1.0000 0.63785  0.21314  0.98835  Biso   1.000  C
  C468     1.0000 0.63794  0.21306  0.98835  Biso   1.000  C
  H508     1.0000 0.59320  0.21383  0.91281  Biso   1.000  H
  H509     1.0000 0.59328  0.21383  0.91281  Biso   1.000  H
  H510     1.0000 0.59329  0.21375  0.91281  Biso   1.000  H
  N295     1.0000 0.73251  0.27199  0.99532  Biso   1.000  N
  N296     1.0000 0.73260  0.27200  0.99528  Biso   1.000  N
  N297     1.0000 0.73259  0.27208  0.99532  Biso   1.000  N
  O145     1.0000 0.87553  0.33806  0.94541  Biso   1.000  O
  O146     1.0000 0.87562  0.33806  0.94537  Biso   1.000  O
  H511     1.0000 0.14407  0.97587  0.77422  Biso   1.000  H
  N298     1.0000 0.19212  0.93308  0.84234  Biso   1.000  N
  H512     1.0000 0.14407  0.97595  0.77418  Biso   1.000  H
  N299     1.0000 0.19203  0.93316  0.84234  Biso   1.000  N
  N300     1.0000 0.19203  0.93308  0.84234  Biso   1.000  N
  H513     1.0000 0.14408  0.97587  0.77418  Biso   1.000  H
  H514     1.0000 0.17259  0.07550  0.80542  Biso   1.000  H
  H515     1.0000 0.17268  0.07550  0.80538  Biso   1.000  H
  H516     1.0000 0.17267  0.07550  0.80542  Biso   1.000  H
  C469     1.0000 0.64019  0.02201  0.98271  Biso   1.000  C
  C470     1.0000 0.64011  0.02201  0.98271  Biso   1.000  C
  H517     1.0000 0.96528  0.70396  0.84230  Biso   1.000  H
  H518     1.0000 0.96527  0.70405  0.84230  Biso   1.000  H
  H519     1.0000 0.02228  0.76101  0.79531  Biso   1.000  H
  N301     1.0000 0.10642  0.76149  0.85650  Biso   1.000  N
  N302     1.0000 0.10634  0.76149  0.85650  Biso   1.000  N
  H520     1.0000 0.02229  0.76093  0.79531  Biso   1.000  H
  N303     1.0000 0.63692  0.10873  0.01490  Biso   1.000  N
  N304     1.0000 0.63700  0.10873  0.01490  Biso   1.000  N
  N305     1.0000 0.63701  0.10865  0.01490  Biso   1.000  N
  H521     1.0000 0.56858  0.25943  0.99562  Biso   1.000  H
  H522     1.0000 0.56858  0.25943  0.99558  Biso   1.000  H
  C471     1.0000 0.74017  0.34085  0.03962  Biso   1.000  C
  C472     1.0000 0.74016  0.34094  0.03962  Biso   1.000  C
  C473     1.0000 0.20584  0.81301  0.83764  Biso   1.000  C
  C474     1.0000 0.20575  0.81301  0.83764  Biso   1.000  C
  C475     1.0000 0.20576  0.81293  0.83764  Biso   1.000  C
  C476     1.0000 0.25910  0.97093  0.87562  Biso   1.000  C
  C477     1.0000 0.25902  0.97085  0.87562  Biso   1.000  C
  O147     1.0000 0.63030  0.92650  0.99441  Biso   1.000  O
  C478     1.0000 0.11783  0.70768  0.90183  Biso   1.000  C
  C479     1.0000 0.11775  0.70768  0.90183  Biso   1.000  C
  C480     1.0000 0.60018  0.10086  0.06836  Biso   1.000  C
  C481     1.0000 0.60017  0.10094  0.06836  Biso   1.000  C
  H523     1.0000 0.66784  0.37831  0.04871  Biso   1.000  H
  H524     1.0000 0.78975  0.39650  0.03023  Biso   1.000  H
  N306     1.0000 0.77863  0.28191  0.08347  Biso   1.000  N
  H525     1.0000 0.66792  0.37831  0.04871  Biso   1.000  H
  H526     1.0000 0.78983  0.39650  0.03019  Biso   1.000  H
  N307     1.0000 0.77872  0.28191  0.08347  Biso   1.000  N
  H527     1.0000 0.66793  0.37823  0.04871  Biso   1.000  H
  N308     1.0000 0.77872  0.28183  0.08347  Biso   1.000  N
  H528     1.0000 0.78975  0.39650  0.03019  Biso   1.000  H
  C482     1.0000 0.28909  0.77743  0.87960  Biso   1.000  C
  C483     1.0000 0.24467  0.77746  0.78387  Biso   1.000  C
  C484     1.0000 0.24467  0.77755  0.78384  Biso   1.000  C
  C485     1.0000 0.28902  0.77735  0.87960  Biso   1.000  C
  C486     1.0000 0.24467  0.77747  0.78384  Biso   1.000  C
  N309     1.0000 0.31447  0.88411  0.89800  Biso   1.000  N
  N310     1.0000 0.31448  0.88403  0.89800  Biso   1.000  N
  O148     1.0000 0.26834  0.06736  0.88361  Biso   1.000  O
  O149     1.0000 0.26834  0.06744  0.88358  Biso   1.000  O
  O150     1.0000 0.26833  0.06744  0.88361  Biso   1.000  O
  O151     1.0000 0.26843  0.06736  0.88358  Biso   1.000  O
  N311     1.0000 0.22152  0.71808  0.91656  Biso   1.000  N
  O152     1.0000 0.04708  0.65631  0.92470  Biso   1.000  O
  N312     1.0000 0.22144  0.71816  0.91652  Biso   1.000  N
  O153     1.0000 0.04707  0.65639  0.92470  Biso   1.000  O
  N313     1.0000 0.22144  0.71808  0.91656  Biso   1.000  N
  N314     1.0000 0.22153  0.71808  0.91652  Biso   1.000  N
  H529     1.0000 0.57362  0.02952  0.07510  Biso   1.000  H
  H530     1.0000 0.53865  0.15601  0.07571  Biso   1.000  H
  N315     1.0000 0.68569  0.11588  0.10203  Biso   1.000  N
  H531     1.0000 0.57370  0.02952  0.07510  Biso   1.000  H
  N316     1.0000 0.68568  0.11597  0.10199  Biso   1.000  N
  H532     1.0000 0.57371  0.02944  0.07510  Biso   1.000  H
  H533     1.0000 0.53866  0.15593  0.07571  Biso   1.000  H
  N317     1.0000 0.68561  0.11588  0.10199  Biso   1.000  N
  C487     1.0000 0.71106  0.22256  0.12043  Biso   1.000  C
  C488     1.0000 0.71106  0.22265  0.12039  Biso   1.000  C
  C489     1.0000 0.71107  0.22256  0.12039  Biso   1.000  C
  C490     1.0000 0.88233  0.29231  0.09820  Biso   1.000  C
  C491     1.0000 0.88241  0.29231  0.09816  Biso   1.000  C
  C492     1.0000 0.88242  0.29222  0.09820  Biso   1.000  C
  C493     1.0000 0.88233  0.29231  0.09816  Biso   1.000  C
  C494     1.0000 0.39491  0.70763  0.86040  Biso   1.000  C
  C495     1.0000 0.39482  0.70763  0.86040  Biso   1.000  C
  C496     1.0000 0.39483  0.70755  0.86040  Biso   1.000  C
  H534     1.0000 0.25282  0.69878  0.78232  Biso   1.000  H
  H535     1.0000 0.31449  0.80511  0.77441  Biso   1.000  H
  H536     1.0000 0.19143  0.80626  0.76100  Biso   1.000  H
  H537     1.0000 0.25274  0.69886  0.78228  Biso   1.000  H
  H538     1.0000 0.19134  0.80634  0.76100  Biso   1.000  H
  H539     1.0000 0.25274  0.69878  0.78232  Biso   1.000  H
  H540     1.0000 0.31442  0.80503  0.77441  Biso   1.000  H
  H541     1.0000 0.19135  0.80626  0.76100  Biso   1.000  H
  H542     1.0000 0.25283  0.69878  0.78228  Biso   1.000  H
  C497     1.0000 0.39998  0.89913  0.93167  Biso   1.000  C
  C498     1.0000 0.39998  0.89913  0.93163  Biso   1.000  C
  C499     1.0000 0.39999  0.89905  0.93167  Biso   1.000  C
  C500     1.0000 0.25999  0.65914  0.96041  Biso   1.000  C
  C501     1.0000 0.25999  0.65914  0.96037  Biso   1.000  C
  C502     1.0000 0.25999  0.65905  0.96041  Biso   1.000  C
  C503     1.0000 0.26000  0.65905  0.96037  Biso   1.000  C
  C504     1.0000 0.74106  0.02906  0.12441  Biso   1.000  C
  C505     1.0000 0.74105  0.02914  0.12441  Biso   1.000  C
  C506     1.0000 0.79432  0.18698  0.16239  Biso   1.000  C
  C507     1.0000 0.60525  0.29236  0.13963  Biso   1.000  C
  C508     1.0000 0.79440  0.18706  0.16235  Biso   1.000  C
  C509     1.0000 0.60533  0.29245  0.13959  Biso   1.000  C
  C510     1.0000 0.79440  0.18698  0.16239  Biso   1.000  C
  C511     1.0000 0.79433  0.18698  0.16235  Biso   1.000  C
  C512     1.0000 0.60526  0.29236  0.13959  Biso   1.000  C
  N318     1.0000 0.89374  0.23850  0.14353  Biso   1.000  N
  N319     1.0000 0.89383  0.23850  0.14349  Biso   1.000  N
  N320     1.0000 0.89382  0.23850  0.14353  Biso   1.000  N
  N321     1.0000 0.89374  0.23850  0.14349  Biso   1.000  N
  O154     1.0000 0.95308  0.34368  0.07533  Biso   1.000  O
  O155     1.0000 0.95309  0.34368  0.07529  Biso   1.000  O
  O156     1.0000 0.95309  0.34360  0.07533  Biso   1.000  O
  O157     1.0000 0.95300  0.34368  0.07529  Biso   1.000  O
  H543     1.0000 0.37630  0.63863  0.84851  Biso   1.000  H
  H544     1.0000 0.44262  0.69482  0.88751  Biso   1.000  H
  H545     1.0000 0.43207  0.74581  0.83321  Biso   1.000  H
  H546     1.0000 0.37622  0.63863  0.84851  Biso   1.000  H
  H547     1.0000 0.44254  0.69482  0.88751  Biso   1.000  H
  H548     1.0000 0.37623  0.63855  0.84851  Biso   1.000  H
  H549     1.0000 0.44255  0.69473  0.88751  Biso   1.000  H
  H550     1.0000 0.43208  0.74572  0.83321  Biso   1.000  H
  H551     1.0000 0.37631  0.63855  0.84851  Biso   1.000  H
  H552     1.0000 0.42654  0.97047  0.92493  Biso   1.000  H
  H553     1.0000 0.46151  0.84398  0.92432  Biso   1.000  H
  N322     1.0000 0.36324  0.89126  0.98513  Biso   1.000  N
  H554     1.0000 0.42645  0.97055  0.92489  Biso   1.000  H
  H555     1.0000 0.46142  0.84406  0.92428  Biso   1.000  H
  N323     1.0000 0.36316  0.89134  0.98510  Biso   1.000  N
  H556     1.0000 0.42646  0.97047  0.92493  Biso   1.000  H
  H557     1.0000 0.46143  0.84398  0.92432  Biso   1.000  H
  N324     1.0000 0.36316  0.89126  0.98513  Biso   1.000  N
  H558     1.0000 0.42654  0.97047  0.92489  Biso   1.000  H
  H559     1.0000 0.46151  0.84398  0.92428  Biso   1.000  H
  N325     1.0000 0.36325  0.89126  0.98510  Biso   1.000  N
  H560     1.0000 0.33232  0.62168  0.95132  Biso   1.000  H
  H561     1.0000 0.21041  0.60350  0.96980  Biso   1.000  H
  H562     1.0000 0.33223  0.62176  0.95128  Biso   1.000  H
  H563     1.0000 0.21033  0.60350  0.96980  Biso   1.000  H
  H564     1.0000 0.33224  0.62168  0.95132  Biso   1.000  H
  H565     1.0000 0.33232  0.62168  0.95128  Biso   1.000  H
  N326     1.0000 0.26756  0.72800  0.00471  Biso   1.000  N
  N327     1.0000 0.26757  0.72791  0.00471  Biso   1.000  N
  O158     1.0000 0.73174  0.93263  0.11642  Biso   1.000  O
  O159     1.0000 0.73174  0.93255  0.11642  Biso   1.000  O
  O160     1.0000 0.73182  0.93263  0.11642  Biso   1.000  O
  N328     1.0000 0.80804  0.06691  0.15769  Biso   1.000  N
  N329     1.0000 0.80813  0.06691  0.15765  Biso   1.000  N
  N330     1.0000 0.80813  0.06683  0.15769  Biso   1.000  N
  N331     1.0000 0.80805  0.06691  0.15765  Biso   1.000  N
  C513     1.0000 0.75549  0.22253  0.21616  Biso   1.000  C
  C514     1.0000 0.75550  0.22244  0.21616  Biso   1.000  C
  C515     1.0000 0.75541  0.22253  0.21616  Biso   1.000  C
  H566     1.0000 0.62386  0.36136  0.15152  Biso   1.000  H
  H567     1.0000 0.55754  0.30517  0.11252  Biso   1.000  H
  H568     1.0000 0.56809  0.25419  0.16682  Biso   1.000  H
  H569     1.0000 0.62394  0.36144  0.15148  Biso   1.000  H
  H570     1.0000 0.55761  0.30526  0.11252  Biso   1.000  H
  H571     1.0000 0.56809  0.25427  0.16678  Biso   1.000  H
  H572     1.0000 0.55762  0.30517  0.11252  Biso   1.000  H
  H573     1.0000 0.62386  0.36136  0.15148  Biso   1.000  H
  H574     1.0000 0.56801  0.25419  0.16678  Biso   1.000  H
  C516     1.0000 0.99576  0.23321  0.16852  Biso   1.000  C
  C517     1.0000 0.99577  0.23313  0.16852  Biso   1.000  C
  C518     1.0000 0.36222  0.78693  0.01168  Biso   1.000  C
  C519     1.0000 0.36232  0.78685  0.01164  Biso   1.000  C
  C520     1.0000 0.36223  0.78685  0.01168  Biso   1.000  C
  C521     1.0000 0.36231  0.78693  0.01164  Biso   1.000  C
  C522     1.0000 0.35996  0.97798  0.01732  Biso   1.000  C
  C523     1.0000 0.35997  0.97798  0.01728  Biso   1.000  C
  C524     1.0000 0.36005  0.97798  0.01728  Biso   1.000  C
  C525     1.0000 0.20337  0.71651  0.04841  Biso   1.000  C
  C526     1.0000 0.20338  0.71642  0.04837  Biso   1.000  C
  C527     1.0000 0.20337  0.71651  0.04837  Biso   1.000  C
  C528     1.0000 0.86359  0.99177  0.19245  Biso   1.000  C
  C529     1.0000 0.86360  0.99177  0.19241  Biso   1.000  C
  H575     1.0000 0.74734  0.30121  0.21771  Biso   1.000  H
  H576     1.0000 0.68567  0.19488  0.22562  Biso   1.000  H
  H577     1.0000 0.80872  0.19373  0.23903  Biso   1.000  H
  H578     1.0000 0.74742  0.30121  0.21771  Biso   1.000  H
  H579     1.0000 0.68566  0.19496  0.22558  Biso   1.000  H
  H580     1.0000 0.80881  0.19373  0.23899  Biso   1.000  H
  H581     1.0000 0.74743  0.30113  0.21771  Biso   1.000  H
  H582     1.0000 0.80881  0.19365  0.23903  Biso   1.000  H
  H583     1.0000 0.68567  0.19488  0.22558  Biso   1.000  H
  H584     1.0000 0.80873  0.19373  0.23899  Biso   1.000  H
  H585     1.0000 0.97787  0.23898  0.20472  Biso   1.000  H
  H586     1.0000 0.97787  0.23906  0.20468  Biso   1.000  H
  H587     1.0000 0.97788  0.23898  0.20468  Biso   1.000  H
  H588     1.0000 0.03488  0.29603  0.15773  Biso   1.000  H
  N332     1.0000 0.06884  0.13379  0.15871  Biso   1.000  N
  H589     1.0000 0.03488  0.29603  0.15769  Biso   1.000  H
  N333     1.0000 0.06892  0.13379  0.15871  Biso   1.000  N
  H590     1.0000 0.03488  0.29594  0.15773  Biso   1.000  H
  C530     1.0000 0.34648  0.81987  0.06810  Biso   1.000  C
  H591     1.0000 0.43150  0.74056  0.00441  Biso   1.000  H
  H592     1.0000 0.43158  0.74056  0.00441  Biso   1.000  H
  N334     1.0000 0.34574  0.93846  0.06609  Biso   1.000  N
  N335     1.0000 0.34582  0.93846  0.06609  Biso   1.000  N
  O161     1.0000 0.36986  0.07349  0.00562  Biso   1.000  O
  O162     1.0000 0.36986  0.07350  0.00558  Biso   1.000  O
  N336     1.0000 0.24223  0.77850  0.08499  Biso   1.000  N
  N337     1.0000 0.24225  0.77841  0.08495  Biso   1.000  N
  N338     1.0000 0.24232  0.77850  0.08495  Biso   1.000  N
  O163     1.0000 0.12454  0.66193  0.05462  Biso   1.000  O
  O164     1.0000 0.12462  0.66193  0.05462  Biso   1.000  O
  H593     1.0000 0.82748  0.92449  0.19461  Biso   1.000  H
  N339     1.0000 0.98007  0.96529  0.17768  Biso   1.000  N
  N340     1.0000 0.98009  0.96521  0.17765  Biso   1.000  N
  N341     1.0000 0.98016  0.96529  0.17765  Biso   1.000  N
  H594     1.0000 0.85608  0.02412  0.22581  Biso   1.000  H
  H595     1.0000 0.85609  0.02404  0.22581  Biso   1.000  H
  H596     1.0000 0.85600  0.02412  0.22581  Biso   1.000  H
  C531     1.0000 0.06482  0.03519  0.18965  Biso   1.000  C
  C532     1.0000 0.06489  0.03527  0.18965  Biso   1.000  C
  C533     1.0000 0.06490  0.03519  0.18965  Biso   1.000  C
  C534     1.0000 0.16278  0.13259  0.12736  Biso   1.000  C
  C535     1.0000 0.16278  0.13267  0.12732  Biso   1.000  C
  C536     1.0000 0.16278  0.13259  0.12732  Biso   1.000  C
  H597     1.0000 0.40687  0.78616  0.08722  Biso   1.000  H
  H598     1.0000 0.40688  0.78616  0.08718  Biso   1.000  H
  C537     1.0000 0.33275  0.00899  0.10933  Biso   1.000  C
  C538     1.0000 0.20632  0.76899  0.13834  Biso   1.000  C
  C539     1.0000 0.20641  0.76899  0.13834  Biso   1.000  C
  C540     1.0000 0.02281  0.86480  0.16117  Biso   1.000  C
  C541     1.0000 0.02290  0.86472  0.16117  Biso   1.000  C
  C542     1.0000 0.02289  0.86480  0.16117  Biso   1.000  C
  C543     1.0000 0.17346  0.96502  0.17189  Biso   1.000  C
  C544     1.0000 0.17346  0.96494  0.17189  Biso   1.000  C
  C545     1.0000 0.17354  0.96502  0.17189  Biso   1.000  C
  H599     1.0000 0.06117  0.05129  0.22593  Biso   1.000  H
  H600     1.0000 0.06118  0.05129  0.22589  Biso   1.000  H
  N342     1.0000 0.21934  0.02941  0.13035  Biso   1.000  N
  O165     1.0000 0.19173  0.20843  0.10063  Biso   1.000  O
  N343     1.0000 0.21942  0.02941  0.13035  Biso   1.000  N
  O166     1.0000 0.19182  0.20843  0.10063  Biso   1.000  O
  O167     1.0000 0.19182  0.20835  0.10063  Biso   1.000  O
  H601     1.0000 0.37749  0.97609  0.13542  Biso   1.000  H
  H602     1.0000 0.37750  0.97601  0.13539  Biso   1.000  H
  H603     1.0000 0.37749  0.97609  0.13539  Biso   1.000  H
  H604     1.0000 0.36046  0.07867  0.09960  Biso   1.000  H
  H605     1.0000 0.36045  0.07875  0.09960  Biso   1.000  H
  N344     1.0000 0.13627  0.86193  0.15784  Biso   1.000  N
  N345     1.0000 0.13628  0.86185  0.15784  Biso   1.000  N
  H606     1.0000 0.16714  0.70393  0.14341  Biso   1.000  H
  H607     1.0000 0.27104  0.75899  0.15773  Biso   1.000  H
  H608     1.0000 0.16715  0.70385  0.14341  Biso   1.000  H
  H609     1.0000 0.27105  0.75891  0.15769  Biso   1.000  H
  H610     1.0000 0.16723  0.70393  0.14341  Biso   1.000  H
  H611     1.0000 0.27112  0.75899  0.15769  Biso   1.000  H
  O168     1.0000 0.97060  0.78836  0.15159  Biso   1.000  O
  O169     1.0000 0.97069  0.78828  0.15159  Biso   1.000  O
  O170     1.0000 0.97068  0.78836  0.15159  Biso   1.000  O
  H612     1.0000 0.22369  0.95483  0.19912  Biso   1.000  H
  H613     1.0000 0.22370  0.95475  0.19908  Biso   1.000  H
  H614     1.0000 0.22369  0.95475  0.19912  Biso   1.000  H
  H615     1.0000 0.22369  0.95483  0.19908  Biso   1.000  H
  N346     1.0000 0.86388  0.13815  0.84215  Biso   1.000  N
  C546     1.0000 0.82662  0.03497  0.82814  Biso   1.000  C
  C547     1.0000 0.82670  0.03505  0.82810  Biso   1.000  C
  C548     1.0000 0.82661  0.03505  0.82814  Biso   1.000  C
  C549     1.0000 0.82671  0.03497  0.82810  Biso   1.000  C
  C550     1.0000 0.79375  0.23101  0.86169  Biso   1.000  C
  C551     1.0000 0.79376  0.23101  0.86165  Biso   1.000  C
  C552     1.0000 0.79384  0.23101  0.86165  Biso   1.000  C
  C553     1.0000 0.97726  0.13519  0.83885  Biso   1.000  C
  C554     1.0000 0.97727  0.13519  0.83882  Biso   1.000  C
  C555     1.0000 0.97726  0.13527  0.83885  Biso   1.000  C
  N347     1.0000 0.78082  0.97058  0.86968  Biso   1.000  N
  N348     1.0000 0.78074  0.97058  0.86964  Biso   1.000  N
  N349     1.0000 0.78074  0.97058  0.86968  Biso   1.000  N
  N350     1.0000 0.78083  0.97058  0.86964  Biso   1.000  N
  C556     1.0000 0.93534  0.96481  0.81038  Biso   1.000  C
  C557     1.0000 0.93526  0.96481  0.81034  Biso   1.000  C
  C558     1.0000 0.93527  0.96472  0.81038  Biso   1.000  C
  H616     1.0000 0.77639  0.04516  0.80091  Biso   1.000  H
  N351     1.0000 0.86380  0.13806  0.84219  Biso   1.000  N
  H617     1.0000 0.77646  0.04524  0.80091  Biso   1.000  H
  N352     1.0000 0.86387  0.13814  0.84219  Biso   1.000  N
  H618     1.0000 0.77647  0.04516  0.80091  Biso   1.000  H
  N353     1.0000 0.86389  0.13806  0.84215  Biso   1.000  N
  N354     1.0000 0.75784  0.22150  0.91504  Biso   1.000  N
  N355     1.0000 0.75783  0.22158  0.91504  Biso   1.000  N
  N356     1.0000 0.75792  0.22150  0.91504  Biso   1.000  N
  H619     1.0000 0.72904  0.24100  0.84230  Biso   1.000  H
  H620     1.0000 0.83293  0.29606  0.85661  Biso   1.000  H
  H621     1.0000 0.83300  0.29615  0.85661  Biso   1.000  H
  H622     1.0000 0.83292  0.29615  0.85661  Biso   1.000  H
  H623     1.0000 0.83301  0.29606  0.85661  Biso   1.000  H
  H624     1.0000 0.72912  0.24100  0.84230  Biso   1.000  H
  N357     1.0000 0.02000  0.03470  0.82235  Biso   1.000  N
  N358     1.0000 0.02008  0.03470  0.82235  Biso   1.000  N
  O171     1.0000 0.02947  0.21163  0.84844  Biso   1.000  O
  O172     1.0000 0.02947  0.21171  0.84840  Biso   1.000  O
  O173     1.0000 0.02947  0.21171  0.84844  Biso   1.000  O
  O174     1.0000 0.02948  0.21163  0.84840  Biso   1.000  O
  C559     1.0000 0.66740  0.99100  0.89069  Biso   1.000  C
  C560     1.0000 0.66733  0.99092  0.89069  Biso   1.000  C
  C561     1.0000 0.83738  0.86740  0.87267  Biso   1.000  C
  C562     1.0000 0.83739  0.86732  0.87267  Biso   1.000  C
  N359     1.0000 0.93132  0.86620  0.84132  Biso   1.000  N
  N360     1.0000 0.93124  0.86620  0.84132  Biso   1.000  N
  H625     1.0000 0.93898  0.94870  0.77410  Biso   1.000  H
  C563     1.0000 0.65360  0.18012  0.93193  Biso   1.000  C
  C564     1.0000 0.65368  0.18012  0.93189  Biso   1.000  C
  C565     1.0000 0.65368  0.18012  0.93193  Biso   1.000  C
  C566     1.0000 0.79671  0.28349  0.95162  Biso   1.000  C
  C567     1.0000 0.79679  0.28349  0.95162  Biso   1.000  C
  C568     1.0000 0.79678  0.28357  0.95162  Biso   1.000  C
  C569     1.0000 0.13648  0.00822  0.80758  Biso   1.000  C
  C570     1.0000 0.13657  0.00822  0.80758  Biso   1.000  C
  N361     1.0000 0.65434  0.06153  0.93394  Biso   1.000  N
  N362     1.0000 0.65434  0.06153  0.93390  Biso   1.000  N
  N363     1.0000 0.65443  0.06145  0.93390  Biso   1.000  N
  H626     1.0000 0.62267  0.02390  0.86460  Biso   1.000  H
  H627     1.0000 0.63970  0.92132  0.90043  Biso   1.000  H
  H628     1.0000 0.63970  0.92132  0.90039  Biso   1.000  H
  H629     1.0000 0.63962  0.92124  0.90043  Biso   1.000  H
  H630     1.0000 0.62259  0.02390  0.86460  Biso   1.000  H
  O175     1.0000 0.80842  0.79156  0.89940  Biso   1.000  O
  O176     1.0000 0.80834  0.79164  0.89937  Biso   1.000  O
  O177     1.0000 0.80834  0.79156  0.89940  Biso   1.000  O
  O178     1.0000 0.80843  0.79156  0.89937  Biso   1.000  O
  C571     1.0000 0.00440  0.76678  0.83151  Biso   1.000  C
  C572     1.0000 0.00432  0.76678  0.83147  Biso   1.000  C
  C573     1.0000 0.00432  0.76678  0.83151  Biso   1.000  C
  C574     1.0000 0.00440  0.76678  0.83147  Biso   1.000  C
  C575     1.0000 0.63785  0.21306  0.98835  Biso   1.000  C
  C576     1.0000 0.63785  0.21314  0.98835  Biso   1.000  C
  C577     1.0000 0.63794  0.21306  0.98835  Biso   1.000  C
  H631     1.0000 0.59320  0.21383  0.91281  Biso   1.000  H
  H632     1.0000 0.59328  0.21383  0.91281  Biso   1.000  H
  H633     1.0000 0.59329  0.21375  0.91281  Biso   1.000  H
  N364     1.0000 0.73251  0.27199  0.99532  Biso   1.000  N
  N365     1.0000 0.73260  0.27200  0.99528  Biso   1.000  N
  N366     1.0000 0.73259  0.27208  0.99532  Biso   1.000  N
  O179     1.0000 0.87553  0.33806  0.94541  Biso   1.000  O
  O180     1.0000 0.87562  0.33806  0.94537  Biso   1.000  O
  H634     1.0000 0.14407  0.97587  0.77422  Biso   1.000  H
  N367     1.0000 0.19212  0.93308  0.84234  Biso   1.000  N
  H635     1.0000 0.14407  0.97595  0.77418  Biso   1.000  H
  N368     1.0000 0.19203  0.93316  0.84234  Biso   1.000  N
  N369     1.0000 0.19203  0.93308  0.84234  Biso   1.000  N
  H636     1.0000 0.14408  0.97587  0.77418  Biso   1.000  H
  H637     1.0000 0.17259  0.07550  0.80542  Biso   1.000  H
  H638     1.0000 0.17268  0.07550  0.80538  Biso   1.000  H
  H639     1.0000 0.17267  0.07550  0.80542  Biso   1.000  H
  C578     1.0000 0.64019  0.02201  0.98271  Biso   1.000  C
  C579     1.0000 0.64011  0.02201  0.98271  Biso   1.000  C
  H640     1.0000 0.96528  0.70396  0.84230  Biso   1.000  H
  H641     1.0000 0.96527  0.70405  0.84230  Biso   1.000  H
  H642     1.0000 0.02228  0.76101  0.79531  Biso   1.000  H
  N370     1.0000 0.10642  0.76149  0.85650  Biso   1.000  N
  N371     1.0000 0.10634  0.76149  0.85650  Biso   1.000  N
  H643     1.0000 0.02229  0.76093  0.79531  Biso   1.000  H
  N372     1.0000 0.63692  0.10873  0.01490  Biso   1.000  N
  N373     1.0000 0.63700  0.10873  0.01490  Biso   1.000  N
  N374     1.0000 0.63701  0.10865  0.01490  Biso   1.000  N
  H644     1.0000 0.56858  0.25943  0.99562  Biso   1.000  H
  H645     1.0000 0.56858  0.25943  0.99558  Biso   1.000  H
  C580     1.0000 0.74017  0.34085  0.03962  Biso   1.000  C
  C581     1.0000 0.74016  0.34094  0.03962  Biso   1.000  C
  C582     1.0000 0.20584  0.81301  0.83764  Biso   1.000  C
  C583     1.0000 0.20575  0.81301  0.83764  Biso   1.000  C
  C584     1.0000 0.20576  0.81293  0.83764  Biso   1.000  C
  C585     1.0000 0.25910  0.97093  0.87562  Biso   1.000  C
  C586     1.0000 0.25902  0.97085  0.87562  Biso   1.000  C
  O181     1.0000 0.63030  0.92650  0.99441  Biso   1.000  O
  C587     1.0000 0.11783  0.70768  0.90183  Biso   1.000  C
  C588     1.0000 0.11775  0.70768  0.90183  Biso   1.000  C
  C589     1.0000 0.60018  0.10086  0.06836  Biso   1.000  C
  C590     1.0000 0.60017  0.10094  0.06836  Biso   1.000  C
  H646     1.0000 0.66784  0.37831  0.04871  Biso   1.000  H
  H647     1.0000 0.78975  0.39650  0.03023  Biso   1.000  H
  N375     1.0000 0.77863  0.28191  0.08347  Biso   1.000  N
  H648     1.0000 0.66792  0.37831  0.04871  Biso   1.000  H
  H649     1.0000 0.78983  0.39650  0.03019  Biso   1.000  H
  N376     1.0000 0.77872  0.28191  0.08347  Biso   1.000  N
  H650     1.0000 0.66793  0.37823  0.04871  Biso   1.000  H
  N377     1.0000 0.77872  0.28183  0.08347  Biso   1.000  N
  H651     1.0000 0.78975  0.39650  0.03019  Biso   1.000  H
  C591     1.0000 0.28909  0.77743  0.87960  Biso   1.000  C
  C592     1.0000 0.24467  0.77746  0.78387  Biso   1.000  C
  C593     1.0000 0.24467  0.77755  0.78384  Biso   1.000  C
  C594     1.0000 0.28902  0.77735  0.87960  Biso   1.000  C
  C595     1.0000 0.24467  0.77747  0.78384  Biso   1.000  C
  N378     1.0000 0.31447  0.88411  0.89800  Biso   1.000  N
  N379     1.0000 0.31448  0.88403  0.89800  Biso   1.000  N
  O182     1.0000 0.26834  0.06736  0.88361  Biso   1.000  O
  O183     1.0000 0.26834  0.06744  0.88358  Biso   1.000  O
  O184     1.0000 0.26833  0.06744  0.88361  Biso   1.000  O
  O185     1.0000 0.26843  0.06736  0.88358  Biso   1.000  O
  N380     1.0000 0.22152  0.71808  0.91656  Biso   1.000  N
  O186     1.0000 0.04708  0.65631  0.92470  Biso   1.000  O
  N381     1.0000 0.22144  0.71816  0.91652  Biso   1.000  N
  O187     1.0000 0.04707  0.65639  0.92470  Biso   1.000  O
  N382     1.0000 0.22144  0.71808  0.91656  Biso   1.000  N
  N383     1.0000 0.22153  0.71808  0.91652  Biso   1.000  N
  H652     1.0000 0.57362  0.02952  0.07510  Biso   1.000  H
  H653     1.0000 0.53865  0.15601  0.07571  Biso   1.000  H
  N384     1.0000 0.68569  0.11588  0.10203  Biso   1.000  N
  H654     1.0000 0.57370  0.02952  0.07510  Biso   1.000  H
  N385     1.0000 0.68568  0.11597  0.10199  Biso   1.000  N
  H655     1.0000 0.57371  0.02944  0.07510  Biso   1.000  H
  H656     1.0000 0.53866  0.15593  0.07571  Biso   1.000  H
  N386     1.0000 0.68561  0.11588  0.10199  Biso   1.000  N
  C596     1.0000 0.71106  0.22256  0.12043  Biso   1.000  C
  C597     1.0000 0.71106  0.22265  0.12039  Biso   1.000  C
  C598     1.0000 0.71107  0.22256  0.12039  Biso   1.000  C
  C599     1.0000 0.88233  0.29231  0.09820  Biso   1.000  C
  C600     1.0000 0.88241  0.29231  0.09816  Biso   1.000  C
  C601     1.0000 0.88242  0.29222  0.09820  Biso   1.000  C
  C602     1.0000 0.88233  0.29231  0.09816  Biso   1.000  C
  C603     1.0000 0.39491  0.70763  0.86040  Biso   1.000  C
  C604     1.0000 0.39482  0.70763  0.86040  Biso   1.000  C
  C605     1.0000 0.39483  0.70755  0.86040  Biso   1.000  C
  H657     1.0000 0.25282  0.69878  0.78232  Biso   1.000  H
  H658     1.0000 0.31449  0.80511  0.77441  Biso   1.000  H
  H659     1.0000 0.19143  0.80626  0.76100  Biso   1.000  H
  H660     1.0000 0.25274  0.69886  0.78228  Biso   1.000  H
  H661     1.0000 0.19134  0.80634  0.76100  Biso   1.000  H
  H662     1.0000 0.25274  0.69878  0.78232  Biso   1.000  H
  H663     1.0000 0.31442  0.80503  0.77441  Biso   1.000  H
  H664     1.0000 0.19135  0.80626  0.76100  Biso   1.000  H
  H665     1.0000 0.25283  0.69878  0.78228  Biso   1.000  H
  C606     1.0000 0.39998  0.89913  0.93167  Biso   1.000  C
  C607     1.0000 0.39998  0.89913  0.93163  Biso   1.000  C
  C608     1.0000 0.39999  0.89905  0.93167  Biso   1.000  C
  C609     1.0000 0.25999  0.65914  0.96041  Biso   1.000  C
  C610     1.0000 0.25999  0.65914  0.96037  Biso   1.000  C
  C611     1.0000 0.25999  0.65905  0.96041  Biso   1.000  C
  C612     1.0000 0.26000  0.65905  0.96037  Biso   1.000  C
  C613     1.0000 0.74106  0.02906  0.12441  Biso   1.000  C
  C614     1.0000 0.74105  0.02914  0.12441  Biso   1.000  C
  C615     1.0000 0.79432  0.18698  0.16239  Biso   1.000  C
  C616     1.0000 0.60525  0.29236  0.13963  Biso   1.000  C
  C617     1.0000 0.79440  0.18706  0.16235  Biso   1.000  C
  C618     1.0000 0.60533  0.29245  0.13959  Biso   1.000  C
  C619     1.0000 0.79440  0.18698  0.16239  Biso   1.000  C
  C620     1.0000 0.79433  0.18698  0.16235  Biso   1.000  C
  C621     1.0000 0.60526  0.29236  0.13959  Biso   1.000  C
  N387     1.0000 0.89374  0.23850  0.14353  Biso   1.000  N
  N388     1.0000 0.89383  0.23850  0.14349  Biso   1.000  N
  N389     1.0000 0.89382  0.23850  0.14353  Biso   1.000  N
  N390     1.0000 0.89374  0.23850  0.14349  Biso   1.000  N
  O188     1.0000 0.95308  0.34368  0.07533  Biso   1.000  O
  O189     1.0000 0.95309  0.34368  0.07529  Biso   1.000  O
  O190     1.0000 0.95309  0.34360  0.07533  Biso   1.000  O
  O191     1.0000 0.95300  0.34368  0.07529  Biso   1.000  O
  H666     1.0000 0.37630  0.63863  0.84851  Biso   1.000  H
  H667     1.0000 0.44262  0.69482  0.88751  Biso   1.000  H
  H668     1.0000 0.43207  0.74581  0.83321  Biso   1.000  H
  H669     1.0000 0.37622  0.63863  0.84851  Biso   1.000  H
  H670     1.0000 0.44254  0.69482  0.88751  Biso   1.000  H
  H671     1.0000 0.37623  0.63855  0.84851  Biso   1.000  H
  H672     1.0000 0.44255  0.69473  0.88751  Biso   1.000  H
  H673     1.0000 0.43208  0.74572  0.83321  Biso   1.000  H
  H674     1.0000 0.37631  0.63855  0.84851  Biso   1.000  H
  H675     1.0000 0.42654  0.97047  0.92493  Biso   1.000  H
  H676     1.0000 0.46151  0.84398  0.92432  Biso   1.000  H
  N391     1.0000 0.36324  0.89126  0.98513  Biso   1.000  N
  H677     1.0000 0.42645  0.97055  0.92489  Biso   1.000  H
  H678     1.0000 0.46142  0.84406  0.92428  Biso   1.000  H
  N392     1.0000 0.36316  0.89134  0.98510  Biso   1.000  N
  H679     1.0000 0.42646  0.97047  0.92493  Biso   1.000  H
  H680     1.0000 0.46143  0.84398  0.92432  Biso   1.000  H
  N393     1.0000 0.36316  0.89126  0.98513  Biso   1.000  N
  H681     1.0000 0.42654  0.97047  0.92489  Biso   1.000  H
  H682     1.0000 0.46151  0.84398  0.92428  Biso   1.000  H
  N394     1.0000 0.36325  0.89126  0.98510  Biso   1.000  N
  H683     1.0000 0.33232  0.62168  0.95132  Biso   1.000  H
  H684     1.0000 0.21041  0.60350  0.96980  Biso   1.000  H
  H685     1.0000 0.33223  0.62176  0.95128  Biso   1.000  H
  H686     1.0000 0.21033  0.60350  0.96980  Biso   1.000  H
  H687     1.0000 0.33224  0.62168  0.95132  Biso   1.000  H
  H688     1.0000 0.33232  0.62168  0.95128  Biso   1.000  H
  N395     1.0000 0.26756  0.72800  0.00471  Biso   1.000  N
  N396     1.0000 0.26757  0.72791  0.00471  Biso   1.000  N
  O192     1.0000 0.73174  0.93263  0.11642  Biso   1.000  O
  O193     1.0000 0.73174  0.93255  0.11642  Biso   1.000  O
  O194     1.0000 0.73182  0.93263  0.11642  Biso   1.000  O
  N397     1.0000 0.80804  0.06691  0.15769  Biso   1.000  N
  N398     1.0000 0.80813  0.06691  0.15765  Biso   1.000  N
  N399     1.0000 0.80813  0.06683  0.15769  Biso   1.000  N
  N400     1.0000 0.80805  0.06691  0.15765  Biso   1.000  N
  C622     1.0000 0.75549  0.22253  0.21616  Biso   1.000  C
  C623     1.0000 0.75550  0.22244  0.21616  Biso   1.000  C
  C624     1.0000 0.75541  0.22253  0.21616  Biso   1.000  C
  H689     1.0000 0.62386  0.36136  0.15152  Biso   1.000  H
  H690     1.0000 0.55754  0.30517  0.11252  Biso   1.000  H
  H691     1.0000 0.56809  0.25419  0.16682  Biso   1.000  H
  H692     1.0000 0.62394  0.36144  0.15148  Biso   1.000  H
  H693     1.0000 0.55761  0.30526  0.11252  Biso   1.000  H
  H694     1.0000 0.56809  0.25427  0.16678  Biso   1.000  H
  H695     1.0000 0.55762  0.30517  0.11252  Biso   1.000  H
  H696     1.0000 0.62386  0.36136  0.15148  Biso   1.000  H
  H697     1.0000 0.56801  0.25419  0.16678  Biso   1.000  H
  C625     1.0000 0.99576  0.23321  0.16852  Biso   1.000  C
  C626     1.0000 0.99577  0.23313  0.16852  Biso   1.000  C
  C627     1.0000 0.36222  0.78693  0.01168  Biso   1.000  C
  C628     1.0000 0.36232  0.78685  0.01164  Biso   1.000  C
  C629     1.0000 0.36223  0.78685  0.01168  Biso   1.000  C
  C630     1.0000 0.36231  0.78693  0.01164  Biso   1.000  C
  C631     1.0000 0.35996  0.97798  0.01732  Biso   1.000  C
  C632     1.0000 0.35997  0.97798  0.01728  Biso   1.000  C
  C633     1.0000 0.36005  0.97798  0.01728  Biso   1.000  C
  C634     1.0000 0.20337  0.71651  0.04841  Biso   1.000  C
  C635     1.0000 0.20338  0.71642  0.04837  Biso   1.000  C
  C636     1.0000 0.20337  0.71651  0.04837  Biso   1.000  C
  C637     1.0000 0.86359  0.99177  0.19245  Biso   1.000  C
  C638     1.0000 0.86360  0.99177  0.19241  Biso   1.000  C
  H698     1.0000 0.74734  0.30121  0.21771  Biso   1.000  H
  H699     1.0000 0.68567  0.19488  0.22562  Biso   1.000  H
  H700     1.0000 0.80872  0.19373  0.23903  Biso   1.000  H
  H701     1.0000 0.74742  0.30121  0.21771  Biso   1.000  H
  H702     1.0000 0.68566  0.19496  0.22558  Biso   1.000  H
  H703     1.0000 0.80881  0.19373  0.23899  Biso   1.000  H
  H704     1.0000 0.74743  0.30113  0.21771  Biso   1.000  H
  H705     1.0000 0.80881  0.19365  0.23903  Biso   1.000  H
  H706     1.0000 0.68567  0.19488  0.22558  Biso   1.000  H
  H707     1.0000 0.80873  0.19373  0.23899  Biso   1.000  H
  H708     1.0000 0.97787  0.23898  0.20472  Biso   1.000  H
  H709     1.0000 0.97787  0.23906  0.20468  Biso   1.000  H
  H710     1.0000 0.97788  0.23898  0.20468  Biso   1.000  H
  H711     1.0000 0.03488  0.29603  0.15773  Biso   1.000  H
  N401     1.0000 0.06884  0.13379  0.15871  Biso   1.000  N
  H712     1.0000 0.03488  0.29603  0.15769  Biso   1.000  H
  N402     1.0000 0.06892  0.13379  0.15871  Biso   1.000  N
  H713     1.0000 0.03488  0.29594  0.15773  Biso   1.000  H
  C639     1.0000 0.34648  0.81987  0.06810  Biso   1.000  C
  H714     1.0000 0.43150  0.74056  0.00441  Biso   1.000  H
  H715     1.0000 0.43158  0.74056  0.00441  Biso   1.000  H
  N403     1.0000 0.34574  0.93846  0.06609  Biso   1.000  N
  N404     1.0000 0.34582  0.93846  0.06609  Biso   1.000  N
  O195     1.0000 0.36986  0.07349  0.00562  Biso   1.000  O
  O196     1.0000 0.36986  0.07350  0.00558  Biso   1.000  O
  N405     1.0000 0.24223  0.77850  0.08499  Biso   1.000  N
  N406     1.0000 0.24225  0.77841  0.08495  Biso   1.000  N
  N407     1.0000 0.24232  0.77850  0.08495  Biso   1.000  N
  O197     1.0000 0.12454  0.66193  0.05462  Biso   1.000  O
  O198     1.0000 0.12462  0.66193  0.05462  Biso   1.000  O
  H716     1.0000 0.82748  0.92449  0.19461  Biso   1.000  H
  N408     1.0000 0.98007  0.96529  0.17768  Biso   1.000  N
  N409     1.0000 0.98009  0.96521  0.17765  Biso   1.000  N
  N410     1.0000 0.98016  0.96529  0.17765  Biso   1.000  N
  H717     1.0000 0.85608  0.02412  0.22581  Biso   1.000  H
  H718     1.0000 0.85609  0.02404  0.22581  Biso   1.000  H
  H719     1.0000 0.85600  0.02412  0.22581  Biso   1.000  H
  C640     1.0000 0.06482  0.03519  0.18965  Biso   1.000  C
  C641     1.0000 0.06489  0.03527  0.18965  Biso   1.000  C
  C642     1.0000 0.06490  0.03519  0.18965  Biso   1.000  C
  C643     1.0000 0.16278  0.13259  0.12736  Biso   1.000  C
  C644     1.0000 0.16278  0.13267  0.12732  Biso   1.000  C
  C645     1.0000 0.16278  0.13259  0.12732  Biso   1.000  C
  H720     1.0000 0.40687  0.78616  0.08722  Biso   1.000  H
  H721     1.0000 0.40688  0.78616  0.08718  Biso   1.000  H
  C646     1.0000 0.33275  0.00899  0.10933  Biso   1.000  C
  C647     1.0000 0.20632  0.76899  0.13834  Biso   1.000  C
  C648     1.0000 0.20641  0.76899  0.13834  Biso   1.000  C
  C649     1.0000 0.02281  0.86480  0.16117  Biso   1.000  C
  C650     1.0000 0.02290  0.86472  0.16117  Biso   1.000  C
  C651     1.0000 0.02289  0.86480  0.16117  Biso   1.000  C
  C652     1.0000 0.17346  0.96502  0.17189  Biso   1.000  C
  C653     1.0000 0.17346  0.96494  0.17189  Biso   1.000  C
  C654     1.0000 0.17354  0.96502  0.17189  Biso   1.000  C
  H722     1.0000 0.06117  0.05129  0.22593  Biso   1.000  H
  H723     1.0000 0.06118  0.05129  0.22589  Biso   1.000  H
  N411     1.0000 0.21934  0.02941  0.13035  Biso   1.000  N
  O199     1.0000 0.19173  0.20843  0.10063  Biso   1.000  O
  N412     1.0000 0.21942  0.02941  0.13035  Biso   1.000  N
  O200     1.0000 0.19182  0.20843  0.10063  Biso   1.000  O
  O201     1.0000 0.19182  0.20835  0.10063  Biso   1.000  O
  H724     1.0000 0.37749  0.97609  0.13542  Biso   1.000  H
  H725     1.0000 0.37750  0.97601  0.13539  Biso   1.000  H
  H726     1.0000 0.37749  0.97609  0.13539  Biso   1.000  H
  H727     1.0000 0.36046  0.07867  0.09960  Biso   1.000  H
  H728     1.0000 0.36045  0.07875  0.09960  Biso   1.000  H
  N413     1.0000 0.13627  0.86193  0.15784  Biso   1.000  N
  N414     1.0000 0.13628  0.86185  0.15784  Biso   1.000  N
  H729     1.0000 0.16714  0.70393  0.14341  Biso   1.000  H
  H730     1.0000 0.27104  0.75899  0.15773  Biso   1.000  H
  H731     1.0000 0.16715  0.70385  0.14341  Biso   1.000  H
  H732     1.0000 0.27105  0.75891  0.15769  Biso   1.000  H
  H733     1.0000 0.16723  0.70393  0.14341  Biso   1.000  H
  H734     1.0000 0.27112  0.75899  0.15769  Biso   1.000  H
  O202     1.0000 0.97060  0.78836  0.15159  Biso   1.000  O
  O203     1.0000 0.97069  0.78828  0.15159  Biso   1.000  O
  O204     1.0000 0.97068  0.78836  0.15159  Biso   1.000  O
  H735     1.0000 0.22369  0.95483  0.19912  Biso   1.000  H
  H736     1.0000 0.22370  0.95475  0.19908  Biso   1.000  H
  H737     1.0000 0.22369  0.95475  0.19912  Biso   1.000  H
  H738     1.0000 0.22369  0.95483  0.19908  Biso   1.000  H
  O205     1.0000 0.32343  0.37181  0.55800  Biso   1.000  O
  C655     1.0000 0.27237  0.29251  0.55103  Biso   1.000  C
  N415     1.0000 0.27413  0.23671  0.50665  Biso   1.000  N
  N416     1.0000 0.20373  0.24444  0.58689  Biso   1.000  N
  C656     1.0000 0.35108  0.25508  0.46360  Biso   1.000  C
  C657     1.0000 0.21402  0.13929  0.51233  Biso   1.000  C
  C658     1.0000 0.16776  0.14318  0.56845  Biso   1.000  C
  C659     1.0000 0.20043  0.27023  0.64017  Biso   1.000  C
  N417     1.0000 0.30116  0.30939  0.42130  Biso   1.000  N
  H739     1.0000 0.40713  0.29890  0.47439  Biso   1.000  H
  H740     1.0000 0.38771  0.18483  0.45250  Biso   1.000  H
  N418     1.0000 0.11600  0.14251  0.48469  Biso   1.000  N
  H741     1.0000 0.26304  0.07223  0.50529  Biso   1.000  H
  N419     1.0000 0.04985  0.14498  0.56512  Biso   1.000  N
  H742     1.0000 0.19681  0.07901  0.58761  Biso   1.000  H
  H743     1.0000 0.26095  0.31361  0.64551  Biso   1.000  H
  H744     1.0000 0.21188  0.20228  0.65941  Biso   1.000  H
  N420     1.0000 0.09860  0.32928  0.65941  Biso   1.000  N
  C660     1.0000 0.24655  0.25341  0.38374  Biso   1.000  C
  C661     1.0000 0.31572  0.41709  0.40801  Biso   1.000  C
  C662     1.0000 0.11962  0.12593  0.43058  Biso   1.000  C
  C663     1.0000 0.02216  0.13920  0.51608  Biso   1.000  C
  C664     1.0000 0.97111  0.13745  0.60821  Biso   1.000  C
  C665     1.0000 0.08959  0.44113  0.66422  Biso   1.000  C
  C666     1.0000 0.99645  0.27994  0.67618  Biso   1.000  C
  C667     1.0000 0.22317  0.34364  0.34299  Biso   1.000  C
  H745     1.0000 0.29375  0.19039  0.36950  Biso   1.000  H
  N421     1.0000 0.13786  0.22369  0.40093  Biso   1.000  N
  N422     1.0000 0.26506  0.44001  0.36321  Biso   1.000  N
  O206     1.0000 0.36494  0.47867  0.43088  Biso   1.000  O
  H746     1.0000 0.17823  0.06903  0.42111  Biso   1.000  H
  H747     1.0000 0.05043  0.10003  0.42240  Biso   1.000  H
  O207     1.0000 0.92871  0.13049  0.50290  Biso   1.000  O
  H748     1.0000 0.00218  0.08424  0.63210  Biso   1.000  H
  H749     1.0000 0.90512  0.10997  0.59700  Biso   1.000  H
  N423     1.0000 0.93997  0.24074  0.63426  Biso   1.000  N
  O208     1.0000 0.16423  0.49992  0.65361  Biso   1.000  O
  N424     1.0000 0.98615  0.47479  0.68413  Biso   1.000  N
  C668     1.0000 0.01819  0.19178  0.71624  Biso   1.000  C
  C669     1.0000 0.91697  0.38465  0.69477  Biso   1.000  C
  H750     1.0000 0.26103  0.32310  0.31009  Biso   1.000  H
  N425     1.0000 0.10521  0.35009  0.34125  Biso   1.000  N
  C670     1.0000 0.05721  0.27542  0.37336  Biso   1.000  C
  C671     1.0000 0.27253  0.54133  0.33561  Biso   1.000  C
  C672     1.0000 0.84174  0.30002  0.62722  Biso   1.000  C
  C673     1.0000 0.95506  0.58908  0.69701  Biso   1.000  C
  H751     1.0000 0.07133  0.13515  0.70250  Biso   1.000  H
  H752     1.0000 0.04635  0.22359  0.74491  Biso   1.000  H
  H753     1.0000 0.95054  0.16091  0.72681  Biso   1.000  H
  N426     1.0000 0.82748  0.38490  0.66096  Biso   1.000  N
  C674     1.0000 0.87325  0.38133  0.75013  Biso   1.000  C
  C675     1.0000 0.04505  0.41094  0.30301  Biso   1.000  C
  O209     1.0000 0.96003  0.25941  0.37700  Biso   1.000  O
  H754     1.0000 0.29246  0.52479  0.30021  Biso   1.000  H
  H755     1.0000 0.33164  0.57863  0.34799  Biso   1.000  H
  N427     1.0000 0.17264  0.61513  0.33906  Biso   1.000  N
  O210     1.0000 0.77653  0.27974  0.59677  Biso   1.000  O
  H756     1.0000 0.02126  0.62434  0.70201  Biso   1.000  H
  H757     1.0000 0.90963  0.59224  0.72882  Biso   1.000  H
  N428     1.0000 0.89483  0.64994  0.65876  Biso   1.000  N
  C676     1.0000 0.72759  0.45869  0.66440  Biso   1.000  C
  H758     1.0000 0.82785  0.32160  0.75551  Biso   1.000  H
  H759     1.0000 0.93421  0.37080  0.77119  Biso   1.000  H
  H760     1.0000 0.83014  0.44925  0.75862  Biso   1.000  H
  H761     1.0000 0.09040  0.40778  0.27120  Biso   1.000  H
  N429     1.0000 0.01398  0.52523  0.31584  Biso   1.000  N
  H762     1.0000 0.97886  0.37569  0.29801  Biso   1.000  H
  C677     1.0000 0.15839  0.70001  0.37276  Biso   1.000  C
  C678     1.0000 0.08315  0.61538  0.30524  Biso   1.000  C
  C679     1.0000 0.94291  0.72460  0.62665  Biso   1.000  C
  C680     1.0000 0.77695  0.65638  0.65702  Biso   1.000  C
  H763     1.0000 0.70766  0.47523  0.69981  Biso   1.000  H
  H764     1.0000 0.66848  0.42140  0.65198  Biso   1.000  H
  N430     1.0000 0.73506  0.56001  0.63680  Biso   1.000  N
  C681     1.0000 0.91053  0.55889  0.33580  Biso   1.000  C
  N431     1.0000 0.06016  0.75929  0.36571  Biso   1.000  N
  O211     1.0000 0.22359  0.72028  0.40324  Biso   1.000  O
  C682     1.0000 0.00367  0.72008  0.32383  Biso   1.000  C
  C683     1.0000 0.12687  0.61870  0.24988  Biso   1.000  C
  N432     1.0000 0.86226  0.77633  0.59908  Biso   1.000  N
  O212     1.0000 0.04009  0.74062  0.62302  Biso   1.000  O
  C684     1.0000 0.75357  0.74661  0.61628  Biso   1.000  C
  H765     1.0000 0.73910  0.67692  0.68989  Biso   1.000  H
  C685     1.0000 0.68440  0.58294  0.59197  Biso   1.000  C
  N433     1.0000 0.90153  0.67067  0.34061  Biso   1.000  N
  O213     1.0000 0.83590  0.50011  0.34636  Biso   1.000  O
  C686     1.0000 0.02892  0.86258  0.39180  Biso   1.000  C
  C687     1.0000 0.98194  0.80824  0.28373  Biso   1.000  C
  H766     1.0000 0.17227  0.67843  0.24450  Biso   1.000  H
  H767     1.0000 0.06591  0.62923  0.22879  Biso   1.000  H
  H768     1.0000 0.16998  0.55077  0.24140  Biso   1.000  H
  C688     1.0000 0.88050  0.87409  0.56940  Biso   1.000  C
  N434     1.0000 0.69896  0.69064  0.57871  Biso   1.000  N
  H769     1.0000 0.70637  0.80964  0.63051  Biso   1.000  H
  O214     1.0000 0.63518  0.52135  0.56909  Biso   1.000  O
  C689     1.0000 0.79969  0.72979  0.35984  Biso   1.000  C
  H770     1.0000 0.09492  0.88997  0.40301  Biso   1.000  H
  H771     1.0000 0.99794  0.91578  0.36791  Biso   1.000  H
  N435     1.0000 0.95027  0.85504  0.43490  Biso   1.000  N
  H772     1.0000 0.04958  0.83912  0.27321  Biso   1.000  H
  H773     1.0000 0.92879  0.86488  0.29752  Biso   1.000  H
  H774     1.0000 0.95377  0.77643  0.25511  Biso   1.000  H
  N436     1.0000 0.88404  0.85751  0.51529  Biso   1.000  N
  H775     1.0000 0.82189  0.93099  0.57890  Biso   1.000  H
  H776     1.0000 0.94969  0.89999  0.57761  Biso   1.000  H
  C690     1.0000 0.64904  0.74495  0.53638  Biso   1.000  C
  H777     1.0000 0.73917  0.68642  0.35451  Biso   1.000  H
  H778     1.0000 0.78824  0.79774  0.34061  Biso   1.000  H
  N437     1.0000 0.79639  0.75559  0.41312  Biso   1.000  N
  C691     1.0000 0.97796  0.86082  0.48390  Biso   1.000  C
  C692     1.0000 0.83236  0.85685  0.43156  Biso   1.000  C
  C693     1.0000 0.78610  0.86073  0.48764  Biso   1.000  C
  N438     1.0000 0.72600  0.76332  0.49332  Biso   1.000  N
  H779     1.0000 0.59300  0.70113  0.52559  Biso   1.000  H
  H780     1.0000 0.61240  0.81519  0.54751  Biso   1.000  H
  C694     1.0000 0.72775  0.70751  0.44898  Biso   1.000  C
  O215     1.0000 0.07133  0.86953  0.49711  Biso   1.000  O
  H781     1.0000 0.80322  0.92102  0.41240  Biso   1.000  H
  H782     1.0000 0.73709  0.92779  0.49469  Biso   1.000  H
  O216     1.0000 0.67669  0.62821  0.44201  Biso   1.000  O
  O217     1.0000 0.32343  0.37181  0.55800  Biso   1.000  O
  C695     1.0000 0.27237  0.29251  0.55103  Biso   1.000  C
  N439     1.0000 0.27413  0.23671  0.50665  Biso   1.000  N
  N440     1.0000 0.20373  0.24444  0.58689  Biso   1.000  N
  C696     1.0000 0.35108  0.25508  0.46360  Biso   1.000  C
  C697     1.0000 0.21402  0.13929  0.51233  Biso   1.000  C
  C698     1.0000 0.16776  0.14318  0.56845  Biso   1.000  C
  C699     1.0000 0.20043  0.27023  0.64017  Biso   1.000  C
  N441     1.0000 0.30116  0.30939  0.42130  Biso   1.000  N
  H783     1.0000 0.40713  0.29890  0.47439  Biso   1.000  H
  H784     1.0000 0.38771  0.18483  0.45250  Biso   1.000  H
  N442     1.0000 0.11600  0.14251  0.48469  Biso   1.000  N
  H785     1.0000 0.26304  0.07223  0.50529  Biso   1.000  H
  N443     1.0000 0.04985  0.14498  0.56512  Biso   1.000  N
  H786     1.0000 0.19681  0.07901  0.58761  Biso   1.000  H
  H787     1.0000 0.26095  0.31361  0.64551  Biso   1.000  H
  H788     1.0000 0.21188  0.20228  0.65941  Biso   1.000  H
  N444     1.0000 0.09860  0.32928  0.65941  Biso   1.000  N
  C700     1.0000 0.24655  0.25341  0.38374  Biso   1.000  C
  C701     1.0000 0.31572  0.41709  0.40801  Biso   1.000  C
  C702     1.0000 0.11962  0.12593  0.43058  Biso   1.000  C
  C703     1.0000 0.02216  0.13920  0.51608  Biso   1.000  C
  C704     1.0000 0.97111  0.13745  0.60821  Biso   1.000  C
  C705     1.0000 0.08959  0.44113  0.66422  Biso   1.000  C
  C706     1.0000 0.99645  0.27994  0.67618  Biso   1.000  C
  C707     1.0000 0.22317  0.34364  0.34299  Biso   1.000  C
  H789     1.0000 0.29375  0.19039  0.36950  Biso   1.000  H
  N445     1.0000 0.13786  0.22369  0.40093  Biso   1.000  N
  N446     1.0000 0.26506  0.44001  0.36321  Biso   1.000  N
  O218     1.0000 0.36494  0.47867  0.43088  Biso   1.000  O
  H790     1.0000 0.17823  0.06903  0.42111  Biso   1.000  H
  H791     1.0000 0.05043  0.10003  0.42240  Biso   1.000  H
  O219     1.0000 0.92871  0.13049  0.50290  Biso   1.000  O
  H792     1.0000 0.00218  0.08424  0.63210  Biso   1.000  H
  H793     1.0000 0.90512  0.10997  0.59700  Biso   1.000  H
  N447     1.0000 0.93997  0.24074  0.63426  Biso   1.000  N
  O220     1.0000 0.16423  0.49992  0.65361  Biso   1.000  O
  N448     1.0000 0.98615  0.47479  0.68413  Biso   1.000  N
  C708     1.0000 0.01819  0.19178  0.71624  Biso   1.000  C
  C709     1.0000 0.91697  0.38465  0.69477  Biso   1.000  C
  H794     1.0000 0.26103  0.32310  0.31009  Biso   1.000  H
  N449     1.0000 0.10521  0.35009  0.34125  Biso   1.000  N
  C710     1.0000 0.05721  0.27542  0.37336  Biso   1.000  C
  C711     1.0000 0.27253  0.54133  0.33561  Biso   1.000  C
  C712     1.0000 0.84174  0.30002  0.62722  Biso   1.000  C
  C713     1.0000 0.95506  0.58908  0.69701  Biso   1.000  C
  H795     1.0000 0.07133  0.13515  0.70250  Biso   1.000  H
  H796     1.0000 0.04635  0.22359  0.74491  Biso   1.000  H
  H797     1.0000 0.95054  0.16091  0.72681  Biso   1.000  H
  N450     1.0000 0.82748  0.38490  0.66096  Biso   1.000  N
  C714     1.0000 0.87325  0.38133  0.75013  Biso   1.000  C
  C715     1.0000 0.04505  0.41094  0.30301  Biso   1.000  C
  O221     1.0000 0.96003  0.25941  0.37700  Biso   1.000  O
  H798     1.0000 0.29246  0.52479  0.30021  Biso   1.000  H
  H799     1.0000 0.33164  0.57863  0.34799  Biso   1.000  H
  N451     1.0000 0.17264  0.61513  0.33906  Biso   1.000  N
  O222     1.0000 0.77653  0.27974  0.59677  Biso   1.000  O
  H800     1.0000 0.02126  0.62434  0.70201  Biso   1.000  H
  H801     1.0000 0.90963  0.59224  0.72882  Biso   1.000  H
  N452     1.0000 0.89483  0.64994  0.65876  Biso   1.000  N
  C716     1.0000 0.72759  0.45869  0.66440  Biso   1.000  C
  H802     1.0000 0.82785  0.32160  0.75551  Biso   1.000  H
  H803     1.0000 0.93421  0.37080  0.77119  Biso   1.000  H
  H804     1.0000 0.83014  0.44925  0.75862  Biso   1.000  H
  H805     1.0000 0.09040  0.40778  0.27120  Biso   1.000  H
  N453     1.0000 0.01398  0.52523  0.31584  Biso   1.000  N
  H806     1.0000 0.97886  0.37569  0.29801  Biso   1.000  H
  C717     1.0000 0.15839  0.70001  0.37276  Biso   1.000  C
  C718     1.0000 0.08315  0.61538  0.30524  Biso   1.000  C
  C719     1.0000 0.94291  0.72460  0.62665  Biso   1.000  C
  C720     1.0000 0.77695  0.65638  0.65702  Biso   1.000  C
  H807     1.0000 0.70766  0.47523  0.69981  Biso   1.000  H
  H808     1.0000 0.66848  0.42140  0.65198  Biso   1.000  H
  N454     1.0000 0.73506  0.56001  0.63680  Biso   1.000  N
  C721     1.0000 0.91053  0.55889  0.33580  Biso   1.000  C
  N455     1.0000 0.06016  0.75929  0.36571  Biso   1.000  N
  O223     1.0000 0.22359  0.72028  0.40324  Biso   1.000  O
  C722     1.0000 0.00367  0.72008  0.32383  Biso   1.000  C
  C723     1.0000 0.12687  0.61870  0.24988  Biso   1.000  C
  N456     1.0000 0.86226  0.77633  0.59908  Biso   1.000  N
  O224     1.0000 0.04009  0.74062  0.62302  Biso   1.000  O
  C724     1.0000 0.75357  0.74661  0.61628  Biso   1.000  C
  H809     1.0000 0.73910  0.67692  0.68989  Biso   1.000  H
  C725     1.0000 0.68440  0.58294  0.59197  Biso   1.000  C
  N457     1.0000 0.90153  0.67067  0.34061  Biso   1.000  N
  O225     1.0000 0.83590  0.50011  0.34636  Biso   1.000  O
  C726     1.0000 0.02892  0.86258  0.39180  Biso   1.000  C
  C727     1.0000 0.98194  0.80824  0.28373  Biso   1.000  C
  H810     1.0000 0.17227  0.67843  0.24450  Biso   1.000  H
  H811     1.0000 0.06591  0.62923  0.22879  Biso   1.000  H
  H812     1.0000 0.16998  0.55077  0.24140  Biso   1.000  H
  C728     1.0000 0.88050  0.87409  0.56940  Biso   1.000  C
  N458     1.0000 0.69896  0.69064  0.57871  Biso   1.000  N
  H813     1.0000 0.70637  0.80964  0.63051  Biso   1.000  H
  O226     1.0000 0.63518  0.52135  0.56909  Biso   1.000  O
  C729     1.0000 0.79969  0.72979  0.35984  Biso   1.000  C
  H814     1.0000 0.09492  0.88997  0.40301  Biso   1.000  H
  H815     1.0000 0.99794  0.91578  0.36791  Biso   1.000  H
  N459     1.0000 0.95027  0.85504  0.43490  Biso   1.000  N
  H816     1.0000 0.04958  0.83912  0.27321  Biso   1.000  H
  H817     1.0000 0.92879  0.86488  0.29752  Biso   1.000  H
  H818     1.0000 0.95377  0.77643  0.25511  Biso   1.000  H
  N460     1.0000 0.88404  0.85751  0.51529  Biso   1.000  N
  H819     1.0000 0.82189  0.93099  0.57890  Biso   1.000  H
  H820     1.0000 0.94969  0.89999  0.57761  Biso   1.000  H
  C730     1.0000 0.64904  0.74495  0.53638  Biso   1.000  C
  H821     1.0000 0.73917  0.68642  0.35451  Biso   1.000  H
  H822     1.0000 0.78824  0.79774  0.34061  Biso   1.000  H
  N461     1.0000 0.79639  0.75559  0.41312  Biso   1.000  N
  C731     1.0000 0.97796  0.86082  0.48390  Biso   1.000  C
  C732     1.0000 0.83236  0.85685  0.43156  Biso   1.000  C
  C733     1.0000 0.78610  0.86073  0.48764  Biso   1.000  C
  N462     1.0000 0.72600  0.76332  0.49332  Biso   1.000  N
  H823     1.0000 0.59300  0.70113  0.52559  Biso   1.000  H
  H824     1.0000 0.61240  0.81519  0.54751  Biso   1.000  H
  C734     1.0000 0.72775  0.70751  0.44898  Biso   1.000  C
  O227     1.0000 0.07133  0.86953  0.49711  Biso   1.000  O
  H825     1.0000 0.80322  0.92102  0.41240  Biso   1.000  H
  H826     1.0000 0.73709  0.92779  0.49469  Biso   1.000  H
  O228     1.0000 0.67669  0.62821  0.44201  Biso   1.000  O
