data_image0
_cell_length_a       31.189
_cell_length_b       13.931
_cell_length_c       22.683
_cell_angle_alpha    90
_cell_angle_beta     126.12
_cell_angle_gamma    90

_symmetry_space_group_name_H-M    "P 1"
_symmetry_int_tables_number       1

loop_
  _symmetry_equiv_pos_as_xyz
  'x, y, z'

loop_
  _atom_site_label
  _atom_site_occupancy
  _atom_site_fract_x
  _atom_site_fract_y
  _atom_site_fract_z
  _atom_site_thermal_displace_type
  _atom_site_B_iso_or_equiv
  _atom_site_type_symbol
  C1       1.0000 0.30707  0.58201  0.54522  Biso   1.000  C
  C2       1.0000 0.32304  0.64130  0.51269  Biso   1.000  C
  H1       1.0000 0.30445  0.51489  0.53605  Biso   1.000  H
  C3       1.0000 0.29471  0.61754  0.59117  Biso   1.000  C
  O1       1.0000 0.33449  0.61137  0.46581  Biso   1.000  O
  C4       1.0000 0.32682  0.73993  0.52666  Biso   1.000  C
  C5       1.0000 0.29980  0.71589  0.60634  Biso   1.000  C
  C6       1.0000 0.27588  0.54533  0.62173  Biso   1.000  C
  C7       1.0000 0.33735  0.51030  0.45910  Biso   1.000  C
  O2       1.0000 0.33668  0.80411  0.48879  Biso   1.000  O
  C8       1.0000 0.31569  0.77518  0.57289  Biso   1.000  C
  C9       1.0000 0.28650  0.76233  0.65437  Biso   1.000  C
  C10      1.0000 0.32149  0.49623  0.69044  Biso   1.000  C
  H2       1.0000 0.25344  0.57871  0.63281  Biso   1.000  H
  H3       1.0000 0.25384  0.49602  0.58424  Biso   1.000  H
  H4       1.0000 0.36301  0.48238  0.50751  Biso   1.000  H
  H5       1.0000 0.34862  0.49716  0.42771  Biso   1.000  H
  H6       1.0000 0.30233  0.48166  0.43754  Biso   1.000  H
  C11      1.0000 0.38754  0.80669  0.50630  Biso   1.000  C
  H7       1.0000 0.31905  0.84222  0.58244  Biso   1.000  H
  C12      1.0000 0.33362  0.77697  0.73361  Biso   1.000  C
  H8       1.0000 0.25994  0.72192  0.65322  Biso   1.000  H
  H9       1.0000 0.26985  0.82550  0.63325  Biso   1.000  H
  C13      1.0000 0.34351  0.41397  0.68264  Biso   1.000  C
  C14      1.0000 0.34315  0.52968  0.76063  Biso   1.000  C
  C15      1.0000 0.39553  0.87007  0.46663  Biso   1.000  C
  C16      1.0000 0.42907  0.75221  0.56137  Biso   1.000  C
  C17      1.0000 0.34948  0.70971  0.78863  Biso   1.000  C
  C18      1.0000 0.36103  0.86433  0.75179  Biso   1.000  C
  H10      1.0000 0.32884  0.39028  0.63505  Biso   1.000  H
  C19      1.0000 0.38549  0.36659  0.74153  Biso   1.000  C
  C20      1.0000 0.38625  0.48101  0.82017  Biso   1.000  C
  C21      1.0000 0.32090  0.61525  0.77597  Biso   1.000  C
  C22      1.0000 0.44564  0.88034  0.48284  Biso   1.000  C
  H11      1.0000 0.36662  0.90647  0.42821  Biso   1.000  H
  C23      1.0000 0.47907  0.76211  0.57720  Biso   1.000  C
  H12      1.0000 0.42344  0.70828  0.58811  Biso   1.000  H
  C24      1.0000 0.39314  0.73146  0.85996  Biso   1.000  C
  C25      1.0000 0.40381  0.88536  0.82263  Biso   1.000  C
  H13      1.0000 0.34997  0.91042  0.71446  Biso   1.000  H
  O3       1.0000 0.40368  0.28146  0.73094  Biso   1.000  O
  C26      1.0000 0.40763  0.39990  0.81193  Biso   1.000  C
  H14      1.0000 0.40133  0.50449  0.86793  Biso   1.000  H
  H15      1.0000 0.28312  0.62336  0.73422  Biso   1.000  H
  H16      1.0000 0.32203  0.60082  0.81952  Biso   1.000  H
  C27      1.0000 0.48730  0.82650  0.53850  Biso   1.000  C
  H17      1.0000 0.45132  0.92405  0.45593  Biso   1.000  H
  H18      1.0000 0.50774  0.72436  0.61475  Biso   1.000  H
  H19      1.0000 0.40436  0.68610  0.89773  Biso   1.000  H
  C28      1.0000 0.42020  0.81674  0.87671  Biso   1.000  C
  O4       1.0000 0.43159  0.96971  0.84479  Biso   1.000  O
  C29      1.0000 0.44855  0.28182  0.72903  Biso   1.000  C
  C30      1.0000 0.45587  0.28857  0.75446  Biso   1.000  C
  O5       1.0000 0.44893  0.34700  0.86760  Biso   1.000  O
  O6       1.0000 0.53690  0.83662  0.55166  Biso   1.000  O
  O7       1.0000 0.46319  0.83662  0.94843  Biso   1.000  O
  C31      1.0000 0.40759  0.04766  0.79419  Biso   1.000  C
  C32      1.0000 0.47975  0.19984  0.74966  Biso   1.000  C
  C33      1.0000 0.47251  0.20322  0.74213  Biso   1.000  C
  C34      1.0000 0.48706  0.37047  0.77509  Biso   1.000  C
  C35      1.0000 0.46522  0.36709  0.71675  Biso   1.000  C
  C36      1.0000 0.47248  0.38037  0.93959  Biso   1.000  C
  C37      1.0000 0.57990  0.81674  0.62332  Biso   1.000  C
  C38      1.0000 0.51277  0.82650  0.96153  Biso   1.000  C
  H20      1.0000 0.40744  0.03359  0.75173  Biso   1.000  H
  H21      1.0000 0.42785  0.10660  0.81783  Biso   1.000  H
  H22      1.0000 0.37107  0.05628  0.77826  Biso   1.000  H
  H23      1.0000 0.46834  0.14148  0.75806  Biso   1.000  H
  H24      1.0000 0.45124  0.14723  0.72805  Biso   1.000  H
  C39      1.0000 0.52034  0.19984  0.75042  Biso   1.000  C
  C40      1.0000 0.52758  0.20322  0.75796  Biso   1.000  C
  H25      1.0000 0.47565  0.42883  0.78355  Biso   1.000  H
  C41      1.0000 0.51303  0.37047  0.72499  Biso   1.000  C
  C42      1.0000 0.53487  0.36709  0.78333  Biso   1.000  C
  H26      1.0000 0.44393  0.42309  0.70262  Biso   1.000  H
  H27      1.0000 0.48656  0.44519  0.94483  Biso   1.000  H
  H28      1.0000 0.50148  0.33716  0.97446  Biso   1.000  H
  H29      1.0000 0.44575  0.38181  0.94925  Biso   1.000  H
  C43      1.0000 0.60695  0.73146  0.64013  Biso   1.000  C
  C44      1.0000 0.59626  0.88536  0.67740  Biso   1.000  C
  C45      1.0000 0.52102  0.76211  0.92289  Biso   1.000  C
  C46      1.0000 0.55440  0.88034  0.01719  Biso   1.000  C
  C47      1.0000 0.55151  0.28182  0.77100  Biso   1.000  C
  H30      1.0000 0.53175  0.14148  0.74202  Biso   1.000  H
  H31      1.0000 0.54885  0.14723  0.77204  Biso   1.000  H
  C48      1.0000 0.54422  0.28857  0.74562  Biso   1.000  C
  H32      1.0000 0.52444  0.42883  0.71653  Biso   1.000  H
  H33      1.0000 0.55614  0.42309  0.79741  Biso   1.000  H
  C49      1.0000 0.65061  0.70971  0.71146  Biso   1.000  C
  H34      1.0000 0.59574  0.68610  0.60230  Biso   1.000  H
  O8       1.0000 0.56854  0.96971  0.65530  Biso   1.000  O
  C50      1.0000 0.63906  0.86433  0.74830  Biso   1.000  C
  H35      1.0000 0.49235  0.72436  0.88534  Biso   1.000  H
  C51      1.0000 0.57102  0.75221  0.93871  Biso   1.000  C
  H36      1.0000 0.54871  0.92405  0.04410  Biso   1.000  H
  C52      1.0000 0.60450  0.87007  0.03340  Biso   1.000  C
  O9       1.0000 0.59641  0.28146  0.76914  Biso   1.000  O
  C53      1.0000 0.67922  0.61525  0.72412  Biso   1.000  C
  C54      1.0000 0.66648  0.77697  0.76642  Biso   1.000  C
  C55      1.0000 0.59250  0.04766  0.70589  Biso   1.000  C
  H37      1.0000 0.65016  0.91042  0.78563  Biso   1.000  H
  H38      1.0000 0.57668  0.70828  0.91197  Biso   1.000  H
  C56      1.0000 0.61253  0.80669  0.99373  Biso   1.000  C
  H39      1.0000 0.63341  0.90647  0.07182  Biso   1.000  H
  C57      1.0000 0.61458  0.36659  0.75850  Biso   1.000  C
  C58      1.0000 0.65697  0.52968  0.73945  Biso   1.000  C
  H40      1.0000 0.71695  0.62336  0.76581  Biso   1.000  H
  H41      1.0000 0.67803  0.60082  0.68051  Biso   1.000  H
  C59      1.0000 0.71362  0.76233  0.84571  Biso   1.000  C
  H42      1.0000 0.59265  0.03359  0.74835  Biso   1.000  H
  H43      1.0000 0.57224  0.10660  0.68226  Biso   1.000  H
  H44      1.0000 0.62906  0.05628  0.72183  Biso   1.000  H
  O10      1.0000 0.66336  0.80411  0.01124  Biso   1.000  O
  C60      1.0000 0.65658  0.41397  0.81744  Biso   1.000  C
  C61      1.0000 0.59246  0.39990  0.68815  Biso   1.000  C
  C62      1.0000 0.67860  0.49623  0.80964  Biso   1.000  C
  C63      1.0000 0.61388  0.48101  0.67991  Biso   1.000  C
  H45      1.0000 0.74015  0.72192  0.84686  Biso   1.000  H
  H46      1.0000 0.73024  0.82550  0.86684  Biso   1.000  H
  C64      1.0000 0.70029  0.71589  0.89374  Biso   1.000  C
  C65      1.0000 0.67331  0.73993  0.97342  Biso   1.000  C
  H47      1.0000 0.67125  0.39028  0.86503  Biso   1.000  H
  O11      1.0000 0.55116  0.34700  0.63248  Biso   1.000  O
  C66      1.0000 0.72422  0.54533  0.87835  Biso   1.000  C
  H48      1.0000 0.59876  0.50449  0.63216  Biso   1.000  H
  C67      1.0000 0.68437  0.77518  0.92714  Biso   1.000  C
  C68      1.0000 0.70538  0.61754  0.90891  Biso   1.000  C
  C69      1.0000 0.67705  0.64130  0.98739  Biso   1.000  C
  C70      1.0000 0.52758  0.38037  0.56044  Biso   1.000  C
  H49      1.0000 0.74663  0.57871  0.86722  Biso   1.000  H
  H50      1.0000 0.74625  0.49602  0.91585  Biso   1.000  H
  H51      1.0000 0.68107  0.84222  0.91765  Biso   1.000  H
  C71      1.0000 0.69302  0.58201  0.95487  Biso   1.000  C
  O12      1.0000 0.66555  0.61137  0.03422  Biso   1.000  O
  H52      1.0000 0.51354  0.44519  0.55520  Biso   1.000  H
  H53      1.0000 0.49864  0.33716  0.52562  Biso   1.000  H
  H54      1.0000 0.55434  0.38181  0.55084  Biso   1.000  H
  H55      1.0000 0.69567  0.51489  0.96404  Biso   1.000  H
  C72      1.0000 0.66272  0.51030  0.04093  Biso   1.000  C
  H56      1.0000 0.63706  0.48238  0.99252  Biso   1.000  H
  H57      1.0000 0.65142  0.49716  0.07232  Biso   1.000  H
  H58      1.0000 0.69771  0.48166  0.06249  Biso   1.000  H
  C73      1.0000 0.18435  0.72479  0.42717  Biso   1.000  C
  C74      1.0000 0.20024  0.78408  0.39371  Biso   1.000  C
  H59      1.0000 0.18103  0.65781  0.41762  Biso   1.000  H
  C75      1.0000 0.17326  0.76010  0.47339  Biso   1.000  C
  C76      1.0000 0.21358  0.73764  0.34569  Biso   1.000  C
  C77      1.0000 0.20534  0.88249  0.40889  Biso   1.000  C
  O13      1.0000 0.16340  0.69586  0.51127  Biso   1.000  O
  C78      1.0000 0.17701  0.85866  0.48737  Biso   1.000  C
  C79      1.0000 0.16643  0.72299  0.26639  Biso   1.000  C
  H60      1.0000 0.24013  0.77812  0.34683  Biso   1.000  H
  H61      1.0000 0.23023  0.67447  0.36681  Biso   1.000  H
  C80      1.0000 0.19298  0.91795  0.45484  Biso   1.000  C
  C81      1.0000 0.22417  0.95463  0.37832  Biso   1.000  C
  C82      1.0000 0.11251  0.69327  0.49375  Biso   1.000  C
  O14      1.0000 0.16556  0.88859  0.53425  Biso   1.000  O
  C83      1.0000 0.13904  0.63563  0.24827  Biso   1.000  C
  C84      1.0000 0.15060  0.79032  0.21143  Biso   1.000  C
  H62      1.0000 0.19562  0.98507  0.46401  Biso   1.000  H
  C85      1.0000 0.17858  0.00373  0.30961  Biso   1.000  C
  H63      1.0000 0.24664  0.92125  0.36724  Biso   1.000  H
  H64      1.0000 0.24624  0.00402  0.41582  Biso   1.000  H
  C86      1.0000 0.10454  0.62989  0.53343  Biso   1.000  C
  C87      1.0000 0.07098  0.74776  0.43868  Biso   1.000  C
  C88      1.0000 0.16273  0.98966  0.54096  Biso   1.000  C
  C89      1.0000 0.09621  0.61460  0.17737  Biso   1.000  C
  H65      1.0000 0.15011  0.58962  0.28560  Biso   1.000  H
  C90      1.0000 0.10691  0.76850  0.14010  Biso   1.000  C
  C91      1.0000 0.17918  0.88472  0.22409  Biso   1.000  C
  C92      1.0000 0.15693  0.97028  0.23943  Biso   1.000  C
  C93      1.0000 0.15657  0.08607  0.31742  Biso   1.000  C
  C94      1.0000 0.05440  0.61963  0.51722  Biso   1.000  C
  H66      1.0000 0.13345  0.59350  0.57185  Biso   1.000  H
  C95      1.0000 0.02097  0.73792  0.42286  Biso   1.000  C
  H67      1.0000 0.07663  0.79169  0.41194  Biso   1.000  H
  H68      1.0000 0.13703  0.01759  0.49255  Biso   1.000  H
  H69      1.0000 0.15143  0.00280  0.57234  Biso   1.000  H
  H70      1.0000 0.19775  0.01830  0.56252  Biso   1.000  H
  O15      1.0000 0.06849  0.53026  0.15527  Biso   1.000  O
  C96      1.0000 0.07988  0.68322  0.12334  Biso   1.000  C
  H71      1.0000 0.09572  0.81387  0.10233  Biso   1.000  H
  H72      1.0000 0.21690  0.87661  0.26579  Biso   1.000  H
  H73      1.0000 0.17799  0.89922  0.18048  Biso   1.000  H
  C97      1.0000 0.11383  0.01895  0.17988  Biso   1.000  C
  H74      1.0000 0.17123  0.10968  0.36501  Biso   1.000  H
  C98      1.0000 0.11455  0.13337  0.25853  Biso   1.000  C
  C99      1.0000 0.01272  0.67346  0.46150  Biso   1.000  C
  H75      1.0000 0.04872  0.57591  0.54413  Biso   1.000  H
  H76      1.0000 0.99231  0.77561  0.38531  Biso   1.000  H
  C100     1.0000 0.09249  0.45230  0.20586  Biso   1.000  C
  O16      1.0000 0.03688  0.66341  0.05163  Biso   1.000  O
  H77      1.0000 0.09871  0.99548  0.13213  Biso   1.000  H
  C101     1.0000 0.09242  0.10006  0.18812  Biso   1.000  C
  O17      1.0000 0.09636  0.21858  0.26912  Biso   1.000  O
  O18      1.0000 0.96315  0.66341  0.44840  Biso   1.000  O
  H78      1.0000 0.09261  0.46637  0.24832  Biso   1.000  H
  H79      1.0000 0.07223  0.39337  0.18223  Biso   1.000  H
  H80      1.0000 0.12901  0.44369  0.22180  Biso   1.000  H
  C102     1.0000 0.98729  0.67346  0.03848  Biso   1.000  C
  O19      1.0000 0.05114  0.15297  0.13246  Biso   1.000  O
  C103     1.0000 0.05150  0.21822  0.27097  Biso   1.000  C
  C104     1.0000 0.04418  0.21147  0.24559  Biso   1.000  C
  C105     1.0000 0.92016  0.68322  0.37669  Biso   1.000  C
  C106     1.0000 0.94568  0.61963  0.98286  Biso   1.000  C
  C107     1.0000 0.97906  0.73792  0.07717  Biso   1.000  C
  C108     1.0000 0.02754  0.11959  0.06042  Biso   1.000  C
  C109     1.0000 0.02033  0.30012  0.25040  Biso   1.000  C
  C110     1.0000 0.02757  0.29675  0.25793  Biso   1.000  C
  C111     1.0000 0.01299  0.12950  0.22496  Biso   1.000  C
  C112     1.0000 0.03482  0.13287  0.28331  Biso   1.000  C
  C113     1.0000 0.89313  0.76850  0.35993  Biso   1.000  C
  C114     1.0000 0.90380  0.61460  0.32260  Biso   1.000  C
  H81      1.0000 0.95136  0.57591  0.95596  Biso   1.000  H
  C115     1.0000 0.89554  0.62989  0.96665  Biso   1.000  C
  H82      1.0000 0.00772  0.77561  0.11472  Biso   1.000  H
  C116     1.0000 0.92905  0.74776  0.06134  Biso   1.000  C
  H83      1.0000 0.99860  0.16280  0.02560  Biso   1.000  H
  H84      1.0000 0.01349  0.05477  0.05518  Biso   1.000  H
  H85      1.0000 0.05429  0.11815  0.05081  Biso   1.000  H
  C117     1.0000 0.97970  0.30012  0.24963  Biso   1.000  C
  C118     1.0000 0.97250  0.29675  0.24210  Biso   1.000  C
  H86      1.0000 0.03170  0.35848  0.24199  Biso   1.000  H
  H87      1.0000 0.04880  0.35281  0.27201  Biso   1.000  H
  C119     1.0000 0.98704  0.12950  0.27506  Biso   1.000  C
  C120     1.0000 0.96521  0.13287  0.21672  Biso   1.000  C
  H88      1.0000 0.02440  0.07121  0.21650  Biso   1.000  H
  H89      1.0000 0.05615  0.07688  0.29744  Biso   1.000  H
  C121     1.0000 0.84943  0.79032  0.28860  Biso   1.000  C
  H90      1.0000 0.90431  0.81387  0.39770  Biso   1.000  H
  C122     1.0000 0.86099  0.63563  0.25176  Biso   1.000  C
  O20      1.0000 0.93154  0.53026  0.34476  Biso   1.000  O
  H91      1.0000 0.86663  0.59350  0.92823  Biso   1.000  H
  C123     1.0000 0.88752  0.69327  0.00628  Biso   1.000  C
  H92      1.0000 0.92340  0.79169  0.08809  Biso   1.000  H
  C124     1.0000 0.94853  0.21822  0.22906  Biso   1.000  C
  H93      1.0000 0.96833  0.35848  0.25804  Biso   1.000  H
  H94      1.0000 0.95123  0.35281  0.22802  Biso   1.000  H
  C125     1.0000 0.95585  0.21147  0.25443  Biso   1.000  C
  H95      1.0000 0.97563  0.07121  0.28352  Biso   1.000  H
  H96      1.0000 0.94392  0.07688  0.20259  Biso   1.000  H
  C126     1.0000 0.83357  0.72299  0.23359  Biso   1.000  C
  C127     1.0000 0.82085  0.88472  0.27594  Biso   1.000  C
  H97      1.0000 0.84992  0.58962  0.21443  Biso   1.000  H
  C128     1.0000 0.90754  0.45230  0.29417  Biso   1.000  C
  O21      1.0000 0.83669  0.69586  0.98881  Biso   1.000  O
  O22      1.0000 0.90367  0.21858  0.23091  Biso   1.000  O
  C129     1.0000 0.78645  0.73764  0.15434  Biso   1.000  C
  C130     1.0000 0.84310  0.97028  0.26060  Biso   1.000  C
  H98      1.0000 0.78311  0.87661  0.23419  Biso   1.000  H
  H99      1.0000 0.82202  0.89922  0.31949  Biso   1.000  H
  H100     1.0000 0.90742  0.46637  0.25171  Biso   1.000  H
  H101     1.0000 0.92781  0.39337  0.31780  Biso   1.000  H
  H102     1.0000 0.87102  0.44369  0.27823  Biso   1.000  H
  C131     1.0000 0.82677  0.76010  0.02663  Biso   1.000  C
  C132     1.0000 0.88548  0.13337  0.24150  Biso   1.000  C
  C133     1.0000 0.79979  0.78408  0.10631  Biso   1.000  C
  H103     1.0000 0.75990  0.77812  0.15320  Biso   1.000  H
  H104     1.0000 0.76980  0.67447  0.13322  Biso   1.000  H
  C134     1.0000 0.82145  0.00373  0.19042  Biso   1.000  C
  C135     1.0000 0.88620  0.01895  0.32014  Biso   1.000  C
  C136     1.0000 0.81568  0.72479  0.07286  Biso   1.000  C
  C137     1.0000 0.82302  0.85866  0.01266  Biso   1.000  C
  C138     1.0000 0.84346  0.08607  0.18261  Biso   1.000  C
  C139     1.0000 0.90761  0.10006  0.31190  Biso   1.000  C
  C140     1.0000 0.79469  0.88249  0.09114  Biso   1.000  C
  C141     1.0000 0.77586  0.95463  0.12171  Biso   1.000  C
  H105     1.0000 0.90132  0.99548  0.36790  Biso   1.000  H
  H106     1.0000 0.81900  0.65781  0.08241  Biso   1.000  H
  O23      1.0000 0.83453  0.88859  0.96584  Biso   1.000  O
  C142     1.0000 0.80705  0.91795  0.04519  Biso   1.000  C
  H107     1.0000 0.82883  0.10968  0.13502  Biso   1.000  H
  O24      1.0000 0.94892  0.15297  0.36757  Biso   1.000  O
  H108     1.0000 0.75339  0.92125  0.13278  Biso   1.000  H
  H109     1.0000 0.75382  0.00402  0.08421  Biso   1.000  H
  C143     1.0000 0.83736  0.98966  0.95912  Biso   1.000  C
  H110     1.0000 0.80441  0.98507  0.03602  Biso   1.000  H
  C144     1.0000 0.97247  0.11959  0.43956  Biso   1.000  C
  H111     1.0000 0.84866  0.00280  0.92774  Biso   1.000  H
  H112     1.0000 0.80237  0.01830  0.93756  Biso   1.000  H
  H113     1.0000 0.86300  0.01759  0.00748  Biso   1.000  H
  H114     1.0000 0.98652  0.05477  0.44480  Biso   1.000  H
  H115     1.0000 0.94574  0.11815  0.44922  Biso   1.000  H
  H116     1.0000 0.00143  0.16280  0.47443  Biso   1.000  H
  C145     1.0000 0.18435  0.72479  0.42717  Biso   1.000  C
  C146     1.0000 0.20024  0.78408  0.39371  Biso   1.000  C
  H117     1.0000 0.18103  0.65781  0.41762  Biso   1.000  H
  C147     1.0000 0.17326  0.76010  0.47339  Biso   1.000  C
  C148     1.0000 0.21358  0.73764  0.34569  Biso   1.000  C
  C149     1.0000 0.20534  0.88249  0.40889  Biso   1.000  C
  O25      1.0000 0.16340  0.69586  0.51127  Biso   1.000  O
  C150     1.0000 0.17701  0.85866  0.48737  Biso   1.000  C
  C151     1.0000 0.16643  0.72299  0.26639  Biso   1.000  C
  H118     1.0000 0.24013  0.77812  0.34683  Biso   1.000  H
  H119     1.0000 0.23023  0.67447  0.36681  Biso   1.000  H
  C152     1.0000 0.19298  0.91795  0.45484  Biso   1.000  C
  C153     1.0000 0.22417  0.95463  0.37832  Biso   1.000  C
  C154     1.0000 0.11251  0.69327  0.49375  Biso   1.000  C
  O26      1.0000 0.16556  0.88859  0.53425  Biso   1.000  O
  C155     1.0000 0.13904  0.63563  0.24827  Biso   1.000  C
  C156     1.0000 0.15060  0.79032  0.21143  Biso   1.000  C
  H120     1.0000 0.19562  0.98507  0.46401  Biso   1.000  H
  C157     1.0000 0.17858  0.00373  0.30961  Biso   1.000  C
  H121     1.0000 0.24664  0.92125  0.36724  Biso   1.000  H
  H122     1.0000 0.24624  0.00402  0.41582  Biso   1.000  H
  C158     1.0000 0.10454  0.62989  0.53343  Biso   1.000  C
  C159     1.0000 0.07098  0.74776  0.43868  Biso   1.000  C
  C160     1.0000 0.16273  0.98966  0.54096  Biso   1.000  C
  C161     1.0000 0.09621  0.61460  0.17737  Biso   1.000  C
  H123     1.0000 0.15011  0.58962  0.28560  Biso   1.000  H
  C162     1.0000 0.10691  0.76850  0.14010  Biso   1.000  C
  C163     1.0000 0.17918  0.88472  0.22409  Biso   1.000  C
  C164     1.0000 0.15693  0.97028  0.23943  Biso   1.000  C
  C165     1.0000 0.15657  0.08607  0.31742  Biso   1.000  C
  C166     1.0000 0.05440  0.61963  0.51722  Biso   1.000  C
  H124     1.0000 0.13345  0.59350  0.57185  Biso   1.000  H
  C167     1.0000 0.02097  0.73792  0.42286  Biso   1.000  C
  H125     1.0000 0.07663  0.79169  0.41194  Biso   1.000  H
  H126     1.0000 0.13703  0.01759  0.49255  Biso   1.000  H
  H127     1.0000 0.15143  0.00280  0.57234  Biso   1.000  H
  H128     1.0000 0.19775  0.01830  0.56252  Biso   1.000  H
  O27      1.0000 0.06849  0.53026  0.15527  Biso   1.000  O
  C168     1.0000 0.07988  0.68322  0.12334  Biso   1.000  C
  H129     1.0000 0.09572  0.81387  0.10233  Biso   1.000  H
  H130     1.0000 0.21690  0.87661  0.26579  Biso   1.000  H
  H131     1.0000 0.17799  0.89922  0.18048  Biso   1.000  H
  C169     1.0000 0.11383  0.01895  0.17988  Biso   1.000  C
  H132     1.0000 0.17123  0.10968  0.36501  Biso   1.000  H
  C170     1.0000 0.11455  0.13337  0.25853  Biso   1.000  C
  C171     1.0000 0.01272  0.67346  0.46150  Biso   1.000  C
  H133     1.0000 0.04872  0.57591  0.54413  Biso   1.000  H
  H134     1.0000 0.99231  0.77561  0.38531  Biso   1.000  H
  C172     1.0000 0.09249  0.45230  0.20586  Biso   1.000  C
  O28      1.0000 0.03688  0.66341  0.05163  Biso   1.000  O
  H135     1.0000 0.09871  0.99548  0.13213  Biso   1.000  H
  C173     1.0000 0.09242  0.10006  0.18812  Biso   1.000  C
  O29      1.0000 0.09636  0.21858  0.26912  Biso   1.000  O
  O30      1.0000 0.96315  0.66341  0.44840  Biso   1.000  O
  H136     1.0000 0.09261  0.46637  0.24832  Biso   1.000  H
  H137     1.0000 0.07223  0.39337  0.18223  Biso   1.000  H
  H138     1.0000 0.12901  0.44369  0.22180  Biso   1.000  H
  C174     1.0000 0.98729  0.67346  0.03848  Biso   1.000  C
  O31      1.0000 0.05114  0.15297  0.13246  Biso   1.000  O
  C175     1.0000 0.05150  0.21822  0.27097  Biso   1.000  C
  C176     1.0000 0.04418  0.21147  0.24559  Biso   1.000  C
  C177     1.0000 0.92016  0.68322  0.37669  Biso   1.000  C
  C178     1.0000 0.94568  0.61963  0.98286  Biso   1.000  C
  C179     1.0000 0.97906  0.73792  0.07717  Biso   1.000  C
  C180     1.0000 0.02754  0.11959  0.06042  Biso   1.000  C
  C181     1.0000 0.02033  0.30012  0.25040  Biso   1.000  C
  C182     1.0000 0.02757  0.29675  0.25793  Biso   1.000  C
  C183     1.0000 0.01299  0.12950  0.22496  Biso   1.000  C
  C184     1.0000 0.03482  0.13287  0.28331  Biso   1.000  C
  C185     1.0000 0.89313  0.76850  0.35993  Biso   1.000  C
  C186     1.0000 0.90380  0.61460  0.32260  Biso   1.000  C
  H139     1.0000 0.95136  0.57591  0.95596  Biso   1.000  H
  C187     1.0000 0.89554  0.62989  0.96665  Biso   1.000  C
  H140     1.0000 0.00772  0.77561  0.11472  Biso   1.000  H
  C188     1.0000 0.92905  0.74776  0.06134  Biso   1.000  C
  H141     1.0000 0.99860  0.16280  0.02560  Biso   1.000  H
  H142     1.0000 0.01349  0.05477  0.05518  Biso   1.000  H
  H143     1.0000 0.05429  0.11815  0.05081  Biso   1.000  H
  C189     1.0000 0.97970  0.30012  0.24963  Biso   1.000  C
  C190     1.0000 0.97250  0.29675  0.24210  Biso   1.000  C
  H144     1.0000 0.03170  0.35848  0.24199  Biso   1.000  H
  H145     1.0000 0.04880  0.35281  0.27201  Biso   1.000  H
  C191     1.0000 0.98704  0.12950  0.27506  Biso   1.000  C
  C192     1.0000 0.96521  0.13287  0.21672  Biso   1.000  C
  H146     1.0000 0.02440  0.07121  0.21650  Biso   1.000  H
  H147     1.0000 0.05615  0.07688  0.29744  Biso   1.000  H
  C193     1.0000 0.84943  0.79032  0.28860  Biso   1.000  C
  H148     1.0000 0.90431  0.81387  0.39770  Biso   1.000  H
  C194     1.0000 0.86099  0.63563  0.25176  Biso   1.000  C
  O32      1.0000 0.93154  0.53026  0.34476  Biso   1.000  O
  H149     1.0000 0.86663  0.59350  0.92823  Biso   1.000  H
  C195     1.0000 0.88752  0.69327  0.00628  Biso   1.000  C
  H150     1.0000 0.92340  0.79169  0.08809  Biso   1.000  H
  C196     1.0000 0.94853  0.21822  0.22906  Biso   1.000  C
  H151     1.0000 0.96833  0.35848  0.25804  Biso   1.000  H
  H152     1.0000 0.95123  0.35281  0.22802  Biso   1.000  H
  C197     1.0000 0.95585  0.21147  0.25443  Biso   1.000  C
  H153     1.0000 0.97563  0.07121  0.28352  Biso   1.000  H
  H154     1.0000 0.94392  0.07688  0.20259  Biso   1.000  H
  C198     1.0000 0.83357  0.72299  0.23359  Biso   1.000  C
  C199     1.0000 0.82085  0.88472  0.27594  Biso   1.000  C
  H155     1.0000 0.84992  0.58962  0.21443  Biso   1.000  H
  C200     1.0000 0.90754  0.45230  0.29417  Biso   1.000  C
  O33      1.0000 0.83669  0.69586  0.98881  Biso   1.000  O
  O34      1.0000 0.90367  0.21858  0.23091  Biso   1.000  O
  C201     1.0000 0.78645  0.73764  0.15434  Biso   1.000  C
  C202     1.0000 0.84310  0.97028  0.26060  Biso   1.000  C
  H156     1.0000 0.78311  0.87661  0.23419  Biso   1.000  H
  H157     1.0000 0.82202  0.89922  0.31949  Biso   1.000  H
  H158     1.0000 0.90742  0.46637  0.25171  Biso   1.000  H
  H159     1.0000 0.92781  0.39337  0.31780  Biso   1.000  H
  H160     1.0000 0.87102  0.44369  0.27823  Biso   1.000  H
  C203     1.0000 0.82677  0.76010  0.02663  Biso   1.000  C
  C204     1.0000 0.88548  0.13337  0.24150  Biso   1.000  C
  C205     1.0000 0.79979  0.78408  0.10631  Biso   1.000  C
  H161     1.0000 0.75990  0.77812  0.15320  Biso   1.000  H
  H162     1.0000 0.76980  0.67447  0.13322  Biso   1.000  H
  C206     1.0000 0.82145  0.00373  0.19042  Biso   1.000  C
  C207     1.0000 0.88620  0.01895  0.32014  Biso   1.000  C
  C208     1.0000 0.81568  0.72479  0.07286  Biso   1.000  C
  C209     1.0000 0.82302  0.85866  0.01266  Biso   1.000  C
  C210     1.0000 0.84346  0.08607  0.18261  Biso   1.000  C
  C211     1.0000 0.90761  0.10006  0.31190  Biso   1.000  C
  C212     1.0000 0.79469  0.88249  0.09114  Biso   1.000  C
  C213     1.0000 0.77586  0.95463  0.12171  Biso   1.000  C
  H163     1.0000 0.90132  0.99548  0.36790  Biso   1.000  H
  H164     1.0000 0.81900  0.65781  0.08241  Biso   1.000  H
  O35      1.0000 0.83453  0.88859  0.96584  Biso   1.000  O
  C214     1.0000 0.80705  0.91795  0.04519  Biso   1.000  C
  H165     1.0000 0.82883  0.10968  0.13502  Biso   1.000  H
  O36      1.0000 0.94892  0.15297  0.36757  Biso   1.000  O
  H166     1.0000 0.75339  0.92125  0.13278  Biso   1.000  H
  H167     1.0000 0.75382  0.00402  0.08421  Biso   1.000  H
  C215     1.0000 0.83736  0.98966  0.95912  Biso   1.000  C
  H168     1.0000 0.80441  0.98507  0.03602  Biso   1.000  H
  C216     1.0000 0.97247  0.11959  0.43956  Biso   1.000  C
  H169     1.0000 0.84866  0.00280  0.92774  Biso   1.000  H
  H170     1.0000 0.80237  0.01830  0.93756  Biso   1.000  H
  H171     1.0000 0.86300  0.01759  0.00748  Biso   1.000  H
  H172     1.0000 0.98652  0.05477  0.44480  Biso   1.000  H
  H173     1.0000 0.94574  0.11815  0.44922  Biso   1.000  H
  H174     1.0000 0.00143  0.16280  0.47443  Biso   1.000  H
  C217     1.0000 0.32087  0.38468  0.27594  Biso   1.000  C
  C218     1.0000 0.34945  0.29029  0.28860  Biso   1.000  C
  C219     1.0000 0.34312  0.47032  0.26060  Biso   1.000  C
  H175     1.0000 0.28309  0.37657  0.23419  Biso   1.000  H
  H176     1.0000 0.32200  0.39918  0.31949  Biso   1.000  H
  C220     1.0000 0.39311  0.26854  0.35993  Biso   1.000  C
  C221     1.0000 0.33359  0.22303  0.23359  Biso   1.000  C
  C222     1.0000 0.32146  0.50377  0.19042  Biso   1.000  C
  C223     1.0000 0.38622  0.51899  0.32014  Biso   1.000  C
  H177     1.0000 0.40433  0.31390  0.39770  Biso   1.000  H
  C224     1.0000 0.42014  0.18326  0.37669  Biso   1.000  C
  C225     1.0000 0.36100  0.13560  0.25176  Biso   1.000  C
  C226     1.0000 0.28644  0.23767  0.15434  Biso   1.000  C
  C227     1.0000 0.34348  0.58603  0.18261  Biso   1.000  C
  C228     1.0000 0.27585  0.45467  0.12171  Biso   1.000  C
  C229     1.0000 0.40760  0.60003  0.31190  Biso   1.000  C
  H178     1.0000 0.40130  0.49551  0.36790  Biso   1.000  H
  O37      1.0000 0.46316  0.16338  0.44840  Biso   1.000  O
  C230     1.0000 0.40378  0.11464  0.32260  Biso   1.000  C
  H179     1.0000 0.34994  0.08958  0.21443  Biso   1.000  H
  H180     1.0000 0.25991  0.27808  0.15320  Biso   1.000  H
  H181     1.0000 0.26982  0.17450  0.13322  Biso   1.000  H
  C231     1.0000 0.29977  0.28411  0.10631  Biso   1.000  C
  H182     1.0000 0.32881  0.60972  0.13502  Biso   1.000  H
  C232     1.0000 0.38546  0.63334  0.24150  Biso   1.000  C
  C233     1.0000 0.29468  0.38246  0.09114  Biso   1.000  C
  H183     1.0000 0.25341  0.42129  0.13278  Biso   1.000  H
  H184     1.0000 0.25381  0.50398  0.08421  Biso   1.000  H
  O38      1.0000 0.44890  0.65300  0.36757  Biso   1.000  O
  C234     1.0000 0.51274  0.17343  0.46150  Biso   1.000  C
  O39      1.0000 0.43156  0.03029  0.34476  Biso   1.000  O
  C235     1.0000 0.31566  0.22482  0.07286  Biso   1.000  C
  O40      1.0000 0.40365  0.71854  0.23091  Biso   1.000  O
  C236     1.0000 0.30704  0.41799  0.04519  Biso   1.000  C
  C237     1.0000 0.47245  0.61963  0.43956  Biso   1.000  C
  C238     1.0000 0.52099  0.23789  0.42286  Biso   1.000  C
  C239     1.0000 0.55442  0.11966  0.51722  Biso   1.000  C
  C240     1.0000 0.40756  0.95234  0.29417  Biso   1.000  C
  H185     1.0000 0.31902  0.15778  0.08241  Biso   1.000  H
  C241     1.0000 0.32679  0.26007  0.02663  Biso   1.000  C
  C242     1.0000 0.44855  0.71818  0.22906  Biso   1.000  C
  C243     1.0000 0.45584  0.71143  0.25443  Biso   1.000  C
  C244     1.0000 0.32301  0.35862  0.01266  Biso   1.000  C
  H186     1.0000 0.30442  0.48511  0.03602  Biso   1.000  H
  H187     1.0000 0.48653  0.55481  0.44480  Biso   1.000  H
  H188     1.0000 0.50145  0.66277  0.47443  Biso   1.000  H
  H189     1.0000 0.44572  0.61819  0.44922  Biso   1.000  H
  H190     1.0000 0.49232  0.27557  0.38531  Biso   1.000  H
  C245     1.0000 0.57099  0.24779  0.43868  Biso   1.000  C
  H191     1.0000 0.54874  0.07587  0.54413  Biso   1.000  H
  C246     1.0000 0.60453  0.12993  0.53343  Biso   1.000  C
  H192     1.0000 0.40741  0.96641  0.25171  Biso   1.000  H
  H193     1.0000 0.42782  0.89340  0.31780  Biso   1.000  H
  H194     1.0000 0.37104  0.94372  0.27823  Biso   1.000  H
  O41      1.0000 0.33670  0.19589  0.98881  Biso   1.000  O
  C247     1.0000 0.47972  0.80016  0.24963  Biso   1.000  C
  C248     1.0000 0.47248  0.79678  0.24210  Biso   1.000  C
  C249     1.0000 0.48703  0.62946  0.27506  Biso   1.000  C
  C250     1.0000 0.46519  0.63283  0.21672  Biso   1.000  C
  O42      1.0000 0.33451  0.38863  0.96584  Biso   1.000  O
  C251     1.0000 0.61252  0.19331  0.49375  Biso   1.000  C
  H195     1.0000 0.57665  0.29172  0.41194  Biso   1.000  H
  H196     1.0000 0.63344  0.09353  0.57185  Biso   1.000  H
  C252     1.0000 0.38751  0.19331  0.00628  Biso   1.000  C
  C253     1.0000 0.52031  0.80016  0.25040  Biso   1.000  C
  C254     1.0000 0.52755  0.79678  0.25793  Biso   1.000  C
  H197     1.0000 0.46831  0.85852  0.25804  Biso   1.000  H
  H198     1.0000 0.45121  0.85277  0.22802  Biso   1.000  H
  C255     1.0000 0.51300  0.62946  0.22496  Biso   1.000  C
  C256     1.0000 0.53484  0.63283  0.28331  Biso   1.000  C
  H199     1.0000 0.47562  0.57117  0.28352  Biso   1.000  H
  H200     1.0000 0.44390  0.57691  0.20259  Biso   1.000  H
  C257     1.0000 0.33734  0.48970  0.95912  Biso   1.000  C
  O43      1.0000 0.66338  0.19589  0.51127  Biso   1.000  O
  C258     1.0000 0.42904  0.24779  0.06134  Biso   1.000  C
  C259     1.0000 0.39556  0.12993  0.96665  Biso   1.000  C
  C260     1.0000 0.55148  0.71818  0.27097  Biso   1.000  C
  H201     1.0000 0.53172  0.85852  0.24199  Biso   1.000  H
  H202     1.0000 0.54882  0.85277  0.27201  Biso   1.000  H
  C261     1.0000 0.54419  0.71143  0.24559  Biso   1.000  C
  H203     1.0000 0.52441  0.57117  0.21650  Biso   1.000  H
  H204     1.0000 0.55613  0.57691  0.29744  Biso   1.000  H
  H205     1.0000 0.36298  0.51762  0.00748  Biso   1.000  H
  H206     1.0000 0.34864  0.50276  0.92774  Biso   1.000  H
  H207     1.0000 0.30236  0.51827  0.93756  Biso   1.000  H
  C262     1.0000 0.67328  0.26007  0.47339  Biso   1.000  C
  C263     1.0000 0.47904  0.23789  0.07717  Biso   1.000  C
  H208     1.0000 0.42341  0.29172  0.08809  Biso   1.000  H
  C264     1.0000 0.44567  0.11966  0.98286  Biso   1.000  C
  H209     1.0000 0.36665  0.09353  0.92823  Biso   1.000  H
  O44      1.0000 0.59638  0.71854  0.26912  Biso   1.000  O
  C265     1.0000 0.68437  0.22482  0.42717  Biso   1.000  C
  C266     1.0000 0.67702  0.35862  0.48737  Biso   1.000  C
  C267     1.0000 0.48727  0.17343  0.03848  Biso   1.000  C
  H210     1.0000 0.50771  0.27557  0.11472  Biso   1.000  H
  H211     1.0000 0.45135  0.07587  0.95596  Biso   1.000  H
  C268     1.0000 0.61457  0.63334  0.25853  Biso   1.000  C
  C269     1.0000 0.70026  0.28411  0.39371  Biso   1.000  C
  H212     1.0000 0.68101  0.15778  0.41762  Biso   1.000  H
  O45      1.0000 0.66557  0.38863  0.53425  Biso   1.000  O
  C270     1.0000 0.69299  0.41799  0.45484  Biso   1.000  C
  O46      1.0000 0.53687  0.16338  0.05163  Biso   1.000  O
  C271     1.0000 0.65655  0.58603  0.31742  Biso   1.000  C
  C272     1.0000 0.59243  0.60003  0.18812  Biso   1.000  C
  C273     1.0000 0.71359  0.23767  0.34569  Biso   1.000  C
  C274     1.0000 0.70535  0.38246  0.40889  Biso   1.000  C
  C275     1.0000 0.66274  0.48970  0.54096  Biso   1.000  C
  H213     1.0000 0.69561  0.48511  0.46401  Biso   1.000  H
  C276     1.0000 0.57989  0.18326  0.12334  Biso   1.000  C
  C277     1.0000 0.67857  0.50377  0.30961  Biso   1.000  C
  H214     1.0000 0.67122  0.60972  0.36501  Biso   1.000  H
  O47      1.0000 0.55113  0.65300  0.13246  Biso   1.000  O
  C278     1.0000 0.61381  0.51899  0.17988  Biso   1.000  C
  C279     1.0000 0.66645  0.22303  0.26639  Biso   1.000  C
  H215     1.0000 0.74012  0.27808  0.34683  Biso   1.000  H
  H216     1.0000 0.73021  0.17450  0.36681  Biso   1.000  H
  C280     1.0000 0.72419  0.45467  0.37832  Biso   1.000  C
  H217     1.0000 0.63705  0.51762  0.49255  Biso   1.000  H
  H218     1.0000 0.65144  0.50276  0.57234  Biso   1.000  H
  H219     1.0000 0.69773  0.51827  0.56252  Biso   1.000  H
  C281     1.0000 0.60692  0.26854  0.14010  Biso   1.000  C
  C282     1.0000 0.59623  0.11464  0.17737  Biso   1.000  C
  C283     1.0000 0.65694  0.47032  0.23943  Biso   1.000  C
  C284     1.0000 0.52755  0.61963  0.06042  Biso   1.000  C
  H220     1.0000 0.59873  0.49551  0.13213  Biso   1.000  H
  C285     1.0000 0.65058  0.29029  0.21143  Biso   1.000  C
  C286     1.0000 0.63903  0.13560  0.24827  Biso   1.000  C
  H221     1.0000 0.74662  0.42129  0.36724  Biso   1.000  H
  H222     1.0000 0.74622  0.50398  0.41582  Biso   1.000  H
  H223     1.0000 0.59573  0.31390  0.10233  Biso   1.000  H
  O48      1.0000 0.56847  0.03029  0.15527  Biso   1.000  O
  C287     1.0000 0.67919  0.38468  0.22409  Biso   1.000  C
  H224     1.0000 0.51351  0.55481  0.05518  Biso   1.000  H
  H225     1.0000 0.49861  0.66277  0.02560  Biso   1.000  H
  H226     1.0000 0.55431  0.61819  0.05081  Biso   1.000  H
  H227     1.0000 0.65013  0.08958  0.28560  Biso   1.000  H
  C288     1.0000 0.59247  0.95234  0.20586  Biso   1.000  C
  H228     1.0000 0.71692  0.37657  0.26579  Biso   1.000  H
  H229     1.0000 0.67800  0.39918  0.18048  Biso   1.000  H
  H230     1.0000 0.59262  0.96641  0.24832  Biso   1.000  H
  H231     1.0000 0.57221  0.89340  0.18223  Biso   1.000  H
  H232     1.0000 0.62899  0.94372  0.22180  Biso   1.000  H
  C289     1.0000 0.07988  0.31678  0.62332  Biso   1.000  C
  C290     1.0000 0.10697  0.23150  0.64013  Biso   1.000  C
  O49      1.0000 0.03691  0.33659  0.55166  Biso   1.000  O
  C291     1.0000 0.09624  0.38540  0.67740  Biso   1.000  C
  C292     1.0000 0.15063  0.20968  0.71146  Biso   1.000  C
  H233     1.0000 0.09572  0.18613  0.60230  Biso   1.000  H
  C293     1.0000 0.98732  0.32654  0.53850  Biso   1.000  C
  C294     1.0000 0.13907  0.36437  0.74830  Biso   1.000  C
  O50      1.0000 0.06852  0.46974  0.65530  Biso   1.000  O
  C295     1.0000 0.17921  0.11528  0.72412  Biso   1.000  C
  C296     1.0000 0.16646  0.27694  0.76642  Biso   1.000  C
  C297     1.0000 0.97909  0.26208  0.57720  Biso   1.000  C
  C298     1.0000 0.94566  0.38037  0.48284  Biso   1.000  C
  H234     1.0000 0.15014  0.41038  0.78563  Biso   1.000  H
  C299     1.0000 0.09252  0.54770  0.70589  Biso   1.000  C
  C300     1.0000 0.15696  0.02965  0.73945  Biso   1.000  C
  H235     1.0000 0.21693  0.12339  0.76581  Biso   1.000  H
  H236     1.0000 0.17802  0.10078  0.68051  Biso   1.000  H
  C301     1.0000 0.21361  0.26229  0.84571  Biso   1.000  C
  H237     1.0000 0.00776  0.22439  0.61475  Biso   1.000  H
  C302     1.0000 0.92908  0.25217  0.56137  Biso   1.000  C
  H238     1.0000 0.95134  0.42409  0.45593  Biso   1.000  H
  C303     1.0000 0.89555  0.37011  0.46663  Biso   1.000  C
  H239     1.0000 0.09264  0.53356  0.74835  Biso   1.000  H
  H240     1.0000 0.07226  0.60656  0.68226  Biso   1.000  H
  H241     1.0000 0.12904  0.55631  0.72183  Biso   1.000  H
  C304     1.0000 0.17861  0.99627  0.80964  Biso   1.000  C
  C305     1.0000 0.11386  0.98098  0.67991  Biso   1.000  C
  H242     1.0000 0.24016  0.22188  0.84686  Biso   1.000  H
  H243     1.0000 0.23026  0.32546  0.86684  Biso   1.000  H
  C306     1.0000 0.20027  0.21592  0.89374  Biso   1.000  C
  C307     1.0000 0.88755  0.30673  0.50630  Biso   1.000  C
  H244     1.0000 0.92343  0.20831  0.58811  Biso   1.000  H
  H245     1.0000 0.86661  0.40650  0.42821  Biso   1.000  H
  C308     1.0000 0.22420  0.04529  0.87835  Biso   1.000  C
  C309     1.0000 0.15660  0.91393  0.81744  Biso   1.000  C
  H246     1.0000 0.09874  0.00452  0.63216  Biso   1.000  H
  C310     1.0000 0.09245  0.89994  0.68815  Biso   1.000  C
  C311     1.0000 0.18436  0.27521  0.92714  Biso   1.000  C
  C312     1.0000 0.20537  0.11751  0.90891  Biso   1.000  C
  O51      1.0000 0.83666  0.30407  0.48879  Biso   1.000  O
  H247     1.0000 0.24665  0.07867  0.86722  Biso   1.000  H
  H248     1.0000 0.24627  0.99598  0.91585  Biso   1.000  H
  H249     1.0000 0.17126  0.89032  0.86503  Biso   1.000  H
  C313     1.0000 0.11456  0.86663  0.75850  Biso   1.000  C
  O52      1.0000 0.05117  0.84703  0.63248  Biso   1.000  O
  H250     1.0000 0.18106  0.34219  0.91765  Biso   1.000  H
  C314     1.0000 0.17329  0.23990  0.97342  Biso   1.000  C
  C315     1.0000 0.19301  0.08198  0.95487  Biso   1.000  C
  C316     1.0000 0.82680  0.23990  0.52666  Biso   1.000  C
  O53      1.0000 0.09639  0.78142  0.76914  Biso   1.000  O
  C317     1.0000 0.02760  0.88041  0.56044  Biso   1.000  C
  C318     1.0000 0.17707  0.14134  0.98739  Biso   1.000  C
  O54      1.0000 0.16337  0.30407  0.01124  Biso   1.000  O
  H251     1.0000 0.19565  0.01493  0.96404  Biso   1.000  H
  C319     1.0000 0.81571  0.27521  0.57289  Biso   1.000  C
  C320     1.0000 0.82305  0.14134  0.51269  Biso   1.000  C
  C321     1.0000 0.05153  0.78178  0.77100  Biso   1.000  C
  C322     1.0000 0.04421  0.78853  0.74562  Biso   1.000  C
  H252     1.0000 0.99863  0.83720  0.52562  Biso   1.000  H
  H253     1.0000 0.01352  0.94523  0.55520  Biso   1.000  H
  H254     1.0000 0.05432  0.88177  0.55084  Biso   1.000  H
  O55      1.0000 0.16553  0.11141  0.03422  Biso   1.000  O
  C323     1.0000 0.11255  0.30673  0.99373  Biso   1.000  C
  C324     1.0000 0.79982  0.21592  0.60634  Biso   1.000  C
  H255     1.0000 0.81903  0.34219  0.58244  Biso   1.000  H
  O56      1.0000 0.83451  0.11141  0.46581  Biso   1.000  O
  C325     1.0000 0.80709  0.08198  0.54522  Biso   1.000  C
  C326     1.0000 0.02036  0.69981  0.75042  Biso   1.000  C
  C327     1.0000 0.02760  0.70318  0.75796  Biso   1.000  C
  C328     1.0000 0.01305  0.87050  0.72499  Biso   1.000  C
  C329     1.0000 0.03489  0.86713  0.78333  Biso   1.000  C
  C330     1.0000 0.16270  0.01026  0.04093  Biso   1.000  C
  C331     1.0000 0.07101  0.25217  0.93871  Biso   1.000  C
  C332     1.0000 0.10452  0.37011  0.03340  Biso   1.000  C
  C333     1.0000 0.78648  0.26229  0.65437  Biso   1.000  C
  C334     1.0000 0.79472  0.11751  0.59117  Biso   1.000  C
  C335     1.0000 0.83733  0.01026  0.45910  Biso   1.000  C
  H256     1.0000 0.80444  0.01493  0.53605  Biso   1.000  H
  C336     1.0000 0.97976  0.69981  0.74966  Biso   1.000  C
  C337     1.0000 0.97253  0.70318  0.74213  Biso   1.000  C
  H257     1.0000 0.03173  0.64152  0.74202  Biso   1.000  H
  H258     1.0000 0.04883  0.64719  0.77204  Biso   1.000  H
  C338     1.0000 0.98707  0.87050  0.77509  Biso   1.000  C
  C339     1.0000 0.96524  0.86713  0.71675  Biso   1.000  C
  H259     1.0000 0.02446  0.92879  0.71653  Biso   1.000  H
  H260     1.0000 0.05615  0.92312  0.79741  Biso   1.000  H
  H261     1.0000 0.13704  0.98241  0.99252  Biso   1.000  H
  H262     1.0000 0.15143  0.99720  0.07232  Biso   1.000  H
  H263     1.0000 0.19772  0.98170  0.06249  Biso   1.000  H
  C340     1.0000 0.02100  0.26208  0.92289  Biso   1.000  C
  H264     1.0000 0.07666  0.20831  0.91197  Biso   1.000  H
  C341     1.0000 0.05438  0.38037  0.01719  Biso   1.000  C
  H265     1.0000 0.13343  0.40650  0.07182  Biso   1.000  H
  C342     1.0000 0.83360  0.27694  0.73361  Biso   1.000  C
  H266     1.0000 0.75993  0.22188  0.65322  Biso   1.000  H
  H267     1.0000 0.76983  0.32546  0.63325  Biso   1.000  H
  C343     1.0000 0.77589  0.04529  0.62173  Biso   1.000  C
  H268     1.0000 0.86303  0.98241  0.50751  Biso   1.000  H
  H269     1.0000 0.84863  0.99720  0.42771  Biso   1.000  H
  H270     1.0000 0.80235  0.98170  0.43754  Biso   1.000  H
  C344     1.0000 0.94854  0.78178  0.72903  Biso   1.000  C
  H271     1.0000 0.96836  0.64152  0.75806  Biso   1.000  H
  H272     1.0000 0.95126  0.64719  0.72805  Biso   1.000  H
  C345     1.0000 0.95588  0.78853  0.75446  Biso   1.000  C
  H273     1.0000 0.97566  0.92879  0.78355  Biso   1.000  H
  H274     1.0000 0.94395  0.92312  0.70262  Biso   1.000  H
  C346     1.0000 0.01275  0.32654  0.96153  Biso   1.000  C
  H275     1.0000 0.99237  0.22439  0.88534  Biso   1.000  H
  H276     1.0000 0.04870  0.42409  0.04410  Biso   1.000  H
  C347     1.0000 0.84946  0.20968  0.78863  Biso   1.000  C
  C348     1.0000 0.86102  0.36437  0.75179  Biso   1.000  C
  C349     1.0000 0.82148  0.99627  0.69044  Biso   1.000  C
  H277     1.0000 0.75385  0.99598  0.58424  Biso   1.000  H
  H278     1.0000 0.75342  0.07867  0.63281  Biso   1.000  H
  O57      1.0000 0.90370  0.78142  0.73094  Biso   1.000  O
  O58      1.0000 0.96318  0.33659  0.94843  Biso   1.000  O
  C350     1.0000 0.89316  0.23150  0.85996  Biso   1.000  C
  C351     1.0000 0.82088  0.11528  0.77597  Biso   1.000  C
  C352     1.0000 0.90383  0.38540  0.82263  Biso   1.000  C
  H279     1.0000 0.84995  0.41038  0.71446  Biso   1.000  H
  C353     1.0000 0.84349  0.91393  0.68264  Biso   1.000  C
  C354     1.0000 0.84313  0.02965  0.76063  Biso   1.000  C
  C355     1.0000 0.88551  0.86663  0.74153  Biso   1.000  C
  C356     1.0000 0.92019  0.31678  0.87671  Biso   1.000  C
  H280     1.0000 0.90434  0.18613  0.89773  Biso   1.000  H
  H281     1.0000 0.78314  0.12339  0.73422  Biso   1.000  H
  H282     1.0000 0.82205  0.10078  0.81952  Biso   1.000  H
  O59      1.0000 0.93157  0.46974  0.84479  Biso   1.000  O
  H283     1.0000 0.82886  0.89032  0.63505  Biso   1.000  H
  C357     1.0000 0.88623  0.98098  0.82017  Biso   1.000  C
  C358     1.0000 0.90764  0.89994  0.81193  Biso   1.000  C
  C359     1.0000 0.90757  0.54770  0.79419  Biso   1.000  C
  H284     1.0000 0.90135  0.00452  0.86793  Biso   1.000  H
  O60      1.0000 0.94895  0.84703  0.86760  Biso   1.000  O
  H285     1.0000 0.90745  0.53356  0.75173  Biso   1.000  H
  H286     1.0000 0.92784  0.60656  0.81783  Biso   1.000  H
  H287     1.0000 0.87105  0.55631  0.77826  Biso   1.000  H
  C360     1.0000 0.97250  0.88041  0.93959  Biso   1.000  C
  H288     1.0000 0.98655  0.94523  0.94483  Biso   1.000  H
  H289     1.0000 0.94577  0.88177  0.94925  Biso   1.000  H
  H290     1.0000 0.00146  0.83720  0.97446  Biso   1.000  H
  C361     1.0000 0.07988  0.31678  0.62332  Biso   1.000  C
  C362     1.0000 0.10697  0.23150  0.64013  Biso   1.000  C
  O61      1.0000 0.03691  0.33659  0.55166  Biso   1.000  O
  C363     1.0000 0.09624  0.38540  0.67740  Biso   1.000  C
  C364     1.0000 0.15063  0.20968  0.71146  Biso   1.000  C
  H291     1.0000 0.09572  0.18613  0.60230  Biso   1.000  H
  C365     1.0000 0.98732  0.32654  0.53850  Biso   1.000  C
  C366     1.0000 0.13907  0.36437  0.74830  Biso   1.000  C
  O62      1.0000 0.06852  0.46974  0.65530  Biso   1.000  O
  C367     1.0000 0.17921  0.11528  0.72412  Biso   1.000  C
  C368     1.0000 0.16646  0.27694  0.76642  Biso   1.000  C
  C369     1.0000 0.97909  0.26208  0.57720  Biso   1.000  C
  C370     1.0000 0.94566  0.38037  0.48284  Biso   1.000  C
  H292     1.0000 0.15014  0.41038  0.78563  Biso   1.000  H
  C371     1.0000 0.09252  0.54770  0.70589  Biso   1.000  C
  C372     1.0000 0.15696  0.02965  0.73945  Biso   1.000  C
  H293     1.0000 0.21693  0.12339  0.76581  Biso   1.000  H
  H294     1.0000 0.17802  0.10078  0.68051  Biso   1.000  H
  C373     1.0000 0.21361  0.26229  0.84571  Biso   1.000  C
  H295     1.0000 0.00776  0.22439  0.61475  Biso   1.000  H
  C374     1.0000 0.92908  0.25217  0.56137  Biso   1.000  C
  H296     1.0000 0.95134  0.42409  0.45593  Biso   1.000  H
  C375     1.0000 0.89555  0.37011  0.46663  Biso   1.000  C
  H297     1.0000 0.09264  0.53356  0.74835  Biso   1.000  H
  H298     1.0000 0.07226  0.60656  0.68226  Biso   1.000  H
  H299     1.0000 0.12904  0.55631  0.72183  Biso   1.000  H
  C376     1.0000 0.17861  0.99627  0.80964  Biso   1.000  C
  C377     1.0000 0.11386  0.98098  0.67991  Biso   1.000  C
  H300     1.0000 0.24016  0.22188  0.84686  Biso   1.000  H
  H301     1.0000 0.23026  0.32546  0.86684  Biso   1.000  H
  C378     1.0000 0.20027  0.21592  0.89374  Biso   1.000  C
  C379     1.0000 0.88755  0.30673  0.50630  Biso   1.000  C
  H302     1.0000 0.92343  0.20831  0.58811  Biso   1.000  H
  H303     1.0000 0.86661  0.40650  0.42821  Biso   1.000  H
  C380     1.0000 0.22420  0.04529  0.87835  Biso   1.000  C
  C381     1.0000 0.15660  0.91393  0.81744  Biso   1.000  C
  H304     1.0000 0.09874  0.00452  0.63216  Biso   1.000  H
  C382     1.0000 0.09245  0.89994  0.68815  Biso   1.000  C
  C383     1.0000 0.18436  0.27521  0.92714  Biso   1.000  C
  C384     1.0000 0.20537  0.11751  0.90891  Biso   1.000  C
  O63      1.0000 0.83666  0.30407  0.48879  Biso   1.000  O
  H305     1.0000 0.24665  0.07867  0.86722  Biso   1.000  H
  H306     1.0000 0.24627  0.99598  0.91585  Biso   1.000  H
  H307     1.0000 0.17126  0.89032  0.86503  Biso   1.000  H
  C385     1.0000 0.11456  0.86663  0.75850  Biso   1.000  C
  O64      1.0000 0.05117  0.84703  0.63248  Biso   1.000  O
  H308     1.0000 0.18106  0.34219  0.91765  Biso   1.000  H
  C386     1.0000 0.17329  0.23990  0.97342  Biso   1.000  C
  C387     1.0000 0.19301  0.08198  0.95487  Biso   1.000  C
  C388     1.0000 0.82680  0.23990  0.52666  Biso   1.000  C
  O65      1.0000 0.09639  0.78142  0.76914  Biso   1.000  O
  C389     1.0000 0.02760  0.88041  0.56044  Biso   1.000  C
  C390     1.0000 0.17707  0.14134  0.98739  Biso   1.000  C
  O66      1.0000 0.16337  0.30407  0.01124  Biso   1.000  O
  H309     1.0000 0.19565  0.01493  0.96404  Biso   1.000  H
  C391     1.0000 0.81571  0.27521  0.57289  Biso   1.000  C
  C392     1.0000 0.82305  0.14134  0.51269  Biso   1.000  C
  C393     1.0000 0.05153  0.78178  0.77100  Biso   1.000  C
  C394     1.0000 0.04421  0.78853  0.74562  Biso   1.000  C
  H310     1.0000 0.99863  0.83720  0.52562  Biso   1.000  H
  H311     1.0000 0.01352  0.94523  0.55520  Biso   1.000  H
  H312     1.0000 0.05432  0.88177  0.55084  Biso   1.000  H
  O67      1.0000 0.16553  0.11141  0.03422  Biso   1.000  O
  C395     1.0000 0.11255  0.30673  0.99373  Biso   1.000  C
  C396     1.0000 0.79982  0.21592  0.60634  Biso   1.000  C
  H313     1.0000 0.81903  0.34219  0.58244  Biso   1.000  H
  O68      1.0000 0.83451  0.11141  0.46581  Biso   1.000  O
  C397     1.0000 0.80709  0.08198  0.54522  Biso   1.000  C
  C398     1.0000 0.02036  0.69981  0.75042  Biso   1.000  C
  C399     1.0000 0.02760  0.70318  0.75796  Biso   1.000  C
  C400     1.0000 0.01305  0.87050  0.72499  Biso   1.000  C
  C401     1.0000 0.03489  0.86713  0.78333  Biso   1.000  C
  C402     1.0000 0.16270  0.01026  0.04093  Biso   1.000  C
  C403     1.0000 0.07101  0.25217  0.93871  Biso   1.000  C
  C404     1.0000 0.10452  0.37011  0.03340  Biso   1.000  C
  C405     1.0000 0.78648  0.26229  0.65437  Biso   1.000  C
  C406     1.0000 0.79472  0.11751  0.59117  Biso   1.000  C
  C407     1.0000 0.83733  0.01026  0.45910  Biso   1.000  C
  H314     1.0000 0.80444  0.01493  0.53605  Biso   1.000  H
  C408     1.0000 0.97976  0.69981  0.74966  Biso   1.000  C
  C409     1.0000 0.97253  0.70318  0.74213  Biso   1.000  C
  H315     1.0000 0.03173  0.64152  0.74202  Biso   1.000  H
  H316     1.0000 0.04883  0.64719  0.77204  Biso   1.000  H
  C410     1.0000 0.98707  0.87050  0.77509  Biso   1.000  C
  C411     1.0000 0.96524  0.86713  0.71675  Biso   1.000  C
  H317     1.0000 0.02446  0.92879  0.71653  Biso   1.000  H
  H318     1.0000 0.05615  0.92312  0.79741  Biso   1.000  H
  H319     1.0000 0.13704  0.98241  0.99252  Biso   1.000  H
  H320     1.0000 0.15143  0.99720  0.07232  Biso   1.000  H
  H321     1.0000 0.19772  0.98170  0.06249  Biso   1.000  H
  C412     1.0000 0.02100  0.26208  0.92289  Biso   1.000  C
  H322     1.0000 0.07666  0.20831  0.91197  Biso   1.000  H
  C413     1.0000 0.05438  0.38037  0.01719  Biso   1.000  C
  H323     1.0000 0.13343  0.40650  0.07182  Biso   1.000  H
  C414     1.0000 0.83360  0.27694  0.73361  Biso   1.000  C
  H324     1.0000 0.75993  0.22188  0.65322  Biso   1.000  H
  H325     1.0000 0.76983  0.32546  0.63325  Biso   1.000  H
  C415     1.0000 0.77589  0.04529  0.62173  Biso   1.000  C
  H326     1.0000 0.86303  0.98241  0.50751  Biso   1.000  H
  H327     1.0000 0.84863  0.99720  0.42771  Biso   1.000  H
  H328     1.0000 0.80235  0.98170  0.43754  Biso   1.000  H
  C416     1.0000 0.94854  0.78178  0.72903  Biso   1.000  C
  H329     1.0000 0.96836  0.64152  0.75806  Biso   1.000  H
  H330     1.0000 0.95126  0.64719  0.72805  Biso   1.000  H
  C417     1.0000 0.95588  0.78853  0.75446  Biso   1.000  C
  H331     1.0000 0.97566  0.92879  0.78355  Biso   1.000  H
  H332     1.0000 0.94395  0.92312  0.70262  Biso   1.000  H
  C418     1.0000 0.01275  0.32654  0.96153  Biso   1.000  C
  H333     1.0000 0.99237  0.22439  0.88534  Biso   1.000  H
  H334     1.0000 0.04870  0.42409  0.04410  Biso   1.000  H
  C419     1.0000 0.84946  0.20968  0.78863  Biso   1.000  C
  C420     1.0000 0.86102  0.36437  0.75179  Biso   1.000  C
  C421     1.0000 0.82148  0.99627  0.69044  Biso   1.000  C
  H335     1.0000 0.75385  0.99598  0.58424  Biso   1.000  H
  H336     1.0000 0.75342  0.07867  0.63281  Biso   1.000  H
  O69      1.0000 0.90370  0.78142  0.73094  Biso   1.000  O
  O70      1.0000 0.96318  0.33659  0.94843  Biso   1.000  O
  C422     1.0000 0.89316  0.23150  0.85996  Biso   1.000  C
  C423     1.0000 0.82088  0.11528  0.77597  Biso   1.000  C
  C424     1.0000 0.90383  0.38540  0.82263  Biso   1.000  C
  H337     1.0000 0.84995  0.41038  0.71446  Biso   1.000  H
  C425     1.0000 0.84349  0.91393  0.68264  Biso   1.000  C
  C426     1.0000 0.84313  0.02965  0.76063  Biso   1.000  C
  C427     1.0000 0.88551  0.86663  0.74153  Biso   1.000  C
  C428     1.0000 0.92019  0.31678  0.87671  Biso   1.000  C
  H338     1.0000 0.90434  0.18613  0.89773  Biso   1.000  H
  H339     1.0000 0.78314  0.12339  0.73422  Biso   1.000  H
  H340     1.0000 0.82205  0.10078  0.81952  Biso   1.000  H
  O71      1.0000 0.93157  0.46974  0.84479  Biso   1.000  O
  H341     1.0000 0.82886  0.89032  0.63505  Biso   1.000  H
  C429     1.0000 0.88623  0.98098  0.82017  Biso   1.000  C
  C430     1.0000 0.90764  0.89994  0.81193  Biso   1.000  C
  C431     1.0000 0.90757  0.54770  0.79419  Biso   1.000  C
  H342     1.0000 0.90135  0.00452  0.86793  Biso   1.000  H
  O72      1.0000 0.94895  0.84703  0.86760  Biso   1.000  O
  H343     1.0000 0.90745  0.53356  0.75173  Biso   1.000  H
  H344     1.0000 0.92784  0.60656  0.81783  Biso   1.000  H
  H345     1.0000 0.87105  0.55631  0.77826  Biso   1.000  H
  C432     1.0000 0.97250  0.88041  0.93959  Biso   1.000  C
  H346     1.0000 0.98655  0.94523  0.94483  Biso   1.000  H
  H347     1.0000 0.94577  0.88177  0.94925  Biso   1.000  H
  H348     1.0000 0.00146  0.83720  0.97446  Biso   1.000  H
  Ne1      1.0000 0.50002  0.38295  0.25002  Biso   1.000  Ne
  He1      1.0000 0.55471  0.43051  0.50188  Biso   1.000  He
  He2      1.0000 0.55844  0.96033  0.36433  Biso   1.000  He
  He3      1.0000 0.46132  0.46873  0.10045  Biso   1.000  He
  Ar1      1.0000 0.49960  0.36674  0.24986  Biso   1.000  Ar
  Ne2      1.0000 0.50004  0.61704  0.75003  Biso   1.000  Ne
  He4      1.0000 0.55661  0.57346  0.01682  Biso   1.000  He
  He5      1.0000 0.54376  0.76744  0.76586  Biso   1.000  He
  He6      1.0000 0.44027  0.58030  0.45548  Biso   1.000  He
  Ar2      1.0000 0.49821  0.63463  0.75030  Biso   1.000  Ar
  Ne3      1.0000 0.00002  0.88294  0.25002  Biso   1.000  Ne
  He7      1.0000 0.05469  0.93053  0.50187  Biso   1.000  He
  He8      1.0000 0.05842  0.46029  0.36432  Biso   1.000  He
  He9      1.0000 0.95870  0.96015  0.11409  Biso   1.000  He
  Ar3      1.0000 0.99798  0.86589  0.24984  Biso   1.000  Ar
  Ne4      1.0000 0.00002  0.88294  0.25002  Biso   1.000  Ne
  He10     1.0000 0.05469  0.93053  0.50187  Biso   1.000  He
  He11     1.0000 0.05842  0.46029  0.36432  Biso   1.000  He
  He12     1.0000 0.95870  0.96015  0.11409  Biso   1.000  He
  Ar4      1.0000 0.99798  0.86589  0.24984  Biso   1.000  Ar
  Ne5      1.0000 0.00004  0.11704  0.75003  Biso   1.000  Ne
  He13     1.0000 0.04394  0.03723  0.88906  Biso   1.000  He
  He14     1.0000 0.00858  0.26850  0.75126  Biso   1.000  He
  He15     1.0000 0.94365  0.07302  0.48488  Biso   1.000  He
  Ar5      1.0000 0.00189  0.13461  0.74979  Biso   1.000  Ar
  Ne6      1.0000 0.00004  0.11704  0.75003  Biso   1.000  Ne
  He16     1.0000 0.04394  0.03723  0.88906  Biso   1.000  He
  He17     1.0000 0.00858  0.26850  0.75126  Biso   1.000  He
  He18     1.0000 0.94365  0.07302  0.48488  Biso   1.000  He
  Ar6      1.0000 0.00189  0.13461  0.74979  Biso   1.000  Ar
