data_image0
_cell_length_a       16.45
_cell_length_b       16.45
_cell_length_c       49.844
_cell_angle_alpha    90
_cell_angle_beta     90
_cell_angle_gamma    120

_symmetry_space_group_name_H-M    "P 1"
_symmetry_int_tables_number       1

loop_
  _symmetry_equiv_pos_as_xyz
  'x, y, z'

loop_
  _atom_site_label
  _atom_site_occupancy
  _atom_site_fract_x
  _atom_site_fract_y
  _atom_site_fract_z
  _atom_site_thermal_displace_type
  _atom_site_B_iso_or_equiv
  _atom_site_type_symbol
  C1       1.0000 0.79264  0.72497  0.51984  Biso   1.000  C
  O1       1.0000 0.85308  0.68671  0.52395  Biso   1.000  O
  H1       1.0000 0.77918  0.74413  0.53708  Biso   1.000  H
  H2       1.0000 0.82340  0.77944  0.50786  Biso   1.000  H
  H3       1.0000 0.73369  0.67724  0.51168  Biso   1.000  H
  C2       1.0000 0.82884  0.60515  0.51063  Biso   1.000  C
  C3       1.0000 0.74889  0.55566  0.49518  Biso   1.000  C
  C4       1.0000 0.88983  0.57005  0.51292  Biso   1.000  C
  C5       1.0000 0.73037  0.47473  0.48102  Biso   1.000  C
  H4       1.0000 0.70524  0.57728  0.49416  Biso   1.000  H
  C6       1.0000 0.87372  0.49199  0.49876  Biso   1.000  C
  O2       1.0000 0.97231  0.61891  0.52793  Biso   1.000  O
  C7       1.0000 0.63864  0.42440  0.46569  Biso   1.000  C
  C8       1.0000 0.79495  0.44328  0.48202  Biso   1.000  C
  H5       1.0000 0.91710  0.46995  0.50026  Biso   1.000  H
  C9       1.0000 0.96263  0.62143  0.55577  Biso   1.000  C
  C10      1.0000 0.55669  0.35167  0.48202  Biso   1.000  C
  H6       1.0000 0.62290  0.47157  0.45897  Biso   1.000  H
  H7       1.0000 0.64740  0.39316  0.44986  Biso   1.000  H
  C11      1.0000 0.78573  0.36136  0.46569  Biso   1.000  C
  C12      1.0000 0.88840  0.55054  0.56942  Biso   1.000  C
  C13      1.0000 0.03330  0.69626  0.56944  Biso   1.000  C
  C14      1.0000 0.50800  0.38172  0.49876  Biso   1.000  C
  C15      1.0000 0.52531  0.25572  0.48102  Biso   1.000  C
  C16      1.0000 0.74429  0.26962  0.48102  Biso   1.000  C
  H8       1.0000 0.84860  0.37709  0.45897  Biso   1.000  H
  H9       1.0000 0.74572  0.35259  0.44986  Biso   1.000  H
  C17      1.0000 0.88387  0.55510  0.59724  Biso   1.000  C
  H10      1.0000 0.84039  0.49866  0.55987  Biso   1.000  H
  C18      1.0000 0.02959  0.69991  0.59722  Biso   1.000  C
  H11      1.0000 0.08418  0.74526  0.55987  Biso   1.000  H
  H12      1.0000 0.53001  0.44714  0.50026  Biso   1.000  H
  C19      1.0000 0.42993  0.31981  0.51292  Biso   1.000  C
  C20      1.0000 0.44428  0.19325  0.49518  Biso   1.000  C
  C21      1.0000 0.57557  0.21423  0.46569  Biso   1.000  C
  C22      1.0000 0.64826  0.20497  0.48202  Biso   1.000  C
  C23      1.0000 0.80670  0.25109  0.49518  Biso   1.000  C
  C24      1.0000 0.95471  0.62929  0.61089  Biso   1.000  C
  H13      1.0000 0.83196  0.50709  0.60679  Biso   1.000  H
  H14      1.0000 0.07860  0.75087  0.60679  Biso   1.000  H
  O3       1.0000 0.38103  0.35343  0.52793  Biso   1.000  O
  C25      1.0000 0.39480  0.22364  0.51063  Biso   1.000  C
  H15      1.0000 0.42271  0.12796  0.49416  Biso   1.000  H
  H16      1.0000 0.52844  0.15134  0.45897  Biso   1.000  H
  H17      1.0000 0.60682  0.25424  0.44986  Biso   1.000  H
  C26      1.0000 0.61828  0.12628  0.49876  Biso   1.000  C
  C27      1.0000 0.77627  0.17113  0.51063  Biso   1.000  C
  H18      1.0000 0.87199  0.29475  0.49416  Biso   1.000  H
  O4       1.0000 0.95223  0.63905  0.63873  Biso   1.000  O
  C28      1.0000 0.37857  0.34122  0.55577  Biso   1.000  C
  O5       1.0000 0.31321  0.16636  0.52395  Biso   1.000  O
  H19      1.0000 0.55278  0.08283  0.50026  Biso   1.000  H
  C29      1.0000 0.68017  0.11014  0.51292  Biso   1.000  C
  O6       1.0000 0.83361  0.14685  0.52395  Biso   1.000  O
  C30      1.0000 0.90336  0.55650  0.65374  Biso   1.000  C
  C31      1.0000 0.44941  0.33785  0.56942  Biso   1.000  C
  C32      1.0000 0.30373  0.33693  0.56944  Biso   1.000  C
  C33      1.0000 0.27505  0.06767  0.51984  Biso   1.000  C
  O7       1.0000 0.64653  0.02766  0.52793  Biso   1.000  O
  C34      1.0000 0.93231  0.20735  0.51984  Biso   1.000  C
  C35      1.0000 0.82532  0.54036  0.66792  Biso   1.000  C
  C36      1.0000 0.93845  0.49550  0.65603  Biso   1.000  C
  C37      1.0000 0.44488  0.32879  0.59724  Biso   1.000  C
  H20      1.0000 0.50134  0.34178  0.55987  Biso   1.000  H
  C38      1.0000 0.30011  0.32970  0.59722  Biso   1.000  C
  H21      1.0000 0.25471  0.33897  0.55987  Biso   1.000  H
  H22      1.0000 0.25585  0.03510  0.53708  Biso   1.000  H
  H23      1.0000 0.22051  0.04394  0.50786  Biso   1.000  H
  H24      1.0000 0.32269  0.05644  0.51168  Biso   1.000  H
  C39      1.0000 0.65873  0.03734  0.55577  Biso   1.000  C
  H25      1.0000 0.96491  0.22076  0.53708  Biso   1.000  H
  H26      1.0000 0.95599  0.17654  0.50786  Biso   1.000  H
  H27      1.0000 0.94352  0.26625  0.51168  Biso   1.000  H
  C40      1.0000 0.77661  0.46167  0.68466  Biso   1.000  C
  H28      1.0000 0.80327  0.58381  0.66640  Biso   1.000  H
  C41      1.0000 0.88897  0.41562  0.67148  Biso   1.000  C
  O8       1.0000 0.02014  0.51979  0.64271  Biso   1.000  O
  C42      1.0000 0.37067  0.32542  0.61089  Biso   1.000  C
  H29      1.0000 0.49289  0.32486  0.60679  Biso   1.000  H
  H30      1.0000 0.24906  0.32767  0.60679  Biso   1.000  H
  C43      1.0000 0.66209  0.11154  0.56942  Biso   1.000  C
  C44      1.0000 0.66303  0.96680  0.56944  Biso   1.000  C
  C45      1.0000 0.69465  0.45240  0.70097  Biso   1.000  C
  C46      1.0000 0.80803  0.39709  0.68564  Biso   1.000  C
  H31      1.0000 0.91057  0.37189  0.67250  Biso   1.000  H
  C47      1.0000 0.05827  0.45928  0.64682  Biso   1.000  C
  O9       1.0000 0.36092  0.31321  0.63873  Biso   1.000  O
  C48      1.0000 0.67118  0.11610  0.59724  Biso   1.000  C
  H32      1.0000 0.65820  0.15955  0.55987  Biso   1.000  H
  C49      1.0000 0.67030  0.97038  0.59722  Biso   1.000  C
  H33      1.0000 0.66098  0.91577  0.55987  Biso   1.000  H
  C50      1.0000 0.60294  0.41099  0.68564  Biso   1.000  C
  H34      1.0000 0.71042  0.51530  0.70771  Biso   1.000  H
  H35      1.0000 0.68589  0.41239  0.71680  Biso   1.000  H
  C51      1.0000 0.75768  0.30528  0.70097  Biso   1.000  C
  H36      1.0000 0.07753  0.44588  0.62960  Biso   1.000  H
  H37      1.0000 0.11277  0.49010  0.65880  Biso   1.000  H
  H38      1.0000 0.01059  0.40039  0.65500  Biso   1.000  H
  C52      1.0000 0.44345  0.34683  0.65374  Biso   1.000  C
  C53      1.0000 0.67452  0.04521  0.61089  Biso   1.000  C
  H39      1.0000 0.67505  0.16798  0.60679  Biso   1.000  H
  H40      1.0000 0.67224  0.92138  0.60679  Biso   1.000  H
  C54      1.0000 0.53833  0.31496  0.68466  Biso   1.000  C
  C55      1.0000 0.58436  0.47339  0.67148  Biso   1.000  C
  C56      1.0000 0.68499  0.22336  0.68466  Biso   1.000  C
  H41      1.0000 0.80487  0.28962  0.70771  Biso   1.000  H
  H42      1.0000 0.72648  0.31412  0.71680  Biso   1.000  H
  C57      1.0000 0.45960  0.28492  0.66792  Biso   1.000  C
  C58      1.0000 0.50448  0.44300  0.65603  Biso   1.000  C
  O10      1.0000 0.68672  0.04773  0.63873  Biso   1.000  O
  C59      1.0000 0.54756  0.24224  0.70097  Biso   1.000  C
  H43      1.0000 0.62806  0.53867  0.67250  Biso   1.000  H
  C60      1.0000 0.58900  0.19198  0.68564  Biso   1.000  C
  C61      1.0000 0.71504  0.17464  0.66792  Biso   1.000  C
  H44      1.0000 0.41619  0.21950  0.66640  Biso   1.000  H
  O11      1.0000 0.48017  0.50028  0.64271  Biso   1.000  O
  C62      1.0000 0.65310  0.09659  0.65374  Biso   1.000  C
  H45      1.0000 0.48465  0.19507  0.70771  Biso   1.000  H
  H46      1.0000 0.58756  0.27348  0.71680  Biso   1.000  H
  C63      1.0000 0.52655  0.11098  0.67148  Biso   1.000  C
  H47      1.0000 0.78047  0.19669  0.66640  Biso   1.000  H
  C64      1.0000 0.54070  0.59897  0.64682  Biso   1.000  C
  C65      1.0000 0.55701  0.06149  0.65603  Biso   1.000  C
  H48      1.0000 0.46131  0.08943  0.67250  Biso   1.000  H
  H49      1.0000 0.55410  0.63161  0.62960  Biso   1.000  H
  H50      1.0000 0.50989  0.62270  0.65880  Biso   1.000  H
  H51      1.0000 0.59957  0.61020  0.65500  Biso   1.000  H
  O12      1.0000 0.49969  0.97992  0.64271  Biso   1.000  O
  C66      1.0000 0.40099  0.94167  0.64682  Biso   1.000  C
  H52      1.0000 0.36837  0.92251  0.62960  Biso   1.000  H
  H53      1.0000 0.37728  0.88720  0.65880  Biso   1.000  H
  H54      1.0000 0.38978  0.98940  0.65500  Biso   1.000  H
  O13      1.0000 0.68672  0.83363  0.47605  Biso   1.000  O
  C67      1.0000 0.60516  0.77628  0.48937  Biso   1.000  C
  C68      1.0000 0.72495  0.93232  0.48016  Biso   1.000  C
  C69      1.0000 0.57006  0.68019  0.48708  Biso   1.000  C
  C70      1.0000 0.55562  0.80668  0.50482  Biso   1.000  C
  H55      1.0000 0.74415  0.96489  0.46292  Biso   1.000  H
  H56      1.0000 0.77945  0.95598  0.49214  Biso   1.000  H
  H57      1.0000 0.67721  0.94349  0.48832  Biso   1.000  H
  O14      1.0000 0.61890  0.64656  0.47207  Biso   1.000  O
  C71      1.0000 0.49199  0.61827  0.50124  Biso   1.000  C
  C72      1.0000 0.47469  0.74427  0.51898  Biso   1.000  C
  H58      1.0000 0.57723  0.87203  0.50584  Biso   1.000  H
  C73      1.0000 0.62142  0.65878  0.44423  Biso   1.000  C
  C74      1.0000 0.44331  0.64832  0.51798  Biso   1.000  C
  H59      1.0000 0.46995  0.55278  0.49974  Biso   1.000  H
  C75      1.0000 0.42443  0.78576  0.53431  Biso   1.000  C
  C76      1.0000 0.55059  0.66215  0.43058  Biso   1.000  C
  C77      1.0000 0.69624  0.66299  0.43056  Biso   1.000  C
  C78      1.0000 0.36135  0.57560  0.53431  Biso   1.000  C
  C79      1.0000 0.35168  0.79502  0.51798  Biso   1.000  C
  H60      1.0000 0.47153  0.84858  0.54103  Biso   1.000  H
  H61      1.0000 0.39314  0.74568  0.55014  Biso   1.000  H
  C80      1.0000 0.55511  0.67120  0.40276  Biso   1.000  C
  H62      1.0000 0.49865  0.65821  0.44013  Biso   1.000  H
  C81      1.0000 0.69989  0.67029  0.40278  Biso   1.000  C
  H63      1.0000 0.74522  0.66102  0.44013  Biso   1.000  H
  C82      1.0000 0.26956  0.52527  0.51898  Biso   1.000  C
  H64      1.0000 0.37704  0.52842  0.54103  Biso   1.000  H
  H65      1.0000 0.35253  0.60683  0.55014  Biso   1.000  H
  C83      1.0000 0.25570  0.73037  0.51898  Biso   1.000  C
  C84      1.0000 0.38172  0.87371  0.50124  Biso   1.000  C
  C85      1.0000 0.62929  0.67450  0.38911  Biso   1.000  C
  H66      1.0000 0.50707  0.67506  0.39321  Biso   1.000  H
  H67      1.0000 0.75084  0.67225  0.39321  Biso   1.000  H
  C86      1.0000 0.20495  0.55664  0.51798  Biso   1.000  C
  C87      1.0000 0.25104  0.44433  0.50482  Biso   1.000  C
  C88      1.0000 0.21421  0.63863  0.53431  Biso   1.000  C
  C89      1.0000 0.19324  0.74891  0.50482  Biso   1.000  C
  C90      1.0000 0.31982  0.88986  0.48708  Biso   1.000  C
  H68      1.0000 0.44712  0.91709  0.49974  Biso   1.000  H
  O15      1.0000 0.63901  0.68678  0.36127  Biso   1.000  O
  C91      1.0000 0.12628  0.50800  0.50124  Biso   1.000  C
  C92      1.0000 0.17116  0.39484  0.48937  Biso   1.000  C
  H69      1.0000 0.29476  0.42271  0.50584  Biso   1.000  H
  H70      1.0000 0.15133  0.62291  0.54103  Biso   1.000  H
  H71      1.0000 0.25428  0.64740  0.55014  Biso   1.000  H
  C93      1.0000 0.22363  0.82879  0.48937  Biso   1.000  C
  H72      1.0000 0.12800  0.70524  0.50584  Biso   1.000  H
  O16      1.0000 0.35340  0.97234  0.47207  Biso   1.000  O
  C94      1.0000 0.55651  0.65309  0.34626  Biso   1.000  C
  C95      1.0000 0.11017  0.42994  0.48708  Biso   1.000  C
  H73      1.0000 0.08289  0.53004  0.49974  Biso   1.000  H
  O17      1.0000 0.14688  0.31321  0.47605  Biso   1.000  O
  O18      1.0000 0.16635  0.85307  0.47605  Biso   1.000  O
  C96      1.0000 0.34117  0.96258  0.44423  Biso   1.000  C
  C97      1.0000 0.54036  0.71500  0.33208  Biso   1.000  C
  C98      1.0000 0.49552  0.55699  0.34397  Biso   1.000  C
  O19      1.0000 0.02763  0.38109  0.47207  Biso   1.000  O
  C99      1.0000 0.20736  0.27502  0.48016  Biso   1.000  C
  C100     1.0000 0.06769  0.79264  0.48016  Biso   1.000  C
  C101     1.0000 0.33787  0.88838  0.43058  Biso   1.000  C
  C102     1.0000 0.33696  0.03319  0.43056  Biso   1.000  C
  C103     1.0000 0.46166  0.68503  0.31534  Biso   1.000  C
  H74      1.0000 0.58380  0.78049  0.33360  Biso   1.000  H
  C104     1.0000 0.41558  0.52660  0.32852  Biso   1.000  C
  O20      1.0000 0.51973  0.49964  0.35729  Biso   1.000  O
  C105     1.0000 0.03736  0.37856  0.44423  Biso   1.000  C
  H75      1.0000 0.22076  0.25586  0.46292  Biso   1.000  H
  H76      1.0000 0.17660  0.22055  0.49214  Biso   1.000  H
  H77      1.0000 0.26630  0.32275  0.48832  Biso   1.000  H
  H78      1.0000 0.03509  0.77923  0.46292  Biso   1.000  H
  H79      1.0000 0.04397  0.82338  0.49214  Biso   1.000  H
  H80      1.0000 0.05648  0.73374  0.48832  Biso   1.000  H
  C106     1.0000 0.32881  0.88389  0.40276  Biso   1.000  C
  H81      1.0000 0.34180  0.84044  0.44013  Biso   1.000  H
  C107     1.0000 0.32967  0.02954  0.40278  Biso   1.000  C
  H82      1.0000 0.33895  0.08423  0.44013  Biso   1.000  H
  C108     1.0000 0.39705  0.58900  0.31436  Biso   1.000  C
  C109     1.0000 0.45243  0.75775  0.29903  Biso   1.000  C
  H83      1.0000 0.37188  0.46132  0.32750  Biso   1.000  H
  C110     1.0000 0.45929  0.40102  0.35318  Biso   1.000  C
  C111     1.0000 0.11156  0.44939  0.43058  Biso   1.000  C
  C112     1.0000 0.96676  0.30373  0.43056  Biso   1.000  C
  C113     1.0000 0.32544  0.95472  0.38911  Biso   1.000  C
  H84      1.0000 0.32485  0.83195  0.39321  Biso   1.000  H
  H85      1.0000 0.32766  0.07854  0.39321  Biso   1.000  H
  C114     1.0000 0.30534  0.54759  0.29903  Biso   1.000  C
  C115     1.0000 0.41093  0.80801  0.31436  Biso   1.000  C
  H86      1.0000 0.51525  0.80485  0.29229  Biso   1.000  H
  H87      1.0000 0.41234  0.72644  0.28320  Biso   1.000  H
  H88      1.0000 0.44589  0.36838  0.37040  Biso   1.000  H
  H89      1.0000 0.49011  0.37730  0.34120  Biso   1.000  H
  H90      1.0000 0.40037  0.38979  0.34500  Biso   1.000  H
  C116     1.0000 0.11612  0.44489  0.40276  Biso   1.000  C
  H91      1.0000 0.15954  0.50133  0.44013  Biso   1.000  H
  C117     1.0000 0.97041  0.30008  0.40278  Biso   1.000  C
  H92      1.0000 0.91576  0.25474  0.44013  Biso   1.000  H
  O21      1.0000 0.31321  0.95226  0.36127  Biso   1.000  O
  C118     1.0000 0.22333  0.53832  0.31534  Biso   1.000  C
  H93      1.0000 0.28958  0.48469  0.29229  Biso   1.000  H
  H94      1.0000 0.31410  0.58760  0.28320  Biso   1.000  H
  C119     1.0000 0.31494  0.77663  0.31534  Biso   1.000  C
  C120     1.0000 0.47335  0.88894  0.32852  Biso   1.000  C
  C121     1.0000 0.04523  0.37070  0.38911  Biso   1.000  C
  H95      1.0000 0.16803  0.49291  0.39321  Biso   1.000  H
  H96      1.0000 0.92140  0.24912  0.39321  Biso   1.000  H
  C122     1.0000 0.34686  0.90333  0.34626  Biso   1.000  C
  C123     1.0000 0.17465  0.45956  0.33208  Biso   1.000  C
  C124     1.0000 0.19197  0.60290  0.31436  Biso   1.000  C
  C125     1.0000 0.24222  0.69465  0.29903  Biso   1.000  C
  C126     1.0000 0.28495  0.82535  0.33208  Biso   1.000  C
  C127     1.0000 0.44299  0.93850  0.34397  Biso   1.000  C
  H97      1.0000 0.53869  0.91056  0.32750  Biso   1.000  H
  O22      1.0000 0.04770  0.36094  0.36127  Biso   1.000  O
  H98      1.0000 0.19666  0.41618  0.33360  Biso   1.000  H
  C128     1.0000 0.09664  0.44349  0.34626  Biso   1.000  C
  C129     1.0000 0.11097  0.58437  0.32852  Biso   1.000  C
  H99      1.0000 0.19506  0.71037  0.29229  Biso   1.000  H
  H100     1.0000 0.27351  0.68587  0.28320  Biso   1.000  H
  H101     1.0000 0.21953  0.80331  0.33360  Biso   1.000  H
  O23      1.0000 0.50031  0.02007  0.35729  Biso   1.000  O
  C130     1.0000 0.06148  0.50449  0.34397  Biso   1.000  C
  H102     1.0000 0.08943  0.62810  0.32750  Biso   1.000  H
  C131     1.0000 0.59897  0.05825  0.35318  Biso   1.000  C
  O24      1.0000 0.97992  0.48020  0.35729  Biso   1.000  O
  H103     1.0000 0.63157  0.07749  0.37040  Biso   1.000  H
  H104     1.0000 0.62272  0.11279  0.34120  Biso   1.000  H
  H105     1.0000 0.61022  0.01059  0.34500  Biso   1.000  H
  C132     1.0000 0.94172  0.54071  0.35318  Biso   1.000  C
  H106     1.0000 0.92253  0.55412  0.37040  Biso   1.000  H
  H107     1.0000 0.88723  0.50989  0.34120  Biso   1.000  H
  H108     1.0000 0.98941  0.59960  0.34500  Biso   1.000  H
  C133     1.0000 0.88088  0.90888  0.36763  Biso   1.000  C
  C134     1.0000 0.92238  0.85862  0.35230  Biso   1.000  C
  C135     1.0000 0.92232  0.85862  0.35230  Biso   1.000  C
  C136     1.0000 0.87165  0.98160  0.35132  Biso   1.000  C
  H109     1.0000 0.81806  0.86178  0.37437  Biso   1.000  H
  H110     1.0000 0.92097  0.94019  0.38348  Biso   1.000  H
  C137     1.0000 0.87159  0.98160  0.35132  Biso   1.000  C
  H111     1.0000 0.81803  0.86171  0.37437  Biso   1.000  H
  H112     1.0000 0.92094  0.94012  0.38348  Biso   1.000  H
  H113     1.0000 0.81800  0.86178  0.37437  Biso   1.000  H
  H114     1.0000 0.92091  0.94019  0.38348  Biso   1.000  H
  H115     1.0000 0.81797  0.86171  0.37437  Biso   1.000  H
  H116     1.0000 0.92088  0.94012  0.38348  Biso   1.000  H
  C138     1.0000 0.85997  0.77769  0.33816  Biso   1.000  C
  C139     1.0000 0.85993  0.77762  0.33816  Biso   1.000  C
  C140     1.0000 0.85991  0.77769  0.33816  Biso   1.000  C
  C141     1.0000 0.85987  0.77762  0.33816  Biso   1.000  C
  C142     1.0000 0.01837  0.89000  0.35132  Biso   1.000  C
  C143     1.0000 0.01831  0.89000  0.35132  Biso   1.000  C
  C144     1.0000 0.88082  0.90888  0.36763  Biso   1.000  C
  C145     1.0000 0.79296  0.95163  0.33458  Biso   1.000  C
  C146     1.0000 0.79290  0.95163  0.33458  Biso   1.000  C
  C147     1.0000 0.93626  0.07763  0.35230  Biso   1.000  C
  C148     1.0000 0.93620  0.07763  0.35230  Biso   1.000  C
  C149     1.0000 0.89036  0.72820  0.32269  Biso   1.000  C
  C150     1.0000 0.89026  0.72813  0.32269  Biso   1.000  C
  C151     1.0000 0.89030  0.72820  0.32269  Biso   1.000  C
  C152     1.0000 0.89033  0.72813  0.32269  Biso   1.000  C
  H117     1.0000 0.79463  0.75607  0.33916  Biso   1.000  H
  C153     1.0000 0.04836  0.84128  0.33458  Biso   1.000  C
  C154     1.0000 0.04842  0.84128  0.33458  Biso   1.000  C
  C155     1.0000 0.09110  0.97198  0.36763  Biso   1.000  C
  H118     1.0000 0.74951  0.88614  0.33306  Biso   1.000  H
  C156     1.0000 0.77680  0.01354  0.32040  Biso   1.000  C
  C157     1.0000 0.77676  0.01347  0.32040  Biso   1.000  C
  C158     1.0000 0.91774  0.14003  0.33816  Biso   1.000  C
  C159     1.0000 0.91767  0.14003  0.33816  Biso   1.000  C
  C160     1.0000 0.02801  0.11911  0.36763  Biso   1.000  C
  C161     1.0000 0.02803  0.11904  0.36763  Biso   1.000  C
  C162     1.0000 0.02807  0.11911  0.36763  Biso   1.000  C
  C163     1.0000 0.02797  0.11904  0.36763  Biso   1.000  C
  O25      1.0000 0.83301  0.64656  0.30939  Biso   1.000  O
  C164     1.0000 0.98645  0.76330  0.32040  Biso   1.000  C
  C165     1.0000 0.98651  0.76330  0.32040  Biso   1.000  C
  H119     1.0000 0.11382  0.86339  0.33306  Biso   1.000  H
  H120     1.0000 0.11385  0.86332  0.33306  Biso   1.000  H
  H121     1.0000 0.11389  0.86339  0.33306  Biso   1.000  H
  H122     1.0000 0.11379  0.86332  0.33306  Biso   1.000  H
  H123     1.0000 0.13825  0.95626  0.37437  Biso   1.000  H
  H124     1.0000 0.05980  0.98076  0.38348  Biso   1.000  H
  H125     1.0000 0.05986  0.98076  0.38348  Biso   1.000  H
  H126     1.0000 0.13819  0.95626  0.37437  Biso   1.000  H
  C166     1.0000 0.14135  0.06373  0.35230  Biso   1.000  C
  C167     1.0000 0.14141  0.06373  0.35230  Biso   1.000  C
  O26      1.0000 0.69433  0.97992  0.30539  Biso   1.000  O
  O27      1.0000 0.69430  0.97985  0.30539  Biso   1.000  O
  O28      1.0000 0.69427  0.97992  0.30539  Biso   1.000  O
  O29      1.0000 0.69424  0.97985  0.30539  Biso   1.000  O
  C168     1.0000 0.83780  0.10964  0.32269  Biso   1.000  C
  H127     1.0000 0.96147  0.20538  0.33916  Biso   1.000  H
  H128     1.0000 0.96138  0.20531  0.33916  Biso   1.000  H
  H129     1.0000 0.96141  0.20538  0.33916  Biso   1.000  H
  C169     1.0000 0.10999  0.12831  0.35132  Biso   1.000  C
  C170     1.0000 0.10993  0.12831  0.35132  Biso   1.000  C
  H130     1.0000 0.04373  0.18194  0.37437  Biso   1.000  H
  H131     1.0000 0.01921  0.07903  0.38348  Biso   1.000  H
  C171     1.0000 0.73434  0.60838  0.31348  Biso   1.000  C
  O30      1.0000 0.02010  0.71437  0.30539  Biso   1.000  O
  O31      1.0000 0.02004  0.71437  0.30539  Biso   1.000  O
  C172     1.0000 0.22235  0.08226  0.33816  Biso   1.000  C
  C173     1.0000 0.22228  0.08226  0.33816  Biso   1.000  C
  C174     1.0000 0.70403  0.99213  0.27757  Biso   1.000  C
  O32      1.0000 0.81358  0.16698  0.30939  Biso   1.000  O
  O33      1.0000 0.81349  0.16691  0.30939  Biso   1.000  O
  O34      1.0000 0.81352  0.16698  0.30939  Biso   1.000  O
  C175     1.0000 0.15867  0.20707  0.33458  Biso   1.000  C
  C176     1.0000 0.15870  0.20700  0.33458  Biso   1.000  C
  C177     1.0000 0.15863  0.20700  0.33458  Biso   1.000  C
  H132     1.0000 0.70174  0.58914  0.29626  Biso   1.000  H
  H133     1.0000 0.71063  0.55391  0.32548  Biso   1.000  H
  H134     1.0000 0.72310  0.65604  0.32166  Biso   1.000  H
  H135     1.0000 0.71066  0.55384  0.32548  Biso   1.000  H
  H136     1.0000 0.72316  0.65604  0.32166  Biso   1.000  H
  H137     1.0000 0.70168  0.58914  0.29626  Biso   1.000  H
  H138     1.0000 0.71060  0.55384  0.32548  Biso   1.000  H
  C178     1.0000 0.00787  0.71191  0.27757  Biso   1.000  C
  C179     1.0000 0.00793  0.71191  0.27757  Biso   1.000  C
  C180     1.0000 0.27183  0.16214  0.32269  Biso   1.000  C
  H139     1.0000 0.24388  0.03853  0.33916  Biso   1.000  H
  H140     1.0000 0.24395  0.03853  0.33916  Biso   1.000  H
  C181     1.0000 0.27177  0.16214  0.32269  Biso   1.000  C
  C182     1.0000 0.77820  0.99543  0.26392  Biso   1.000  C
  C183     1.0000 0.63343  0.99634  0.26390  Biso   1.000  C
  C184     1.0000 0.87405  0.26568  0.31348  Biso   1.000  C
  C185     1.0000 0.87396  0.26561  0.31348  Biso   1.000  C
  C186     1.0000 0.87399  0.26568  0.31348  Biso   1.000  C
  C187     1.0000 0.87402  0.26561  0.31348  Biso   1.000  C
  H141     1.0000 0.13665  0.25045  0.33306  Biso   1.000  H
  C188     1.0000 0.23668  0.22314  0.32040  Biso   1.000  C
  C189     1.0000 0.23674  0.22314  0.32040  Biso   1.000  C
  H142     1.0000 0.13659  0.25045  0.33306  Biso   1.000  H
  C190     1.0000 0.00450  0.78274  0.26392  Biso   1.000  C
  C191     1.0000 0.00365  0.63709  0.26390  Biso   1.000  C
  C192     1.0000 0.00456  0.78274  0.26392  Biso   1.000  C
  C193     1.0000 0.00361  0.63702  0.26390  Biso   1.000  C
  C194     1.0000 0.00367  0.63702  0.26390  Biso   1.000  C
  O35      1.0000 0.35340  0.18643  0.30939  Biso   1.000  O
  H143     1.0000 0.82624  0.99157  0.27347  Biso   1.000  H
  H144     1.0000 0.82618  0.99157  0.27347  Biso   1.000  H
  C195     1.0000 0.78276  0.00455  0.23608  Biso   1.000  C
  C196     1.0000 0.78273  0.00448  0.23608  Biso   1.000  C
  H145     1.0000 0.58248  0.99438  0.27347  Biso   1.000  H
  H146     1.0000 0.58244  0.99431  0.27347  Biso   1.000  H
  H147     1.0000 0.58242  0.99438  0.27347  Biso   1.000  H
  H148     1.0000 0.58238  0.99431  0.27347  Biso   1.000  H
  C197     1.0000 0.63708  0.00364  0.23610  Biso   1.000  C
  C198     1.0000 0.63698  0.00357  0.23610  Biso   1.000  C
  C199     1.0000 0.63704  0.00357  0.23610  Biso   1.000  C
  H149     1.0000 0.88742  0.29825  0.29626  Biso   1.000  H
  H150     1.0000 0.84321  0.28933  0.32548  Biso   1.000  H
  H151     1.0000 0.93295  0.27684  0.32166  Biso   1.000  H
  H152     1.0000 0.88736  0.29825  0.29626  Biso   1.000  H
  H153     1.0000 0.93289  0.27684  0.32166  Biso   1.000  H
  O36      1.0000 0.28561  0.30569  0.30539  Biso   1.000  O
  O37      1.0000 0.28555  0.30569  0.30539  Biso   1.000  O
  C200     1.0000 0.99545  0.77825  0.23608  Biso   1.000  C
  C201     1.0000 0.99547  0.77818  0.23608  Biso   1.000  C
  C202     1.0000 0.99541  0.77818  0.23608  Biso   1.000  C
  H154     1.0000 0.00847  0.83468  0.27347  Biso   1.000  H
  H155     1.0000 0.00843  0.83461  0.27347  Biso   1.000  H
  C203     1.0000 0.99635  0.63344  0.23610  Biso   1.000  C
  C204     1.0000 0.99629  0.63344  0.23610  Biso   1.000  C
  H156     1.0000 0.00566  0.58809  0.27347  Biso   1.000  H
  H157     1.0000 0.00562  0.58802  0.27347  Biso   1.000  H
  H158     1.0000 0.00556  0.58802  0.27347  Biso   1.000  H
  C205     1.0000 0.39159  0.12592  0.31348  Biso   1.000  C
  C206     1.0000 0.71189  0.00785  0.22243  Biso   1.000  C
  H159     1.0000 0.83466  0.00842  0.22653  Biso   1.000  H
  H160     1.0000 0.83460  0.00842  0.22653  Biso   1.000  H
  H161     1.0000 0.58809  0.00561  0.22653  Biso   1.000  H
  H162     1.0000 0.58803  0.00561  0.22653  Biso   1.000  H
  C207     1.0000 0.28809  0.29593  0.27757  Biso   1.000  C
  C208     1.0000 0.28803  0.29593  0.27757  Biso   1.000  C
  C209     1.0000 0.99215  0.70405  0.22243  Biso   1.000  C
  H163     1.0000 0.99155  0.82626  0.22653  Biso   1.000  H
  C210     1.0000 0.99211  0.70398  0.22243  Biso   1.000  C
  H164     1.0000 0.99158  0.82619  0.22653  Biso   1.000  H
  C211     1.0000 0.99209  0.70405  0.22243  Biso   1.000  C
  C212     1.0000 0.99205  0.70398  0.22243  Biso   1.000  C
  H165     1.0000 0.99151  0.82619  0.22653  Biso   1.000  H
  H166     1.0000 0.99436  0.58240  0.22653  Biso   1.000  H
  H167     1.0000 0.99430  0.58240  0.22653  Biso   1.000  H
  H168     1.0000 0.41082  0.11258  0.29626  Biso   1.000  H
  H169     1.0000 0.44609  0.15674  0.32548  Biso   1.000  H
  H170     1.0000 0.34391  0.06703  0.32166  Biso   1.000  H
  H171     1.0000 0.41079  0.11251  0.29626  Biso   1.000  H
  H172     1.0000 0.44615  0.15674  0.32548  Biso   1.000  H
  H173     1.0000 0.34385  0.06703  0.32166  Biso   1.000  H
  O38      1.0000 0.71441  0.02007  0.19461  Biso   1.000  O
  O39      1.0000 0.71435  0.02007  0.19461  Biso   1.000  O
  C213     1.0000 0.21719  0.22174  0.26392  Biso   1.000  C
  C214     1.0000 0.36291  0.36655  0.26390  Biso   1.000  C
  C215     1.0000 0.21725  0.22174  0.26392  Biso   1.000  C
  C216     1.0000 0.36297  0.36655  0.26390  Biso   1.000  C
  O40      1.0000 0.97991  0.69429  0.19461  Biso   1.000  O
  O41      1.0000 0.97985  0.69429  0.19461  Biso   1.000  O
  C217     1.0000 0.76325  0.98644  0.17960  Biso   1.000  C
  C218     1.0000 0.76331  0.98644  0.17960  Biso   1.000  C
  C219     1.0000 0.22175  0.21724  0.23608  Biso   1.000  C
  H174     1.0000 0.16528  0.17372  0.27347  Biso   1.000  H
  C220     1.0000 0.22178  0.21717  0.23608  Biso   1.000  C
  H175     1.0000 0.16534  0.17372  0.27347  Biso   1.000  H
  C221     1.0000 0.22181  0.21724  0.23608  Biso   1.000  C
  C222     1.0000 0.22172  0.21717  0.23608  Biso   1.000  C
  C223     1.0000 0.36656  0.36290  0.23610  Biso   1.000  C
  H176     1.0000 0.41195  0.41758  0.27347  Biso   1.000  H
  H177     1.0000 0.41192  0.41751  0.27347  Biso   1.000  H
  H178     1.0000 0.41189  0.41758  0.27347  Biso   1.000  H
  H179     1.0000 0.41185  0.41751  0.27347  Biso   1.000  H
  C224     1.0000 0.01353  0.77684  0.17960  Biso   1.000  C
  C225     1.0000 0.01349  0.77677  0.17960  Biso   1.000  C
  C226     1.0000 0.01359  0.77684  0.17960  Biso   1.000  C
  C227     1.0000 0.72815  0.89035  0.17731  Biso   1.000  C
  C228     1.0000 0.72818  0.89028  0.17731  Biso   1.000  C
  C229     1.0000 0.72812  0.89028  0.17731  Biso   1.000  C
  C230     1.0000 0.84132  0.04836  0.16542  Biso   1.000  C
  C231     1.0000 0.84126  0.04836  0.16542  Biso   1.000  C
  C232     1.0000 0.29595  0.28807  0.22243  Biso   1.000  C
  H180     1.0000 0.17377  0.16530  0.22653  Biso   1.000  H
  H181     1.0000 0.17371  0.16530  0.22653  Biso   1.000  H
  H182     1.0000 0.41756  0.41189  0.22653  Biso   1.000  H
  H183     1.0000 0.41750  0.41189  0.22653  Biso   1.000  H
  C233     1.0000 0.95160  0.79292  0.16542  Biso   1.000  C
  C234     1.0000 0.95166  0.79292  0.16542  Biso   1.000  C
  C235     1.0000 0.10968  0.83784  0.17731  Biso   1.000  C
  C236     1.0000 0.77770  0.85995  0.16184  Biso   1.000  C
  C237     1.0000 0.77766  0.85988  0.16184  Biso   1.000  C
  C238     1.0000 0.77764  0.85995  0.16184  Biso   1.000  C
  C239     1.0000 0.77760  0.85988  0.16184  Biso   1.000  C
  O42      1.0000 0.64659  0.83300  0.19061  Biso   1.000  O
  O43      1.0000 0.64653  0.83300  0.19061  Biso   1.000  O
  C240     1.0000 0.89004  0.01838  0.14868  Biso   1.000  C
  C241     1.0000 0.88995  0.01831  0.14868  Biso   1.000  C
  C242     1.0000 0.88998  0.01838  0.14868  Biso   1.000  C
  C243     1.0000 0.89001  0.01831  0.14868  Biso   1.000  C
  H184     1.0000 0.86337  0.11385  0.16694  Biso   1.000  H
  H185     1.0000 0.86327  0.11378  0.16694  Biso   1.000  H
  H186     1.0000 0.86333  0.11378  0.16694  Biso   1.000  H
  O44      1.0000 0.30572  0.28561  0.19461  Biso   1.000  O
  O45      1.0000 0.30569  0.28554  0.19461  Biso   1.000  O
  O46      1.0000 0.30563  0.28554  0.19461  Biso   1.000  O
  C244     1.0000 0.98167  0.87168  0.14868  Biso   1.000  C
  H187     1.0000 0.88620  0.74954  0.16694  Biso   1.000  H
  C245     1.0000 0.98164  0.87161  0.14868  Biso   1.000  C
  H188     1.0000 0.88614  0.74954  0.16694  Biso   1.000  H
  C246     1.0000 0.98161  0.87168  0.14868  Biso   1.000  C
  C247     1.0000 0.98158  0.87161  0.14868  Biso   1.000  C
  O47      1.0000 0.16696  0.81355  0.19061  Biso   1.000  O
  C248     1.0000 0.14008  0.91772  0.16184  Biso   1.000  C
  O48      1.0000 0.16692  0.81348  0.19061  Biso   1.000  O
  O49      1.0000 0.16702  0.81355  0.19061  Biso   1.000  O
  O50      1.0000 0.16699  0.81348  0.19061  Biso   1.000  O
  C249     1.0000 0.85863  0.92236  0.14770  Biso   1.000  C
  C250     1.0000 0.85856  0.92236  0.14770  Biso   1.000  C
  H189     1.0000 0.75609  0.79460  0.16084  Biso   1.000  H
  H190     1.0000 0.75602  0.79460  0.16084  Biso   1.000  H
  C251     1.0000 0.60837  0.73431  0.18652  Biso   1.000  C
  C252     1.0000 0.60831  0.73431  0.18652  Biso   1.000  C
  C253     1.0000 0.97200  0.09110  0.13237  Biso   1.000  C
  C254     1.0000 0.97190  0.09103  0.13237  Biso   1.000  C
  C255     1.0000 0.97196  0.09103  0.13237  Biso   1.000  C
  C256     1.0000 0.22315  0.23669  0.17960  Biso   1.000  C
  C257     1.0000 0.22321  0.23669  0.17960  Biso   1.000  C
  C258     1.0000 0.90889  0.88087  0.13237  Biso   1.000  C
  C259     1.0000 0.90895  0.88087  0.13237  Biso   1.000  C
  C260     1.0000 0.07761  0.93626  0.14770  Biso   1.000  C
  C261     1.0000 0.07767  0.93626  0.14770  Biso   1.000  C
  C262     1.0000 0.26566  0.87406  0.18652  Biso   1.000  C
  C263     1.0000 0.26563  0.87399  0.18652  Biso   1.000  C
  C264     1.0000 0.26572  0.87406  0.18652  Biso   1.000  C
  C265     1.0000 0.26569  0.87399  0.18652  Biso   1.000  C
  H191     1.0000 0.20535  0.96145  0.16084  Biso   1.000  H
  H192     1.0000 0.20537  0.96138  0.16084  Biso   1.000  H
  H193     1.0000 0.20541  0.96145  0.16084  Biso   1.000  H
  H194     1.0000 0.20531  0.96138  0.16084  Biso   1.000  H
  H195     1.0000 0.58917  0.70174  0.20374  Biso   1.000  H
  H196     1.0000 0.55387  0.71065  0.17452  Biso   1.000  H
  H197     1.0000 0.65610  0.72314  0.17834  Biso   1.000  H
  H198     1.0000 0.55389  0.71058  0.17452  Biso   1.000  H
  H199     1.0000 0.65604  0.72314  0.17834  Biso   1.000  H
  H200     1.0000 0.55383  0.71058  0.17452  Biso   1.000  H
  C266     1.0000 0.06375  0.14136  0.14770  Biso   1.000  C
  C267     1.0000 0.06369  0.14136  0.14770  Biso   1.000  C
  H201     1.0000 0.95628  0.13820  0.12563  Biso   1.000  H
  H202     1.0000 0.98078  0.05980  0.11652  Biso   1.000  H
  H203     1.0000 0.95621  0.13820  0.12563  Biso   1.000  H
  H204     1.0000 0.98072  0.05980  0.11652  Biso   1.000  H
  C268     1.0000 0.20707  0.15870  0.16542  Biso   1.000  C
  C269     1.0000 0.20704  0.15863  0.16542  Biso   1.000  C
  C270     1.0000 0.20701  0.15870  0.16542  Biso   1.000  C
  C271     1.0000 0.16215  0.27179  0.17731  Biso   1.000  C
  C272     1.0000 0.16209  0.27179  0.17731  Biso   1.000  C
  H205     1.0000 0.86179  0.81805  0.12563  Biso   1.000  H
  H206     1.0000 0.94017  0.92095  0.11652  Biso   1.000  H
  H207     1.0000 0.86175  0.81798  0.12563  Biso   1.000  H
  H208     1.0000 0.94014  0.92088  0.11652  Biso   1.000  H
  H209     1.0000 0.86173  0.81805  0.12563  Biso   1.000  H
  C273     1.0000 0.11911  0.02800  0.13237  Biso   1.000  C
  C274     1.0000 0.11905  0.02800  0.13237  Biso   1.000  C
  H210     1.0000 0.29823  0.88740  0.20374  Biso   1.000  H
  H211     1.0000 0.28934  0.84325  0.17452  Biso   1.000  H
  H212     1.0000 0.27687  0.93296  0.17834  Biso   1.000  H
  H213     1.0000 0.28937  0.84318  0.17452  Biso   1.000  H
  H214     1.0000 0.27684  0.93289  0.17834  Biso   1.000  H
  H215     1.0000 0.29829  0.88740  0.20374  Biso   1.000  H
  H216     1.0000 0.28940  0.84325  0.17452  Biso   1.000  H
  H217     1.0000 0.27690  0.93289  0.17834  Biso   1.000  H
  C275     1.0000 0.12837  0.10999  0.14868  Biso   1.000  C
  C276     1.0000 0.12833  0.10992  0.14868  Biso   1.000  C
  C277     1.0000 0.12831  0.10999  0.14868  Biso   1.000  C
  C278     1.0000 0.12827  0.10992  0.14868  Biso   1.000  C
  C279     1.0000 0.08227  0.22230  0.16184  Biso   1.000  C
  C280     1.0000 0.08221  0.22230  0.16184  Biso   1.000  C
  H218     1.0000 0.25042  0.13659  0.16694  Biso   1.000  H
  H219     1.0000 0.25048  0.13659  0.16694  Biso   1.000  H
  O51      1.0000 0.18644  0.35342  0.19061  Biso   1.000  O
  O52      1.0000 0.18650  0.35342  0.19061  Biso   1.000  O
  H220     1.0000 0.18198  0.04372  0.12563  Biso   1.000  H
  H221     1.0000 0.07904  0.01923  0.11652  Biso   1.000  H
  H222     1.0000 0.07910  0.01923  0.11652  Biso   1.000  H
  H223     1.0000 0.18192  0.04372  0.12563  Biso   1.000  H
  H224     1.0000 0.03855  0.24392  0.16084  Biso   1.000  H
  H225     1.0000 0.03862  0.24392  0.16084  Biso   1.000  H
  C281     1.0000 0.12596  0.39161  0.18652  Biso   1.000  C
  H226     1.0000 0.11259  0.41084  0.20374  Biso   1.000  H
  H227     1.0000 0.15672  0.44608  0.17452  Biso   1.000  H
  H228     1.0000 0.06705  0.34395  0.17834  Biso   1.000  H
  H229     1.0000 0.11256  0.41077  0.20374  Biso   1.000  H
  H230     1.0000 0.15678  0.44608  0.17452  Biso   1.000  H
  H231     1.0000 0.06707  0.34387  0.17834  Biso   1.000  H
  H232     1.0000 0.11250  0.41077  0.20374  Biso   1.000  H
  H233     1.0000 0.06701  0.34387  0.17834  Biso   1.000  H
  C282     1.0000 0.88088  0.90888  0.36763  Biso   1.000  C
  C283     1.0000 0.92238  0.85862  0.35230  Biso   1.000  C
  C284     1.0000 0.92232  0.85862  0.35230  Biso   1.000  C
  C285     1.0000 0.87159  0.98160  0.35132  Biso   1.000  C
  C286     1.0000 0.87165  0.98160  0.35132  Biso   1.000  C
  H234     1.0000 0.81806  0.86178  0.37437  Biso   1.000  H
  H235     1.0000 0.92097  0.94019  0.38348  Biso   1.000  H
  H236     1.0000 0.81803  0.86171  0.37437  Biso   1.000  H
  H237     1.0000 0.92094  0.94012  0.38348  Biso   1.000  H
  H238     1.0000 0.81800  0.86178  0.37437  Biso   1.000  H
  H239     1.0000 0.92091  0.94019  0.38348  Biso   1.000  H
  H240     1.0000 0.81797  0.86171  0.37437  Biso   1.000  H
  H241     1.0000 0.92088  0.94012  0.38348  Biso   1.000  H
  C287     1.0000 0.85997  0.77769  0.33816  Biso   1.000  C
  C288     1.0000 0.85993  0.77762  0.33816  Biso   1.000  C
  C289     1.0000 0.85991  0.77769  0.33816  Biso   1.000  C
  C290     1.0000 0.85987  0.77762  0.33816  Biso   1.000  C
  C291     1.0000 0.01837  0.89000  0.35132  Biso   1.000  C
  C292     1.0000 0.01831  0.89000  0.35132  Biso   1.000  C
  C293     1.0000 0.88082  0.90888  0.36763  Biso   1.000  C
  C294     1.0000 0.79296  0.95163  0.33458  Biso   1.000  C
  C295     1.0000 0.79290  0.95163  0.33458  Biso   1.000  C
  C296     1.0000 0.93626  0.07763  0.35230  Biso   1.000  C
  C297     1.0000 0.93620  0.07763  0.35230  Biso   1.000  C
  C298     1.0000 0.89036  0.72820  0.32269  Biso   1.000  C
  C299     1.0000 0.89026  0.72813  0.32269  Biso   1.000  C
  C300     1.0000 0.89030  0.72820  0.32269  Biso   1.000  C
  C301     1.0000 0.89033  0.72813  0.32269  Biso   1.000  C
  H242     1.0000 0.79463  0.75607  0.33916  Biso   1.000  H
  C302     1.0000 0.04836  0.84128  0.33458  Biso   1.000  C
  C303     1.0000 0.04842  0.84128  0.33458  Biso   1.000  C
  C304     1.0000 0.09110  0.97198  0.36763  Biso   1.000  C
  H243     1.0000 0.74951  0.88614  0.33306  Biso   1.000  H
  C305     1.0000 0.77680  0.01354  0.32040  Biso   1.000  C
  C306     1.0000 0.77676  0.01347  0.32040  Biso   1.000  C
  C307     1.0000 0.91774  0.14003  0.33816  Biso   1.000  C
  C308     1.0000 0.91767  0.14003  0.33816  Biso   1.000  C
  C309     1.0000 0.02801  0.11911  0.36763  Biso   1.000  C
  C310     1.0000 0.02803  0.11904  0.36763  Biso   1.000  C
  C311     1.0000 0.02807  0.11911  0.36763  Biso   1.000  C
  C312     1.0000 0.02797  0.11904  0.36763  Biso   1.000  C
  O53      1.0000 0.83301  0.64656  0.30939  Biso   1.000  O
  C313     1.0000 0.98645  0.76330  0.32040  Biso   1.000  C
  C314     1.0000 0.98651  0.76330  0.32040  Biso   1.000  C
  H244     1.0000 0.11382  0.86339  0.33306  Biso   1.000  H
  H245     1.0000 0.11385  0.86332  0.33306  Biso   1.000  H
  H246     1.0000 0.11389  0.86339  0.33306  Biso   1.000  H
  H247     1.0000 0.11379  0.86332  0.33306  Biso   1.000  H
  H248     1.0000 0.13825  0.95626  0.37437  Biso   1.000  H
  H249     1.0000 0.05980  0.98076  0.38348  Biso   1.000  H
  H250     1.0000 0.05986  0.98076  0.38348  Biso   1.000  H
  H251     1.0000 0.13819  0.95626  0.37437  Biso   1.000  H
  C315     1.0000 0.14135  0.06373  0.35230  Biso   1.000  C
  C316     1.0000 0.14141  0.06373  0.35230  Biso   1.000  C
  O54      1.0000 0.69433  0.97992  0.30539  Biso   1.000  O
  O55      1.0000 0.69430  0.97985  0.30539  Biso   1.000  O
  O56      1.0000 0.69427  0.97992  0.30539  Biso   1.000  O
  O57      1.0000 0.69424  0.97985  0.30539  Biso   1.000  O
  C317     1.0000 0.83780  0.10964  0.32269  Biso   1.000  C
  H252     1.0000 0.96147  0.20538  0.33916  Biso   1.000  H
  H253     1.0000 0.96138  0.20531  0.33916  Biso   1.000  H
  H254     1.0000 0.96141  0.20538  0.33916  Biso   1.000  H
  C318     1.0000 0.10999  0.12831  0.35132  Biso   1.000  C
  C319     1.0000 0.10993  0.12831  0.35132  Biso   1.000  C
  H255     1.0000 0.04373  0.18194  0.37437  Biso   1.000  H
  H256     1.0000 0.01921  0.07903  0.38348  Biso   1.000  H
  C320     1.0000 0.73434  0.60838  0.31348  Biso   1.000  C
  O58      1.0000 0.02010  0.71437  0.30539  Biso   1.000  O
  O59      1.0000 0.02004  0.71437  0.30539  Biso   1.000  O
  C321     1.0000 0.22235  0.08226  0.33816  Biso   1.000  C
  C322     1.0000 0.22228  0.08226  0.33816  Biso   1.000  C
  C323     1.0000 0.70403  0.99213  0.27757  Biso   1.000  C
  O60      1.0000 0.81358  0.16698  0.30939  Biso   1.000  O
  O61      1.0000 0.81349  0.16691  0.30939  Biso   1.000  O
  O62      1.0000 0.81352  0.16698  0.30939  Biso   1.000  O
  C324     1.0000 0.15867  0.20707  0.33458  Biso   1.000  C
  C325     1.0000 0.15870  0.20700  0.33458  Biso   1.000  C
  C326     1.0000 0.15863  0.20700  0.33458  Biso   1.000  C
  H257     1.0000 0.70174  0.58914  0.29626  Biso   1.000  H
  H258     1.0000 0.71063  0.55391  0.32548  Biso   1.000  H
  H259     1.0000 0.72310  0.65604  0.32166  Biso   1.000  H
  H260     1.0000 0.70168  0.58914  0.29626  Biso   1.000  H
  H261     1.0000 0.71066  0.55384  0.32548  Biso   1.000  H
  H262     1.0000 0.72316  0.65604  0.32166  Biso   1.000  H
  H263     1.0000 0.71060  0.55384  0.32548  Biso   1.000  H
  C327     1.0000 0.00787  0.71191  0.27757  Biso   1.000  C
  C328     1.0000 0.00793  0.71191  0.27757  Biso   1.000  C
  C329     1.0000 0.27183  0.16214  0.32269  Biso   1.000  C
  H264     1.0000 0.24388  0.03853  0.33916  Biso   1.000  H
  H265     1.0000 0.24395  0.03853  0.33916  Biso   1.000  H
  C330     1.0000 0.27177  0.16214  0.32269  Biso   1.000  C
  C331     1.0000 0.77820  0.99543  0.26392  Biso   1.000  C
  C332     1.0000 0.63343  0.99634  0.26390  Biso   1.000  C
  C333     1.0000 0.87405  0.26568  0.31348  Biso   1.000  C
  C334     1.0000 0.87396  0.26561  0.31348  Biso   1.000  C
  C335     1.0000 0.87399  0.26568  0.31348  Biso   1.000  C
  C336     1.0000 0.87402  0.26561  0.31348  Biso   1.000  C
  H266     1.0000 0.13665  0.25045  0.33306  Biso   1.000  H
  C337     1.0000 0.23668  0.22314  0.32040  Biso   1.000  C
  C338     1.0000 0.23674  0.22314  0.32040  Biso   1.000  C
  H267     1.0000 0.13659  0.25045  0.33306  Biso   1.000  H
  C339     1.0000 0.00450  0.78274  0.26392  Biso   1.000  C
  C340     1.0000 0.00365  0.63709  0.26390  Biso   1.000  C
  C341     1.0000 0.00456  0.78274  0.26392  Biso   1.000  C
  C342     1.0000 0.00361  0.63702  0.26390  Biso   1.000  C
  C343     1.0000 0.00367  0.63702  0.26390  Biso   1.000  C
  O63      1.0000 0.35340  0.18643  0.30939  Biso   1.000  O
  H268     1.0000 0.82624  0.99157  0.27347  Biso   1.000  H
  H269     1.0000 0.82618  0.99157  0.27347  Biso   1.000  H
  C344     1.0000 0.78276  0.00455  0.23608  Biso   1.000  C
  C345     1.0000 0.78273  0.00448  0.23608  Biso   1.000  C
  H270     1.0000 0.58248  0.99438  0.27347  Biso   1.000  H
  H271     1.0000 0.58244  0.99431  0.27347  Biso   1.000  H
  H272     1.0000 0.58242  0.99438  0.27347  Biso   1.000  H
  H273     1.0000 0.58238  0.99431  0.27347  Biso   1.000  H
  C346     1.0000 0.63708  0.00364  0.23610  Biso   1.000  C
  C347     1.0000 0.63698  0.00357  0.23610  Biso   1.000  C
  C348     1.0000 0.63704  0.00357  0.23610  Biso   1.000  C
  H274     1.0000 0.88742  0.29825  0.29626  Biso   1.000  H
  H275     1.0000 0.84321  0.28933  0.32548  Biso   1.000  H
  H276     1.0000 0.93295  0.27684  0.32166  Biso   1.000  H
  H277     1.0000 0.88736  0.29825  0.29626  Biso   1.000  H
  H278     1.0000 0.93289  0.27684  0.32166  Biso   1.000  H
  O64      1.0000 0.28561  0.30569  0.30539  Biso   1.000  O
  O65      1.0000 0.28555  0.30569  0.30539  Biso   1.000  O
  C349     1.0000 0.99545  0.77825  0.23608  Biso   1.000  C
  C350     1.0000 0.99547  0.77818  0.23608  Biso   1.000  C
  C351     1.0000 0.99541  0.77818  0.23608  Biso   1.000  C
  H279     1.0000 0.00847  0.83468  0.27347  Biso   1.000  H
  H280     1.0000 0.00843  0.83461  0.27347  Biso   1.000  H
  C352     1.0000 0.99635  0.63344  0.23610  Biso   1.000  C
  C353     1.0000 0.99629  0.63344  0.23610  Biso   1.000  C
  H281     1.0000 0.00566  0.58809  0.27347  Biso   1.000  H
  H282     1.0000 0.00562  0.58802  0.27347  Biso   1.000  H
  H283     1.0000 0.00556  0.58802  0.27347  Biso   1.000  H
  C354     1.0000 0.39159  0.12592  0.31348  Biso   1.000  C
  C355     1.0000 0.71189  0.00785  0.22243  Biso   1.000  C
  H284     1.0000 0.83466  0.00842  0.22653  Biso   1.000  H
  H285     1.0000 0.83460  0.00842  0.22653  Biso   1.000  H
  H286     1.0000 0.58809  0.00561  0.22653  Biso   1.000  H
  H287     1.0000 0.58803  0.00561  0.22653  Biso   1.000  H
  C356     1.0000 0.28809  0.29593  0.27757  Biso   1.000  C
  C357     1.0000 0.28803  0.29593  0.27757  Biso   1.000  C
  H288     1.0000 0.99155  0.82626  0.22653  Biso   1.000  H
  C358     1.0000 0.99215  0.70405  0.22243  Biso   1.000  C
  C359     1.0000 0.99211  0.70398  0.22243  Biso   1.000  C
  H289     1.0000 0.99158  0.82619  0.22653  Biso   1.000  H
  C360     1.0000 0.99209  0.70405  0.22243  Biso   1.000  C
  C361     1.0000 0.99205  0.70398  0.22243  Biso   1.000  C
  H290     1.0000 0.99151  0.82619  0.22653  Biso   1.000  H
  H291     1.0000 0.99436  0.58240  0.22653  Biso   1.000  H
  H292     1.0000 0.99430  0.58240  0.22653  Biso   1.000  H
  H293     1.0000 0.41082  0.11258  0.29626  Biso   1.000  H
  H294     1.0000 0.44609  0.15674  0.32548  Biso   1.000  H
  H295     1.0000 0.34391  0.06703  0.32166  Biso   1.000  H
  H296     1.0000 0.41079  0.11251  0.29626  Biso   1.000  H
  H297     1.0000 0.44615  0.15674  0.32548  Biso   1.000  H
  H298     1.0000 0.34385  0.06703  0.32166  Biso   1.000  H
  O66      1.0000 0.71441  0.02007  0.19461  Biso   1.000  O
  O67      1.0000 0.71435  0.02007  0.19461  Biso   1.000  O
  C362     1.0000 0.21719  0.22174  0.26392  Biso   1.000  C
  C363     1.0000 0.36291  0.36655  0.26390  Biso   1.000  C
  C364     1.0000 0.21725  0.22174  0.26392  Biso   1.000  C
  C365     1.0000 0.36297  0.36655  0.26390  Biso   1.000  C
  O68      1.0000 0.97991  0.69429  0.19461  Biso   1.000  O
  O69      1.0000 0.97985  0.69429  0.19461  Biso   1.000  O
  C366     1.0000 0.76325  0.98644  0.17960  Biso   1.000  C
  C367     1.0000 0.76331  0.98644  0.17960  Biso   1.000  C
  C368     1.0000 0.22175  0.21724  0.23608  Biso   1.000  C
  H299     1.0000 0.16528  0.17372  0.27347  Biso   1.000  H
  C369     1.0000 0.22178  0.21717  0.23608  Biso   1.000  C
  H300     1.0000 0.16534  0.17372  0.27347  Biso   1.000  H
  C370     1.0000 0.22181  0.21724  0.23608  Biso   1.000  C
  C371     1.0000 0.22172  0.21717  0.23608  Biso   1.000  C
  C372     1.0000 0.36656  0.36290  0.23610  Biso   1.000  C
  H301     1.0000 0.41195  0.41758  0.27347  Biso   1.000  H
  H302     1.0000 0.41192  0.41751  0.27347  Biso   1.000  H
  H303     1.0000 0.41189  0.41758  0.27347  Biso   1.000  H
  H304     1.0000 0.41185  0.41751  0.27347  Biso   1.000  H
  C373     1.0000 0.01353  0.77684  0.17960  Biso   1.000  C
  C374     1.0000 0.01349  0.77677  0.17960  Biso   1.000  C
  C375     1.0000 0.01359  0.77684  0.17960  Biso   1.000  C
  C376     1.0000 0.72815  0.89035  0.17731  Biso   1.000  C
  C377     1.0000 0.72818  0.89028  0.17731  Biso   1.000  C
  C378     1.0000 0.72812  0.89028  0.17731  Biso   1.000  C
  C379     1.0000 0.84132  0.04836  0.16542  Biso   1.000  C
  C380     1.0000 0.84126  0.04836  0.16542  Biso   1.000  C
  C381     1.0000 0.29595  0.28807  0.22243  Biso   1.000  C
  H305     1.0000 0.17377  0.16530  0.22653  Biso   1.000  H
  H306     1.0000 0.17371  0.16530  0.22653  Biso   1.000  H
  H307     1.0000 0.41756  0.41189  0.22653  Biso   1.000  H
  H308     1.0000 0.41750  0.41189  0.22653  Biso   1.000  H
  C382     1.0000 0.95160  0.79292  0.16542  Biso   1.000  C
  C383     1.0000 0.95166  0.79292  0.16542  Biso   1.000  C
  C384     1.0000 0.10968  0.83784  0.17731  Biso   1.000  C
  C385     1.0000 0.77770  0.85995  0.16184  Biso   1.000  C
  C386     1.0000 0.77766  0.85988  0.16184  Biso   1.000  C
  C387     1.0000 0.77764  0.85995  0.16184  Biso   1.000  C
  C388     1.0000 0.77760  0.85988  0.16184  Biso   1.000  C
  O70      1.0000 0.64659  0.83300  0.19061  Biso   1.000  O
  O71      1.0000 0.64653  0.83300  0.19061  Biso   1.000  O
  C389     1.0000 0.89004  0.01838  0.14868  Biso   1.000  C
  C390     1.0000 0.88995  0.01831  0.14868  Biso   1.000  C
  C391     1.0000 0.88998  0.01838  0.14868  Biso   1.000  C
  C392     1.0000 0.89001  0.01831  0.14868  Biso   1.000  C
  H309     1.0000 0.86337  0.11385  0.16694  Biso   1.000  H
  H310     1.0000 0.86327  0.11378  0.16694  Biso   1.000  H
  H311     1.0000 0.86333  0.11378  0.16694  Biso   1.000  H
  O72      1.0000 0.30572  0.28561  0.19461  Biso   1.000  O
  O73      1.0000 0.30569  0.28554  0.19461  Biso   1.000  O
  O74      1.0000 0.30563  0.28554  0.19461  Biso   1.000  O
  H312     1.0000 0.88614  0.74954  0.16694  Biso   1.000  H
  C393     1.0000 0.98167  0.87168  0.14868  Biso   1.000  C
  H313     1.0000 0.88620  0.74954  0.16694  Biso   1.000  H
  C394     1.0000 0.98164  0.87161  0.14868  Biso   1.000  C
  C395     1.0000 0.98161  0.87168  0.14868  Biso   1.000  C
  C396     1.0000 0.98158  0.87161  0.14868  Biso   1.000  C
  O75      1.0000 0.16696  0.81355  0.19061  Biso   1.000  O
  C397     1.0000 0.14008  0.91772  0.16184  Biso   1.000  C
  O76      1.0000 0.16692  0.81348  0.19061  Biso   1.000  O
  O77      1.0000 0.16702  0.81355  0.19061  Biso   1.000  O
  O78      1.0000 0.16699  0.81348  0.19061  Biso   1.000  O
  C398     1.0000 0.85863  0.92236  0.14770  Biso   1.000  C
  C399     1.0000 0.85856  0.92236  0.14770  Biso   1.000  C
  H314     1.0000 0.75609  0.79460  0.16084  Biso   1.000  H
  H315     1.0000 0.75602  0.79460  0.16084  Biso   1.000  H
  C400     1.0000 0.60837  0.73431  0.18652  Biso   1.000  C
  C401     1.0000 0.60831  0.73431  0.18652  Biso   1.000  C
  C402     1.0000 0.97200  0.09110  0.13237  Biso   1.000  C
  C403     1.0000 0.97190  0.09103  0.13237  Biso   1.000  C
  C404     1.0000 0.97196  0.09103  0.13237  Biso   1.000  C
  C405     1.0000 0.22315  0.23669  0.17960  Biso   1.000  C
  C406     1.0000 0.22321  0.23669  0.17960  Biso   1.000  C
  C407     1.0000 0.90889  0.88087  0.13237  Biso   1.000  C
  C408     1.0000 0.90895  0.88087  0.13237  Biso   1.000  C
  C409     1.0000 0.07761  0.93626  0.14770  Biso   1.000  C
  C410     1.0000 0.07767  0.93626  0.14770  Biso   1.000  C
  C411     1.0000 0.26566  0.87406  0.18652  Biso   1.000  C
  C412     1.0000 0.26563  0.87399  0.18652  Biso   1.000  C
  C413     1.0000 0.26572  0.87406  0.18652  Biso   1.000  C
  C414     1.0000 0.26569  0.87399  0.18652  Biso   1.000  C
  H316     1.0000 0.20535  0.96145  0.16084  Biso   1.000  H
  H317     1.0000 0.20537  0.96138  0.16084  Biso   1.000  H
  H318     1.0000 0.20541  0.96145  0.16084  Biso   1.000  H
  H319     1.0000 0.20531  0.96138  0.16084  Biso   1.000  H
  H320     1.0000 0.58917  0.70174  0.20374  Biso   1.000  H
  H321     1.0000 0.65610  0.72314  0.17834  Biso   1.000  H
  H322     1.0000 0.55387  0.71065  0.17452  Biso   1.000  H
  H323     1.0000 0.65604  0.72314  0.17834  Biso   1.000  H
  H324     1.0000 0.55389  0.71058  0.17452  Biso   1.000  H
  H325     1.0000 0.55383  0.71058  0.17452  Biso   1.000  H
  C415     1.0000 0.06375  0.14136  0.14770  Biso   1.000  C
  C416     1.0000 0.06369  0.14136  0.14770  Biso   1.000  C
  H326     1.0000 0.95628  0.13820  0.12563  Biso   1.000  H
  H327     1.0000 0.98078  0.05980  0.11652  Biso   1.000  H
  H328     1.0000 0.95621  0.13820  0.12563  Biso   1.000  H
  H329     1.0000 0.98072  0.05980  0.11652  Biso   1.000  H
  C417     1.0000 0.20707  0.15870  0.16542  Biso   1.000  C
  C418     1.0000 0.20704  0.15863  0.16542  Biso   1.000  C
  C419     1.0000 0.20701  0.15870  0.16542  Biso   1.000  C
  C420     1.0000 0.16215  0.27179  0.17731  Biso   1.000  C
  C421     1.0000 0.16209  0.27179  0.17731  Biso   1.000  C
  H330     1.0000 0.94017  0.92095  0.11652  Biso   1.000  H
  H331     1.0000 0.86175  0.81798  0.12563  Biso   1.000  H
  H332     1.0000 0.94014  0.92088  0.11652  Biso   1.000  H
  H333     1.0000 0.86179  0.81805  0.12563  Biso   1.000  H
  H334     1.0000 0.86173  0.81805  0.12563  Biso   1.000  H
  C422     1.0000 0.11911  0.02800  0.13237  Biso   1.000  C
  C423     1.0000 0.11905  0.02800  0.13237  Biso   1.000  C
  H335     1.0000 0.29823  0.88740  0.20374  Biso   1.000  H
  H336     1.0000 0.28934  0.84325  0.17452  Biso   1.000  H
  H337     1.0000 0.27687  0.93296  0.17834  Biso   1.000  H
  H338     1.0000 0.28937  0.84318  0.17452  Biso   1.000  H
  H339     1.0000 0.27684  0.93289  0.17834  Biso   1.000  H
  H340     1.0000 0.29829  0.88740  0.20374  Biso   1.000  H
  H341     1.0000 0.28940  0.84325  0.17452  Biso   1.000  H
  H342     1.0000 0.27690  0.93289  0.17834  Biso   1.000  H
  C424     1.0000 0.12837  0.10999  0.14868  Biso   1.000  C
  C425     1.0000 0.12833  0.10992  0.14868  Biso   1.000  C
  C426     1.0000 0.12831  0.10999  0.14868  Biso   1.000  C
  C427     1.0000 0.12827  0.10992  0.14868  Biso   1.000  C
  C428     1.0000 0.08227  0.22230  0.16184  Biso   1.000  C
  C429     1.0000 0.08221  0.22230  0.16184  Biso   1.000  C
  H343     1.0000 0.25042  0.13659  0.16694  Biso   1.000  H
  H344     1.0000 0.25048  0.13659  0.16694  Biso   1.000  H
  O79      1.0000 0.18644  0.35342  0.19061  Biso   1.000  O
  O80      1.0000 0.18650  0.35342  0.19061  Biso   1.000  O
  H345     1.0000 0.18198  0.04372  0.12563  Biso   1.000  H
  H346     1.0000 0.07904  0.01923  0.11652  Biso   1.000  H
  H347     1.0000 0.07910  0.01923  0.11652  Biso   1.000  H
  H348     1.0000 0.18192  0.04372  0.12563  Biso   1.000  H
  H349     1.0000 0.03855  0.24392  0.16084  Biso   1.000  H
  H350     1.0000 0.03862  0.24392  0.16084  Biso   1.000  H
  C430     1.0000 0.12596  0.39161  0.18652  Biso   1.000  C
  H351     1.0000 0.11259  0.41084  0.20374  Biso   1.000  H
  H352     1.0000 0.15672  0.44608  0.17452  Biso   1.000  H
  H353     1.0000 0.06705  0.34395  0.17834  Biso   1.000  H
  H354     1.0000 0.11256  0.41077  0.20374  Biso   1.000  H
  H355     1.0000 0.15678  0.44608  0.17452  Biso   1.000  H
  H356     1.0000 0.06707  0.34387  0.17834  Biso   1.000  H
  H357     1.0000 0.11250  0.41077  0.20374  Biso   1.000  H
  H358     1.0000 0.06701  0.34387  0.17834  Biso   1.000  H
  C431     1.0000 0.88088  0.90888  0.36763  Biso   1.000  C
  C432     1.0000 0.92238  0.85862  0.35230  Biso   1.000  C
  C433     1.0000 0.92232  0.85862  0.35230  Biso   1.000  C
  C434     1.0000 0.87165  0.98160  0.35132  Biso   1.000  C
  H359     1.0000 0.81806  0.86178  0.37437  Biso   1.000  H
  H360     1.0000 0.92097  0.94019  0.38348  Biso   1.000  H
  C435     1.0000 0.87159  0.98160  0.35132  Biso   1.000  C
  H361     1.0000 0.81803  0.86171  0.37437  Biso   1.000  H
  H362     1.0000 0.92094  0.94012  0.38348  Biso   1.000  H
  H363     1.0000 0.81800  0.86178  0.37437  Biso   1.000  H
  H364     1.0000 0.92091  0.94019  0.38348  Biso   1.000  H
  H365     1.0000 0.81797  0.86171  0.37437  Biso   1.000  H
  H366     1.0000 0.92088  0.94012  0.38348  Biso   1.000  H
  C436     1.0000 0.85997  0.77769  0.33816  Biso   1.000  C
  C437     1.0000 0.85993  0.77762  0.33816  Biso   1.000  C
  C438     1.0000 0.85991  0.77769  0.33816  Biso   1.000  C
  C439     1.0000 0.85987  0.77762  0.33816  Biso   1.000  C
  C440     1.0000 0.01837  0.89000  0.35132  Biso   1.000  C
  C441     1.0000 0.01831  0.89000  0.35132  Biso   1.000  C
  C442     1.0000 0.88082  0.90888  0.36763  Biso   1.000  C
  C443     1.0000 0.79296  0.95163  0.33458  Biso   1.000  C
  C444     1.0000 0.79290  0.95163  0.33458  Biso   1.000  C
  C445     1.0000 0.93626  0.07763  0.35230  Biso   1.000  C
  C446     1.0000 0.93620  0.07763  0.35230  Biso   1.000  C
  C447     1.0000 0.89036  0.72820  0.32269  Biso   1.000  C
  C448     1.0000 0.89026  0.72813  0.32269  Biso   1.000  C
  C449     1.0000 0.89030  0.72820  0.32269  Biso   1.000  C
  C450     1.0000 0.89033  0.72813  0.32269  Biso   1.000  C
  H367     1.0000 0.79463  0.75607  0.33916  Biso   1.000  H
  C451     1.0000 0.04836  0.84128  0.33458  Biso   1.000  C
  C452     1.0000 0.04842  0.84128  0.33458  Biso   1.000  C
  C453     1.0000 0.09110  0.97198  0.36763  Biso   1.000  C
  H368     1.0000 0.74951  0.88614  0.33306  Biso   1.000  H
  C454     1.0000 0.77680  0.01354  0.32040  Biso   1.000  C
  C455     1.0000 0.77676  0.01347  0.32040  Biso   1.000  C
  C456     1.0000 0.91774  0.14003  0.33816  Biso   1.000  C
  C457     1.0000 0.91767  0.14003  0.33816  Biso   1.000  C
  C458     1.0000 0.02801  0.11911  0.36763  Biso   1.000  C
  C459     1.0000 0.02803  0.11904  0.36763  Biso   1.000  C
  C460     1.0000 0.02807  0.11911  0.36763  Biso   1.000  C
  C461     1.0000 0.02797  0.11904  0.36763  Biso   1.000  C
  O81      1.0000 0.83301  0.64656  0.30939  Biso   1.000  O
  C462     1.0000 0.98645  0.76330  0.32040  Biso   1.000  C
  C463     1.0000 0.98651  0.76330  0.32040  Biso   1.000  C
  H369     1.0000 0.11382  0.86339  0.33306  Biso   1.000  H
  H370     1.0000 0.11385  0.86332  0.33306  Biso   1.000  H
  H371     1.0000 0.11389  0.86339  0.33306  Biso   1.000  H
  H372     1.0000 0.11379  0.86332  0.33306  Biso   1.000  H
  H373     1.0000 0.13825  0.95626  0.37437  Biso   1.000  H
  H374     1.0000 0.05980  0.98076  0.38348  Biso   1.000  H
  H375     1.0000 0.05986  0.98076  0.38348  Biso   1.000  H
  H376     1.0000 0.13819  0.95626  0.37437  Biso   1.000  H
  C464     1.0000 0.14135  0.06373  0.35230  Biso   1.000  C
  C465     1.0000 0.14141  0.06373  0.35230  Biso   1.000  C
  O82      1.0000 0.69433  0.97992  0.30539  Biso   1.000  O
  O83      1.0000 0.69430  0.97985  0.30539  Biso   1.000  O
  O84      1.0000 0.69427  0.97992  0.30539  Biso   1.000  O
  O85      1.0000 0.69424  0.97985  0.30539  Biso   1.000  O
  C466     1.0000 0.83780  0.10964  0.32269  Biso   1.000  C
  H377     1.0000 0.96147  0.20538  0.33916  Biso   1.000  H
  H378     1.0000 0.96138  0.20531  0.33916  Biso   1.000  H
  H379     1.0000 0.96141  0.20538  0.33916  Biso   1.000  H
  C467     1.0000 0.10999  0.12831  0.35132  Biso   1.000  C
  C468     1.0000 0.10993  0.12831  0.35132  Biso   1.000  C
  H380     1.0000 0.04373  0.18194  0.37437  Biso   1.000  H
  H381     1.0000 0.01921  0.07903  0.38348  Biso   1.000  H
  C469     1.0000 0.73434  0.60838  0.31348  Biso   1.000  C
  O86      1.0000 0.02010  0.71437  0.30539  Biso   1.000  O
  O87      1.0000 0.02004  0.71437  0.30539  Biso   1.000  O
  C470     1.0000 0.22235  0.08226  0.33816  Biso   1.000  C
  C471     1.0000 0.22228  0.08226  0.33816  Biso   1.000  C
  C472     1.0000 0.70403  0.99213  0.27757  Biso   1.000  C
  O88      1.0000 0.81358  0.16698  0.30939  Biso   1.000  O
  O89      1.0000 0.81349  0.16691  0.30939  Biso   1.000  O
  O90      1.0000 0.81352  0.16698  0.30939  Biso   1.000  O
  C473     1.0000 0.15867  0.20707  0.33458  Biso   1.000  C
  C474     1.0000 0.15870  0.20700  0.33458  Biso   1.000  C
  C475     1.0000 0.15863  0.20700  0.33458  Biso   1.000  C
  H382     1.0000 0.72310  0.65604  0.32166  Biso   1.000  H
  H383     1.0000 0.70174  0.58914  0.29626  Biso   1.000  H
  H384     1.0000 0.71063  0.55391  0.32548  Biso   1.000  H
  H385     1.0000 0.71066  0.55384  0.32548  Biso   1.000  H
  H386     1.0000 0.72316  0.65604  0.32166  Biso   1.000  H
  H387     1.0000 0.70168  0.58914  0.29626  Biso   1.000  H
  H388     1.0000 0.71060  0.55384  0.32548  Biso   1.000  H
  C476     1.0000 0.00787  0.71191  0.27757  Biso   1.000  C
  C477     1.0000 0.00793  0.71191  0.27757  Biso   1.000  C
  C478     1.0000 0.27183  0.16214  0.32269  Biso   1.000  C
  H389     1.0000 0.24388  0.03853  0.33916  Biso   1.000  H
  H390     1.0000 0.24395  0.03853  0.33916  Biso   1.000  H
  C479     1.0000 0.27177  0.16214  0.32269  Biso   1.000  C
  C480     1.0000 0.77820  0.99543  0.26392  Biso   1.000  C
  C481     1.0000 0.63343  0.99634  0.26390  Biso   1.000  C
  C482     1.0000 0.87405  0.26568  0.31348  Biso   1.000  C
  C483     1.0000 0.87396  0.26561  0.31348  Biso   1.000  C
  C484     1.0000 0.87399  0.26568  0.31348  Biso   1.000  C
  C485     1.0000 0.87402  0.26561  0.31348  Biso   1.000  C
  H391     1.0000 0.13665  0.25045  0.33306  Biso   1.000  H
  C486     1.0000 0.23668  0.22314  0.32040  Biso   1.000  C
  C487     1.0000 0.23674  0.22314  0.32040  Biso   1.000  C
  H392     1.0000 0.13659  0.25045  0.33306  Biso   1.000  H
  C488     1.0000 0.00450  0.78274  0.26392  Biso   1.000  C
  C489     1.0000 0.00365  0.63709  0.26390  Biso   1.000  C
  C490     1.0000 0.00456  0.78274  0.26392  Biso   1.000  C
  C491     1.0000 0.00361  0.63702  0.26390  Biso   1.000  C
  C492     1.0000 0.00367  0.63702  0.26390  Biso   1.000  C
  O91      1.0000 0.35340  0.18643  0.30939  Biso   1.000  O
  H393     1.0000 0.82624  0.99157  0.27347  Biso   1.000  H
  H394     1.0000 0.82618  0.99157  0.27347  Biso   1.000  H
  C493     1.0000 0.78276  0.00455  0.23608  Biso   1.000  C
  C494     1.0000 0.78273  0.00448  0.23608  Biso   1.000  C
  H395     1.0000 0.58248  0.99438  0.27347  Biso   1.000  H
  H396     1.0000 0.58244  0.99431  0.27347  Biso   1.000  H
  H397     1.0000 0.58242  0.99438  0.27347  Biso   1.000  H
  H398     1.0000 0.58238  0.99431  0.27347  Biso   1.000  H
  C495     1.0000 0.63708  0.00364  0.23610  Biso   1.000  C
  C496     1.0000 0.63698  0.00357  0.23610  Biso   1.000  C
  C497     1.0000 0.63704  0.00357  0.23610  Biso   1.000  C
  H399     1.0000 0.88742  0.29825  0.29626  Biso   1.000  H
  H400     1.0000 0.84321  0.28933  0.32548  Biso   1.000  H
  H401     1.0000 0.93295  0.27684  0.32166  Biso   1.000  H
  H402     1.0000 0.88736  0.29825  0.29626  Biso   1.000  H
  H403     1.0000 0.93289  0.27684  0.32166  Biso   1.000  H
  O92      1.0000 0.28561  0.30569  0.30539  Biso   1.000  O
  O93      1.0000 0.28555  0.30569  0.30539  Biso   1.000  O
  C498     1.0000 0.99545  0.77825  0.23608  Biso   1.000  C
  C499     1.0000 0.99547  0.77818  0.23608  Biso   1.000  C
  C500     1.0000 0.99541  0.77818  0.23608  Biso   1.000  C
  H404     1.0000 0.00847  0.83468  0.27347  Biso   1.000  H
  H405     1.0000 0.00843  0.83461  0.27347  Biso   1.000  H
  C501     1.0000 0.99635  0.63344  0.23610  Biso   1.000  C
  C502     1.0000 0.99629  0.63344  0.23610  Biso   1.000  C
  H406     1.0000 0.00566  0.58809  0.27347  Biso   1.000  H
  H407     1.0000 0.00562  0.58802  0.27347  Biso   1.000  H
  H408     1.0000 0.00556  0.58802  0.27347  Biso   1.000  H
  C503     1.0000 0.39159  0.12592  0.31348  Biso   1.000  C
  C504     1.0000 0.71189  0.00785  0.22243  Biso   1.000  C
  H409     1.0000 0.83466  0.00842  0.22653  Biso   1.000  H
  H410     1.0000 0.83460  0.00842  0.22653  Biso   1.000  H
  H411     1.0000 0.58809  0.00561  0.22653  Biso   1.000  H
  H412     1.0000 0.58803  0.00561  0.22653  Biso   1.000  H
  C505     1.0000 0.28809  0.29593  0.27757  Biso   1.000  C
  C506     1.0000 0.28803  0.29593  0.27757  Biso   1.000  C
  C507     1.0000 0.99215  0.70405  0.22243  Biso   1.000  C
  H413     1.0000 0.99155  0.82626  0.22653  Biso   1.000  H
  C508     1.0000 0.99211  0.70398  0.22243  Biso   1.000  C
  H414     1.0000 0.99158  0.82619  0.22653  Biso   1.000  H
  C509     1.0000 0.99209  0.70405  0.22243  Biso   1.000  C
  C510     1.0000 0.99205  0.70398  0.22243  Biso   1.000  C
  H415     1.0000 0.99151  0.82619  0.22653  Biso   1.000  H
  H416     1.0000 0.99436  0.58240  0.22653  Biso   1.000  H
  H417     1.0000 0.99430  0.58240  0.22653  Biso   1.000  H
  H418     1.0000 0.41082  0.11258  0.29626  Biso   1.000  H
  H419     1.0000 0.44609  0.15674  0.32548  Biso   1.000  H
  H420     1.0000 0.34391  0.06703  0.32166  Biso   1.000  H
  H421     1.0000 0.41079  0.11251  0.29626  Biso   1.000  H
  H422     1.0000 0.44615  0.15674  0.32548  Biso   1.000  H
  H423     1.0000 0.34385  0.06703  0.32166  Biso   1.000  H
  O94      1.0000 0.71441  0.02007  0.19461  Biso   1.000  O
  O95      1.0000 0.71435  0.02007  0.19461  Biso   1.000  O
  C511     1.0000 0.21719  0.22174  0.26392  Biso   1.000  C
  C512     1.0000 0.36291  0.36655  0.26390  Biso   1.000  C
  C513     1.0000 0.21725  0.22174  0.26392  Biso   1.000  C
  C514     1.0000 0.36297  0.36655  0.26390  Biso   1.000  C
  O96      1.0000 0.97991  0.69429  0.19461  Biso   1.000  O
  O97      1.0000 0.97985  0.69429  0.19461  Biso   1.000  O
  C515     1.0000 0.76325  0.98644  0.17960  Biso   1.000  C
  C516     1.0000 0.76331  0.98644  0.17960  Biso   1.000  C
  C517     1.0000 0.22175  0.21724  0.23608  Biso   1.000  C
  H424     1.0000 0.16528  0.17372  0.27347  Biso   1.000  H
  C518     1.0000 0.22178  0.21717  0.23608  Biso   1.000  C
  H425     1.0000 0.16534  0.17372  0.27347  Biso   1.000  H
  C519     1.0000 0.22181  0.21724  0.23608  Biso   1.000  C
  C520     1.0000 0.22172  0.21717  0.23608  Biso   1.000  C
  C521     1.0000 0.36656  0.36290  0.23610  Biso   1.000  C
  H426     1.0000 0.41195  0.41758  0.27347  Biso   1.000  H
  H427     1.0000 0.41192  0.41751  0.27347  Biso   1.000  H
  H428     1.0000 0.41189  0.41758  0.27347  Biso   1.000  H
  H429     1.0000 0.41185  0.41751  0.27347  Biso   1.000  H
  C522     1.0000 0.01353  0.77684  0.17960  Biso   1.000  C
  C523     1.0000 0.01349  0.77677  0.17960  Biso   1.000  C
  C524     1.0000 0.01359  0.77684  0.17960  Biso   1.000  C
  C525     1.0000 0.72815  0.89035  0.17731  Biso   1.000  C
  C526     1.0000 0.72818  0.89028  0.17731  Biso   1.000  C
  C527     1.0000 0.72812  0.89028  0.17731  Biso   1.000  C
  C528     1.0000 0.84132  0.04836  0.16542  Biso   1.000  C
  C529     1.0000 0.84126  0.04836  0.16542  Biso   1.000  C
  C530     1.0000 0.29595  0.28807  0.22243  Biso   1.000  C
  H430     1.0000 0.17377  0.16530  0.22653  Biso   1.000  H
  H431     1.0000 0.17371  0.16530  0.22653  Biso   1.000  H
  H432     1.0000 0.41756  0.41189  0.22653  Biso   1.000  H
  H433     1.0000 0.41750  0.41189  0.22653  Biso   1.000  H
  C531     1.0000 0.95160  0.79292  0.16542  Biso   1.000  C
  C532     1.0000 0.95166  0.79292  0.16542  Biso   1.000  C
  C533     1.0000 0.10968  0.83784  0.17731  Biso   1.000  C
  C534     1.0000 0.77770  0.85995  0.16184  Biso   1.000  C
  C535     1.0000 0.77766  0.85988  0.16184  Biso   1.000  C
  C536     1.0000 0.77764  0.85995  0.16184  Biso   1.000  C
  C537     1.0000 0.77760  0.85988  0.16184  Biso   1.000  C
  O98      1.0000 0.64659  0.83300  0.19061  Biso   1.000  O
  O99      1.0000 0.64653  0.83300  0.19061  Biso   1.000  O
  C538     1.0000 0.89004  0.01838  0.14868  Biso   1.000  C
  C539     1.0000 0.88995  0.01831  0.14868  Biso   1.000  C
  C540     1.0000 0.88998  0.01838  0.14868  Biso   1.000  C
  C541     1.0000 0.89001  0.01831  0.14868  Biso   1.000  C
  H434     1.0000 0.86337  0.11385  0.16694  Biso   1.000  H
  H435     1.0000 0.86327  0.11378  0.16694  Biso   1.000  H
  H436     1.0000 0.86333  0.11378  0.16694  Biso   1.000  H
  O100     1.0000 0.30572  0.28561  0.19461  Biso   1.000  O
  O101     1.0000 0.30569  0.28554  0.19461  Biso   1.000  O
  O102     1.0000 0.30563  0.28554  0.19461  Biso   1.000  O
  H437     1.0000 0.88614  0.74954  0.16694  Biso   1.000  H
  C542     1.0000 0.98167  0.87168  0.14868  Biso   1.000  C
  H438     1.0000 0.88620  0.74954  0.16694  Biso   1.000  H
  C543     1.0000 0.98164  0.87161  0.14868  Biso   1.000  C
  C544     1.0000 0.98161  0.87168  0.14868  Biso   1.000  C
  C545     1.0000 0.98158  0.87161  0.14868  Biso   1.000  C
  O103     1.0000 0.16696  0.81355  0.19061  Biso   1.000  O
  C546     1.0000 0.14008  0.91772  0.16184  Biso   1.000  C
  O104     1.0000 0.16692  0.81348  0.19061  Biso   1.000  O
  O105     1.0000 0.16702  0.81355  0.19061  Biso   1.000  O
  O106     1.0000 0.16699  0.81348  0.19061  Biso   1.000  O
  C547     1.0000 0.85863  0.92236  0.14770  Biso   1.000  C
  C548     1.0000 0.85856  0.92236  0.14770  Biso   1.000  C
  H439     1.0000 0.75609  0.79460  0.16084  Biso   1.000  H
  H440     1.0000 0.75602  0.79460  0.16084  Biso   1.000  H
  C549     1.0000 0.60837  0.73431  0.18652  Biso   1.000  C
  C550     1.0000 0.60831  0.73431  0.18652  Biso   1.000  C
  C551     1.0000 0.97200  0.09110  0.13237  Biso   1.000  C
  C552     1.0000 0.97190  0.09103  0.13237  Biso   1.000  C
  C553     1.0000 0.97196  0.09103  0.13237  Biso   1.000  C
  C554     1.0000 0.22315  0.23669  0.17960  Biso   1.000  C
  C555     1.0000 0.22321  0.23669  0.17960  Biso   1.000  C
  C556     1.0000 0.90889  0.88087  0.13237  Biso   1.000  C
  C557     1.0000 0.90895  0.88087  0.13237  Biso   1.000  C
  C558     1.0000 0.07761  0.93626  0.14770  Biso   1.000  C
  C559     1.0000 0.07767  0.93626  0.14770  Biso   1.000  C
  C560     1.0000 0.26566  0.87406  0.18652  Biso   1.000  C
  C561     1.0000 0.26563  0.87399  0.18652  Biso   1.000  C
  C562     1.0000 0.26572  0.87406  0.18652  Biso   1.000  C
  C563     1.0000 0.26569  0.87399  0.18652  Biso   1.000  C
  H441     1.0000 0.20535  0.96145  0.16084  Biso   1.000  H
  H442     1.0000 0.20537  0.96138  0.16084  Biso   1.000  H
  H443     1.0000 0.20541  0.96145  0.16084  Biso   1.000  H
  H444     1.0000 0.20531  0.96138  0.16084  Biso   1.000  H
  H445     1.0000 0.58917  0.70174  0.20374  Biso   1.000  H
  H446     1.0000 0.55387  0.71065  0.17452  Biso   1.000  H
  H447     1.0000 0.65610  0.72314  0.17834  Biso   1.000  H
  H448     1.0000 0.55389  0.71058  0.17452  Biso   1.000  H
  H449     1.0000 0.65604  0.72314  0.17834  Biso   1.000  H
  H450     1.0000 0.55383  0.71058  0.17452  Biso   1.000  H
  C564     1.0000 0.06375  0.14136  0.14770  Biso   1.000  C
  C565     1.0000 0.06369  0.14136  0.14770  Biso   1.000  C
  H451     1.0000 0.95628  0.13820  0.12563  Biso   1.000  H
  H452     1.0000 0.98078  0.05980  0.11652  Biso   1.000  H
  H453     1.0000 0.95621  0.13820  0.12563  Biso   1.000  H
  H454     1.0000 0.98072  0.05980  0.11652  Biso   1.000  H
  C566     1.0000 0.20707  0.15870  0.16542  Biso   1.000  C
  C567     1.0000 0.20704  0.15863  0.16542  Biso   1.000  C
  C568     1.0000 0.20701  0.15870  0.16542  Biso   1.000  C
  C569     1.0000 0.16215  0.27179  0.17731  Biso   1.000  C
  C570     1.0000 0.16209  0.27179  0.17731  Biso   1.000  C
  H455     1.0000 0.86179  0.81805  0.12563  Biso   1.000  H
  H456     1.0000 0.94017  0.92095  0.11652  Biso   1.000  H
  H457     1.0000 0.86175  0.81798  0.12563  Biso   1.000  H
  H458     1.0000 0.94014  0.92088  0.11652  Biso   1.000  H
  H459     1.0000 0.86173  0.81805  0.12563  Biso   1.000  H
  C571     1.0000 0.11911  0.02800  0.13237  Biso   1.000  C
  C572     1.0000 0.11905  0.02800  0.13237  Biso   1.000  C
  H460     1.0000 0.29823  0.88740  0.20374  Biso   1.000  H
  H461     1.0000 0.28934  0.84325  0.17452  Biso   1.000  H
  H462     1.0000 0.27687  0.93296  0.17834  Biso   1.000  H
  H463     1.0000 0.28937  0.84318  0.17452  Biso   1.000  H
  H464     1.0000 0.27684  0.93289  0.17834  Biso   1.000  H
  H465     1.0000 0.29829  0.88740  0.20374  Biso   1.000  H
  H466     1.0000 0.28940  0.84325  0.17452  Biso   1.000  H
  H467     1.0000 0.27690  0.93289  0.17834  Biso   1.000  H
  C573     1.0000 0.12837  0.10999  0.14868  Biso   1.000  C
  C574     1.0000 0.12833  0.10992  0.14868  Biso   1.000  C
  C575     1.0000 0.12831  0.10999  0.14868  Biso   1.000  C
  C576     1.0000 0.12827  0.10992  0.14868  Biso   1.000  C
  C577     1.0000 0.08227  0.22230  0.16184  Biso   1.000  C
  C578     1.0000 0.08221  0.22230  0.16184  Biso   1.000  C
  H468     1.0000 0.25042  0.13659  0.16694  Biso   1.000  H
  H469     1.0000 0.25048  0.13659  0.16694  Biso   1.000  H
  O107     1.0000 0.18644  0.35342  0.19061  Biso   1.000  O
  O108     1.0000 0.18650  0.35342  0.19061  Biso   1.000  O
  H470     1.0000 0.18198  0.04372  0.12563  Biso   1.000  H
  H471     1.0000 0.07904  0.01923  0.11652  Biso   1.000  H
  H472     1.0000 0.07910  0.01923  0.11652  Biso   1.000  H
  H473     1.0000 0.18192  0.04372  0.12563  Biso   1.000  H
  H474     1.0000 0.03855  0.24392  0.16084  Biso   1.000  H
  H475     1.0000 0.03862  0.24392  0.16084  Biso   1.000  H
  C579     1.0000 0.12596  0.39161  0.18652  Biso   1.000  C
  H476     1.0000 0.11259  0.41084  0.20374  Biso   1.000  H
  H477     1.0000 0.15672  0.44608  0.17452  Biso   1.000  H
  H478     1.0000 0.06705  0.34395  0.17834  Biso   1.000  H
  H479     1.0000 0.11256  0.41077  0.20374  Biso   1.000  H
  H480     1.0000 0.15678  0.44608  0.17452  Biso   1.000  H
  H481     1.0000 0.06707  0.34387  0.17834  Biso   1.000  H
  H482     1.0000 0.11250  0.41077  0.20374  Biso   1.000  H
  H483     1.0000 0.06701  0.34387  0.17834  Biso   1.000  H
  C580     1.0000 0.88088  0.90888  0.36763  Biso   1.000  C
  C581     1.0000 0.92238  0.85862  0.35230  Biso   1.000  C
  C582     1.0000 0.92232  0.85862  0.35230  Biso   1.000  C
  C583     1.0000 0.87165  0.98160  0.35132  Biso   1.000  C
  H484     1.0000 0.81806  0.86178  0.37437  Biso   1.000  H
  H485     1.0000 0.92097  0.94019  0.38348  Biso   1.000  H
  C584     1.0000 0.87159  0.98160  0.35132  Biso   1.000  C
  H486     1.0000 0.81803  0.86171  0.37437  Biso   1.000  H
  H487     1.0000 0.92094  0.94012  0.38348  Biso   1.000  H
  H488     1.0000 0.81800  0.86178  0.37437  Biso   1.000  H
  H489     1.0000 0.92091  0.94019  0.38348  Biso   1.000  H
  H490     1.0000 0.81797  0.86171  0.37437  Biso   1.000  H
  H491     1.0000 0.92088  0.94012  0.38348  Biso   1.000  H
  C585     1.0000 0.85997  0.77769  0.33816  Biso   1.000  C
  C586     1.0000 0.85993  0.77762  0.33816  Biso   1.000  C
  C587     1.0000 0.85991  0.77769  0.33816  Biso   1.000  C
  C588     1.0000 0.85987  0.77762  0.33816  Biso   1.000  C
  C589     1.0000 0.01837  0.89000  0.35132  Biso   1.000  C
  C590     1.0000 0.01831  0.89000  0.35132  Biso   1.000  C
  C591     1.0000 0.88082  0.90888  0.36763  Biso   1.000  C
  C592     1.0000 0.79296  0.95163  0.33458  Biso   1.000  C
  C593     1.0000 0.79290  0.95163  0.33458  Biso   1.000  C
  C594     1.0000 0.93626  0.07763  0.35230  Biso   1.000  C
  C595     1.0000 0.93620  0.07763  0.35230  Biso   1.000  C
  C596     1.0000 0.89036  0.72820  0.32269  Biso   1.000  C
  C597     1.0000 0.89026  0.72813  0.32269  Biso   1.000  C
  C598     1.0000 0.89030  0.72820  0.32269  Biso   1.000  C
  C599     1.0000 0.89033  0.72813  0.32269  Biso   1.000  C
  H492     1.0000 0.79463  0.75607  0.33916  Biso   1.000  H
  C600     1.0000 0.04836  0.84128  0.33458  Biso   1.000  C
  C601     1.0000 0.04842  0.84128  0.33458  Biso   1.000  C
  C602     1.0000 0.09110  0.97198  0.36763  Biso   1.000  C
  H493     1.0000 0.74951  0.88614  0.33306  Biso   1.000  H
  C603     1.0000 0.77680  0.01354  0.32040  Biso   1.000  C
  C604     1.0000 0.77676  0.01347  0.32040  Biso   1.000  C
  C605     1.0000 0.91774  0.14003  0.33816  Biso   1.000  C
  C606     1.0000 0.91767  0.14003  0.33816  Biso   1.000  C
  C607     1.0000 0.02801  0.11911  0.36763  Biso   1.000  C
  C608     1.0000 0.02803  0.11904  0.36763  Biso   1.000  C
  C609     1.0000 0.02807  0.11911  0.36763  Biso   1.000  C
  C610     1.0000 0.02797  0.11904  0.36763  Biso   1.000  C
  O109     1.0000 0.83301  0.64656  0.30939  Biso   1.000  O
  C611     1.0000 0.98645  0.76330  0.32040  Biso   1.000  C
  C612     1.0000 0.98651  0.76330  0.32040  Biso   1.000  C
  H494     1.0000 0.11382  0.86339  0.33306  Biso   1.000  H
  H495     1.0000 0.11385  0.86332  0.33306  Biso   1.000  H
  H496     1.0000 0.11389  0.86339  0.33306  Biso   1.000  H
  H497     1.0000 0.11379  0.86332  0.33306  Biso   1.000  H
  H498     1.0000 0.13825  0.95626  0.37437  Biso   1.000  H
  H499     1.0000 0.05980  0.98076  0.38348  Biso   1.000  H
  H500     1.0000 0.05986  0.98076  0.38348  Biso   1.000  H
  H501     1.0000 0.13819  0.95626  0.37437  Biso   1.000  H
  C613     1.0000 0.14135  0.06373  0.35230  Biso   1.000  C
  C614     1.0000 0.14141  0.06373  0.35230  Biso   1.000  C
  O110     1.0000 0.69433  0.97992  0.30539  Biso   1.000  O
  O111     1.0000 0.69430  0.97985  0.30539  Biso   1.000  O
  O112     1.0000 0.69427  0.97992  0.30539  Biso   1.000  O
  O113     1.0000 0.69424  0.97985  0.30539  Biso   1.000  O
  C615     1.0000 0.83780  0.10964  0.32269  Biso   1.000  C
  H502     1.0000 0.96147  0.20538  0.33916  Biso   1.000  H
  H503     1.0000 0.96138  0.20531  0.33916  Biso   1.000  H
  H504     1.0000 0.96141  0.20538  0.33916  Biso   1.000  H
  C616     1.0000 0.10999  0.12831  0.35132  Biso   1.000  C
  C617     1.0000 0.10993  0.12831  0.35132  Biso   1.000  C
  H505     1.0000 0.04373  0.18194  0.37437  Biso   1.000  H
  H506     1.0000 0.01921  0.07903  0.38348  Biso   1.000  H
  C618     1.0000 0.73434  0.60838  0.31348  Biso   1.000  C
  O114     1.0000 0.02010  0.71437  0.30539  Biso   1.000  O
  O115     1.0000 0.02004  0.71437  0.30539  Biso   1.000  O
  C619     1.0000 0.22235  0.08226  0.33816  Biso   1.000  C
  C620     1.0000 0.22228  0.08226  0.33816  Biso   1.000  C
  C621     1.0000 0.70403  0.99213  0.27757  Biso   1.000  C
  O116     1.0000 0.81358  0.16698  0.30939  Biso   1.000  O
  O117     1.0000 0.81349  0.16691  0.30939  Biso   1.000  O
  O118     1.0000 0.81352  0.16698  0.30939  Biso   1.000  O
  C622     1.0000 0.15867  0.20707  0.33458  Biso   1.000  C
  C623     1.0000 0.15870  0.20700  0.33458  Biso   1.000  C
  C624     1.0000 0.15863  0.20700  0.33458  Biso   1.000  C
  H507     1.0000 0.70174  0.58914  0.29626  Biso   1.000  H
  H508     1.0000 0.71063  0.55391  0.32548  Biso   1.000  H
  H509     1.0000 0.72310  0.65604  0.32166  Biso   1.000  H
  H510     1.0000 0.71066  0.55384  0.32548  Biso   1.000  H
  H511     1.0000 0.72316  0.65604  0.32166  Biso   1.000  H
  H512     1.0000 0.70168  0.58914  0.29626  Biso   1.000  H
  H513     1.0000 0.71060  0.55384  0.32548  Biso   1.000  H
  C625     1.0000 0.00787  0.71191  0.27757  Biso   1.000  C
  C626     1.0000 0.00793  0.71191  0.27757  Biso   1.000  C
  C627     1.0000 0.27183  0.16214  0.32269  Biso   1.000  C
  H514     1.0000 0.24388  0.03853  0.33916  Biso   1.000  H
  H515     1.0000 0.24395  0.03853  0.33916  Biso   1.000  H
  C628     1.0000 0.27177  0.16214  0.32269  Biso   1.000  C
  C629     1.0000 0.77820  0.99543  0.26392  Biso   1.000  C
  C630     1.0000 0.63343  0.99634  0.26390  Biso   1.000  C
  C631     1.0000 0.87405  0.26568  0.31348  Biso   1.000  C
  C632     1.0000 0.87396  0.26561  0.31348  Biso   1.000  C
  C633     1.0000 0.87399  0.26568  0.31348  Biso   1.000  C
  C634     1.0000 0.87402  0.26561  0.31348  Biso   1.000  C
  H516     1.0000 0.13665  0.25045  0.33306  Biso   1.000  H
  C635     1.0000 0.23668  0.22314  0.32040  Biso   1.000  C
  C636     1.0000 0.23674  0.22314  0.32040  Biso   1.000  C
  H517     1.0000 0.13659  0.25045  0.33306  Biso   1.000  H
  C637     1.0000 0.00450  0.78274  0.26392  Biso   1.000  C
  C638     1.0000 0.00365  0.63709  0.26390  Biso   1.000  C
  C639     1.0000 0.00456  0.78274  0.26392  Biso   1.000  C
  C640     1.0000 0.00361  0.63702  0.26390  Biso   1.000  C
  C641     1.0000 0.00367  0.63702  0.26390  Biso   1.000  C
  O119     1.0000 0.35340  0.18643  0.30939  Biso   1.000  O
  H518     1.0000 0.82624  0.99157  0.27347  Biso   1.000  H
  H519     1.0000 0.82618  0.99157  0.27347  Biso   1.000  H
  C642     1.0000 0.78276  0.00455  0.23608  Biso   1.000  C
  C643     1.0000 0.78273  0.00448  0.23608  Biso   1.000  C
  H520     1.0000 0.58248  0.99438  0.27347  Biso   1.000  H
  H521     1.0000 0.58244  0.99431  0.27347  Biso   1.000  H
  H522     1.0000 0.58242  0.99438  0.27347  Biso   1.000  H
  H523     1.0000 0.58238  0.99431  0.27347  Biso   1.000  H
  C644     1.0000 0.63708  0.00364  0.23610  Biso   1.000  C
  C645     1.0000 0.63698  0.00357  0.23610  Biso   1.000  C
  C646     1.0000 0.63704  0.00357  0.23610  Biso   1.000  C
  H524     1.0000 0.88742  0.29825  0.29626  Biso   1.000  H
  H525     1.0000 0.84321  0.28933  0.32548  Biso   1.000  H
  H526     1.0000 0.93295  0.27684  0.32166  Biso   1.000  H
  H527     1.0000 0.88736  0.29825  0.29626  Biso   1.000  H
  H528     1.0000 0.93289  0.27684  0.32166  Biso   1.000  H
  O120     1.0000 0.28561  0.30569  0.30539  Biso   1.000  O
  O121     1.0000 0.28555  0.30569  0.30539  Biso   1.000  O
  C647     1.0000 0.99545  0.77825  0.23608  Biso   1.000  C
  C648     1.0000 0.99547  0.77818  0.23608  Biso   1.000  C
  C649     1.0000 0.99541  0.77818  0.23608  Biso   1.000  C
  H529     1.0000 0.00847  0.83468  0.27347  Biso   1.000  H
  H530     1.0000 0.00843  0.83461  0.27347  Biso   1.000  H
  C650     1.0000 0.99635  0.63344  0.23610  Biso   1.000  C
  C651     1.0000 0.99629  0.63344  0.23610  Biso   1.000  C
  H531     1.0000 0.00566  0.58809  0.27347  Biso   1.000  H
  H532     1.0000 0.00562  0.58802  0.27347  Biso   1.000  H
  H533     1.0000 0.00556  0.58802  0.27347  Biso   1.000  H
  C652     1.0000 0.39159  0.12592  0.31348  Biso   1.000  C
  C653     1.0000 0.71189  0.00785  0.22243  Biso   1.000  C
  H534     1.0000 0.83466  0.00842  0.22653  Biso   1.000  H
  H535     1.0000 0.83460  0.00842  0.22653  Biso   1.000  H
  H536     1.0000 0.58809  0.00561  0.22653  Biso   1.000  H
  H537     1.0000 0.58803  0.00561  0.22653  Biso   1.000  H
  C654     1.0000 0.28809  0.29593  0.27757  Biso   1.000  C
  C655     1.0000 0.28803  0.29593  0.27757  Biso   1.000  C
  C656     1.0000 0.99215  0.70405  0.22243  Biso   1.000  C
  H538     1.0000 0.99155  0.82626  0.22653  Biso   1.000  H
  C657     1.0000 0.99211  0.70398  0.22243  Biso   1.000  C
  H539     1.0000 0.99158  0.82619  0.22653  Biso   1.000  H
  C658     1.0000 0.99209  0.70405  0.22243  Biso   1.000  C
  C659     1.0000 0.99205  0.70398  0.22243  Biso   1.000  C
  H540     1.0000 0.99151  0.82619  0.22653  Biso   1.000  H
  H541     1.0000 0.99436  0.58240  0.22653  Biso   1.000  H
  H542     1.0000 0.99430  0.58240  0.22653  Biso   1.000  H
  H543     1.0000 0.41082  0.11258  0.29626  Biso   1.000  H
  H544     1.0000 0.44609  0.15674  0.32548  Biso   1.000  H
  H545     1.0000 0.34391  0.06703  0.32166  Biso   1.000  H
  H546     1.0000 0.41079  0.11251  0.29626  Biso   1.000  H
  H547     1.0000 0.44615  0.15674  0.32548  Biso   1.000  H
  H548     1.0000 0.34385  0.06703  0.32166  Biso   1.000  H
  O122     1.0000 0.71441  0.02007  0.19461  Biso   1.000  O
  O123     1.0000 0.71435  0.02007  0.19461  Biso   1.000  O
  C660     1.0000 0.21719  0.22174  0.26392  Biso   1.000  C
  C661     1.0000 0.36291  0.36655  0.26390  Biso   1.000  C
  C662     1.0000 0.21725  0.22174  0.26392  Biso   1.000  C
  C663     1.0000 0.36297  0.36655  0.26390  Biso   1.000  C
  O124     1.0000 0.97991  0.69429  0.19461  Biso   1.000  O
  O125     1.0000 0.97985  0.69429  0.19461  Biso   1.000  O
  C664     1.0000 0.76325  0.98644  0.17960  Biso   1.000  C
  C665     1.0000 0.76331  0.98644  0.17960  Biso   1.000  C
  C666     1.0000 0.22175  0.21724  0.23608  Biso   1.000  C
  H549     1.0000 0.16528  0.17372  0.27347  Biso   1.000  H
  C667     1.0000 0.22178  0.21717  0.23608  Biso   1.000  C
  H550     1.0000 0.16534  0.17372  0.27347  Biso   1.000  H
  C668     1.0000 0.22181  0.21724  0.23608  Biso   1.000  C
  C669     1.0000 0.22172  0.21717  0.23608  Biso   1.000  C
  C670     1.0000 0.36656  0.36290  0.23610  Biso   1.000  C
  H551     1.0000 0.41195  0.41758  0.27347  Biso   1.000  H
  H552     1.0000 0.41192  0.41751  0.27347  Biso   1.000  H
  H553     1.0000 0.41189  0.41758  0.27347  Biso   1.000  H
  H554     1.0000 0.41185  0.41751  0.27347  Biso   1.000  H
  C671     1.0000 0.01353  0.77684  0.17960  Biso   1.000  C
  C672     1.0000 0.01349  0.77677  0.17960  Biso   1.000  C
  C673     1.0000 0.01359  0.77684  0.17960  Biso   1.000  C
  C674     1.0000 0.72815  0.89035  0.17731  Biso   1.000  C
  C675     1.0000 0.72818  0.89028  0.17731  Biso   1.000  C
  C676     1.0000 0.72812  0.89028  0.17731  Biso   1.000  C
  C677     1.0000 0.84132  0.04836  0.16542  Biso   1.000  C
  C678     1.0000 0.84126  0.04836  0.16542  Biso   1.000  C
  C679     1.0000 0.29595  0.28807  0.22243  Biso   1.000  C
  H555     1.0000 0.17377  0.16530  0.22653  Biso   1.000  H
  H556     1.0000 0.17371  0.16530  0.22653  Biso   1.000  H
  H557     1.0000 0.41756  0.41189  0.22653  Biso   1.000  H
  H558     1.0000 0.41750  0.41189  0.22653  Biso   1.000  H
  C680     1.0000 0.95160  0.79292  0.16542  Biso   1.000  C
  C681     1.0000 0.95166  0.79292  0.16542  Biso   1.000  C
  C682     1.0000 0.10968  0.83784  0.17731  Biso   1.000  C
  C683     1.0000 0.77770  0.85995  0.16184  Biso   1.000  C
  C684     1.0000 0.77766  0.85988  0.16184  Biso   1.000  C
  C685     1.0000 0.77764  0.85995  0.16184  Biso   1.000  C
  C686     1.0000 0.77760  0.85988  0.16184  Biso   1.000  C
  O126     1.0000 0.64659  0.83300  0.19061  Biso   1.000  O
  O127     1.0000 0.64653  0.83300  0.19061  Biso   1.000  O
  C687     1.0000 0.89004  0.01838  0.14868  Biso   1.000  C
  C688     1.0000 0.88995  0.01831  0.14868  Biso   1.000  C
  C689     1.0000 0.88998  0.01838  0.14868  Biso   1.000  C
  C690     1.0000 0.89001  0.01831  0.14868  Biso   1.000  C
  H559     1.0000 0.86337  0.11385  0.16694  Biso   1.000  H
  H560     1.0000 0.86327  0.11378  0.16694  Biso   1.000  H
  H561     1.0000 0.86333  0.11378  0.16694  Biso   1.000  H
  O128     1.0000 0.30572  0.28561  0.19461  Biso   1.000  O
  O129     1.0000 0.30569  0.28554  0.19461  Biso   1.000  O
  O130     1.0000 0.30563  0.28554  0.19461  Biso   1.000  O
  C691     1.0000 0.98167  0.87168  0.14868  Biso   1.000  C
  H562     1.0000 0.88620  0.74954  0.16694  Biso   1.000  H
  C692     1.0000 0.98164  0.87161  0.14868  Biso   1.000  C
  H563     1.0000 0.88614  0.74954  0.16694  Biso   1.000  H
  C693     1.0000 0.98161  0.87168  0.14868  Biso   1.000  C
  C694     1.0000 0.98158  0.87161  0.14868  Biso   1.000  C
  O131     1.0000 0.16696  0.81355  0.19061  Biso   1.000  O
  C695     1.0000 0.14008  0.91772  0.16184  Biso   1.000  C
  O132     1.0000 0.16692  0.81348  0.19061  Biso   1.000  O
  O133     1.0000 0.16702  0.81355  0.19061  Biso   1.000  O
  O134     1.0000 0.16699  0.81348  0.19061  Biso   1.000  O
  C696     1.0000 0.85863  0.92236  0.14770  Biso   1.000  C
  C697     1.0000 0.85856  0.92236  0.14770  Biso   1.000  C
  H564     1.0000 0.75609  0.79460  0.16084  Biso   1.000  H
  H565     1.0000 0.75602  0.79460  0.16084  Biso   1.000  H
  C698     1.0000 0.60837  0.73431  0.18652  Biso   1.000  C
  C699     1.0000 0.60831  0.73431  0.18652  Biso   1.000  C
  C700     1.0000 0.97200  0.09110  0.13237  Biso   1.000  C
  C701     1.0000 0.97190  0.09103  0.13237  Biso   1.000  C
  C702     1.0000 0.97196  0.09103  0.13237  Biso   1.000  C
  C703     1.0000 0.22315  0.23669  0.17960  Biso   1.000  C
  C704     1.0000 0.22321  0.23669  0.17960  Biso   1.000  C
  C705     1.0000 0.90889  0.88087  0.13237  Biso   1.000  C
  C706     1.0000 0.90895  0.88087  0.13237  Biso   1.000  C
  C707     1.0000 0.07761  0.93626  0.14770  Biso   1.000  C
  C708     1.0000 0.07767  0.93626  0.14770  Biso   1.000  C
  C709     1.0000 0.26566  0.87406  0.18652  Biso   1.000  C
  C710     1.0000 0.26563  0.87399  0.18652  Biso   1.000  C
  C711     1.0000 0.26572  0.87406  0.18652  Biso   1.000  C
  C712     1.0000 0.26569  0.87399  0.18652  Biso   1.000  C
  H566     1.0000 0.20535  0.96145  0.16084  Biso   1.000  H
  H567     1.0000 0.20537  0.96138  0.16084  Biso   1.000  H
  H568     1.0000 0.20541  0.96145  0.16084  Biso   1.000  H
  H569     1.0000 0.20531  0.96138  0.16084  Biso   1.000  H
  H570     1.0000 0.58917  0.70174  0.20374  Biso   1.000  H
  H571     1.0000 0.55387  0.71065  0.17452  Biso   1.000  H
  H572     1.0000 0.65610  0.72314  0.17834  Biso   1.000  H
  H573     1.0000 0.55389  0.71058  0.17452  Biso   1.000  H
  H574     1.0000 0.65604  0.72314  0.17834  Biso   1.000  H
  H575     1.0000 0.55383  0.71058  0.17452  Biso   1.000  H
  C713     1.0000 0.06375  0.14136  0.14770  Biso   1.000  C
  C714     1.0000 0.06369  0.14136  0.14770  Biso   1.000  C
  H576     1.0000 0.95628  0.13820  0.12563  Biso   1.000  H
  H577     1.0000 0.98078  0.05980  0.11652  Biso   1.000  H
  H578     1.0000 0.95621  0.13820  0.12563  Biso   1.000  H
  H579     1.0000 0.98072  0.05980  0.11652  Biso   1.000  H
  C715     1.0000 0.20707  0.15870  0.16542  Biso   1.000  C
  C716     1.0000 0.20704  0.15863  0.16542  Biso   1.000  C
  C717     1.0000 0.20701  0.15870  0.16542  Biso   1.000  C
  C718     1.0000 0.16215  0.27179  0.17731  Biso   1.000  C
  C719     1.0000 0.16209  0.27179  0.17731  Biso   1.000  C
  H580     1.0000 0.86179  0.81805  0.12563  Biso   1.000  H
  H581     1.0000 0.94017  0.92095  0.11652  Biso   1.000  H
  H582     1.0000 0.86175  0.81798  0.12563  Biso   1.000  H
  H583     1.0000 0.94014  0.92088  0.11652  Biso   1.000  H
  H584     1.0000 0.86173  0.81805  0.12563  Biso   1.000  H
  C720     1.0000 0.11911  0.02800  0.13237  Biso   1.000  C
  C721     1.0000 0.11905  0.02800  0.13237  Biso   1.000  C
  H585     1.0000 0.29823  0.88740  0.20374  Biso   1.000  H
  H586     1.0000 0.28934  0.84325  0.17452  Biso   1.000  H
  H587     1.0000 0.27687  0.93296  0.17834  Biso   1.000  H
  H588     1.0000 0.28937  0.84318  0.17452  Biso   1.000  H
  H589     1.0000 0.27684  0.93289  0.17834  Biso   1.000  H
  H590     1.0000 0.29829  0.88740  0.20374  Biso   1.000  H
  H591     1.0000 0.28940  0.84325  0.17452  Biso   1.000  H
  H592     1.0000 0.27690  0.93289  0.17834  Biso   1.000  H
  C722     1.0000 0.12837  0.10999  0.14868  Biso   1.000  C
  C723     1.0000 0.12833  0.10992  0.14868  Biso   1.000  C
  C724     1.0000 0.12831  0.10999  0.14868  Biso   1.000  C
  C725     1.0000 0.12827  0.10992  0.14868  Biso   1.000  C
  C726     1.0000 0.08227  0.22230  0.16184  Biso   1.000  C
  C727     1.0000 0.08221  0.22230  0.16184  Biso   1.000  C
  H593     1.0000 0.25042  0.13659  0.16694  Biso   1.000  H
  H594     1.0000 0.25048  0.13659  0.16694  Biso   1.000  H
  O135     1.0000 0.18644  0.35342  0.19061  Biso   1.000  O
  O136     1.0000 0.18650  0.35342  0.19061  Biso   1.000  O
  H595     1.0000 0.18198  0.04372  0.12563  Biso   1.000  H
  H596     1.0000 0.07904  0.01923  0.11652  Biso   1.000  H
  H597     1.0000 0.07910  0.01923  0.11652  Biso   1.000  H
  H598     1.0000 0.18192  0.04372  0.12563  Biso   1.000  H
  H599     1.0000 0.03855  0.24392  0.16084  Biso   1.000  H
  H600     1.0000 0.03862  0.24392  0.16084  Biso   1.000  H
  C728     1.0000 0.12596  0.39161  0.18652  Biso   1.000  C
  H601     1.0000 0.11259  0.41084  0.20374  Biso   1.000  H
  H602     1.0000 0.15672  0.44608  0.17452  Biso   1.000  H
  H603     1.0000 0.06705  0.34395  0.17834  Biso   1.000  H
  H604     1.0000 0.11256  0.41077  0.20374  Biso   1.000  H
  H605     1.0000 0.15678  0.44608  0.17452  Biso   1.000  H
  H606     1.0000 0.06707  0.34387  0.17834  Biso   1.000  H
  H607     1.0000 0.11250  0.41077  0.20374  Biso   1.000  H
  H608     1.0000 0.06701  0.34387  0.17834  Biso   1.000  H
  C729     1.0000 0.97193  0.88087  0.63237  Biso   1.000  C
  C730     1.0000 0.89000  0.87168  0.64868  Biso   1.000  C
  H609     1.0000 0.95626  0.81805  0.62563  Biso   1.000  H
  H610     1.0000 0.98078  0.92095  0.61652  Biso   1.000  H
  C731     1.0000 0.89003  0.87161  0.64868  Biso   1.000  C
  H611     1.0000 0.95622  0.81798  0.62563  Biso   1.000  H
  H612     1.0000 0.98075  0.92088  0.61652  Biso   1.000  H
  H613     1.0000 0.98072  0.92095  0.61652  Biso   1.000  H
  C732     1.0000 0.88997  0.87161  0.64868  Biso   1.000  C
  C733     1.0000 0.06373  0.92236  0.64770  Biso   1.000  C
  C734     1.0000 0.06379  0.92236  0.64770  Biso   1.000  C
  C735     1.0000 0.84132  0.79292  0.66542  Biso   1.000  C
  C736     1.0000 0.85864  0.93626  0.64770  Biso   1.000  C
  C737     1.0000 0.97199  0.88087  0.63237  Biso   1.000  C
  C738     1.0000 0.84126  0.79292  0.66542  Biso   1.000  C
  C739     1.0000 0.85858  0.93626  0.64770  Biso   1.000  C
  C740     1.0000 0.08226  0.85995  0.66184  Biso   1.000  C
  C741     1.0000 0.08228  0.85988  0.66184  Biso   1.000  C
  C742     1.0000 0.08232  0.85995  0.66184  Biso   1.000  C
  C743     1.0000 0.12834  0.01838  0.64868  Biso   1.000  C
  C744     1.0000 0.12831  0.01831  0.64868  Biso   1.000  C
  C745     1.0000 0.12840  0.01838  0.64868  Biso   1.000  C
  H614     1.0000 0.86334  0.74954  0.66694  Biso   1.000  H
  C746     1.0000 0.76332  0.77684  0.67960  Biso   1.000  C
  C747     1.0000 0.76328  0.77677  0.67960  Biso   1.000  C
  C748     1.0000 0.76325  0.77684  0.67960  Biso   1.000  C
  C749     1.0000 0.77765  0.91772  0.66184  Biso   1.000  C
  C750     1.0000 0.77771  0.91772  0.66184  Biso   1.000  C
  C751     1.0000 0.90889  0.02800  0.63237  Biso   1.000  C
  C752     1.0000 0.16220  0.89035  0.67731  Biso   1.000  C
  H615     1.0000 0.03852  0.79460  0.66084  Biso   1.000  H
  C753     1.0000 0.16216  0.89028  0.67731  Biso   1.000  C
  H616     1.0000 0.03858  0.79460  0.66084  Biso   1.000  H
  C754     1.0000 0.20704  0.04836  0.66542  Biso   1.000  C
  C755     1.0000 0.11911  0.09110  0.63237  Biso   1.000  C
  C756     1.0000 0.11907  0.09103  0.63237  Biso   1.000  C
  C757     1.0000 0.11905  0.09110  0.63237  Biso   1.000  C
  O137     1.0000 0.71438  0.69429  0.69461  Biso   1.000  O
  C758     1.0000 0.72816  0.83784  0.67731  Biso   1.000  C
  O138     1.0000 0.71444  0.69429  0.69461  Biso   1.000  O
  C759     1.0000 0.72822  0.83784  0.67731  Biso   1.000  C
  H617     1.0000 0.75611  0.96145  0.66084  Biso   1.000  H
  H618     1.0000 0.75607  0.96138  0.66084  Biso   1.000  H
  H619     1.0000 0.75605  0.96145  0.66084  Biso   1.000  H
  H620     1.0000 0.75601  0.96138  0.66084  Biso   1.000  H
  C760     1.0000 0.98162  0.10999  0.64868  Biso   1.000  C
  H621     1.0000 0.86174  0.04372  0.62563  Biso   1.000  H
  H622     1.0000 0.94019  0.01923  0.61652  Biso   1.000  H
  C761     1.0000 0.98158  0.10992  0.64868  Biso   1.000  C
  H623     1.0000 0.94013  0.01923  0.61652  Biso   1.000  H
  O139     1.0000 0.18641  0.83300  0.69061  Biso   1.000  O
  C762     1.0000 0.22319  0.98644  0.67960  Biso   1.000  C
  O140     1.0000 0.18647  0.83300  0.69061  Biso   1.000  O
  H624     1.0000 0.25048  0.11385  0.66694  Biso   1.000  H
  H625     1.0000 0.25044  0.11378  0.66694  Biso   1.000  H
  H626     1.0000 0.25042  0.11385  0.66694  Biso   1.000  H
  C763     1.0000 0.07761  0.14136  0.64770  Biso   1.000  C
  H627     1.0000 0.18193  0.13820  0.62563  Biso   1.000  H
  H628     1.0000 0.07902  0.05980  0.61652  Biso   1.000  H
  C764     1.0000 0.07767  0.14136  0.64770  Biso   1.000  C
  H629     1.0000 0.18199  0.13820  0.62563  Biso   1.000  H
  H630     1.0000 0.07908  0.05980  0.61652  Biso   1.000  H
  C765     1.0000 0.71190  0.70405  0.72243  Biso   1.000  C
  C766     1.0000 0.71193  0.70398  0.72243  Biso   1.000  C
  C767     1.0000 0.71187  0.70398  0.72243  Biso   1.000  C
  O141     1.0000 0.64660  0.81355  0.69061  Biso   1.000  O
  O142     1.0000 0.64656  0.81348  0.69061  Biso   1.000  O
  O143     1.0000 0.64653  0.81355  0.69061  Biso   1.000  O
  C768     1.0000 0.95163  0.15870  0.66542  Biso   1.000  C
  C769     1.0000 0.95153  0.15863  0.66542  Biso   1.000  C
  C770     1.0000 0.95160  0.15863  0.66542  Biso   1.000  C
  C771     1.0000 0.12594  0.73431  0.68652  Biso   1.000  C
  C772     1.0000 0.12600  0.73431  0.68652  Biso   1.000  C
  O144     1.0000 0.30566  0.02007  0.69461  Biso   1.000  O
  O145     1.0000 0.30572  0.02007  0.69461  Biso   1.000  O
  C773     1.0000 0.14002  0.22230  0.66184  Biso   1.000  C
  C774     1.0000 0.14009  0.22230  0.66184  Biso   1.000  C
  C775     1.0000 0.78280  0.77825  0.73608  Biso   1.000  C
  C776     1.0000 0.63708  0.63344  0.73610  Biso   1.000  C
  C777     1.0000 0.78277  0.77818  0.73608  Biso   1.000  C
  C778     1.0000 0.78274  0.77825  0.73608  Biso   1.000  C
  C779     1.0000 0.63702  0.63344  0.73610  Biso   1.000  C
  C780     1.0000 0.78271  0.77818  0.73608  Biso   1.000  C
  C781     1.0000 0.60840  0.87406  0.68652  Biso   1.000  C
  C782     1.0000 0.60836  0.87399  0.68652  Biso   1.000  C
  C783     1.0000 0.60834  0.87406  0.68652  Biso   1.000  C
  H631     1.0000 0.88617  0.13659  0.66694  Biso   1.000  H
  H632     1.0000 0.88611  0.13659  0.66694  Biso   1.000  H
  C784     1.0000 0.01354  0.23669  0.67960  Biso   1.000  C
  C785     1.0000 0.01348  0.23669  0.67960  Biso   1.000  C
  H633     1.0000 0.11257  0.70174  0.70374  Biso   1.000  H
  H634     1.0000 0.15678  0.71065  0.67452  Biso   1.000  H
  H635     1.0000 0.06704  0.72314  0.67834  Biso   1.000  H
  H636     1.0000 0.15675  0.71058  0.67452  Biso   1.000  H
  H637     1.0000 0.06710  0.72314  0.67834  Biso   1.000  H
  H638     1.0000 0.11263  0.70174  0.70374  Biso   1.000  H
  C786     1.0000 0.29596  0.00785  0.72243  Biso   1.000  C
  C787     1.0000 0.29590  0.00785  0.72243  Biso   1.000  C
  C788     1.0000 0.10963  0.27179  0.67731  Biso   1.000  C
  H639     1.0000 0.20536  0.24392  0.66084  Biso   1.000  H
  C789     1.0000 0.10969  0.27179  0.67731  Biso   1.000  C
  C790     1.0000 0.77824  0.78274  0.76392  Biso   1.000  C
  H640     1.0000 0.83471  0.82626  0.72653  Biso   1.000  H
  H641     1.0000 0.83461  0.82619  0.72653  Biso   1.000  H
  C791     1.0000 0.77818  0.78274  0.76392  Biso   1.000  C
  H642     1.0000 0.83465  0.82626  0.72653  Biso   1.000  H
  C792     1.0000 0.63344  0.63709  0.76390  Biso   1.000  C
  H643     1.0000 0.58804  0.58240  0.72653  Biso   1.000  H
  C793     1.0000 0.63340  0.63702  0.76390  Biso   1.000  C
  H644     1.0000 0.58810  0.58240  0.72653  Biso   1.000  H
  H645     1.0000 0.58917  0.88740  0.70374  Biso   1.000  H
  H646     1.0000 0.55390  0.84325  0.67452  Biso   1.000  H
  H647     1.0000 0.65608  0.93296  0.67834  Biso   1.000  H
  H648     1.0000 0.55387  0.84318  0.67452  Biso   1.000  H
  H649     1.0000 0.65605  0.93289  0.67834  Biso   1.000  H
  H650     1.0000 0.58911  0.88740  0.70374  Biso   1.000  H
  H651     1.0000 0.55384  0.84325  0.67452  Biso   1.000  H
  H652     1.0000 0.55381  0.84318  0.67452  Biso   1.000  H
  O146     1.0000 0.97989  0.28561  0.69461  Biso   1.000  O
  O147     1.0000 0.97985  0.28554  0.69461  Biso   1.000  O
  C794     1.0000 0.22179  0.00455  0.73608  Biso   1.000  C
  C795     1.0000 0.36656  0.00364  0.73610  Biso   1.000  C
  C796     1.0000 0.22176  0.00448  0.73608  Biso   1.000  C
  C797     1.0000 0.36653  0.00357  0.73610  Biso   1.000  C
  C798     1.0000 0.22169  0.00448  0.73608  Biso   1.000  C
  O148     1.0000 0.16698  0.35342  0.69061  Biso   1.000  O
  C799     1.0000 0.70404  0.71191  0.77757  Biso   1.000  C
  H653     1.0000 0.82622  0.83468  0.77347  Biso   1.000  H
  H654     1.0000 0.82618  0.83461  0.77347  Biso   1.000  H
  C800     1.0000 0.70398  0.71191  0.77757  Biso   1.000  C
  H655     1.0000 0.58243  0.58809  0.77347  Biso   1.000  H
  H656     1.0000 0.58246  0.58802  0.77347  Biso   1.000  H
  H657     1.0000 0.58240  0.58802  0.77347  Biso   1.000  H
  C801     1.0000 0.99206  0.28807  0.72243  Biso   1.000  C
  C802     1.0000 0.99212  0.28807  0.72243  Biso   1.000  C
  C803     1.0000 0.21723  0.99543  0.76392  Biso   1.000  C
  C804     1.0000 0.21717  0.99543  0.76392  Biso   1.000  C
  H658     1.0000 0.17375  0.00842  0.72653  Biso   1.000  H
  C805     1.0000 0.36291  0.99634  0.76390  Biso   1.000  C
  H659     1.0000 0.41751  0.00561  0.72653  Biso   1.000  H
  H660     1.0000 0.41758  0.00561  0.72653  Biso   1.000  H
  C806     1.0000 0.26565  0.39161  0.68652  Biso   1.000  C
  C807     1.0000 0.26559  0.39161  0.68652  Biso   1.000  C
  O149     1.0000 0.69427  0.71437  0.80539  Biso   1.000  O
  O150     1.0000 0.69433  0.71437  0.80539  Biso   1.000  O
  C808     1.0000 0.99549  0.21724  0.73608  Biso   1.000  C
  C809     1.0000 0.99634  0.36290  0.73610  Biso   1.000  C
  C810     1.0000 0.99540  0.21717  0.73608  Biso   1.000  C
  C811     1.0000 0.99628  0.36290  0.73610  Biso   1.000  C
  C812     1.0000 0.99543  0.21724  0.73608  Biso   1.000  C
  C813     1.0000 0.28810  0.99213  0.77757  Biso   1.000  C
  H661     1.0000 0.16533  0.99157  0.77347  Biso   1.000  H
  H662     1.0000 0.16539  0.99157  0.77347  Biso   1.000  H
  H663     1.0000 0.41190  0.99438  0.77347  Biso   1.000  H
  H664     1.0000 0.41193  0.99431  0.77347  Biso   1.000  H
  H665     1.0000 0.41196  0.99438  0.77347  Biso   1.000  H
  H666     1.0000 0.29825  0.41084  0.70374  Biso   1.000  H
  H667     1.0000 0.28936  0.44608  0.67452  Biso   1.000  H
  H668     1.0000 0.27690  0.34395  0.67834  Biso   1.000  H
  H669     1.0000 0.29827  0.41077  0.70374  Biso   1.000  H
  H670     1.0000 0.27686  0.34387  0.67834  Biso   1.000  H
  H671     1.0000 0.29831  0.41084  0.70374  Biso   1.000  H
  H672     1.0000 0.28930  0.44608  0.67452  Biso   1.000  H
  H673     1.0000 0.29821  0.41077  0.70374  Biso   1.000  H
  H674     1.0000 0.27680  0.34387  0.67834  Biso   1.000  H
  C814     1.0000 0.77685  0.76330  0.82040  Biso   1.000  C
  C815     1.0000 0.77678  0.76330  0.82040  Biso   1.000  C
  H675     1.0000 0.99153  0.16530  0.72653  Biso   1.000  H
  C816     1.0000 0.00455  0.22174  0.76392  Biso   1.000  C
  C817     1.0000 0.00449  0.22174  0.76392  Biso   1.000  C
  H676     1.0000 0.99434  0.41189  0.72653  Biso   1.000  H
  C818     1.0000 0.00364  0.36655  0.76390  Biso   1.000  C
  O151     1.0000 0.28558  0.97992  0.80539  Biso   1.000  O
  O152     1.0000 0.28561  0.97985  0.80539  Biso   1.000  O
  O153     1.0000 0.28564  0.97992  0.80539  Biso   1.000  O
  O154     1.0000 0.28555  0.97985  0.80539  Biso   1.000  O
  C819     1.0000 0.79292  0.84128  0.83458  Biso   1.000  C
  C820     1.0000 0.83784  0.72820  0.82269  Biso   1.000  C
  C821     1.0000 0.83780  0.72813  0.82269  Biso   1.000  C
  C822     1.0000 0.00784  0.29593  0.77757  Biso   1.000  C
  H677     1.0000 0.00844  0.17372  0.77347  Biso   1.000  H
  C823     1.0000 0.00791  0.29593  0.77757  Biso   1.000  C
  H678     1.0000 0.00838  0.17372  0.77347  Biso   1.000  H
  H679     1.0000 0.00563  0.41758  0.77347  Biso   1.000  H
  H680     1.0000 0.00565  0.41751  0.77347  Biso   1.000  H
  H681     1.0000 0.00569  0.41758  0.77347  Biso   1.000  H
  H682     1.0000 0.00559  0.41751  0.77347  Biso   1.000  H
  C824     1.0000 0.23674  0.01354  0.82040  Biso   1.000  C
  C825     1.0000 0.23670  0.01347  0.82040  Biso   1.000  C
  C826     1.0000 0.23668  0.01354  0.82040  Biso   1.000  C
  C827     1.0000 0.23664  0.01347  0.82040  Biso   1.000  C
  C828     1.0000 0.87162  0.89000  0.85132  Biso   1.000  C
  H683     1.0000 0.74957  0.86339  0.83306  Biso   1.000  H
  C829     1.0000 0.87169  0.89000  0.85132  Biso   1.000  C
  H684     1.0000 0.74953  0.86332  0.83306  Biso   1.000  H
  H685     1.0000 0.74951  0.86339  0.83306  Biso   1.000  H
  H686     1.0000 0.74947  0.86332  0.83306  Biso   1.000  H
  O155     1.0000 0.81355  0.64656  0.80939  Biso   1.000  O
  C830     1.0000 0.91772  0.77769  0.83816  Biso   1.000  C
  C831     1.0000 0.91774  0.77762  0.83816  Biso   1.000  C
  O156     1.0000 0.81349  0.64656  0.80939  Biso   1.000  O
  C832     1.0000 0.91768  0.77762  0.83816  Biso   1.000  C
  O157     1.0000 0.02008  0.30569  0.80539  Biso   1.000  O
  O158     1.0000 0.02014  0.30569  0.80539  Biso   1.000  O
  C833     1.0000 0.15867  0.95163  0.83458  Biso   1.000  C
  C834     1.0000 0.15873  0.95163  0.83458  Biso   1.000  C
  C835     1.0000 0.27184  0.10964  0.82269  Biso   1.000  C
  C836     1.0000 0.27178  0.10964  0.82269  Biso   1.000  C
  C837     1.0000 0.93624  0.85862  0.85230  Biso   1.000  C
  C838     1.0000 0.88089  0.97198  0.86763  Biso   1.000  C
  C839     1.0000 0.93630  0.85862  0.85230  Biso   1.000  C
  C840     1.0000 0.88095  0.97198  0.86763  Biso   1.000  C
  C841     1.0000 0.87404  0.60838  0.81348  Biso   1.000  C
  C842     1.0000 0.87398  0.60838  0.81348  Biso   1.000  C
  H687     1.0000 0.96144  0.75607  0.83916  Biso   1.000  H
  H688     1.0000 0.96138  0.75607  0.83916  Biso   1.000  H
  C843     1.0000 0.98646  0.22314  0.82040  Biso   1.000  C
  C844     1.0000 0.98640  0.22314  0.82040  Biso   1.000  C
  C845     1.0000 0.10995  0.98160  0.85132  Biso   1.000  C
  H689     1.0000 0.13662  0.88614  0.83306  Biso   1.000  H
  C846     1.0000 0.11001  0.98160  0.85132  Biso   1.000  C
  H690     1.0000 0.13669  0.88614  0.83306  Biso   1.000  H
  O159     1.0000 0.35340  0.16698  0.80939  Biso   1.000  O
  C847     1.0000 0.22229  0.14003  0.83816  Biso   1.000  C
  O160     1.0000 0.35343  0.16691  0.80939  Biso   1.000  O
  C848     1.0000 0.22236  0.14003  0.83816  Biso   1.000  C
  O161     1.0000 0.35337  0.16691  0.80939  Biso   1.000  O
  C849     1.0000 0.02800  0.90888  0.86763  Biso   1.000  C
  C850     1.0000 0.02806  0.90888  0.86763  Biso   1.000  C
  H691     1.0000 0.81801  0.95626  0.87437  Biso   1.000  H
  H692     1.0000 0.92096  0.98076  0.88348  Biso   1.000  H
  H693     1.0000 0.92090  0.98076  0.88348  Biso   1.000  H
  C851     1.0000 0.92238  0.06373  0.85230  Biso   1.000  C
  C852     1.0000 0.92232  0.06373  0.85230  Biso   1.000  C
  H694     1.0000 0.88740  0.58914  0.79626  Biso   1.000  H
  H695     1.0000 0.84327  0.55391  0.82548  Biso   1.000  H
  H696     1.0000 0.93294  0.65604  0.82166  Biso   1.000  H
  H697     1.0000 0.84324  0.55384  0.82548  Biso   1.000  H
  H698     1.0000 0.84321  0.55391  0.82548  Biso   1.000  H
  H699     1.0000 0.93288  0.65604  0.82166  Biso   1.000  H
  H700     1.0000 0.84318  0.55384  0.82548  Biso   1.000  H
  C853     1.0000 0.89031  0.16214  0.82269  Biso   1.000  C
  C854     1.0000 0.04840  0.20707  0.83458  Biso   1.000  C
  C855     1.0000 0.04836  0.20700  0.83458  Biso   1.000  C
  C856     1.0000 0.04830  0.20700  0.83458  Biso   1.000  C
  C857     1.0000 0.14137  0.07763  0.85230  Biso   1.000  C
  C858     1.0000 0.14131  0.07763  0.85230  Biso   1.000  C
  C859     1.0000 0.39162  0.26568  0.81348  Biso   1.000  C
  C860     1.0000 0.39159  0.26561  0.81348  Biso   1.000  C
  C861     1.0000 0.39168  0.26568  0.81348  Biso   1.000  C
  H701     1.0000 0.24391  0.20538  0.83916  Biso   1.000  H
  H702     1.0000 0.24393  0.20531  0.83916  Biso   1.000  H
  H703     1.0000 0.24387  0.20531  0.83916  Biso   1.000  H
  H704     1.0000 0.04372  0.86178  0.87437  Biso   1.000  H
  H705     1.0000 0.01921  0.94019  0.88348  Biso   1.000  H
  H706     1.0000 0.04374  0.86171  0.87437  Biso   1.000  H
  H707     1.0000 0.01924  0.94012  0.88348  Biso   1.000  H
  H708     1.0000 0.04378  0.86178  0.87437  Biso   1.000  H
  H709     1.0000 0.01927  0.94019  0.88348  Biso   1.000  H
  H710     1.0000 0.04368  0.86171  0.87437  Biso   1.000  H
  H711     1.0000 0.01918  0.94012  0.88348  Biso   1.000  H
  C862     1.0000 0.85991  0.08226  0.83816  Biso   1.000  C
  C863     1.0000 0.01832  0.12831  0.85132  Biso   1.000  C
  C864     1.0000 0.01838  0.12831  0.85132  Biso   1.000  C
  O162     1.0000 0.83303  0.18643  0.80939  Biso   1.000  O
  O163     1.0000 0.83297  0.18643  0.80939  Biso   1.000  O
  H712     1.0000 0.11379  0.25045  0.83306  Biso   1.000  H
  H713     1.0000 0.11386  0.25045  0.83306  Biso   1.000  H
  C865     1.0000 0.09111  0.11911  0.86763  Biso   1.000  C
  C866     1.0000 0.09107  0.11904  0.86763  Biso   1.000  C
  C867     1.0000 0.09105  0.11911  0.86763  Biso   1.000  C
  C868     1.0000 0.09101  0.11904  0.86763  Biso   1.000  C
  H714     1.0000 0.41083  0.29825  0.79626  Biso   1.000  H
  H715     1.0000 0.44613  0.28933  0.82548  Biso   1.000  H
  H716     1.0000 0.34389  0.27684  0.82166  Biso   1.000  H
  H717     1.0000 0.34395  0.27684  0.82166  Biso   1.000  H
  H718     1.0000 0.44607  0.28933  0.82548  Biso   1.000  H
  H719     1.0000 0.79464  0.03853  0.83916  Biso   1.000  H
  H720     1.0000 0.79458  0.03853  0.83916  Biso   1.000  H
  C869     1.0000 0.73433  0.12592  0.81348  Biso   1.000  C
  C870     1.0000 0.73427  0.12592  0.81348  Biso   1.000  C
  H721     1.0000 0.13820  0.18194  0.87437  Biso   1.000  H
  H722     1.0000 0.05982  0.07903  0.88348  Biso   1.000  H
  H723     1.0000 0.70176  0.11258  0.79626  Biso   1.000  H
  H724     1.0000 0.71065  0.15674  0.82548  Biso   1.000  H
  H725     1.0000 0.72312  0.06703  0.82166  Biso   1.000  H
  H726     1.0000 0.70167  0.11251  0.79626  Biso   1.000  H
  H727     1.0000 0.71059  0.15674  0.82548  Biso   1.000  H
  H728     1.0000 0.72306  0.06703  0.82166  Biso   1.000  H
  H729     1.0000 0.70170  0.11258  0.79626  Biso   1.000  H
  H730     1.0000 0.70173  0.11251  0.79626  Biso   1.000  H
  C871     1.0000 0.97193  0.88087  0.63237  Biso   1.000  C
  C872     1.0000 0.89000  0.87168  0.64868  Biso   1.000  C
  H731     1.0000 0.95626  0.81805  0.62563  Biso   1.000  H
  H732     1.0000 0.95622  0.81798  0.62563  Biso   1.000  H
  H733     1.0000 0.98075  0.92088  0.61652  Biso   1.000  H
  H734     1.0000 0.98078  0.92095  0.61652  Biso   1.000  H
  C873     1.0000 0.89003  0.87161  0.64868  Biso   1.000  C
  H735     1.0000 0.98072  0.92095  0.61652  Biso   1.000  H
  C874     1.0000 0.88997  0.87161  0.64868  Biso   1.000  C
  C875     1.0000 0.06373  0.92236  0.64770  Biso   1.000  C
  C876     1.0000 0.06379  0.92236  0.64770  Biso   1.000  C
  C877     1.0000 0.84132  0.79292  0.66542  Biso   1.000  C
  C878     1.0000 0.85864  0.93626  0.64770  Biso   1.000  C
  C879     1.0000 0.97199  0.88087  0.63237  Biso   1.000  C
  C880     1.0000 0.84126  0.79292  0.66542  Biso   1.000  C
  C881     1.0000 0.85858  0.93626  0.64770  Biso   1.000  C
  C882     1.0000 0.08226  0.85995  0.66184  Biso   1.000  C
  C883     1.0000 0.08228  0.85988  0.66184  Biso   1.000  C
  C884     1.0000 0.08232  0.85995  0.66184  Biso   1.000  C
  C885     1.0000 0.12834  0.01838  0.64868  Biso   1.000  C
  C886     1.0000 0.12831  0.01831  0.64868  Biso   1.000  C
  C887     1.0000 0.12840  0.01838  0.64868  Biso   1.000  C
  H736     1.0000 0.86334  0.74954  0.66694  Biso   1.000  H
  C888     1.0000 0.76328  0.77677  0.67960  Biso   1.000  C
  C889     1.0000 0.76332  0.77684  0.67960  Biso   1.000  C
  C890     1.0000 0.76325  0.77684  0.67960  Biso   1.000  C
  C891     1.0000 0.77765  0.91772  0.66184  Biso   1.000  C
  C892     1.0000 0.77771  0.91772  0.66184  Biso   1.000  C
  C893     1.0000 0.90889  0.02800  0.63237  Biso   1.000  C
  C894     1.0000 0.16220  0.89035  0.67731  Biso   1.000  C
  H737     1.0000 0.03852  0.79460  0.66084  Biso   1.000  H
  C895     1.0000 0.16216  0.89028  0.67731  Biso   1.000  C
  H738     1.0000 0.03858  0.79460  0.66084  Biso   1.000  H
  C896     1.0000 0.20704  0.04836  0.66542  Biso   1.000  C
  C897     1.0000 0.11911  0.09110  0.63237  Biso   1.000  C
  C898     1.0000 0.11907  0.09103  0.63237  Biso   1.000  C
  C899     1.0000 0.11905  0.09110  0.63237  Biso   1.000  C
  O164     1.0000 0.71438  0.69429  0.69461  Biso   1.000  O
  C900     1.0000 0.72816  0.83784  0.67731  Biso   1.000  C
  O165     1.0000 0.71444  0.69429  0.69461  Biso   1.000  O
  C901     1.0000 0.72822  0.83784  0.67731  Biso   1.000  C
  H739     1.0000 0.75611  0.96145  0.66084  Biso   1.000  H
  H740     1.0000 0.75607  0.96138  0.66084  Biso   1.000  H
  H741     1.0000 0.75605  0.96145  0.66084  Biso   1.000  H
  H742     1.0000 0.75601  0.96138  0.66084  Biso   1.000  H
  C902     1.0000 0.98162  0.10999  0.64868  Biso   1.000  C
  H743     1.0000 0.86174  0.04372  0.62563  Biso   1.000  H
  H744     1.0000 0.94019  0.01923  0.61652  Biso   1.000  H
  C903     1.0000 0.98158  0.10992  0.64868  Biso   1.000  C
  H745     1.0000 0.94013  0.01923  0.61652  Biso   1.000  H
  O166     1.0000 0.18641  0.83300  0.69061  Biso   1.000  O
  C904     1.0000 0.22319  0.98644  0.67960  Biso   1.000  C
  O167     1.0000 0.18647  0.83300  0.69061  Biso   1.000  O
  H746     1.0000 0.25048  0.11385  0.66694  Biso   1.000  H
  H747     1.0000 0.25044  0.11378  0.66694  Biso   1.000  H
  H748     1.0000 0.25042  0.11385  0.66694  Biso   1.000  H
  C905     1.0000 0.07761  0.14136  0.64770  Biso   1.000  C
  H749     1.0000 0.18193  0.13820  0.62563  Biso   1.000  H
  H750     1.0000 0.07902  0.05980  0.61652  Biso   1.000  H
  C906     1.0000 0.07767  0.14136  0.64770  Biso   1.000  C
  H751     1.0000 0.18199  0.13820  0.62563  Biso   1.000  H
  H752     1.0000 0.07908  0.05980  0.61652  Biso   1.000  H
  C907     1.0000 0.71190  0.70405  0.72243  Biso   1.000  C
  C908     1.0000 0.71193  0.70398  0.72243  Biso   1.000  C
  C909     1.0000 0.71187  0.70398  0.72243  Biso   1.000  C
  O168     1.0000 0.64656  0.81348  0.69061  Biso   1.000  O
  O169     1.0000 0.64660  0.81355  0.69061  Biso   1.000  O
  O170     1.0000 0.64653  0.81355  0.69061  Biso   1.000  O
  C910     1.0000 0.95163  0.15870  0.66542  Biso   1.000  C
  C911     1.0000 0.95153  0.15863  0.66542  Biso   1.000  C
  C912     1.0000 0.95160  0.15863  0.66542  Biso   1.000  C
  C913     1.0000 0.12594  0.73431  0.68652  Biso   1.000  C
  C914     1.0000 0.12600  0.73431  0.68652  Biso   1.000  C
  O171     1.0000 0.30566  0.02007  0.69461  Biso   1.000  O
  O172     1.0000 0.30572  0.02007  0.69461  Biso   1.000  O
  C915     1.0000 0.14002  0.22230  0.66184  Biso   1.000  C
  C916     1.0000 0.14009  0.22230  0.66184  Biso   1.000  C
  C917     1.0000 0.63708  0.63344  0.73610  Biso   1.000  C
  C918     1.0000 0.78280  0.77825  0.73608  Biso   1.000  C
  C919     1.0000 0.78277  0.77818  0.73608  Biso   1.000  C
  C920     1.0000 0.78274  0.77825  0.73608  Biso   1.000  C
  C921     1.0000 0.63702  0.63344  0.73610  Biso   1.000  C
  C922     1.0000 0.78271  0.77818  0.73608  Biso   1.000  C
  C923     1.0000 0.60836  0.87399  0.68652  Biso   1.000  C
  C924     1.0000 0.60840  0.87406  0.68652  Biso   1.000  C
  C925     1.0000 0.60834  0.87406  0.68652  Biso   1.000  C
  H753     1.0000 0.88617  0.13659  0.66694  Biso   1.000  H
  H754     1.0000 0.88611  0.13659  0.66694  Biso   1.000  H
  C926     1.0000 0.01354  0.23669  0.67960  Biso   1.000  C
  C927     1.0000 0.01348  0.23669  0.67960  Biso   1.000  C
  H755     1.0000 0.11257  0.70174  0.70374  Biso   1.000  H
  H756     1.0000 0.15678  0.71065  0.67452  Biso   1.000  H
  H757     1.0000 0.06704  0.72314  0.67834  Biso   1.000  H
  H758     1.0000 0.15675  0.71058  0.67452  Biso   1.000  H
  H759     1.0000 0.06710  0.72314  0.67834  Biso   1.000  H
  H760     1.0000 0.11263  0.70174  0.70374  Biso   1.000  H
  C928     1.0000 0.29596  0.00785  0.72243  Biso   1.000  C
  C929     1.0000 0.29590  0.00785  0.72243  Biso   1.000  C
  C930     1.0000 0.10963  0.27179  0.67731  Biso   1.000  C
  H761     1.0000 0.20536  0.24392  0.66084  Biso   1.000  H
  C931     1.0000 0.10969  0.27179  0.67731  Biso   1.000  C
  C932     1.0000 0.63344  0.63709  0.76390  Biso   1.000  C
  H762     1.0000 0.58804  0.58240  0.72653  Biso   1.000  H
  C933     1.0000 0.63340  0.63702  0.76390  Biso   1.000  C
  H763     1.0000 0.58810  0.58240  0.72653  Biso   1.000  H
  C934     1.0000 0.77824  0.78274  0.76392  Biso   1.000  C
  C935     1.0000 0.77818  0.78274  0.76392  Biso   1.000  C
  H764     1.0000 0.83461  0.82619  0.72653  Biso   1.000  H
  H765     1.0000 0.83471  0.82626  0.72653  Biso   1.000  H
  H766     1.0000 0.83465  0.82626  0.72653  Biso   1.000  H
  H767     1.0000 0.58917  0.88740  0.70374  Biso   1.000  H
  H768     1.0000 0.65608  0.93296  0.67834  Biso   1.000  H
  H769     1.0000 0.65605  0.93289  0.67834  Biso   1.000  H
  H770     1.0000 0.55390  0.84325  0.67452  Biso   1.000  H
  H771     1.0000 0.55387  0.84318  0.67452  Biso   1.000  H
  H772     1.0000 0.58911  0.88740  0.70374  Biso   1.000  H
  H773     1.0000 0.55384  0.84325  0.67452  Biso   1.000  H
  H774     1.0000 0.55381  0.84318  0.67452  Biso   1.000  H
  O173     1.0000 0.97989  0.28561  0.69461  Biso   1.000  O
  O174     1.0000 0.97985  0.28554  0.69461  Biso   1.000  O
  C936     1.0000 0.22179  0.00455  0.73608  Biso   1.000  C
  C937     1.0000 0.36656  0.00364  0.73610  Biso   1.000  C
  C938     1.0000 0.22176  0.00448  0.73608  Biso   1.000  C
  C939     1.0000 0.36653  0.00357  0.73610  Biso   1.000  C
  C940     1.0000 0.22169  0.00448  0.73608  Biso   1.000  C
  O175     1.0000 0.16698  0.35342  0.69061  Biso   1.000  O
  C941     1.0000 0.70404  0.71191  0.77757  Biso   1.000  C
  H775     1.0000 0.58243  0.58809  0.77347  Biso   1.000  H
  H776     1.0000 0.58246  0.58802  0.77347  Biso   1.000  H
  C942     1.0000 0.70398  0.71191  0.77757  Biso   1.000  C
  H777     1.0000 0.58240  0.58802  0.77347  Biso   1.000  H
  H778     1.0000 0.82622  0.83468  0.77347  Biso   1.000  H
  H779     1.0000 0.82618  0.83461  0.77347  Biso   1.000  H
  C943     1.0000 0.99206  0.28807  0.72243  Biso   1.000  C
  C944     1.0000 0.99212  0.28807  0.72243  Biso   1.000  C
  C945     1.0000 0.21723  0.99543  0.76392  Biso   1.000  C
  C946     1.0000 0.21717  0.99543  0.76392  Biso   1.000  C
  H780     1.0000 0.17375  0.00842  0.72653  Biso   1.000  H
  C947     1.0000 0.36291  0.99634  0.76390  Biso   1.000  C
  H781     1.0000 0.41751  0.00561  0.72653  Biso   1.000  H
  H782     1.0000 0.41758  0.00561  0.72653  Biso   1.000  H
  C948     1.0000 0.26565  0.39161  0.68652  Biso   1.000  C
  C949     1.0000 0.26559  0.39161  0.68652  Biso   1.000  C
  O176     1.0000 0.69427  0.71437  0.80539  Biso   1.000  O
  O177     1.0000 0.69433  0.71437  0.80539  Biso   1.000  O
  C950     1.0000 0.99549  0.21724  0.73608  Biso   1.000  C
  C951     1.0000 0.99634  0.36290  0.73610  Biso   1.000  C
  C952     1.0000 0.99540  0.21717  0.73608  Biso   1.000  C
  C953     1.0000 0.99628  0.36290  0.73610  Biso   1.000  C
  C954     1.0000 0.99543  0.21724  0.73608  Biso   1.000  C
  C955     1.0000 0.28810  0.99213  0.77757  Biso   1.000  C
  H783     1.0000 0.16533  0.99157  0.77347  Biso   1.000  H
  H784     1.0000 0.16539  0.99157  0.77347  Biso   1.000  H
  H785     1.0000 0.41190  0.99438  0.77347  Biso   1.000  H
  H786     1.0000 0.41193  0.99431  0.77347  Biso   1.000  H
  H787     1.0000 0.41196  0.99438  0.77347  Biso   1.000  H
  H788     1.0000 0.29825  0.41084  0.70374  Biso   1.000  H
  H789     1.0000 0.28936  0.44608  0.67452  Biso   1.000  H
  H790     1.0000 0.27690  0.34395  0.67834  Biso   1.000  H
  H791     1.0000 0.29827  0.41077  0.70374  Biso   1.000  H
  H792     1.0000 0.27686  0.34387  0.67834  Biso   1.000  H
  H793     1.0000 0.29831  0.41084  0.70374  Biso   1.000  H
  H794     1.0000 0.28930  0.44608  0.67452  Biso   1.000  H
  H795     1.0000 0.29821  0.41077  0.70374  Biso   1.000  H
  H796     1.0000 0.27680  0.34387  0.67834  Biso   1.000  H
  C956     1.0000 0.77685  0.76330  0.82040  Biso   1.000  C
  C957     1.0000 0.77678  0.76330  0.82040  Biso   1.000  C
  H797     1.0000 0.99153  0.16530  0.72653  Biso   1.000  H
  C958     1.0000 0.00455  0.22174  0.76392  Biso   1.000  C
  C959     1.0000 0.00449  0.22174  0.76392  Biso   1.000  C
  H798     1.0000 0.99434  0.41189  0.72653  Biso   1.000  H
  C960     1.0000 0.00364  0.36655  0.76390  Biso   1.000  C
  O178     1.0000 0.28558  0.97992  0.80539  Biso   1.000  O
  O179     1.0000 0.28561  0.97985  0.80539  Biso   1.000  O
  O180     1.0000 0.28564  0.97992  0.80539  Biso   1.000  O
  O181     1.0000 0.28555  0.97985  0.80539  Biso   1.000  O
  C961     1.0000 0.79292  0.84128  0.83458  Biso   1.000  C
  C962     1.0000 0.83784  0.72820  0.82269  Biso   1.000  C
  C963     1.0000 0.83780  0.72813  0.82269  Biso   1.000  C
  C964     1.0000 0.00784  0.29593  0.77757  Biso   1.000  C
  H799     1.0000 0.00844  0.17372  0.77347  Biso   1.000  H
  C965     1.0000 0.00791  0.29593  0.77757  Biso   1.000  C
  H800     1.0000 0.00838  0.17372  0.77347  Biso   1.000  H
  H801     1.0000 0.00563  0.41758  0.77347  Biso   1.000  H
  H802     1.0000 0.00565  0.41751  0.77347  Biso   1.000  H
  H803     1.0000 0.00569  0.41758  0.77347  Biso   1.000  H
  H804     1.0000 0.00559  0.41751  0.77347  Biso   1.000  H
  C966     1.0000 0.23674  0.01354  0.82040  Biso   1.000  C
  C967     1.0000 0.23670  0.01347  0.82040  Biso   1.000  C
  C968     1.0000 0.23668  0.01354  0.82040  Biso   1.000  C
  C969     1.0000 0.23664  0.01347  0.82040  Biso   1.000  C
  C970     1.0000 0.87162  0.89000  0.85132  Biso   1.000  C
  H805     1.0000 0.74957  0.86339  0.83306  Biso   1.000  H
  C971     1.0000 0.87169  0.89000  0.85132  Biso   1.000  C
  H806     1.0000 0.74953  0.86332  0.83306  Biso   1.000  H
  H807     1.0000 0.74951  0.86339  0.83306  Biso   1.000  H
  H808     1.0000 0.74947  0.86332  0.83306  Biso   1.000  H
  O182     1.0000 0.81355  0.64656  0.80939  Biso   1.000  O
  C972     1.0000 0.91772  0.77769  0.83816  Biso   1.000  C
  C973     1.0000 0.91774  0.77762  0.83816  Biso   1.000  C
  O183     1.0000 0.81349  0.64656  0.80939  Biso   1.000  O
  C974     1.0000 0.91768  0.77762  0.83816  Biso   1.000  C
  O184     1.0000 0.02008  0.30569  0.80539  Biso   1.000  O
  O185     1.0000 0.02014  0.30569  0.80539  Biso   1.000  O
  C975     1.0000 0.15867  0.95163  0.83458  Biso   1.000  C
  C976     1.0000 0.15873  0.95163  0.83458  Biso   1.000  C
  C977     1.0000 0.27184  0.10964  0.82269  Biso   1.000  C
  C978     1.0000 0.27178  0.10964  0.82269  Biso   1.000  C
  C979     1.0000 0.93624  0.85862  0.85230  Biso   1.000  C
  C980     1.0000 0.88089  0.97198  0.86763  Biso   1.000  C
  C981     1.0000 0.93630  0.85862  0.85230  Biso   1.000  C
  C982     1.0000 0.88095  0.97198  0.86763  Biso   1.000  C
  C983     1.0000 0.87404  0.60838  0.81348  Biso   1.000  C
  C984     1.0000 0.87398  0.60838  0.81348  Biso   1.000  C
  H809     1.0000 0.96144  0.75607  0.83916  Biso   1.000  H
  H810     1.0000 0.96138  0.75607  0.83916  Biso   1.000  H
  C985     1.0000 0.98646  0.22314  0.82040  Biso   1.000  C
  C986     1.0000 0.98640  0.22314  0.82040  Biso   1.000  C
  C987     1.0000 0.10995  0.98160  0.85132  Biso   1.000  C
  H811     1.0000 0.13662  0.88614  0.83306  Biso   1.000  H
  C988     1.0000 0.11001  0.98160  0.85132  Biso   1.000  C
  H812     1.0000 0.13669  0.88614  0.83306  Biso   1.000  H
  O186     1.0000 0.35340  0.16698  0.80939  Biso   1.000  O
  C989     1.0000 0.22229  0.14003  0.83816  Biso   1.000  C
  O187     1.0000 0.35343  0.16691  0.80939  Biso   1.000  O
  C990     1.0000 0.22236  0.14003  0.83816  Biso   1.000  C
  O188     1.0000 0.35337  0.16691  0.80939  Biso   1.000  O
  C991     1.0000 0.02800  0.90888  0.86763  Biso   1.000  C
  C992     1.0000 0.02806  0.90888  0.86763  Biso   1.000  C
  H813     1.0000 0.81801  0.95626  0.87437  Biso   1.000  H
  H814     1.0000 0.92096  0.98076  0.88348  Biso   1.000  H
  H815     1.0000 0.92090  0.98076  0.88348  Biso   1.000  H
  C993     1.0000 0.92238  0.06373  0.85230  Biso   1.000  C
  C994     1.0000 0.92232  0.06373  0.85230  Biso   1.000  C
  H816     1.0000 0.88740  0.58914  0.79626  Biso   1.000  H
  H817     1.0000 0.93294  0.65604  0.82166  Biso   1.000  H
  H818     1.0000 0.93288  0.65604  0.82166  Biso   1.000  H
  H819     1.0000 0.84327  0.55391  0.82548  Biso   1.000  H
  H820     1.0000 0.84324  0.55384  0.82548  Biso   1.000  H
  H821     1.0000 0.84321  0.55391  0.82548  Biso   1.000  H
  H822     1.0000 0.84318  0.55384  0.82548  Biso   1.000  H
  C995     1.0000 0.89031  0.16214  0.82269  Biso   1.000  C
  C996     1.0000 0.04840  0.20707  0.83458  Biso   1.000  C
  C997     1.0000 0.04836  0.20700  0.83458  Biso   1.000  C
  C998     1.0000 0.04830  0.20700  0.83458  Biso   1.000  C
  C999     1.0000 0.14137  0.07763  0.85230  Biso   1.000  C
  C1000    1.0000 0.14131  0.07763  0.85230  Biso   1.000  C
  C1001    1.0000 0.39162  0.26568  0.81348  Biso   1.000  C
  C1002    1.0000 0.39159  0.26561  0.81348  Biso   1.000  C
  C1003    1.0000 0.39168  0.26568  0.81348  Biso   1.000  C
  H823     1.0000 0.24391  0.20538  0.83916  Biso   1.000  H
  H824     1.0000 0.24393  0.20531  0.83916  Biso   1.000  H
  H825     1.0000 0.24387  0.20531  0.83916  Biso   1.000  H
  H826     1.0000 0.04372  0.86178  0.87437  Biso   1.000  H
  H827     1.0000 0.01921  0.94019  0.88348  Biso   1.000  H
  H828     1.0000 0.04374  0.86171  0.87437  Biso   1.000  H
  H829     1.0000 0.01924  0.94012  0.88348  Biso   1.000  H
  H830     1.0000 0.04378  0.86178  0.87437  Biso   1.000  H
  H831     1.0000 0.01927  0.94019  0.88348  Biso   1.000  H
  H832     1.0000 0.04368  0.86171  0.87437  Biso   1.000  H
  H833     1.0000 0.01918  0.94012  0.88348  Biso   1.000  H
  C1004    1.0000 0.85991  0.08226  0.83816  Biso   1.000  C
  C1005    1.0000 0.01832  0.12831  0.85132  Biso   1.000  C
  C1006    1.0000 0.01838  0.12831  0.85132  Biso   1.000  C
  O189     1.0000 0.83303  0.18643  0.80939  Biso   1.000  O
  O190     1.0000 0.83297  0.18643  0.80939  Biso   1.000  O
  H834     1.0000 0.11379  0.25045  0.83306  Biso   1.000  H
  H835     1.0000 0.11386  0.25045  0.83306  Biso   1.000  H
  C1007    1.0000 0.09111  0.11911  0.86763  Biso   1.000  C
  C1008    1.0000 0.09107  0.11904  0.86763  Biso   1.000  C
  C1009    1.0000 0.09105  0.11911  0.86763  Biso   1.000  C
  C1010    1.0000 0.09101  0.11904  0.86763  Biso   1.000  C
  H836     1.0000 0.41083  0.29825  0.79626  Biso   1.000  H
  H837     1.0000 0.44613  0.28933  0.82548  Biso   1.000  H
  H838     1.0000 0.34389  0.27684  0.82166  Biso   1.000  H
  H839     1.0000 0.34395  0.27684  0.82166  Biso   1.000  H
  H840     1.0000 0.44607  0.28933  0.82548  Biso   1.000  H
  H841     1.0000 0.79464  0.03853  0.83916  Biso   1.000  H
  H842     1.0000 0.79458  0.03853  0.83916  Biso   1.000  H
  C1011    1.0000 0.73433  0.12592  0.81348  Biso   1.000  C
  C1012    1.0000 0.73427  0.12592  0.81348  Biso   1.000  C
  H843     1.0000 0.13820  0.18194  0.87437  Biso   1.000  H
  H844     1.0000 0.05982  0.07903  0.88348  Biso   1.000  H
  H845     1.0000 0.70176  0.11258  0.79626  Biso   1.000  H
  H846     1.0000 0.71065  0.15674  0.82548  Biso   1.000  H
  H847     1.0000 0.72312  0.06703  0.82166  Biso   1.000  H
  H848     1.0000 0.70167  0.11251  0.79626  Biso   1.000  H
  H849     1.0000 0.71059  0.15674  0.82548  Biso   1.000  H
  H850     1.0000 0.72306  0.06703  0.82166  Biso   1.000  H
  H851     1.0000 0.70170  0.11258  0.79626  Biso   1.000  H
  H852     1.0000 0.70173  0.11251  0.79626  Biso   1.000  H
  C1013    1.0000 0.97193  0.88087  0.63237  Biso   1.000  C
  C1014    1.0000 0.89000  0.87168  0.64868  Biso   1.000  C
  C1015    1.0000 0.89003  0.87161  0.64868  Biso   1.000  C
  C1016    1.0000 0.88997  0.87161  0.64868  Biso   1.000  C
  H853     1.0000 0.95626  0.81805  0.62563  Biso   1.000  H
  H854     1.0000 0.98078  0.92095  0.61652  Biso   1.000  H
  H855     1.0000 0.95622  0.81798  0.62563  Biso   1.000  H
  H856     1.0000 0.98075  0.92088  0.61652  Biso   1.000  H
  H857     1.0000 0.98072  0.92095  0.61652  Biso   1.000  H
  C1017    1.0000 0.06373  0.92236  0.64770  Biso   1.000  C
  C1018    1.0000 0.06379  0.92236  0.64770  Biso   1.000  C
  C1019    1.0000 0.85864  0.93626  0.64770  Biso   1.000  C
  C1020    1.0000 0.85858  0.93626  0.64770  Biso   1.000  C
  C1021    1.0000 0.84132  0.79292  0.66542  Biso   1.000  C
  C1022    1.0000 0.84126  0.79292  0.66542  Biso   1.000  C
  C1023    1.0000 0.97199  0.88087  0.63237  Biso   1.000  C
  C1024    1.0000 0.08226  0.85995  0.66184  Biso   1.000  C
  C1025    1.0000 0.08228  0.85988  0.66184  Biso   1.000  C
  C1026    1.0000 0.08232  0.85995  0.66184  Biso   1.000  C
  C1027    1.0000 0.12834  0.01838  0.64868  Biso   1.000  C
  C1028    1.0000 0.12831  0.01831  0.64868  Biso   1.000  C
  C1029    1.0000 0.12840  0.01838  0.64868  Biso   1.000  C
  C1030    1.0000 0.77765  0.91772  0.66184  Biso   1.000  C
  C1031    1.0000 0.77771  0.91772  0.66184  Biso   1.000  C
  C1032    1.0000 0.90889  0.02800  0.63237  Biso   1.000  C
  C1033    1.0000 0.76332  0.77684  0.67960  Biso   1.000  C
  C1034    1.0000 0.76328  0.77677  0.67960  Biso   1.000  C
  C1035    1.0000 0.76325  0.77684  0.67960  Biso   1.000  C
  H858     1.0000 0.86334  0.74954  0.66694  Biso   1.000  H
  C1036    1.0000 0.16220  0.89035  0.67731  Biso   1.000  C
  H859     1.0000 0.03852  0.79460  0.66084  Biso   1.000  H
  C1037    1.0000 0.16216  0.89028  0.67731  Biso   1.000  C
  H860     1.0000 0.03858  0.79460  0.66084  Biso   1.000  H
  C1038    1.0000 0.11911  0.09110  0.63237  Biso   1.000  C
  C1039    1.0000 0.11907  0.09103  0.63237  Biso   1.000  C
  C1040    1.0000 0.11905  0.09110  0.63237  Biso   1.000  C
  C1041    1.0000 0.20704  0.04836  0.66542  Biso   1.000  C
  C1042    1.0000 0.72816  0.83784  0.67731  Biso   1.000  C
  H861     1.0000 0.75611  0.96145  0.66084  Biso   1.000  H
  C1043    1.0000 0.72822  0.83784  0.67731  Biso   1.000  C
  H862     1.0000 0.75607  0.96138  0.66084  Biso   1.000  H
  H863     1.0000 0.75605  0.96145  0.66084  Biso   1.000  H
  H864     1.0000 0.75601  0.96138  0.66084  Biso   1.000  H
  C1044    1.0000 0.98162  0.10999  0.64868  Biso   1.000  C
  H865     1.0000 0.86174  0.04372  0.62563  Biso   1.000  H
  H866     1.0000 0.94019  0.01923  0.61652  Biso   1.000  H
  C1045    1.0000 0.98158  0.10992  0.64868  Biso   1.000  C
  H867     1.0000 0.94013  0.01923  0.61652  Biso   1.000  H
  O191     1.0000 0.71438  0.69429  0.69461  Biso   1.000  O
  O192     1.0000 0.71444  0.69429  0.69461  Biso   1.000  O
  O193     1.0000 0.18641  0.83300  0.69061  Biso   1.000  O
  C1046    1.0000 0.22319  0.98644  0.67960  Biso   1.000  C
  O194     1.0000 0.18647  0.83300  0.69061  Biso   1.000  O
  C1047    1.0000 0.07761  0.14136  0.64770  Biso   1.000  C
  C1048    1.0000 0.07767  0.14136  0.64770  Biso   1.000  C
  H868     1.0000 0.18193  0.13820  0.62563  Biso   1.000  H
  H869     1.0000 0.07902  0.05980  0.61652  Biso   1.000  H
  H870     1.0000 0.18199  0.13820  0.62563  Biso   1.000  H
  H871     1.0000 0.07908  0.05980  0.61652  Biso   1.000  H
  H872     1.0000 0.25048  0.11385  0.66694  Biso   1.000  H
  H873     1.0000 0.25044  0.11378  0.66694  Biso   1.000  H
  H874     1.0000 0.25042  0.11385  0.66694  Biso   1.000  H
  O195     1.0000 0.64660  0.81355  0.69061  Biso   1.000  O
  O196     1.0000 0.64656  0.81348  0.69061  Biso   1.000  O
  O197     1.0000 0.64653  0.81355  0.69061  Biso   1.000  O
  C1049    1.0000 0.95163  0.15870  0.66542  Biso   1.000  C
  C1050    1.0000 0.95153  0.15863  0.66542  Biso   1.000  C
  C1051    1.0000 0.95160  0.15863  0.66542  Biso   1.000  C
  C1052    1.0000 0.71190  0.70405  0.72243  Biso   1.000  C
  C1053    1.0000 0.71193  0.70398  0.72243  Biso   1.000  C
  C1054    1.0000 0.71187  0.70398  0.72243  Biso   1.000  C
  C1055    1.0000 0.12594  0.73431  0.68652  Biso   1.000  C
  C1056    1.0000 0.12600  0.73431  0.68652  Biso   1.000  C
  O198     1.0000 0.30566  0.02007  0.69461  Biso   1.000  O
  O199     1.0000 0.30572  0.02007  0.69461  Biso   1.000  O
  C1057    1.0000 0.14002  0.22230  0.66184  Biso   1.000  C
  C1058    1.0000 0.14009  0.22230  0.66184  Biso   1.000  C
  C1059    1.0000 0.60840  0.87406  0.68652  Biso   1.000  C
  C1060    1.0000 0.60836  0.87399  0.68652  Biso   1.000  C
  C1061    1.0000 0.60834  0.87406  0.68652  Biso   1.000  C
  H875     1.0000 0.88617  0.13659  0.66694  Biso   1.000  H
  H876     1.0000 0.88611  0.13659  0.66694  Biso   1.000  H
  C1062    1.0000 0.01354  0.23669  0.67960  Biso   1.000  C
  C1063    1.0000 0.01348  0.23669  0.67960  Biso   1.000  C
  C1064    1.0000 0.63708  0.63344  0.73610  Biso   1.000  C
  C1065    1.0000 0.78280  0.77825  0.73608  Biso   1.000  C
  C1066    1.0000 0.78277  0.77818  0.73608  Biso   1.000  C
  C1067    1.0000 0.78274  0.77825  0.73608  Biso   1.000  C
  C1068    1.0000 0.63702  0.63344  0.73610  Biso   1.000  C
  C1069    1.0000 0.78271  0.77818  0.73608  Biso   1.000  C
  H877     1.0000 0.11257  0.70174  0.70374  Biso   1.000  H
  H878     1.0000 0.15678  0.71065  0.67452  Biso   1.000  H
  H879     1.0000 0.06704  0.72314  0.67834  Biso   1.000  H
  H880     1.0000 0.15675  0.71058  0.67452  Biso   1.000  H
  H881     1.0000 0.06710  0.72314  0.67834  Biso   1.000  H
  H882     1.0000 0.11263  0.70174  0.70374  Biso   1.000  H
  C1070    1.0000 0.29596  0.00785  0.72243  Biso   1.000  C
  C1071    1.0000 0.29590  0.00785  0.72243  Biso   1.000  C
  C1072    1.0000 0.10963  0.27179  0.67731  Biso   1.000  C
  C1073    1.0000 0.10969  0.27179  0.67731  Biso   1.000  C
  H883     1.0000 0.20536  0.24392  0.66084  Biso   1.000  H
  H884     1.0000 0.58917  0.88740  0.70374  Biso   1.000  H
  H885     1.0000 0.55390  0.84325  0.67452  Biso   1.000  H
  H886     1.0000 0.65608  0.93296  0.67834  Biso   1.000  H
  H887     1.0000 0.55387  0.84318  0.67452  Biso   1.000  H
  H888     1.0000 0.65605  0.93289  0.67834  Biso   1.000  H
  H889     1.0000 0.58911  0.88740  0.70374  Biso   1.000  H
  H890     1.0000 0.55384  0.84325  0.67452  Biso   1.000  H
  H891     1.0000 0.55381  0.84318  0.67452  Biso   1.000  H
  O200     1.0000 0.97989  0.28561  0.69461  Biso   1.000  O
  O201     1.0000 0.97985  0.28554  0.69461  Biso   1.000  O
  H892     1.0000 0.58804  0.58240  0.72653  Biso   1.000  H
  C1074    1.0000 0.63344  0.63709  0.76390  Biso   1.000  C
  C1075    1.0000 0.63340  0.63702  0.76390  Biso   1.000  C
  H893     1.0000 0.58810  0.58240  0.72653  Biso   1.000  H
  C1076    1.0000 0.77824  0.78274  0.76392  Biso   1.000  C
  H894     1.0000 0.83471  0.82626  0.72653  Biso   1.000  H
  H895     1.0000 0.83461  0.82619  0.72653  Biso   1.000  H
  C1077    1.0000 0.77818  0.78274  0.76392  Biso   1.000  C
  H896     1.0000 0.83465  0.82626  0.72653  Biso   1.000  H
  C1078    1.0000 0.22179  0.00455  0.73608  Biso   1.000  C
  C1079    1.0000 0.36656  0.00364  0.73610  Biso   1.000  C
  C1080    1.0000 0.22176  0.00448  0.73608  Biso   1.000  C
  C1081    1.0000 0.36653  0.00357  0.73610  Biso   1.000  C
  C1082    1.0000 0.22169  0.00448  0.73608  Biso   1.000  C
  O202     1.0000 0.16698  0.35342  0.69061  Biso   1.000  O
  C1083    1.0000 0.99206  0.28807  0.72243  Biso   1.000  C
  C1084    1.0000 0.99212  0.28807  0.72243  Biso   1.000  C
  C1085    1.0000 0.70404  0.71191  0.77757  Biso   1.000  C
  H897     1.0000 0.58243  0.58809  0.77347  Biso   1.000  H
  H898     1.0000 0.58246  0.58802  0.77347  Biso   1.000  H
  C1086    1.0000 0.70398  0.71191  0.77757  Biso   1.000  C
  H899     1.0000 0.58240  0.58802  0.77347  Biso   1.000  H
  H900     1.0000 0.82622  0.83468  0.77347  Biso   1.000  H
  H901     1.0000 0.82618  0.83461  0.77347  Biso   1.000  H
  C1087    1.0000 0.21723  0.99543  0.76392  Biso   1.000  C
  C1088    1.0000 0.21717  0.99543  0.76392  Biso   1.000  C
  H902     1.0000 0.17375  0.00842  0.72653  Biso   1.000  H
  C1089    1.0000 0.36291  0.99634  0.76390  Biso   1.000  C
  H903     1.0000 0.41751  0.00561  0.72653  Biso   1.000  H
  H904     1.0000 0.41758  0.00561  0.72653  Biso   1.000  H
  C1090    1.0000 0.26565  0.39161  0.68652  Biso   1.000  C
  C1091    1.0000 0.26559  0.39161  0.68652  Biso   1.000  C
  C1092    1.0000 0.99549  0.21724  0.73608  Biso   1.000  C
  C1093    1.0000 0.99634  0.36290  0.73610  Biso   1.000  C
  C1094    1.0000 0.99540  0.21717  0.73608  Biso   1.000  C
  C1095    1.0000 0.99628  0.36290  0.73610  Biso   1.000  C
  C1096    1.0000 0.99543  0.21724  0.73608  Biso   1.000  C
  O203     1.0000 0.69427  0.71437  0.80539  Biso   1.000  O
  O204     1.0000 0.69433  0.71437  0.80539  Biso   1.000  O
  C1097    1.0000 0.28810  0.99213  0.77757  Biso   1.000  C
  H905     1.0000 0.16533  0.99157  0.77347  Biso   1.000  H
  H906     1.0000 0.16539  0.99157  0.77347  Biso   1.000  H
  H907     1.0000 0.41190  0.99438  0.77347  Biso   1.000  H
  H908     1.0000 0.41193  0.99431  0.77347  Biso   1.000  H
  H909     1.0000 0.41196  0.99438  0.77347  Biso   1.000  H
  H910     1.0000 0.29825  0.41084  0.70374  Biso   1.000  H
  H911     1.0000 0.28936  0.44608  0.67452  Biso   1.000  H
  H912     1.0000 0.27690  0.34395  0.67834  Biso   1.000  H
  H913     1.0000 0.29827  0.41077  0.70374  Biso   1.000  H
  H914     1.0000 0.27686  0.34387  0.67834  Biso   1.000  H
  H915     1.0000 0.29831  0.41084  0.70374  Biso   1.000  H
  H916     1.0000 0.28930  0.44608  0.67452  Biso   1.000  H
  H917     1.0000 0.29821  0.41077  0.70374  Biso   1.000  H
  H918     1.0000 0.27680  0.34387  0.67834  Biso   1.000  H
  H919     1.0000 0.99153  0.16530  0.72653  Biso   1.000  H
  C1098    1.0000 0.00455  0.22174  0.76392  Biso   1.000  C
  C1099    1.0000 0.00449  0.22174  0.76392  Biso   1.000  C
  H920     1.0000 0.99434  0.41189  0.72653  Biso   1.000  H
  C1100    1.0000 0.00364  0.36655  0.76390  Biso   1.000  C
  C1101    1.0000 0.77685  0.76330  0.82040  Biso   1.000  C
  C1102    1.0000 0.77678  0.76330  0.82040  Biso   1.000  C
  O205     1.0000 0.28558  0.97992  0.80539  Biso   1.000  O
  O206     1.0000 0.28561  0.97985  0.80539  Biso   1.000  O
  O207     1.0000 0.28564  0.97992  0.80539  Biso   1.000  O
  O208     1.0000 0.28555  0.97985  0.80539  Biso   1.000  O
  C1103    1.0000 0.00784  0.29593  0.77757  Biso   1.000  C
  H921     1.0000 0.00844  0.17372  0.77347  Biso   1.000  H
  C1104    1.0000 0.00791  0.29593  0.77757  Biso   1.000  C
  H922     1.0000 0.00838  0.17372  0.77347  Biso   1.000  H
  H923     1.0000 0.00563  0.41758  0.77347  Biso   1.000  H
  H924     1.0000 0.00565  0.41751  0.77347  Biso   1.000  H
  H925     1.0000 0.00569  0.41758  0.77347  Biso   1.000  H
  H926     1.0000 0.00559  0.41751  0.77347  Biso   1.000  H
  C1105    1.0000 0.79292  0.84128  0.83458  Biso   1.000  C
  C1106    1.0000 0.83784  0.72820  0.82269  Biso   1.000  C
  C1107    1.0000 0.83780  0.72813  0.82269  Biso   1.000  C
  C1108    1.0000 0.23674  0.01354  0.82040  Biso   1.000  C
  C1109    1.0000 0.23670  0.01347  0.82040  Biso   1.000  C
  C1110    1.0000 0.23668  0.01354  0.82040  Biso   1.000  C
  C1111    1.0000 0.23664  0.01347  0.82040  Biso   1.000  C
  O209     1.0000 0.02008  0.30569  0.80539  Biso   1.000  O
  O210     1.0000 0.02014  0.30569  0.80539  Biso   1.000  O
  C1112    1.0000 0.87162  0.89000  0.85132  Biso   1.000  C
  H927     1.0000 0.74957  0.86339  0.83306  Biso   1.000  H
  C1113    1.0000 0.87169  0.89000  0.85132  Biso   1.000  C
  H928     1.0000 0.74953  0.86332  0.83306  Biso   1.000  H
  H929     1.0000 0.74951  0.86339  0.83306  Biso   1.000  H
  H930     1.0000 0.74947  0.86332  0.83306  Biso   1.000  H
  O211     1.0000 0.81355  0.64656  0.80939  Biso   1.000  O
  C1114    1.0000 0.91772  0.77769  0.83816  Biso   1.000  C
  C1115    1.0000 0.91774  0.77762  0.83816  Biso   1.000  C
  O212     1.0000 0.81349  0.64656  0.80939  Biso   1.000  O
  C1116    1.0000 0.91768  0.77762  0.83816  Biso   1.000  C
  C1117    1.0000 0.15867  0.95163  0.83458  Biso   1.000  C
  C1118    1.0000 0.15873  0.95163  0.83458  Biso   1.000  C
  C1119    1.0000 0.27184  0.10964  0.82269  Biso   1.000  C
  C1120    1.0000 0.27178  0.10964  0.82269  Biso   1.000  C
  C1121    1.0000 0.98646  0.22314  0.82040  Biso   1.000  C
  C1122    1.0000 0.98640  0.22314  0.82040  Biso   1.000  C
  C1123    1.0000 0.93624  0.85862  0.85230  Biso   1.000  C
  C1124    1.0000 0.88089  0.97198  0.86763  Biso   1.000  C
  C1125    1.0000 0.93630  0.85862  0.85230  Biso   1.000  C
  C1126    1.0000 0.88095  0.97198  0.86763  Biso   1.000  C
  C1127    1.0000 0.87404  0.60838  0.81348  Biso   1.000  C
  C1128    1.0000 0.87398  0.60838  0.81348  Biso   1.000  C
  H931     1.0000 0.96144  0.75607  0.83916  Biso   1.000  H
  H932     1.0000 0.96138  0.75607  0.83916  Biso   1.000  H
  C1129    1.0000 0.10995  0.98160  0.85132  Biso   1.000  C
  C1130    1.0000 0.11001  0.98160  0.85132  Biso   1.000  C
  H933     1.0000 0.13662  0.88614  0.83306  Biso   1.000  H
  H934     1.0000 0.13669  0.88614  0.83306  Biso   1.000  H
  C1131    1.0000 0.22229  0.14003  0.83816  Biso   1.000  C
  C1132    1.0000 0.22236  0.14003  0.83816  Biso   1.000  C
  O213     1.0000 0.35340  0.16698  0.80939  Biso   1.000  O
  O214     1.0000 0.35343  0.16691  0.80939  Biso   1.000  O
  O215     1.0000 0.35337  0.16691  0.80939  Biso   1.000  O
  C1133    1.0000 0.89031  0.16214  0.82269  Biso   1.000  C
  C1134    1.0000 0.04840  0.20707  0.83458  Biso   1.000  C
  C1135    1.0000 0.04836  0.20700  0.83458  Biso   1.000  C
  C1136    1.0000 0.04830  0.20700  0.83458  Biso   1.000  C
  C1137    1.0000 0.02800  0.90888  0.86763  Biso   1.000  C
  C1138    1.0000 0.02806  0.90888  0.86763  Biso   1.000  C
  H935     1.0000 0.81801  0.95626  0.87437  Biso   1.000  H
  H936     1.0000 0.92096  0.98076  0.88348  Biso   1.000  H
  H937     1.0000 0.92090  0.98076  0.88348  Biso   1.000  H
  C1139    1.0000 0.92238  0.06373  0.85230  Biso   1.000  C
  C1140    1.0000 0.92232  0.06373  0.85230  Biso   1.000  C
  H938     1.0000 0.88740  0.58914  0.79626  Biso   1.000  H
  H939     1.0000 0.84327  0.55391  0.82548  Biso   1.000  H
  H940     1.0000 0.93294  0.65604  0.82166  Biso   1.000  H
  H941     1.0000 0.84324  0.55384  0.82548  Biso   1.000  H
  H942     1.0000 0.84321  0.55391  0.82548  Biso   1.000  H
  H943     1.0000 0.93288  0.65604  0.82166  Biso   1.000  H
  H944     1.0000 0.84318  0.55384  0.82548  Biso   1.000  H
  C1141    1.0000 0.14137  0.07763  0.85230  Biso   1.000  C
  C1142    1.0000 0.14131  0.07763  0.85230  Biso   1.000  C
  H945     1.0000 0.24391  0.20538  0.83916  Biso   1.000  H
  H946     1.0000 0.24393  0.20531  0.83916  Biso   1.000  H
  H947     1.0000 0.24387  0.20531  0.83916  Biso   1.000  H
  C1143    1.0000 0.39162  0.26568  0.81348  Biso   1.000  C
  C1144    1.0000 0.39159  0.26561  0.81348  Biso   1.000  C
  C1145    1.0000 0.39168  0.26568  0.81348  Biso   1.000  C
  C1146    1.0000 0.85991  0.08226  0.83816  Biso   1.000  C
  O216     1.0000 0.83303  0.18643  0.80939  Biso   1.000  O
  O217     1.0000 0.83297  0.18643  0.80939  Biso   1.000  O
  C1147    1.0000 0.01832  0.12831  0.85132  Biso   1.000  C
  C1148    1.0000 0.01838  0.12831  0.85132  Biso   1.000  C
  H948     1.0000 0.11379  0.25045  0.83306  Biso   1.000  H
  H949     1.0000 0.11386  0.25045  0.83306  Biso   1.000  H
  H950     1.0000 0.04372  0.86178  0.87437  Biso   1.000  H
  H951     1.0000 0.01921  0.94019  0.88348  Biso   1.000  H
  H952     1.0000 0.04374  0.86171  0.87437  Biso   1.000  H
  H953     1.0000 0.01924  0.94012  0.88348  Biso   1.000  H
  H954     1.0000 0.04378  0.86178  0.87437  Biso   1.000  H
  H955     1.0000 0.01927  0.94019  0.88348  Biso   1.000  H
  H956     1.0000 0.04368  0.86171  0.87437  Biso   1.000  H
  H957     1.0000 0.01918  0.94012  0.88348  Biso   1.000  H
  C1149    1.0000 0.09111  0.11911  0.86763  Biso   1.000  C
  C1150    1.0000 0.09107  0.11904  0.86763  Biso   1.000  C
  C1151    1.0000 0.09105  0.11911  0.86763  Biso   1.000  C
  C1152    1.0000 0.09101  0.11904  0.86763  Biso   1.000  C
  H958     1.0000 0.41083  0.29825  0.79626  Biso   1.000  H
  H959     1.0000 0.44613  0.28933  0.82548  Biso   1.000  H
  H960     1.0000 0.34389  0.27684  0.82166  Biso   1.000  H
  H961     1.0000 0.34395  0.27684  0.82166  Biso   1.000  H
  H962     1.0000 0.44607  0.28933  0.82548  Biso   1.000  H
  H963     1.0000 0.79464  0.03853  0.83916  Biso   1.000  H
  H964     1.0000 0.79458  0.03853  0.83916  Biso   1.000  H
  C1153    1.0000 0.73433  0.12592  0.81348  Biso   1.000  C
  C1154    1.0000 0.73427  0.12592  0.81348  Biso   1.000  C
  H965     1.0000 0.13820  0.18194  0.87437  Biso   1.000  H
  H966     1.0000 0.05982  0.07903  0.88348  Biso   1.000  H
  H967     1.0000 0.70176  0.11258  0.79626  Biso   1.000  H
  H968     1.0000 0.71065  0.15674  0.82548  Biso   1.000  H
  H969     1.0000 0.72312  0.06703  0.82166  Biso   1.000  H
  H970     1.0000 0.70167  0.11251  0.79626  Biso   1.000  H
  H971     1.0000 0.71059  0.15674  0.82548  Biso   1.000  H
  H972     1.0000 0.72306  0.06703  0.82166  Biso   1.000  H
  H973     1.0000 0.70170  0.11258  0.79626  Biso   1.000  H
  H974     1.0000 0.70173  0.11251  0.79626  Biso   1.000  H
  C1155    1.0000 0.97193  0.88087  0.63237  Biso   1.000  C
  C1156    1.0000 0.89000  0.87168  0.64868  Biso   1.000  C
  C1157    1.0000 0.89003  0.87161  0.64868  Biso   1.000  C
  C1158    1.0000 0.88997  0.87161  0.64868  Biso   1.000  C
  H975     1.0000 0.95626  0.81805  0.62563  Biso   1.000  H
  H976     1.0000 0.98078  0.92095  0.61652  Biso   1.000  H
  H977     1.0000 0.95622  0.81798  0.62563  Biso   1.000  H
  H978     1.0000 0.98075  0.92088  0.61652  Biso   1.000  H
  H979     1.0000 0.98072  0.92095  0.61652  Biso   1.000  H
  C1159    1.0000 0.06373  0.92236  0.64770  Biso   1.000  C
  C1160    1.0000 0.06379  0.92236  0.64770  Biso   1.000  C
  C1161    1.0000 0.84132  0.79292  0.66542  Biso   1.000  C
  C1162    1.0000 0.84126  0.79292  0.66542  Biso   1.000  C
  C1163    1.0000 0.85864  0.93626  0.64770  Biso   1.000  C
  C1164    1.0000 0.97199  0.88087  0.63237  Biso   1.000  C
  C1165    1.0000 0.85858  0.93626  0.64770  Biso   1.000  C
  C1166    1.0000 0.08226  0.85995  0.66184  Biso   1.000  C
  C1167    1.0000 0.08228  0.85988  0.66184  Biso   1.000  C
  C1168    1.0000 0.08232  0.85995  0.66184  Biso   1.000  C
  C1169    1.0000 0.12834  0.01838  0.64868  Biso   1.000  C
  C1170    1.0000 0.12831  0.01831  0.64868  Biso   1.000  C
  C1171    1.0000 0.12840  0.01838  0.64868  Biso   1.000  C
  C1172    1.0000 0.76332  0.77684  0.67960  Biso   1.000  C
  C1173    1.0000 0.76328  0.77677  0.67960  Biso   1.000  C
  C1174    1.0000 0.76325  0.77684  0.67960  Biso   1.000  C
  H980     1.0000 0.86334  0.74954  0.66694  Biso   1.000  H
  C1175    1.0000 0.77765  0.91772  0.66184  Biso   1.000  C
  C1176    1.0000 0.77771  0.91772  0.66184  Biso   1.000  C
  C1177    1.0000 0.90889  0.02800  0.63237  Biso   1.000  C
  C1178    1.0000 0.16220  0.89035  0.67731  Biso   1.000  C
  C1179    1.0000 0.16216  0.89028  0.67731  Biso   1.000  C
  H981     1.0000 0.03852  0.79460  0.66084  Biso   1.000  H
  H982     1.0000 0.03858  0.79460  0.66084  Biso   1.000  H
  C1180    1.0000 0.20704  0.04836  0.66542  Biso   1.000  C
  C1181    1.0000 0.11911  0.09110  0.63237  Biso   1.000  C
  C1182    1.0000 0.11907  0.09103  0.63237  Biso   1.000  C
  C1183    1.0000 0.11905  0.09110  0.63237  Biso   1.000  C
  O218     1.0000 0.71438  0.69429  0.69461  Biso   1.000  O
  O219     1.0000 0.71444  0.69429  0.69461  Biso   1.000  O
  C1184    1.0000 0.72816  0.83784  0.67731  Biso   1.000  C
  C1185    1.0000 0.72822  0.83784  0.67731  Biso   1.000  C
  H983     1.0000 0.75611  0.96145  0.66084  Biso   1.000  H
  H984     1.0000 0.75607  0.96138  0.66084  Biso   1.000  H
  H985     1.0000 0.75605  0.96145  0.66084  Biso   1.000  H
  H986     1.0000 0.75601  0.96138  0.66084  Biso   1.000  H
  C1186    1.0000 0.98162  0.10999  0.64868  Biso   1.000  C
  H987     1.0000 0.86174  0.04372  0.62563  Biso   1.000  H
  H988     1.0000 0.94019  0.01923  0.61652  Biso   1.000  H
  C1187    1.0000 0.98158  0.10992  0.64868  Biso   1.000  C
  H989     1.0000 0.94013  0.01923  0.61652  Biso   1.000  H
  C1188    1.0000 0.22319  0.98644  0.67960  Biso   1.000  C
  O220     1.0000 0.18641  0.83300  0.69061  Biso   1.000  O
  O221     1.0000 0.18647  0.83300  0.69061  Biso   1.000  O
  H990     1.0000 0.25048  0.11385  0.66694  Biso   1.000  H
  H991     1.0000 0.25044  0.11378  0.66694  Biso   1.000  H
  H992     1.0000 0.25042  0.11385  0.66694  Biso   1.000  H
  C1189    1.0000 0.07761  0.14136  0.64770  Biso   1.000  C
  C1190    1.0000 0.07767  0.14136  0.64770  Biso   1.000  C
  H993     1.0000 0.18193  0.13820  0.62563  Biso   1.000  H
  H994     1.0000 0.07902  0.05980  0.61652  Biso   1.000  H
  H995     1.0000 0.18199  0.13820  0.62563  Biso   1.000  H
  H996     1.0000 0.07908  0.05980  0.61652  Biso   1.000  H
  C1191    1.0000 0.71190  0.70405  0.72243  Biso   1.000  C
  C1192    1.0000 0.71193  0.70398  0.72243  Biso   1.000  C
  C1193    1.0000 0.71187  0.70398  0.72243  Biso   1.000  C
  O222     1.0000 0.64660  0.81355  0.69061  Biso   1.000  O
  O223     1.0000 0.64656  0.81348  0.69061  Biso   1.000  O
  O224     1.0000 0.64653  0.81355  0.69061  Biso   1.000  O
  C1194    1.0000 0.95163  0.15870  0.66542  Biso   1.000  C
  C1195    1.0000 0.95153  0.15863  0.66542  Biso   1.000  C
  C1196    1.0000 0.95160  0.15863  0.66542  Biso   1.000  C
  O225     1.0000 0.30566  0.02007  0.69461  Biso   1.000  O
  O226     1.0000 0.30572  0.02007  0.69461  Biso   1.000  O
  C1197    1.0000 0.12594  0.73431  0.68652  Biso   1.000  C
  C1198    1.0000 0.12600  0.73431  0.68652  Biso   1.000  C
  C1199    1.0000 0.14002  0.22230  0.66184  Biso   1.000  C
  C1200    1.0000 0.14009  0.22230  0.66184  Biso   1.000  C
  C1201    1.0000 0.78280  0.77825  0.73608  Biso   1.000  C
  C1202    1.0000 0.78277  0.77818  0.73608  Biso   1.000  C
  C1203    1.0000 0.78274  0.77825  0.73608  Biso   1.000  C
  C1204    1.0000 0.78271  0.77818  0.73608  Biso   1.000  C
  C1205    1.0000 0.63708  0.63344  0.73610  Biso   1.000  C
  C1206    1.0000 0.63702  0.63344  0.73610  Biso   1.000  C
  C1207    1.0000 0.60840  0.87406  0.68652  Biso   1.000  C
  C1208    1.0000 0.60836  0.87399  0.68652  Biso   1.000  C
  C1209    1.0000 0.60834  0.87406  0.68652  Biso   1.000  C
  C1210    1.0000 0.01354  0.23669  0.67960  Biso   1.000  C
  C1211    1.0000 0.01348  0.23669  0.67960  Biso   1.000  C
  H997     1.0000 0.88617  0.13659  0.66694  Biso   1.000  H
  H998     1.0000 0.88611  0.13659  0.66694  Biso   1.000  H
  C1212    1.0000 0.29596  0.00785  0.72243  Biso   1.000  C
  C1213    1.0000 0.29590  0.00785  0.72243  Biso   1.000  C
  H999     1.0000 0.11257  0.70174  0.70374  Biso   1.000  H
  H1000    1.0000 0.15678  0.71065  0.67452  Biso   1.000  H
  H1001    1.0000 0.06704  0.72314  0.67834  Biso   1.000  H
  H1002    1.0000 0.15675  0.71058  0.67452  Biso   1.000  H
  H1003    1.0000 0.06710  0.72314  0.67834  Biso   1.000  H
  H1004    1.0000 0.11263  0.70174  0.70374  Biso   1.000  H
  C1214    1.0000 0.10963  0.27179  0.67731  Biso   1.000  C
  C1215    1.0000 0.10969  0.27179  0.67731  Biso   1.000  C
  H1005    1.0000 0.20536  0.24392  0.66084  Biso   1.000  H
  C1216    1.0000 0.77824  0.78274  0.76392  Biso   1.000  C
  C1217    1.0000 0.77818  0.78274  0.76392  Biso   1.000  C
  H1006    1.0000 0.83471  0.82626  0.72653  Biso   1.000  H
  H1007    1.0000 0.83461  0.82619  0.72653  Biso   1.000  H
  H1008    1.0000 0.83465  0.82626  0.72653  Biso   1.000  H
  C1218    1.0000 0.63344  0.63709  0.76390  Biso   1.000  C
  C1219    1.0000 0.63340  0.63702  0.76390  Biso   1.000  C
  H1009    1.0000 0.58804  0.58240  0.72653  Biso   1.000  H
  H1010    1.0000 0.58810  0.58240  0.72653  Biso   1.000  H
  H1011    1.0000 0.58917  0.88740  0.70374  Biso   1.000  H
  H1012    1.0000 0.55390  0.84325  0.67452  Biso   1.000  H
  H1013    1.0000 0.65608  0.93296  0.67834  Biso   1.000  H
  H1014    1.0000 0.55387  0.84318  0.67452  Biso   1.000  H
  H1015    1.0000 0.65605  0.93289  0.67834  Biso   1.000  H
  H1016    1.0000 0.58911  0.88740  0.70374  Biso   1.000  H
  H1017    1.0000 0.55384  0.84325  0.67452  Biso   1.000  H
  H1018    1.0000 0.55381  0.84318  0.67452  Biso   1.000  H
  O227     1.0000 0.97989  0.28561  0.69461  Biso   1.000  O
  O228     1.0000 0.97985  0.28554  0.69461  Biso   1.000  O
  C1220    1.0000 0.22179  0.00455  0.73608  Biso   1.000  C
  C1221    1.0000 0.22176  0.00448  0.73608  Biso   1.000  C
  C1222    1.0000 0.22169  0.00448  0.73608  Biso   1.000  C
  C1223    1.0000 0.36656  0.00364  0.73610  Biso   1.000  C
  C1224    1.0000 0.36653  0.00357  0.73610  Biso   1.000  C
  O229     1.0000 0.16698  0.35342  0.69061  Biso   1.000  O
  C1225    1.0000 0.70404  0.71191  0.77757  Biso   1.000  C
  C1226    1.0000 0.70398  0.71191  0.77757  Biso   1.000  C
  H1019    1.0000 0.82622  0.83468  0.77347  Biso   1.000  H
  H1020    1.0000 0.82618  0.83461  0.77347  Biso   1.000  H
  H1021    1.0000 0.58243  0.58809  0.77347  Biso   1.000  H
  H1022    1.0000 0.58246  0.58802  0.77347  Biso   1.000  H
  H1023    1.0000 0.58240  0.58802  0.77347  Biso   1.000  H
  C1227    1.0000 0.99206  0.28807  0.72243  Biso   1.000  C
  C1228    1.0000 0.99212  0.28807  0.72243  Biso   1.000  C
  C1229    1.0000 0.21723  0.99543  0.76392  Biso   1.000  C
  C1230    1.0000 0.21717  0.99543  0.76392  Biso   1.000  C
  H1024    1.0000 0.17375  0.00842  0.72653  Biso   1.000  H
  C1231    1.0000 0.36291  0.99634  0.76390  Biso   1.000  C
  H1025    1.0000 0.41751  0.00561  0.72653  Biso   1.000  H
  H1026    1.0000 0.41758  0.00561  0.72653  Biso   1.000  H
  C1232    1.0000 0.26565  0.39161  0.68652  Biso   1.000  C
  C1233    1.0000 0.26559  0.39161  0.68652  Biso   1.000  C
  O230     1.0000 0.69427  0.71437  0.80539  Biso   1.000  O
  O231     1.0000 0.69433  0.71437  0.80539  Biso   1.000  O
  C1234    1.0000 0.99549  0.21724  0.73608  Biso   1.000  C
  C1235    1.0000 0.99540  0.21717  0.73608  Biso   1.000  C
  C1236    1.0000 0.99543  0.21724  0.73608  Biso   1.000  C
  C1237    1.0000 0.99634  0.36290  0.73610  Biso   1.000  C
  C1238    1.0000 0.99628  0.36290  0.73610  Biso   1.000  C
  C1239    1.0000 0.28810  0.99213  0.77757  Biso   1.000  C
  H1027    1.0000 0.16533  0.99157  0.77347  Biso   1.000  H
  H1028    1.0000 0.16539  0.99157  0.77347  Biso   1.000  H
  H1029    1.0000 0.41190  0.99438  0.77347  Biso   1.000  H
  H1030    1.0000 0.41193  0.99431  0.77347  Biso   1.000  H
  H1031    1.0000 0.41196  0.99438  0.77347  Biso   1.000  H
  H1032    1.0000 0.29825  0.41084  0.70374  Biso   1.000  H
  H1033    1.0000 0.28936  0.44608  0.67452  Biso   1.000  H
  H1034    1.0000 0.27690  0.34395  0.67834  Biso   1.000  H
  H1035    1.0000 0.29827  0.41077  0.70374  Biso   1.000  H
  H1036    1.0000 0.27686  0.34387  0.67834  Biso   1.000  H
  H1037    1.0000 0.29831  0.41084  0.70374  Biso   1.000  H
  H1038    1.0000 0.28930  0.44608  0.67452  Biso   1.000  H
  H1039    1.0000 0.29821  0.41077  0.70374  Biso   1.000  H
  H1040    1.0000 0.27680  0.34387  0.67834  Biso   1.000  H
  C1240    1.0000 0.77685  0.76330  0.82040  Biso   1.000  C
  C1241    1.0000 0.77678  0.76330  0.82040  Biso   1.000  C
  C1242    1.0000 0.00455  0.22174  0.76392  Biso   1.000  C
  C1243    1.0000 0.00449  0.22174  0.76392  Biso   1.000  C
  H1041    1.0000 0.99153  0.16530  0.72653  Biso   1.000  H
  C1244    1.0000 0.00364  0.36655  0.76390  Biso   1.000  C
  H1042    1.0000 0.99434  0.41189  0.72653  Biso   1.000  H
  O232     1.0000 0.28558  0.97992  0.80539  Biso   1.000  O
  O233     1.0000 0.28561  0.97985  0.80539  Biso   1.000  O
  O234     1.0000 0.28564  0.97992  0.80539  Biso   1.000  O
  O235     1.0000 0.28555  0.97985  0.80539  Biso   1.000  O
  C1245    1.0000 0.79292  0.84128  0.83458  Biso   1.000  C
  C1246    1.0000 0.83784  0.72820  0.82269  Biso   1.000  C
  C1247    1.0000 0.83780  0.72813  0.82269  Biso   1.000  C
  C1248    1.0000 0.00784  0.29593  0.77757  Biso   1.000  C
  C1249    1.0000 0.00791  0.29593  0.77757  Biso   1.000  C
  H1043    1.0000 0.00844  0.17372  0.77347  Biso   1.000  H
  H1044    1.0000 0.00838  0.17372  0.77347  Biso   1.000  H
  H1045    1.0000 0.00563  0.41758  0.77347  Biso   1.000  H
  H1046    1.0000 0.00565  0.41751  0.77347  Biso   1.000  H
  H1047    1.0000 0.00569  0.41758  0.77347  Biso   1.000  H
  H1048    1.0000 0.00559  0.41751  0.77347  Biso   1.000  H
  C1250    1.0000 0.23674  0.01354  0.82040  Biso   1.000  C
  C1251    1.0000 0.23670  0.01347  0.82040  Biso   1.000  C
  C1252    1.0000 0.23668  0.01354  0.82040  Biso   1.000  C
  C1253    1.0000 0.23664  0.01347  0.82040  Biso   1.000  C
  C1254    1.0000 0.87162  0.89000  0.85132  Biso   1.000  C
  H1049    1.0000 0.74957  0.86339  0.83306  Biso   1.000  H
  C1255    1.0000 0.87169  0.89000  0.85132  Biso   1.000  C
  H1050    1.0000 0.74953  0.86332  0.83306  Biso   1.000  H
  H1051    1.0000 0.74951  0.86339  0.83306  Biso   1.000  H
  H1052    1.0000 0.74947  0.86332  0.83306  Biso   1.000  H
  C1256    1.0000 0.91772  0.77769  0.83816  Biso   1.000  C
  C1257    1.0000 0.91774  0.77762  0.83816  Biso   1.000  C
  C1258    1.0000 0.91768  0.77762  0.83816  Biso   1.000  C
  O236     1.0000 0.81355  0.64656  0.80939  Biso   1.000  O
  O237     1.0000 0.81349  0.64656  0.80939  Biso   1.000  O
  O238     1.0000 0.02008  0.30569  0.80539  Biso   1.000  O
  O239     1.0000 0.02014  0.30569  0.80539  Biso   1.000  O
  C1259    1.0000 0.15867  0.95163  0.83458  Biso   1.000  C
  C1260    1.0000 0.15873  0.95163  0.83458  Biso   1.000  C
  C1261    1.0000 0.27184  0.10964  0.82269  Biso   1.000  C
  C1262    1.0000 0.27178  0.10964  0.82269  Biso   1.000  C
  C1263    1.0000 0.93624  0.85862  0.85230  Biso   1.000  C
  C1264    1.0000 0.88089  0.97198  0.86763  Biso   1.000  C
  C1265    1.0000 0.93630  0.85862  0.85230  Biso   1.000  C
  C1266    1.0000 0.88095  0.97198  0.86763  Biso   1.000  C
  H1053    1.0000 0.96144  0.75607  0.83916  Biso   1.000  H
  H1054    1.0000 0.96138  0.75607  0.83916  Biso   1.000  H
  C1267    1.0000 0.87404  0.60838  0.81348  Biso   1.000  C
  C1268    1.0000 0.87398  0.60838  0.81348  Biso   1.000  C
  C1269    1.0000 0.98646  0.22314  0.82040  Biso   1.000  C
  C1270    1.0000 0.98640  0.22314  0.82040  Biso   1.000  C
  C1271    1.0000 0.10995  0.98160  0.85132  Biso   1.000  C
  C1272    1.0000 0.11001  0.98160  0.85132  Biso   1.000  C
  H1055    1.0000 0.13662  0.88614  0.83306  Biso   1.000  H
  H1056    1.0000 0.13669  0.88614  0.83306  Biso   1.000  H
  C1273    1.0000 0.22229  0.14003  0.83816  Biso   1.000  C
  C1274    1.0000 0.22236  0.14003  0.83816  Biso   1.000  C
  O240     1.0000 0.35340  0.16698  0.80939  Biso   1.000  O
  O241     1.0000 0.35343  0.16691  0.80939  Biso   1.000  O
  O242     1.0000 0.35337  0.16691  0.80939  Biso   1.000  O
  C1275    1.0000 0.02800  0.90888  0.86763  Biso   1.000  C
  C1276    1.0000 0.02806  0.90888  0.86763  Biso   1.000  C
  H1057    1.0000 0.81801  0.95626  0.87437  Biso   1.000  H
  H1058    1.0000 0.92096  0.98076  0.88348  Biso   1.000  H
  H1059    1.0000 0.92090  0.98076  0.88348  Biso   1.000  H
  C1277    1.0000 0.92238  0.06373  0.85230  Biso   1.000  C
  C1278    1.0000 0.92232  0.06373  0.85230  Biso   1.000  C
  H1060    1.0000 0.88740  0.58914  0.79626  Biso   1.000  H
  H1061    1.0000 0.84327  0.55391  0.82548  Biso   1.000  H
  H1062    1.0000 0.93294  0.65604  0.82166  Biso   1.000  H
  H1063    1.0000 0.84324  0.55384  0.82548  Biso   1.000  H
  H1064    1.0000 0.84321  0.55391  0.82548  Biso   1.000  H
  H1065    1.0000 0.93288  0.65604  0.82166  Biso   1.000  H
  H1066    1.0000 0.84318  0.55384  0.82548  Biso   1.000  H
  C1279    1.0000 0.89031  0.16214  0.82269  Biso   1.000  C
  C1280    1.0000 0.04840  0.20707  0.83458  Biso   1.000  C
  C1281    1.0000 0.04836  0.20700  0.83458  Biso   1.000  C
  C1282    1.0000 0.04830  0.20700  0.83458  Biso   1.000  C
  C1283    1.0000 0.14137  0.07763  0.85230  Biso   1.000  C
  C1284    1.0000 0.14131  0.07763  0.85230  Biso   1.000  C
  H1067    1.0000 0.24391  0.20538  0.83916  Biso   1.000  H
  H1068    1.0000 0.24393  0.20531  0.83916  Biso   1.000  H
  H1069    1.0000 0.24387  0.20531  0.83916  Biso   1.000  H
  C1285    1.0000 0.39162  0.26568  0.81348  Biso   1.000  C
  C1286    1.0000 0.39159  0.26561  0.81348  Biso   1.000  C
  C1287    1.0000 0.39168  0.26568  0.81348  Biso   1.000  C
  H1070    1.0000 0.04372  0.86178  0.87437  Biso   1.000  H
  H1071    1.0000 0.01921  0.94019  0.88348  Biso   1.000  H
  H1072    1.0000 0.04374  0.86171  0.87437  Biso   1.000  H
  H1073    1.0000 0.01924  0.94012  0.88348  Biso   1.000  H
  H1074    1.0000 0.04378  0.86178  0.87437  Biso   1.000  H
  H1075    1.0000 0.01927  0.94019  0.88348  Biso   1.000  H
  H1076    1.0000 0.04368  0.86171  0.87437  Biso   1.000  H
  H1077    1.0000 0.01918  0.94012  0.88348  Biso   1.000  H
  C1288    1.0000 0.85991  0.08226  0.83816  Biso   1.000  C
  C1289    1.0000 0.01832  0.12831  0.85132  Biso   1.000  C
  C1290    1.0000 0.01838  0.12831  0.85132  Biso   1.000  C
  O243     1.0000 0.83303  0.18643  0.80939  Biso   1.000  O
  O244     1.0000 0.83297  0.18643  0.80939  Biso   1.000  O
  H1078    1.0000 0.11379  0.25045  0.83306  Biso   1.000  H
  H1079    1.0000 0.11386  0.25045  0.83306  Biso   1.000  H
  C1291    1.0000 0.09111  0.11911  0.86763  Biso   1.000  C
  C1292    1.0000 0.09107  0.11904  0.86763  Biso   1.000  C
  C1293    1.0000 0.09105  0.11911  0.86763  Biso   1.000  C
  C1294    1.0000 0.09101  0.11904  0.86763  Biso   1.000  C
  H1080    1.0000 0.41083  0.29825  0.79626  Biso   1.000  H
  H1081    1.0000 0.44613  0.28933  0.82548  Biso   1.000  H
  H1082    1.0000 0.34389  0.27684  0.82166  Biso   1.000  H
  H1083    1.0000 0.34395  0.27684  0.82166  Biso   1.000  H
  H1084    1.0000 0.44607  0.28933  0.82548  Biso   1.000  H
  H1085    1.0000 0.79464  0.03853  0.83916  Biso   1.000  H
  H1086    1.0000 0.79458  0.03853  0.83916  Biso   1.000  H
  C1295    1.0000 0.73433  0.12592  0.81348  Biso   1.000  C
  C1296    1.0000 0.73427  0.12592  0.81348  Biso   1.000  C
  H1087    1.0000 0.13820  0.18194  0.87437  Biso   1.000  H
  H1088    1.0000 0.05982  0.07903  0.88348  Biso   1.000  H
  H1089    1.0000 0.70176  0.11258  0.79626  Biso   1.000  H
  H1090    1.0000 0.71065  0.15674  0.82548  Biso   1.000  H
  H1091    1.0000 0.72312  0.06703  0.82166  Biso   1.000  H
  H1092    1.0000 0.70167  0.11251  0.79626  Biso   1.000  H
  H1093    1.0000 0.71059  0.15674  0.82548  Biso   1.000  H
  H1094    1.0000 0.72306  0.06703  0.82166  Biso   1.000  H
  H1095    1.0000 0.70170  0.11258  0.79626  Biso   1.000  H
  H1096    1.0000 0.70173  0.11251  0.79626  Biso   1.000  H
  C1297    1.0000 0.75769  0.45240  0.20097  Biso   1.000  C
  C1298    1.0000 0.68500  0.46167  0.18466  Biso   1.000  C
  C1299    1.0000 0.80805  0.41099  0.18564  Biso   1.000  C
  H1097    1.0000 0.80488  0.51530  0.20771  Biso   1.000  H
  H1098    1.0000 0.72650  0.41239  0.21680  Biso   1.000  H
  C1300    1.0000 0.58900  0.39709  0.18564  Biso   1.000  C
  C1301    1.0000 0.71498  0.54036  0.16792  Biso   1.000  C
  C1302    1.0000 0.77663  0.31496  0.18466  Biso   1.000  C
  C1303    1.0000 0.88898  0.47339  0.17148  Biso   1.000  C
  C1304    1.0000 0.54753  0.30528  0.20097  Biso   1.000  C
  C1305    1.0000 0.52660  0.41562  0.17148  Biso   1.000  C
  H1099    1.0000 0.78048  0.58381  0.16640  Biso   1.000  H
  C1306    1.0000 0.65314  0.55650  0.15374  Biso   1.000  C
  C1307    1.0000 0.69468  0.24224  0.20097  Biso   1.000  C
  C1308    1.0000 0.82532  0.28492  0.16792  Biso   1.000  C
  C1309    1.0000 0.93846  0.44300  0.15603  Biso   1.000  C
  H1100    1.0000 0.91055  0.53867  0.17250  Biso   1.000  H
  C1310    1.0000 0.53831  0.22336  0.18466  Biso   1.000  C
  H1101    1.0000 0.48469  0.28962  0.20771  Biso   1.000  H
  H1102    1.0000 0.58758  0.31412  0.21680  Biso   1.000  H
  C1311    1.0000 0.55699  0.49550  0.15603  Biso   1.000  C
  H1103    1.0000 0.46126  0.37189  0.17250  Biso   1.000  H
  O245     1.0000 0.68676  0.63905  0.13873  Biso   1.000  O
  C1312    1.0000 0.60292  0.19198  0.18564  Biso   1.000  C
  H1104    1.0000 0.71036  0.19507  0.20771  Biso   1.000  H
  H1105    1.0000 0.68586  0.27348  0.21680  Biso   1.000  H
  H1106    1.0000 0.80331  0.21950  0.16640  Biso   1.000  H
  C1313    1.0000 0.90332  0.34683  0.15374  Biso   1.000  C
  O246     1.0000 0.02011  0.50028  0.14271  Biso   1.000  O
  C1314    1.0000 0.45960  0.17464  0.16792  Biso   1.000  C
  O247     1.0000 0.49971  0.51979  0.14271  Biso   1.000  O
  C1315    1.0000 0.67453  0.62929  0.11089  Biso   1.000  C
  C1316    1.0000 0.58436  0.11098  0.17148  Biso   1.000  C
  O248     1.0000 0.95223  0.31321  0.13873  Biso   1.000  O
  C1317    1.0000 0.05827  0.59897  0.14682  Biso   1.000  C
  H1107    1.0000 0.41615  0.19669  0.16640  Biso   1.000  H
  C1318    1.0000 0.44343  0.09659  0.15374  Biso   1.000  C
  C1319    1.0000 0.40101  0.45928  0.14682  Biso   1.000  C
  C1320    1.0000 0.67117  0.55510  0.09724  Biso   1.000  C
  C1321    1.0000 0.67032  0.69991  0.09722  Biso   1.000  C
  C1322    1.0000 0.50448  0.06149  0.15603  Biso   1.000  C
  H1108    1.0000 0.62812  0.08943  0.17250  Biso   1.000  H
  C1323    1.0000 0.95469  0.32542  0.11089  Biso   1.000  C
  H1109    1.0000 0.07757  0.63161  0.12960  Biso   1.000  H
  H1110    1.0000 0.11281  0.62270  0.15880  Biso   1.000  H
  H1111    1.0000 0.01063  0.61020  0.15500  Biso   1.000  H
  O249     1.0000 0.36095  0.04773  0.13873  Biso   1.000  O
  H1112    1.0000 0.36841  0.44588  0.12960  Biso   1.000  H
  H1113    1.0000 0.37727  0.49010  0.15880  Biso   1.000  H
  H1114    1.0000 0.38980  0.40039  0.15500  Biso   1.000  H
  C1324    1.0000 0.66208  0.55054  0.06942  Biso   1.000  C
  H1115    1.0000 0.67506  0.50709  0.10679  Biso   1.000  H
  C1325    1.0000 0.66302  0.69626  0.06944  Biso   1.000  C
  H1116    1.0000 0.67227  0.75087  0.10679  Biso   1.000  H
  O250     1.0000 0.48024  0.97992  0.14271  Biso   1.000  O
  C1326    1.0000 0.88385  0.32879  0.09724  Biso   1.000  C
  C1327    1.0000 0.02959  0.32970  0.09722  Biso   1.000  C
  C1328    1.0000 0.37069  0.04521  0.11089  Biso   1.000  C
  C1329    1.0000 0.65880  0.62143  0.05577  Biso   1.000  C
  H1117    1.0000 0.65821  0.49866  0.05987  Biso   1.000  H
  H1118    1.0000 0.66102  0.74526  0.05987  Biso   1.000  H
  C1330    1.0000 0.54068  0.94167  0.14682  Biso   1.000  C
  C1331    1.0000 0.88838  0.33785  0.06942  Biso   1.000  C
  H1119    1.0000 0.83197  0.32486  0.10679  Biso   1.000  H
  C1332    1.0000 0.03321  0.33693  0.06944  Biso   1.000  C
  H1120    1.0000 0.07861  0.32767  0.10679  Biso   1.000  H
  C1333    1.0000 0.44486  0.11610  0.09724  Biso   1.000  C
  C1334    1.0000 0.30008  0.97038  0.09722  Biso   1.000  C
  O251     1.0000 0.64653  0.61891  0.02793  Biso   1.000  O
  H1121    1.0000 0.55408  0.92251  0.12960  Biso   1.000  H
  H1122    1.0000 0.50986  0.88720  0.15880  Biso   1.000  H
  H1123    1.0000 0.59956  0.98940  0.15500  Biso   1.000  H
  C1335    1.0000 0.96258  0.34122  0.05577  Biso   1.000  C
  H1124    1.0000 0.84043  0.34178  0.05987  Biso   1.000  H
  H1125    1.0000 0.08426  0.33897  0.05987  Biso   1.000  H
  H1126    1.0000 0.49286  0.16798  0.10679  Biso   1.000  H
  C1336    1.0000 0.44939  0.11154  0.06942  Biso   1.000  C
  H1127    1.0000 0.24908  0.92138  0.10679  Biso   1.000  H
  C1337    1.0000 0.30376  0.96680  0.06944  Biso   1.000  C
  C1338    1.0000 0.68016  0.57005  0.01292  Biso   1.000  C
  O252     1.0000 0.97234  0.35343  0.02793  Biso   1.000  O
  C1339    1.0000 0.37855  0.03734  0.05577  Biso   1.000  C
  H1128    1.0000 0.50130  0.15955  0.05987  Biso   1.000  H
  H1129    1.0000 0.25472  0.91577  0.05987  Biso   1.000  H
  C1340    1.0000 0.77631  0.60515  0.01063  Biso   1.000  C
  C1341    1.0000 0.61828  0.49199  0.99876  Biso   1.000  C
  C1342    1.0000 0.88981  0.31981  0.01292  Biso   1.000  C
  O253     1.0000 0.38106  0.02766  0.02793  Biso   1.000  O
  O254     1.0000 0.83363  0.68671  0.02395  Biso   1.000  O
  C1343    1.0000 0.80671  0.55566  0.99518  Biso   1.000  C
  H1130    1.0000 0.55279  0.46995  0.00026  Biso   1.000  H
  C1344    1.0000 0.64827  0.44328  0.98202  Biso   1.000  C
  C1345    1.0000 0.82878  0.22364  0.01063  Biso   1.000  C
  C1346    1.0000 0.87372  0.38172  0.99876  Biso   1.000  C
  C1347    1.0000 0.42996  0.11014  0.01292  Biso   1.000  C
  C1348    1.0000 0.93233  0.72497  0.01984  Biso   1.000  C
  H1131    1.0000 0.87204  0.57728  0.99416  Biso   1.000  H
  C1349    1.0000 0.74429  0.47473  0.98102  Biso   1.000  C
  C1350    1.0000 0.57557  0.36136  0.96569  Biso   1.000  C
  C1351    1.0000 0.74890  0.19325  0.99518  Biso   1.000  C
  O255     1.0000 0.85309  0.16636  0.02395  Biso   1.000  O
  C1352    1.0000 0.79499  0.35167  0.98202  Biso   1.000  C
  H1132    1.0000 0.91713  0.44714  0.00026  Biso   1.000  H
  C1353    1.0000 0.39481  0.17113  0.01063  Biso   1.000  C
  C1354    1.0000 0.50794  0.12628  0.99876  Biso   1.000  C
  H1133    1.0000 0.96489  0.74413  0.03708  Biso   1.000  H
  H1134    1.0000 0.95598  0.77944  0.00786  Biso   1.000  H
  H1135    1.0000 0.94348  0.67724  0.01168  Biso   1.000  H
  C1355    1.0000 0.78575  0.42440  0.96569  Biso   1.000  C
  C1356    1.0000 0.52526  0.26962  0.98102  Biso   1.000  C
  H1136    1.0000 0.52842  0.37709  0.95897  Biso   1.000  H
  H1137    1.0000 0.60681  0.35259  0.94986  Biso   1.000  H
  C1357    1.0000 0.73041  0.25572  0.98102  Biso   1.000  C
  H1138    1.0000 0.70520  0.12796  0.99416  Biso   1.000  H
  C1358    1.0000 0.79262  0.06767  0.01984  Biso   1.000  C
  O256     1.0000 0.31324  0.14685  0.02395  Biso   1.000  O
  C1359    1.0000 0.44433  0.25109  0.99518  Biso   1.000  C
  H1139    1.0000 0.52999  0.08283  0.00026  Biso   1.000  H
  C1360    1.0000 0.55665  0.20497  0.98202  Biso   1.000  C
  H1140    1.0000 0.84861  0.47157  0.95897  Biso   1.000  H
  H1141    1.0000 0.74570  0.39316  0.94986  Biso   1.000  H
  C1361    1.0000 0.63861  0.21423  0.96569  Biso   1.000  C
  H1142    1.0000 0.77925  0.03510  0.03708  Biso   1.000  H
  H1143    1.0000 0.82337  0.04394  0.00786  Biso   1.000  H
  H1144    1.0000 0.73369  0.05644  0.01168  Biso   1.000  H
  C1362    1.0000 0.27505  0.20735  0.01984  Biso   1.000  C
  H1145    1.0000 0.42269  0.29475  0.99416  Biso   1.000  H
  H1146    1.0000 0.62290  0.15134  0.95897  Biso   1.000  H
  H1147    1.0000 0.64743  0.25424  0.94986  Biso   1.000  H
  H1148    1.0000 0.25585  0.22076  0.03708  Biso   1.000  H
  H1149    1.0000 0.22049  0.17654  0.00786  Biso   1.000  H
  H1150    1.0000 0.32273  0.26625  0.01168  Biso   1.000  H
  C1363    1.0000 0.45243  0.69465  0.79903  Biso   1.000  C
  C1364    1.0000 0.41093  0.60290  0.81436  Biso   1.000  C
  C1365    1.0000 0.46169  0.77663  0.81534  Biso   1.000  C
  H1151    1.0000 0.51531  0.71037  0.79229  Biso   1.000  H
  H1152    1.0000 0.41236  0.68587  0.78320  Biso   1.000  H
  C1366    1.0000 0.31500  0.53832  0.81534  Biso   1.000  C
  C1367    1.0000 0.47340  0.58437  0.82852  Biso   1.000  C
  C1368    1.0000 0.39707  0.80801  0.81436  Biso   1.000  C
  C1369    1.0000 0.54039  0.82535  0.83208  Biso   1.000  C
  C1370    1.0000 0.24224  0.54759  0.79903  Biso   1.000  C
  C1371    1.0000 0.28492  0.45956  0.83208  Biso   1.000  C
  C1372    1.0000 0.44300  0.50449  0.84397  Biso   1.000  C
  H1153    1.0000 0.53867  0.62810  0.82750  Biso   1.000  H
  C1373    1.0000 0.30532  0.75775  0.79903  Biso   1.000  C
  C1374    1.0000 0.41560  0.88894  0.82852  Biso   1.000  C
  H1154    1.0000 0.58378  0.80331  0.83360  Biso   1.000  H
  C1375    1.0000 0.55647  0.90333  0.84626  Biso   1.000  C
  C1376    1.0000 0.19195  0.58900  0.81436  Biso   1.000  C
  H1155    1.0000 0.19511  0.48469  0.79229  Biso   1.000  H
  H1156    1.0000 0.27350  0.58760  0.78320  Biso   1.000  H
  H1157    1.0000 0.21952  0.41618  0.83360  Biso   1.000  H
  C1377    1.0000 0.34685  0.44349  0.84626  Biso   1.000  C
  O257     1.0000 0.50028  0.48020  0.85729  Biso   1.000  O
  C1378    1.0000 0.22337  0.68503  0.81534  Biso   1.000  C
  H1158    1.0000 0.28960  0.80485  0.79229  Biso   1.000  H
  H1159    1.0000 0.31410  0.72644  0.78320  Biso   1.000  H
  C1379    1.0000 0.49551  0.93850  0.84397  Biso   1.000  C
  H1160    1.0000 0.37188  0.91056  0.82750  Biso   1.000  H
  O258     1.0000 0.63905  0.95226  0.86127  Biso   1.000  O
  C1380    1.0000 0.11102  0.52660  0.82852  Biso   1.000  C
  O259     1.0000 0.31324  0.36094  0.86127  Biso   1.000  O
  C1381    1.0000 0.59899  0.54071  0.85318  Biso   1.000  C
  C1382    1.0000 0.17464  0.71500  0.83208  Biso   1.000  C
  O260     1.0000 0.51976  0.02007  0.85729  Biso   1.000  O
  C1383    1.0000 0.62927  0.95472  0.88911  Biso   1.000  C
  C1384    1.0000 0.06148  0.55699  0.84397  Biso   1.000  C
  H1161    1.0000 0.08944  0.46132  0.82750  Biso   1.000  H
  C1385    1.0000 0.32547  0.37070  0.88911  Biso   1.000  C
  H1162    1.0000 0.63159  0.55412  0.87040  Biso   1.000  H
  H1163    1.0000 0.62267  0.50989  0.84120  Biso   1.000  H
  H1164    1.0000 0.61020  0.59960  0.84500  Biso   1.000  H
  H1165    1.0000 0.19669  0.78049  0.83360  Biso   1.000  H
  C1386    1.0000 0.09658  0.65309  0.84626  Biso   1.000  C
  C1387    1.0000 0.45928  0.05825  0.85318  Biso   1.000  C
  C1388    1.0000 0.55508  0.88389  0.90276  Biso   1.000  C
  C1389    1.0000 0.69988  0.02954  0.90278  Biso   1.000  C
  O261     1.0000 0.97991  0.49964  0.85729  Biso   1.000  O
  C1390    1.0000 0.32877  0.44489  0.90276  Biso   1.000  C
  C1391    1.0000 0.32968  0.30008  0.90278  Biso   1.000  C
  O262     1.0000 0.04777  0.68678  0.86127  Biso   1.000  O
  H1166    1.0000 0.44592  0.07749  0.87040  Biso   1.000  H
  H1167    1.0000 0.49008  0.11279  0.84120  Biso   1.000  H
  H1168    1.0000 0.40037  0.01059  0.84500  Biso   1.000  H
  H1169    1.0000 0.50710  0.83195  0.89321  Biso   1.000  H
  C1392    1.0000 0.55051  0.88838  0.93058  Biso   1.000  C
  H1170    1.0000 0.75088  0.07854  0.89321  Biso   1.000  H
  C1393    1.0000 0.69623  0.03319  0.93056  Biso   1.000  C
  C1394    1.0000 0.94173  0.40102  0.85318  Biso   1.000  C
  C1395    1.0000 0.33782  0.44939  0.93058  Biso   1.000  C
  H1171    1.0000 0.32487  0.49291  0.89321  Biso   1.000  H
  C1396    1.0000 0.33697  0.30373  0.93056  Biso   1.000  C
  H1172    1.0000 0.32772  0.24912  0.89321  Biso   1.000  H
  C1397    1.0000 0.04521  0.67450  0.88911  Biso   1.000  C
  C1398    1.0000 0.62141  0.96258  0.94423  Biso   1.000  C
  H1173    1.0000 0.49864  0.84044  0.94013  Biso   1.000  H
  H1174    1.0000 0.74527  0.08423  0.94013  Biso   1.000  H
  H1175    1.0000 0.92249  0.36838  0.87040  Biso   1.000  H
  H1176    1.0000 0.88719  0.37730  0.84120  Biso   1.000  H
  H1177    1.0000 0.98936  0.38979  0.84500  Biso   1.000  H
  C1399    1.0000 0.34119  0.37856  0.94423  Biso   1.000  C
  H1178    1.0000 0.34179  0.50133  0.94013  Biso   1.000  H
  H1179    1.0000 0.33898  0.25474  0.94013  Biso   1.000  H
  C1400    1.0000 0.11609  0.67120  0.90276  Biso   1.000  C
  C1401    1.0000 0.97040  0.67029  0.90278  Biso   1.000  C
  O263     1.0000 0.61893  0.97234  0.97207  Biso   1.000  O
  O264     1.0000 0.35346  0.38109  0.97207  Biso   1.000  O
  C1402    1.0000 0.11156  0.66215  0.93058  Biso   1.000  C
  H1180    1.0000 0.16799  0.67506  0.89321  Biso   1.000  H
  C1403    1.0000 0.96675  0.66299  0.93056  Biso   1.000  C
  H1181    1.0000 0.92142  0.67225  0.89321  Biso   1.000  H
  C1404    1.0000 0.57003  0.88986  0.98708  Biso   1.000  C
  C1405    1.0000 0.31977  0.42994  0.98708  Biso   1.000  C
  C1406    1.0000 0.03735  0.65878  0.94423  Biso   1.000  C
  H1182    1.0000 0.15956  0.65821  0.94013  Biso   1.000  H
  H1183    1.0000 0.91580  0.66102  0.94013  Biso   1.000  H
  C1407    1.0000 0.60515  0.82879  0.98937  Biso   1.000  C
  C1408    1.0000 0.49199  0.87371  0.00124  Biso   1.000  C
  C1409    1.0000 0.22368  0.39484  0.98937  Biso   1.000  C
  C1410    1.0000 0.38172  0.50800  0.00124  Biso   1.000  C
  O265     1.0000 0.02766  0.64656  0.97207  Biso   1.000  O
  C1411    1.0000 0.55567  0.74891  0.00482  Biso   1.000  C
  O266     1.0000 0.68672  0.85307  0.97605  Biso   1.000  O
  C1412    1.0000 0.44335  0.79502  0.01798  Biso   1.000  C
  H1184    1.0000 0.46997  0.91709  0.99974  Biso   1.000  H
  O267     1.0000 0.16633  0.31321  0.97605  Biso   1.000  O
  C1413    1.0000 0.19329  0.44433  0.00482  Biso   1.000  C
  H1185    1.0000 0.44715  0.53004  0.99974  Biso   1.000  H
  C1414    1.0000 0.35170  0.55664  0.01798  Biso   1.000  C
  C1415    1.0000 0.11012  0.68019  0.98708  Biso   1.000  C
  C1416    1.0000 0.47467  0.73037  0.01898  Biso   1.000  C
  H1186    1.0000 0.57724  0.70524  0.00584  Biso   1.000  H
  C1417    1.0000 0.72495  0.79264  0.98016  Biso   1.000  C
  C1418    1.0000 0.36133  0.78576  0.03431  Biso   1.000  C
  C1419    1.0000 0.06766  0.27502  0.98016  Biso   1.000  C
  H1187    1.0000 0.12795  0.42271  0.00584  Biso   1.000  H
  C1420    1.0000 0.25570  0.52527  0.01898  Biso   1.000  C
  C1421    1.0000 0.42442  0.63863  0.03431  Biso   1.000  C
  C1422    1.0000 0.17112  0.77628  0.98937  Biso   1.000  C
  C1423    1.0000 0.12628  0.61827  0.00124  Biso   1.000  C
  H1188    1.0000 0.74414  0.77923  0.96292  Biso   1.000  H
  H1189    1.0000 0.77941  0.82338  0.99214  Biso   1.000  H
  H1190    1.0000 0.67727  0.73374  0.98832  Biso   1.000  H
  C1424    1.0000 0.26958  0.74427  0.01898  Biso   1.000  C
  H1191    1.0000 0.37706  0.84858  0.04103  Biso   1.000  H
  H1192    1.0000 0.35253  0.74568  0.05014  Biso   1.000  H
  H1193    1.0000 0.03510  0.25586  0.96292  Biso   1.000  H
  H1194    1.0000 0.04395  0.22055  0.99214  Biso   1.000  H
  H1195    1.0000 0.05645  0.32275  0.98832  Biso   1.000  H
  C1425    1.0000 0.21424  0.57560  0.03431  Biso   1.000  C
  H1196    1.0000 0.47157  0.62291  0.04103  Biso   1.000  H
  H1197    1.0000 0.39312  0.64740  0.05014  Biso   1.000  H
  O268     1.0000 0.14691  0.83363  0.97605  Biso   1.000  O
  C1426    1.0000 0.25106  0.80668  0.00482  Biso   1.000  C
  H1198    1.0000 0.08283  0.55278  0.99974  Biso   1.000  H
  C1427    1.0000 0.20501  0.64832  0.01798  Biso   1.000  C
  H1199    1.0000 0.15139  0.52842  0.04103  Biso   1.000  H
  H1200    1.0000 0.25430  0.60683  0.05014  Biso   1.000  H
  C1428    1.0000 0.20738  0.93232  0.98016  Biso   1.000  C
  H1201    1.0000 0.29480  0.87203  0.00584  Biso   1.000  H
  H1202    1.0000 0.22075  0.96489  0.96292  Biso   1.000  H
  H1203    1.0000 0.17653  0.95598  0.99214  Biso   1.000  H
  H1204    1.0000 0.26627  0.94349  0.98832  Biso   1.000  H
  Ne1      1.0000 0.66665  0.33332  0.08333  Biso   1.000  Ne
  He1      1.0000 0.54351  0.33079  0.08010  Biso   1.000  He
  He2      1.0000 0.09962  0.63469  0.05819  Biso   1.000  He
  He3      1.0000 0.66424  0.21680  0.08636  Biso   1.000  He
  Ar1      1.0000 0.66665  0.33332  0.08333  Biso   1.000  Ar
  Ne2      1.0000 0.33332  0.66665  0.41667  Biso   1.000  Ne
  He4      1.0000 0.21024  0.66414  0.41349  Biso   1.000  He
  He5      1.0000 0.76623  0.96794  0.39152  Biso   1.000  He
  He6      1.0000 0.33096  0.55015  0.41972  Biso   1.000  He
  Ar2      1.0000 0.33334  0.66666  0.41667  Biso   1.000  Ar
  Ne3      1.0000 0.99601  0.99116  0.24569  Biso   1.000  Ne
  He7      1.0000 0.11417  0.99760  0.24699  Biso   1.000  He
  He8      1.0000 0.87626  0.87368  0.25331  Biso   1.000  He
  He9      1.0000 0.00039  0.12013  0.24948  Biso   1.000  He
  Ar3      1.0000 0.99998  1.00000  0.24798  Biso   1.000  Ar
  Ne4      1.0000 0.99601  0.99116  0.24569  Biso   1.000  Ne
  He10     1.0000 0.11417  0.99760  0.24699  Biso   1.000  He
  He11     1.0000 0.87626  0.87368  0.25331  Biso   1.000  He
  He12     1.0000 0.00039  0.12013  0.24948  Biso   1.000  He
  Ar4      1.0000 0.99998  1.00000  0.24798  Biso   1.000  Ar
  Ne5      1.0000 0.99601  0.99116  0.24569  Biso   1.000  Ne
  He13     1.0000 0.11417  0.99760  0.24699  Biso   1.000  He
  He14     1.0000 0.87626  0.87368  0.25331  Biso   1.000  He
  He15     1.0000 0.00039  0.12013  0.24948  Biso   1.000  He
  Ar5      1.0000 0.99998  1.00000  0.24798  Biso   1.000  Ar
  Ne6      1.0000 0.99601  0.99116  0.24569  Biso   1.000  Ne
  He16     1.0000 0.11417  0.99760  0.24699  Biso   1.000  He
  He17     1.0000 0.87626  0.87368  0.25331  Biso   1.000  He
  He18     1.0000 0.00039  0.12013  0.24948  Biso   1.000  He
  Ar6      1.0000 0.99998  1.00000  0.24798  Biso   1.000  Ar
  Ne7      1.0000 0.66664  0.33332  0.58333  Biso   1.000  Ne
  He19     1.0000 0.78077  0.33092  0.58027  Biso   1.000  He
  He20     1.0000 0.54289  0.20699  0.58662  Biso   1.000  He
  He21     1.0000 0.66416  0.45218  0.58649  Biso   1.000  He
  Ar7      1.0000 0.66665  0.33332  0.58333  Biso   1.000  Ar
  Ne8      1.0000 0.99943  0.99215  0.75065  Biso   1.000  Ne
  He22     1.0000 0.87684  0.99746  0.74681  Biso   1.000  He
  He23     1.0000 0.99759  0.88346  0.75305  Biso   1.000  He
  He24     1.0000 0.43291  0.30129  0.72486  Biso   1.000  He
  Ar8      1.0000 0.00004  0.00001  0.75000  Biso   1.000  Ar
  Ne9      1.0000 0.99943  0.99215  0.75065  Biso   1.000  Ne
  He25     1.0000 0.87684  0.99746  0.74681  Biso   1.000  He
  He26     1.0000 0.99759  0.88346  0.75305  Biso   1.000  He
  He27     1.0000 0.43291  0.30129  0.72486  Biso   1.000  He
  Ar9      1.0000 0.00004  0.00001  0.75000  Biso   1.000  Ar
  Ne10     1.0000 0.99943  0.99215  0.75065  Biso   1.000  Ne
  He28     1.0000 0.87683  0.99746  0.74682  Biso   1.000  He
  He29     1.0000 0.99759  0.88346  0.75305  Biso   1.000  He
  He30     1.0000 0.43290  0.30129  0.72486  Biso   1.000  He
  Ar10     1.0000 0.00002  0.00001  0.74999  Biso   1.000  Ar
  Ne11     1.0000 0.99943  0.99215  0.75065  Biso   1.000  Ne
  He31     1.0000 0.87683  0.99746  0.74682  Biso   1.000  He
  He32     1.0000 0.99759  0.88346  0.75305  Biso   1.000  He
  He33     1.0000 0.43290  0.30130  0.72486  Biso   1.000  He
  Ar11     1.0000 0.00002  0.00001  0.74999  Biso   1.000  Ar
  Ne12     1.0000 0.33333  0.66665  0.91667  Biso   1.000  Ne
  He34     1.0000 0.44745  0.66428  0.91366  Biso   1.000  He
  He35     1.0000 0.20957  0.54033  0.91998  Biso   1.000  He
  He36     1.0000 0.33081  0.78547  0.91983  Biso   1.000  He
  Ar12     1.0000 0.33332  0.66666  0.91667  Biso   1.000  Ar
