data_image0
_cell_length_a       18.093
_cell_length_b       9.011
_cell_length_c       28.029
_cell_angle_alpha    90
_cell_angle_beta     101.57
_cell_angle_gamma    90

_symmetry_space_group_name_H-M    "P 1"
_symmetry_int_tables_number       1

loop_
  _symmetry_equiv_pos_as_xyz
  'x, y, z'

loop_
  _atom_site_label
  _atom_site_occupancy
  _atom_site_fract_x
  _atom_site_fract_y
  _atom_site_fract_z
  _atom_site_thermal_displace_type
  _atom_site_B_iso_or_equiv
  _atom_site_type_symbol
  C1       1.0000 0.65498  0.47387  0.54371  Biso   1.000  C
  C2       1.0000 0.58630  0.37543  0.53934  Biso   1.000  C
  O1       1.0000 0.70052  0.48186  0.59138  Biso   1.000  O
  H1       1.0000 0.68581  0.43758  0.52161  Biso   1.000  H
  H2       1.0000 0.63851  0.57330  0.53340  Biso   1.000  H
  O2       1.0000 0.52949  0.44878  0.55981  Biso   1.000  O
  H3       1.0000 0.56649  0.35301  0.50529  Biso   1.000  H
  H4       1.0000 0.60020  0.28277  0.55631  Biso   1.000  H
  C3       1.0000 0.67656  0.59438  0.62099  Biso   1.000  C
  C4       1.0000 0.46287  0.37277  0.55708  Biso   1.000  C
  H5       1.0000 0.62760  0.56875  0.62780  Biso   1.000  H
  H6       1.0000 0.67191  0.68849  0.60391  Biso   1.000  H
  C5       1.0000 0.73347  0.60770  0.66789  Biso   1.000  C
  C6       1.0000 0.44969  0.23205  0.53690  Biso   1.000  C
  C7       1.0000 0.40765  0.44834  0.57645  Biso   1.000  C
  H7       1.0000 0.78277  0.62746  0.66079  Biso   1.000  H
  H8       1.0000 0.72011  0.69071  0.68661  Biso   1.000  H
  O3       1.0000 0.73647  0.47664  0.69586  Biso   1.000  O
  H9       1.0000 0.73312  0.70414  0.68330  Biso   1.000  H
  H10      1.0000 0.78418  0.58107  0.66480  Biso   1.000  H
  O4       1.0000 0.69151  0.47908  0.69350  Biso   1.000  O
  C8       1.0000 0.37949  0.16491  0.53635  Biso   1.000  C
  H11      1.0000 0.48659  0.18344  0.52401  Biso   1.000  H
  C9       1.0000 0.33843  0.37987  0.57496  Biso   1.000  C
  H12      1.0000 0.41722  0.54245  0.59000  Biso   1.000  H
  C10      1.0000 0.78384  0.48851  0.74284  Biso   1.000  C
  C11      1.0000 0.73288  0.44057  0.74000  Biso   1.000  C
  C12      1.0000 0.36568  0.00954  0.51625  Biso   1.000  C
  C13      1.0000 0.32418  0.23782  0.55489  Biso   1.000  C
  O5       1.0000 0.27988  0.44079  0.59251  Biso   1.000  O
  C14      1.0000 0.73922  0.54045  0.78068  Biso   1.000  C
  H13      1.0000 0.82410  0.55843  0.74149  Biso   1.000  H
  H14      1.0000 0.80648  0.39274  0.75238  Biso   1.000  H
  H15      1.0000 0.78379  0.41771  0.73629  Biso   1.000  H
  H16      1.0000 0.71139  0.34902  0.74929  Biso   1.000  H
  H17      1.0000 0.35901  0.01265  0.48111  Biso   1.000  H
  O6       1.0000 0.42733  0.91133  0.53555  Biso   1.000  O
  H18      1.0000 0.31959  0.97115  0.52430  Biso   1.000  H
  H19      1.0000 0.27770  0.19276  0.55402  Biso   1.000  H
  C15      1.0000 0.29303  0.58051  0.61706  Biso   1.000  C
  O7       1.0000 0.78967  0.52225  0.82602  Biso   1.000  O
  H20      1.0000 0.72442  0.64355  0.77540  Biso   1.000  H
  H21      1.0000 0.69430  0.48041  0.77929  Biso   1.000  H
  H22      1.0000 0.75000  0.63733  0.76859  Biso   1.000  H
  H23      1.0000 0.68921  0.54700  0.78800  Biso   1.000  H
  C16      1.0000 0.44539  0.89502  0.58548  Biso   1.000  C
  H24      1.0000 0.30228  0.65686  0.59451  Biso   1.000  H
  H25      1.0000 0.33681  0.57408  0.64338  Biso   1.000  H
  C17      1.0000 0.22370  0.61858  0.63690  Biso   1.000  C
  C18      1.0000 0.77627  0.61858  0.86309  Biso   1.000  C
  C19      1.0000 0.52022  0.85862  0.60486  Biso   1.000  C
  C20      1.0000 0.39386  0.91122  0.61604  Biso   1.000  C
  O8       1.0000 0.21035  0.52225  0.67398  Biso   1.000  O
  H26      1.0000 0.22892  0.71890  0.64961  Biso   1.000  H
  H27      1.0000 0.18012  0.61658  0.61032  Biso   1.000  H
  C21      1.0000 0.70693  0.58051  0.88294  Biso   1.000  C
  H28      1.0000 0.77111  0.71890  0.85042  Biso   1.000  H
  H29      1.0000 0.81991  0.61658  0.88971  Biso   1.000  H
  H30      1.0000 0.55420  0.84563  0.58439  Biso   1.000  H
  C22      1.0000 0.54383  0.84186  0.65471  Biso   1.000  C
  C23      1.0000 0.41750  0.89180  0.66578  Biso   1.000  C
  H31      1.0000 0.34380  0.93508  0.60311  Biso   1.000  H
  C24      1.0000 0.26080  0.54045  0.71931  Biso   1.000  C
  O9       1.0000 0.72009  0.44079  0.90748  Biso   1.000  O
  H32      1.0000 0.69770  0.65686  0.90552  Biso   1.000  H
  H33      1.0000 0.66321  0.57408  0.85661  Biso   1.000  H
  H34      1.0000 0.59399  0.81944  0.66760  Biso   1.000  H
  C25      1.0000 0.49296  0.85828  0.68577  Biso   1.000  C
  H35      1.0000 0.38291  0.90112  0.68610  Biso   1.000  H
  C26      1.0000 0.21613  0.48851  0.75715  Biso   1.000  C
  H36      1.0000 0.27560  0.64355  0.72460  Biso   1.000  H
  H37      1.0000 0.30573  0.48041  0.72070  Biso   1.000  H
  C27      1.0000 0.26709  0.44057  0.75999  Biso   1.000  C
  H38      1.0000 0.25002  0.63733  0.73141  Biso   1.000  H
  H39      1.0000 0.31082  0.54700  0.71200  Biso   1.000  H
  C28      1.0000 0.66159  0.37987  0.92504  Biso   1.000  C
  N1       1.0000 0.52409  0.85029  0.73669  Biso   1.000  N
  O10      1.0000 0.26350  0.47664  0.80413  Biso   1.000  O
  H40      1.0000 0.17592  0.55843  0.75850  Biso   1.000  H
  H41      1.0000 0.19349  0.39274  0.74761  Biso   1.000  H
  H42      1.0000 0.21618  0.41771  0.76371  Biso   1.000  H
  O11      1.0000 0.30851  0.47908  0.80650  Biso   1.000  O
  H43      1.0000 0.28858  0.34902  0.75071  Biso   1.000  H
  C29      1.0000 0.67579  0.23782  0.94510  Biso   1.000  C
  C30      1.0000 0.59237  0.44834  0.92354  Biso   1.000  C
  N2       1.0000 0.47593  0.85029  0.76331  Biso   1.000  N
  C31      1.0000 0.26655  0.60770  0.83210  Biso   1.000  C
  C32      1.0000 0.62053  0.16491  0.96364  Biso   1.000  C
  H44      1.0000 0.72233  0.19276  0.94601  Biso   1.000  H
  C33      1.0000 0.53710  0.37277  0.94292  Biso   1.000  C
  H45      1.0000 0.58280  0.54245  0.91000  Biso   1.000  H
  C34      1.0000 0.50702  0.85828  0.81425  Biso   1.000  C
  C35      1.0000 0.32346  0.59438  0.87900  Biso   1.000  C
  H46      1.0000 0.21719  0.62746  0.83920  Biso   1.000  H
  H47      1.0000 0.27993  0.69071  0.81342  Biso   1.000  H
  H48      1.0000 0.26691  0.70414  0.81669  Biso   1.000  H
  H49      1.0000 0.21578  0.58107  0.83519  Biso   1.000  H
  C36      1.0000 0.63429  0.00954  0.98374  Biso   1.000  C
  C37      1.0000 0.55028  0.23205  0.96309  Biso   1.000  C
  O12      1.0000 0.47055  0.44878  0.94022  Biso   1.000  O
  C38      1.0000 0.45619  0.84186  0.84528  Biso   1.000  C
  C39      1.0000 0.58254  0.89180  0.83425  Biso   1.000  C
  O13      1.0000 0.29950  0.48186  0.90861  Biso   1.000  O
  H50      1.0000 0.37242  0.56875  0.87219  Biso   1.000  H
  H51      1.0000 0.32811  0.68849  0.89608  Biso   1.000  H
  O14      1.0000 0.57264  0.91133  0.96444  Biso   1.000  O
  H52      1.0000 0.68037  0.97115  0.97569  Biso   1.000  H
  H53      1.0000 0.64101  0.01265  0.01888  Biso   1.000  H
  H54      1.0000 0.51338  0.18344  0.97598  Biso   1.000  H
  C40      1.0000 0.41372  0.37543  0.96065  Biso   1.000  C
  C41      1.0000 0.47981  0.85862  0.89514  Biso   1.000  C
  H55      1.0000 0.40598  0.81944  0.83239  Biso   1.000  H
  H56      1.0000 0.61711  0.90112  0.81389  Biso   1.000  H
  C42      1.0000 0.60617  0.91122  0.88399  Biso   1.000  C
  C43      1.0000 0.34504  0.47387  0.95628  Biso   1.000  C
  C44      1.0000 0.55465  0.89502  0.91455  Biso   1.000  C
  H57      1.0000 0.43347  0.35301  0.99470  Biso   1.000  H
  H58      1.0000 0.39977  0.28277  0.94368  Biso   1.000  H
  H59      1.0000 0.44582  0.84563  0.91560  Biso   1.000  H
  H60      1.0000 0.65622  0.93508  0.89689  Biso   1.000  H
  H61      1.0000 0.31422  0.43758  0.97839  Biso   1.000  H
  H62      1.0000 0.36151  0.57330  0.96659  Biso   1.000  H
  C45      1.0000 0.65498  0.47387  0.54371  Biso   1.000  C
  C46      1.0000 0.58630  0.37543  0.53934  Biso   1.000  C
  O15      1.0000 0.70052  0.48186  0.59138  Biso   1.000  O
  H63      1.0000 0.68581  0.43758  0.52161  Biso   1.000  H
  H64      1.0000 0.63851  0.57330  0.53340  Biso   1.000  H
  O16      1.0000 0.52949  0.44878  0.55981  Biso   1.000  O
  H65      1.0000 0.56649  0.35301  0.50529  Biso   1.000  H
  H66      1.0000 0.60020  0.28277  0.55631  Biso   1.000  H
  C47      1.0000 0.67656  0.59438  0.62099  Biso   1.000  C
  C48      1.0000 0.46287  0.37277  0.55708  Biso   1.000  C
  C49      1.0000 0.73347  0.60770  0.66789  Biso   1.000  C
  H67      1.0000 0.62760  0.56875  0.62780  Biso   1.000  H
  H68      1.0000 0.67191  0.68849  0.60391  Biso   1.000  H
  C50      1.0000 0.40765  0.44834  0.57645  Biso   1.000  C
  C51      1.0000 0.44969  0.23205  0.53690  Biso   1.000  C
  H69      1.0000 0.78277  0.62746  0.66079  Biso   1.000  H
  H70      1.0000 0.72011  0.69071  0.68661  Biso   1.000  H
  O17      1.0000 0.73647  0.47664  0.69586  Biso   1.000  O
  H71      1.0000 0.73312  0.70414  0.68330  Biso   1.000  H
  H72      1.0000 0.78418  0.58107  0.66480  Biso   1.000  H
  O18      1.0000 0.69151  0.47908  0.69350  Biso   1.000  O
  C52      1.0000 0.33843  0.37987  0.57496  Biso   1.000  C
  H73      1.0000 0.41722  0.54245  0.59000  Biso   1.000  H
  C53      1.0000 0.37949  0.16491  0.53635  Biso   1.000  C
  H74      1.0000 0.48659  0.18344  0.52401  Biso   1.000  H
  C54      1.0000 0.78384  0.48851  0.74284  Biso   1.000  C
  C55      1.0000 0.73288  0.44057  0.74000  Biso   1.000  C
  O19      1.0000 0.27988  0.44079  0.59251  Biso   1.000  O
  C56      1.0000 0.32418  0.23782  0.55489  Biso   1.000  C
  C57      1.0000 0.36568  0.00954  0.51625  Biso   1.000  C
  C58      1.0000 0.73922  0.54045  0.78068  Biso   1.000  C
  H75      1.0000 0.82410  0.55843  0.74149  Biso   1.000  H
  H76      1.0000 0.80648  0.39274  0.75238  Biso   1.000  H
  H77      1.0000 0.78379  0.41771  0.73629  Biso   1.000  H
  H78      1.0000 0.71139  0.34902  0.74929  Biso   1.000  H
  C59      1.0000 0.29303  0.58051  0.61706  Biso   1.000  C
  H79      1.0000 0.27770  0.19276  0.55402  Biso   1.000  H
  O20      1.0000 0.42733  0.91133  0.53555  Biso   1.000  O
  H80      1.0000 0.31959  0.97115  0.52430  Biso   1.000  H
  H81      1.0000 0.35901  0.01265  0.48111  Biso   1.000  H
  O21      1.0000 0.78967  0.52225  0.82602  Biso   1.000  O
  H82      1.0000 0.72442  0.64355  0.77540  Biso   1.000  H
  H83      1.0000 0.69430  0.48041  0.77929  Biso   1.000  H
  H84      1.0000 0.75000  0.63733  0.76859  Biso   1.000  H
  H85      1.0000 0.68921  0.54700  0.78800  Biso   1.000  H
  C60      1.0000 0.22370  0.61858  0.63690  Biso   1.000  C
  H86      1.0000 0.30228  0.65686  0.59451  Biso   1.000  H
  H87      1.0000 0.33681  0.57408  0.64338  Biso   1.000  H
  C61      1.0000 0.44539  0.89502  0.58548  Biso   1.000  C
  C62      1.0000 0.77627  0.61858  0.86309  Biso   1.000  C
  O22      1.0000 0.21035  0.52225  0.67398  Biso   1.000  O
  H88      1.0000 0.22892  0.71890  0.64961  Biso   1.000  H
  H89      1.0000 0.18012  0.61658  0.61032  Biso   1.000  H
  C63      1.0000 0.52022  0.85862  0.60486  Biso   1.000  C
  C64      1.0000 0.39386  0.91122  0.61604  Biso   1.000  C
  C65      1.0000 0.70693  0.58051  0.88294  Biso   1.000  C
  H90      1.0000 0.77111  0.71890  0.85042  Biso   1.000  H
  H91      1.0000 0.81991  0.61658  0.88971  Biso   1.000  H
  C66      1.0000 0.26080  0.54045  0.71931  Biso   1.000  C
  H92      1.0000 0.55420  0.84563  0.58439  Biso   1.000  H
  C67      1.0000 0.54383  0.84186  0.65471  Biso   1.000  C
  C68      1.0000 0.41750  0.89180  0.66578  Biso   1.000  C
  H93      1.0000 0.34380  0.93508  0.60311  Biso   1.000  H
  O23      1.0000 0.72009  0.44079  0.90748  Biso   1.000  O
  H94      1.0000 0.69770  0.65686  0.90552  Biso   1.000  H
  H95      1.0000 0.66321  0.57408  0.85661  Biso   1.000  H
  C69      1.0000 0.21613  0.48851  0.75715  Biso   1.000  C
  H96      1.0000 0.27560  0.64355  0.72460  Biso   1.000  H
  H97      1.0000 0.30573  0.48041  0.72070  Biso   1.000  H
  C70      1.0000 0.26709  0.44057  0.75999  Biso   1.000  C
  H98      1.0000 0.25002  0.63733  0.73141  Biso   1.000  H
  H99      1.0000 0.31082  0.54700  0.71200  Biso   1.000  H
  H100     1.0000 0.59399  0.81944  0.66760  Biso   1.000  H
  C71      1.0000 0.49296  0.85828  0.68577  Biso   1.000  C
  H101     1.0000 0.38291  0.90112  0.68610  Biso   1.000  H
  C72      1.0000 0.66159  0.37987  0.92504  Biso   1.000  C
  O24      1.0000 0.26350  0.47664  0.80413  Biso   1.000  O
  H102     1.0000 0.17592  0.55843  0.75850  Biso   1.000  H
  H103     1.0000 0.19349  0.39274  0.74761  Biso   1.000  H
  H104     1.0000 0.21618  0.41771  0.76371  Biso   1.000  H
  O25      1.0000 0.30851  0.47908  0.80650  Biso   1.000  O
  H105     1.0000 0.28858  0.34902  0.75071  Biso   1.000  H
  N3       1.0000 0.52409  0.85029  0.73669  Biso   1.000  N
  C73      1.0000 0.59237  0.44834  0.92354  Biso   1.000  C
  C74      1.0000 0.67579  0.23782  0.94510  Biso   1.000  C
  C75      1.0000 0.26655  0.60770  0.83210  Biso   1.000  C
  N4       1.0000 0.47593  0.85029  0.76331  Biso   1.000  N
  C76      1.0000 0.53710  0.37277  0.94292  Biso   1.000  C
  H106     1.0000 0.58280  0.54245  0.91000  Biso   1.000  H
  C77      1.0000 0.62053  0.16491  0.96364  Biso   1.000  C
  H107     1.0000 0.72233  0.19276  0.94601  Biso   1.000  H
  C78      1.0000 0.32346  0.59438  0.87900  Biso   1.000  C
  H108     1.0000 0.21719  0.62746  0.83920  Biso   1.000  H
  H109     1.0000 0.27993  0.69071  0.81342  Biso   1.000  H
  H110     1.0000 0.26691  0.70414  0.81669  Biso   1.000  H
  H111     1.0000 0.21578  0.58107  0.83519  Biso   1.000  H
  C79      1.0000 0.50702  0.85828  0.81425  Biso   1.000  C
  O26      1.0000 0.47055  0.44878  0.94022  Biso   1.000  O
  C80      1.0000 0.55028  0.23205  0.96309  Biso   1.000  C
  C81      1.0000 0.63429  0.00954  0.98374  Biso   1.000  C
  O27      1.0000 0.29950  0.48186  0.90861  Biso   1.000  O
  H112     1.0000 0.37242  0.56875  0.87219  Biso   1.000  H
  H113     1.0000 0.32811  0.68849  0.89608  Biso   1.000  H
  C82      1.0000 0.45619  0.84186  0.84528  Biso   1.000  C
  C83      1.0000 0.58254  0.89180  0.83425  Biso   1.000  C
  C84      1.0000 0.41372  0.37543  0.96065  Biso   1.000  C
  H114     1.0000 0.51338  0.18344  0.97598  Biso   1.000  H
  O28      1.0000 0.57264  0.91133  0.96444  Biso   1.000  O
  H115     1.0000 0.68037  0.97115  0.97569  Biso   1.000  H
  H116     1.0000 0.64101  0.01265  0.01888  Biso   1.000  H
  C85      1.0000 0.34504  0.47387  0.95628  Biso   1.000  C
  C86      1.0000 0.47981  0.85862  0.89514  Biso   1.000  C
  H117     1.0000 0.40598  0.81944  0.83239  Biso   1.000  H
  C87      1.0000 0.60617  0.91122  0.88399  Biso   1.000  C
  H118     1.0000 0.61711  0.90112  0.81389  Biso   1.000  H
  H119     1.0000 0.43347  0.35301  0.99470  Biso   1.000  H
  H120     1.0000 0.39977  0.28277  0.94368  Biso   1.000  H
  C88      1.0000 0.55465  0.89502  0.91455  Biso   1.000  C
  H121     1.0000 0.31422  0.43758  0.97839  Biso   1.000  H
  H122     1.0000 0.36151  0.57330  0.96659  Biso   1.000  H
  H123     1.0000 0.44582  0.84563  0.91560  Biso   1.000  H
  H124     1.0000 0.65622  0.93508  0.89689  Biso   1.000  H
  C89      1.0000 0.86570  0.50960  0.51625  Biso   1.000  C
  O29      1.0000 0.92736  0.41139  0.53555  Biso   1.000  O
  C90      1.0000 0.87952  0.66497  0.53635  Biso   1.000  C
  H125     1.0000 0.81962  0.47109  0.52430  Biso   1.000  H
  H126     1.0000 0.85899  0.51271  0.48111  Biso   1.000  H
  C91      1.0000 0.94536  0.39507  0.58548  Biso   1.000  C
  C92      1.0000 0.94972  0.73211  0.53690  Biso   1.000  C
  C93      1.0000 0.82421  0.73788  0.55489  Biso   1.000  C
  C94      1.0000 0.89383  0.41128  0.61604  Biso   1.000  C
  C95      1.0000 0.02019  0.35867  0.60486  Biso   1.000  C
  C96      1.0000 0.96290  0.87282  0.55708  Biso   1.000  C
  H127     1.0000 0.98661  0.68339  0.52401  Biso   1.000  H
  H128     1.0000 0.77773  0.69282  0.55402  Biso   1.000  H
  C97      1.0000 0.83840  0.87992  0.57496  Biso   1.000  C
  C98      1.0000 0.91747  0.39185  0.66578  Biso   1.000  C
  H129     1.0000 0.84378  0.43513  0.60311  Biso   1.000  H
  H130     1.0000 0.05418  0.34558  0.58439  Biso   1.000  H
  C99      1.0000 0.04380  0.34192  0.65471  Biso   1.000  C
  C100     1.0000 0.90762  0.94840  0.57645  Biso   1.000  C
  O30      1.0000 0.02946  0.94884  0.55981  Biso   1.000  O
  O31      1.0000 0.77991  0.94074  0.59251  Biso   1.000  O
  C101     1.0000 0.99299  0.35834  0.68577  Biso   1.000  C
  H131     1.0000 0.88288  0.40107  0.68610  Biso   1.000  H
  H132     1.0000 0.09402  0.31950  0.66760  Biso   1.000  H
  H133     1.0000 0.91719  0.04239  0.59000  Biso   1.000  H
  C102     1.0000 0.08628  0.87549  0.53934  Biso   1.000  C
  C103     1.0000 0.79306  0.08057  0.61706  Biso   1.000  C
  N5       1.0000 0.02412  0.35035  0.73669  Biso   1.000  N
  H134     1.0000 0.06652  0.85307  0.50529  Biso   1.000  H
  H135     1.0000 0.10023  0.78271  0.55631  Biso   1.000  H
  C104     1.0000 0.15495  0.97392  0.54371  Biso   1.000  C
  H136     1.0000 0.80231  0.15681  0.59451  Biso   1.000  H
  H137     1.0000 0.83678  0.07402  0.64338  Biso   1.000  H
  C105     1.0000 0.72373  0.11863  0.63690  Biso   1.000  C
  N6       1.0000 0.97590  0.35035  0.76331  Biso   1.000  N
  O32      1.0000 0.20049  0.98180  0.59138  Biso   1.000  O
  H138     1.0000 0.18578  0.93763  0.52161  Biso   1.000  H
  H139     1.0000 0.13848  0.07335  0.53340  Biso   1.000  H
  O33      1.0000 0.71032  0.02231  0.67398  Biso   1.000  O
  H140     1.0000 0.72889  0.21895  0.64961  Biso   1.000  H
  H141     1.0000 0.68010  0.11664  0.61032  Biso   1.000  H
  C106     1.0000 0.00704  0.35834  0.81425  Biso   1.000  C
  C107     1.0000 0.17653  0.09444  0.62099  Biso   1.000  C
  C108     1.0000 0.76078  0.04040  0.71931  Biso   1.000  C
  C109     1.0000 0.95616  0.34192  0.84528  Biso   1.000  C
  C110     1.0000 0.08251  0.39185  0.83425  Biso   1.000  C
  H142     1.0000 0.12758  0.06869  0.62780  Biso   1.000  H
  H143     1.0000 0.17189  0.18855  0.60391  Biso   1.000  H
  C111     1.0000 0.23344  0.10776  0.66789  Biso   1.000  C
  C112     1.0000 0.71616  0.98857  0.75715  Biso   1.000  C
  H144     1.0000 0.80570  0.98047  0.72070  Biso   1.000  H
  C113     1.0000 0.76711  0.94063  0.75999  Biso   1.000  C
  H145     1.0000 0.77557  0.14360  0.72460  Biso   1.000  H
  H146     1.0000 0.75000  0.13728  0.73141  Biso   1.000  H
  H147     1.0000 0.81079  0.04705  0.71200  Biso   1.000  H
  C114     1.0000 0.97978  0.35867  0.89514  Biso   1.000  C
  H148     1.0000 0.90601  0.31950  0.83239  Biso   1.000  H
  H149     1.0000 0.11708  0.40107  0.81389  Biso   1.000  H
  C115     1.0000 0.10615  0.41128  0.88399  Biso   1.000  C
  O34      1.0000 0.23649  0.97670  0.69586  Biso   1.000  O
  O35      1.0000 0.19149  0.97914  0.69350  Biso   1.000  O
  H150     1.0000 0.28280  0.12740  0.66079  Biso   1.000  H
  H151     1.0000 0.22008  0.19077  0.68661  Biso   1.000  H
  H152     1.0000 0.23309  0.20408  0.68330  Biso   1.000  H
  H153     1.0000 0.28421  0.08101  0.66480  Biso   1.000  H
  O36      1.0000 0.76353  0.97670  0.80413  Biso   1.000  O
  H154     1.0000 0.69352  0.89269  0.74761  Biso   1.000  H
  H155     1.0000 0.71620  0.91766  0.76371  Biso   1.000  H
  H156     1.0000 0.67590  0.05848  0.75850  Biso   1.000  H
  O37      1.0000 0.80848  0.97914  0.80650  Biso   1.000  O
  H157     1.0000 0.78860  0.84896  0.75071  Biso   1.000  H
  H158     1.0000 0.94579  0.34558  0.91560  Biso   1.000  H
  C116     1.0000 0.05462  0.39507  0.91455  Biso   1.000  C
  H159     1.0000 0.15619  0.43513  0.89689  Biso   1.000  H
  C117     1.0000 0.28387  0.98857  0.74284  Biso   1.000  C
  C118     1.0000 0.23291  0.94063  0.74000  Biso   1.000  C
  C119     1.0000 0.76653  0.10776  0.83210  Biso   1.000  C
  O38      1.0000 0.07267  0.41139  0.96444  Biso   1.000  O
  H160     1.0000 0.30651  0.89269  0.75238  Biso   1.000  H
  H161     1.0000 0.28382  0.91766  0.73629  Biso   1.000  H
  C120     1.0000 0.23919  0.04040  0.78068  Biso   1.000  C
  H162     1.0000 0.32407  0.05848  0.74149  Biso   1.000  H
  H163     1.0000 0.21142  0.84896  0.74929  Biso   1.000  H
  C121     1.0000 0.82344  0.09444  0.87900  Biso   1.000  C
  H164     1.0000 0.71722  0.12740  0.83920  Biso   1.000  H
  H165     1.0000 0.77990  0.19077  0.81342  Biso   1.000  H
  H166     1.0000 0.76688  0.20408  0.81669  Biso   1.000  H
  H167     1.0000 0.71581  0.08101  0.83519  Biso   1.000  H
  C122     1.0000 0.13432  0.50960  0.98374  Biso   1.000  C
  H168     1.0000 0.19432  0.98047  0.77929  Biso   1.000  H
  O39      1.0000 0.28965  0.02231  0.82602  Biso   1.000  O
  H169     1.0000 0.22440  0.14360  0.77540  Biso   1.000  H
  H170     1.0000 0.24997  0.13728  0.76859  Biso   1.000  H
  H171     1.0000 0.18918  0.04705  0.78800  Biso   1.000  H
  O40      1.0000 0.79947  0.98180  0.90861  Biso   1.000  O
  H172     1.0000 0.87239  0.06869  0.87219  Biso   1.000  H
  H173     1.0000 0.82808  0.18855  0.89608  Biso   1.000  H
  C123     1.0000 0.12050  0.66497  0.96364  Biso   1.000  C
  H174     1.0000 0.18040  0.47109  0.97569  Biso   1.000  H
  H175     1.0000 0.14098  0.51271  0.01888  Biso   1.000  H
  C124     1.0000 0.27629  0.11863  0.86309  Biso   1.000  C
  C125     1.0000 0.84502  0.97392  0.95628  Biso   1.000  C
  C126     1.0000 0.05030  0.73211  0.96309  Biso   1.000  C
  C127     1.0000 0.17582  0.73788  0.94510  Biso   1.000  C
  C128     1.0000 0.20696  0.08057  0.88294  Biso   1.000  C
  H176     1.0000 0.27108  0.21895  0.85042  Biso   1.000  H
  H177     1.0000 0.31988  0.11664  0.88971  Biso   1.000  H
  C129     1.0000 0.91369  0.87549  0.96065  Biso   1.000  C
  H178     1.0000 0.81419  0.93763  0.97839  Biso   1.000  H
  H179     1.0000 0.86148  0.07335  0.96659  Biso   1.000  H
  C130     1.0000 0.03713  0.87282  0.94292  Biso   1.000  C
  H180     1.0000 0.01341  0.68339  0.97598  Biso   1.000  H
  H181     1.0000 0.22230  0.69282  0.94601  Biso   1.000  H
  C131     1.0000 0.16162  0.87992  0.92504  Biso   1.000  C
  O41      1.0000 0.22011  0.94074  0.90748  Biso   1.000  O
  H182     1.0000 0.19773  0.15681  0.90552  Biso   1.000  H
  H183     1.0000 0.16319  0.07402  0.85661  Biso   1.000  H
  O42      1.0000 0.97052  0.94884  0.94022  Biso   1.000  O
  H184     1.0000 0.93350  0.85307  0.99470  Biso   1.000  H
  H185     1.0000 0.89980  0.78271  0.94368  Biso   1.000  H
  C132     1.0000 0.09235  0.94840  0.92354  Biso   1.000  C
  H186     1.0000 0.08278  0.04239  0.91000  Biso   1.000  H
  C133     1.0000 0.86570  0.50960  0.51625  Biso   1.000  C
  O43      1.0000 0.92736  0.41139  0.53555  Biso   1.000  O
  C134     1.0000 0.87952  0.66497  0.53635  Biso   1.000  C
  H187     1.0000 0.81962  0.47109  0.52430  Biso   1.000  H
  H188     1.0000 0.85899  0.51271  0.48111  Biso   1.000  H
  C135     1.0000 0.94536  0.39507  0.58548  Biso   1.000  C
  C136     1.0000 0.94972  0.73211  0.53690  Biso   1.000  C
  C137     1.0000 0.82421  0.73788  0.55489  Biso   1.000  C
  C138     1.0000 0.89383  0.41128  0.61604  Biso   1.000  C
  C139     1.0000 0.02019  0.35867  0.60486  Biso   1.000  C
  C140     1.0000 0.96290  0.87282  0.55708  Biso   1.000  C
  H189     1.0000 0.98661  0.68339  0.52401  Biso   1.000  H
  H190     1.0000 0.77773  0.69282  0.55402  Biso   1.000  H
  C141     1.0000 0.83840  0.87992  0.57496  Biso   1.000  C
  C142     1.0000 0.91747  0.39185  0.66578  Biso   1.000  C
  H191     1.0000 0.84378  0.43513  0.60311  Biso   1.000  H
  H192     1.0000 0.05418  0.34558  0.58439  Biso   1.000  H
  C143     1.0000 0.04380  0.34192  0.65471  Biso   1.000  C
  C144     1.0000 0.90762  0.94840  0.57645  Biso   1.000  C
  O44      1.0000 0.02946  0.94884  0.55981  Biso   1.000  O
  O45      1.0000 0.77991  0.94074  0.59251  Biso   1.000  O
  C145     1.0000 0.99299  0.35834  0.68577  Biso   1.000  C
  H193     1.0000 0.88288  0.40107  0.68610  Biso   1.000  H
  H194     1.0000 0.09402  0.31950  0.66760  Biso   1.000  H
  H195     1.0000 0.91719  0.04239  0.59000  Biso   1.000  H
  C146     1.0000 0.08628  0.87549  0.53934  Biso   1.000  C
  C147     1.0000 0.79306  0.08057  0.61706  Biso   1.000  C
  N7       1.0000 0.02412  0.35035  0.73669  Biso   1.000  N
  H196     1.0000 0.06652  0.85307  0.50529  Biso   1.000  H
  H197     1.0000 0.10023  0.78271  0.55631  Biso   1.000  H
  C148     1.0000 0.15495  0.97392  0.54371  Biso   1.000  C
  H198     1.0000 0.80231  0.15681  0.59451  Biso   1.000  H
  H199     1.0000 0.83678  0.07402  0.64338  Biso   1.000  H
  C149     1.0000 0.72373  0.11863  0.63690  Biso   1.000  C
  N8       1.0000 0.97590  0.35035  0.76331  Biso   1.000  N
  O46      1.0000 0.20049  0.98180  0.59138  Biso   1.000  O
  H200     1.0000 0.18578  0.93763  0.52161  Biso   1.000  H
  H201     1.0000 0.13848  0.07335  0.53340  Biso   1.000  H
  O47      1.0000 0.71032  0.02231  0.67398  Biso   1.000  O
  H202     1.0000 0.72889  0.21895  0.64961  Biso   1.000  H
  H203     1.0000 0.68010  0.11664  0.61032  Biso   1.000  H
  C150     1.0000 0.00704  0.35834  0.81425  Biso   1.000  C
  C151     1.0000 0.17653  0.09444  0.62099  Biso   1.000  C
  C152     1.0000 0.76078  0.04040  0.71931  Biso   1.000  C
  C153     1.0000 0.95616  0.34192  0.84528  Biso   1.000  C
  C154     1.0000 0.08251  0.39185  0.83425  Biso   1.000  C
  H204     1.0000 0.12758  0.06869  0.62780  Biso   1.000  H
  H205     1.0000 0.17189  0.18855  0.60391  Biso   1.000  H
  C155     1.0000 0.23344  0.10776  0.66789  Biso   1.000  C
  C156     1.0000 0.71616  0.98857  0.75715  Biso   1.000  C
  H206     1.0000 0.80570  0.98047  0.72070  Biso   1.000  H
  C157     1.0000 0.76711  0.94063  0.75999  Biso   1.000  C
  H207     1.0000 0.77557  0.14360  0.72460  Biso   1.000  H
  H208     1.0000 0.75000  0.13728  0.73141  Biso   1.000  H
  H209     1.0000 0.81079  0.04705  0.71200  Biso   1.000  H
  C158     1.0000 0.97978  0.35867  0.89514  Biso   1.000  C
  H210     1.0000 0.90601  0.31950  0.83239  Biso   1.000  H
  H211     1.0000 0.11708  0.40107  0.81389  Biso   1.000  H
  C159     1.0000 0.10615  0.41128  0.88399  Biso   1.000  C
  O48      1.0000 0.23649  0.97670  0.69586  Biso   1.000  O
  O49      1.0000 0.19149  0.97914  0.69350  Biso   1.000  O
  H212     1.0000 0.28280  0.12740  0.66079  Biso   1.000  H
  H213     1.0000 0.22008  0.19077  0.68661  Biso   1.000  H
  H214     1.0000 0.23309  0.20408  0.68330  Biso   1.000  H
  H215     1.0000 0.28421  0.08101  0.66480  Biso   1.000  H
  O50      1.0000 0.76353  0.97670  0.80413  Biso   1.000  O
  H216     1.0000 0.69352  0.89269  0.74761  Biso   1.000  H
  H217     1.0000 0.71620  0.91766  0.76371  Biso   1.000  H
  H218     1.0000 0.67590  0.05848  0.75850  Biso   1.000  H
  O51      1.0000 0.80848  0.97914  0.80650  Biso   1.000  O
  H219     1.0000 0.78860  0.84896  0.75071  Biso   1.000  H
  H220     1.0000 0.94579  0.34558  0.91560  Biso   1.000  H
  C160     1.0000 0.05462  0.39507  0.91455  Biso   1.000  C
  H221     1.0000 0.15619  0.43513  0.89689  Biso   1.000  H
  C161     1.0000 0.28387  0.98857  0.74284  Biso   1.000  C
  C162     1.0000 0.23291  0.94063  0.74000  Biso   1.000  C
  C163     1.0000 0.76653  0.10776  0.83210  Biso   1.000  C
  O52      1.0000 0.07267  0.41139  0.96444  Biso   1.000  O
  H222     1.0000 0.30651  0.89269  0.75238  Biso   1.000  H
  H223     1.0000 0.28382  0.91766  0.73629  Biso   1.000  H
  C164     1.0000 0.23919  0.04040  0.78068  Biso   1.000  C
  H224     1.0000 0.32407  0.05848  0.74149  Biso   1.000  H
  H225     1.0000 0.21142  0.84896  0.74929  Biso   1.000  H
  C165     1.0000 0.82344  0.09444  0.87900  Biso   1.000  C
  H226     1.0000 0.71722  0.12740  0.83920  Biso   1.000  H
  H227     1.0000 0.77990  0.19077  0.81342  Biso   1.000  H
  H228     1.0000 0.76688  0.20408  0.81669  Biso   1.000  H
  H229     1.0000 0.71581  0.08101  0.83519  Biso   1.000  H
  C166     1.0000 0.13432  0.50960  0.98374  Biso   1.000  C
  H230     1.0000 0.19432  0.98047  0.77929  Biso   1.000  H
  O53      1.0000 0.28965  0.02231  0.82602  Biso   1.000  O
  H231     1.0000 0.22440  0.14360  0.77540  Biso   1.000  H
  H232     1.0000 0.24997  0.13728  0.76859  Biso   1.000  H
  H233     1.0000 0.18918  0.04705  0.78800  Biso   1.000  H
  O54      1.0000 0.79947  0.98180  0.90861  Biso   1.000  O
  H234     1.0000 0.87239  0.06869  0.87219  Biso   1.000  H
  H235     1.0000 0.82808  0.18855  0.89608  Biso   1.000  H
  C167     1.0000 0.12050  0.66497  0.96364  Biso   1.000  C
  H236     1.0000 0.18040  0.47109  0.97569  Biso   1.000  H
  H237     1.0000 0.14098  0.51271  0.01888  Biso   1.000  H
  C168     1.0000 0.27629  0.11863  0.86309  Biso   1.000  C
  C169     1.0000 0.84502  0.97392  0.95628  Biso   1.000  C
  C170     1.0000 0.05030  0.73211  0.96309  Biso   1.000  C
  C171     1.0000 0.17582  0.73788  0.94510  Biso   1.000  C
  C172     1.0000 0.20696  0.08057  0.88294  Biso   1.000  C
  H238     1.0000 0.27108  0.21895  0.85042  Biso   1.000  H
  H239     1.0000 0.31988  0.11664  0.88971  Biso   1.000  H
  C173     1.0000 0.91369  0.87549  0.96065  Biso   1.000  C
  H240     1.0000 0.81419  0.93763  0.97839  Biso   1.000  H
  H241     1.0000 0.86148  0.07335  0.96659  Biso   1.000  H
  C174     1.0000 0.03713  0.87282  0.94292  Biso   1.000  C
  H242     1.0000 0.01341  0.68339  0.97598  Biso   1.000  H
  H243     1.0000 0.22230  0.69282  0.94601  Biso   1.000  H
  C175     1.0000 0.16162  0.87992  0.92504  Biso   1.000  C
  O55      1.0000 0.22011  0.94074  0.90748  Biso   1.000  O
  H244     1.0000 0.19773  0.15681  0.90552  Biso   1.000  H
  H245     1.0000 0.16319  0.07402  0.85661  Biso   1.000  H
  O56      1.0000 0.97052  0.94884  0.94022  Biso   1.000  O
  H246     1.0000 0.93350  0.85307  0.99470  Biso   1.000  H
  H247     1.0000 0.89980  0.78271  0.94368  Biso   1.000  H
  C176     1.0000 0.09235  0.94840  0.92354  Biso   1.000  C
  H248     1.0000 0.08278  0.04239  0.91000  Biso   1.000  H
  C177     1.0000 0.66161  0.62013  0.42506  Biso   1.000  C
  C178     1.0000 0.59234  0.55166  0.42357  Biso   1.000  C
  C179     1.0000 0.67579  0.76218  0.44509  Biso   1.000  C
  O57      1.0000 0.72011  0.55932  0.40751  Biso   1.000  O
  C180     1.0000 0.53711  0.62723  0.44291  Biso   1.000  C
  H249     1.0000 0.58281  0.45766  0.40999  Biso   1.000  H
  C181     1.0000 0.62048  0.83509  0.46363  Biso   1.000  C
  H250     1.0000 0.72228  0.80724  0.44600  Biso   1.000  H
  C182     1.0000 0.70695  0.41949  0.38296  Biso   1.000  C
  O58      1.0000 0.47055  0.55122  0.44021  Biso   1.000  O
  C183     1.0000 0.55028  0.76795  0.46308  Biso   1.000  C
  C184     1.0000 0.63430  0.99046  0.48373  Biso   1.000  C
  H251     1.0000 0.69771  0.34325  0.40551  Biso   1.000  H
  H252     1.0000 0.66322  0.42603  0.35660  Biso   1.000  H
  C185     1.0000 0.77628  0.38153  0.36312  Biso   1.000  C
  C186     1.0000 0.41374  0.62457  0.46068  Biso   1.000  C
  H253     1.0000 0.51340  0.81667  0.47601  Biso   1.000  H
  H254     1.0000 0.64103  0.98735  0.51891  Biso   1.000  H
  O59      1.0000 0.57264  0.08867  0.46443  Biso   1.000  O
  H255     1.0000 0.68038  0.02896  0.47568  Biso   1.000  H
  O60      1.0000 0.78963  0.47775  0.32601  Biso   1.000  O
  H256     1.0000 0.77112  0.28110  0.35041  Biso   1.000  H
  H257     1.0000 0.81992  0.38342  0.38970  Biso   1.000  H
  C187     1.0000 0.34500  0.52625  0.45627  Biso   1.000  C
  H258     1.0000 0.43348  0.64699  0.49469  Biso   1.000  H
  H259     1.0000 0.39979  0.71735  0.44371  Biso   1.000  H
  C188     1.0000 0.55466  0.10509  0.41454  Biso   1.000  C
  C189     1.0000 0.73923  0.45966  0.28067  Biso   1.000  C
  O61      1.0000 0.29951  0.51826  0.40860  Biso   1.000  O
  H260     1.0000 0.31418  0.56242  0.47841  Biso   1.000  H
  H261     1.0000 0.36153  0.42670  0.46662  Biso   1.000  H
  C190     1.0000 0.47982  0.14149  0.39516  Biso   1.000  C
  C191     1.0000 0.60618  0.08878  0.38398  Biso   1.000  C
  C192     1.0000 0.78384  0.51149  0.24283  Biso   1.000  C
  C193     1.0000 0.73289  0.55943  0.23999  Biso   1.000  C
  H262     1.0000 0.72438  0.35656  0.27539  Biso   1.000  H
  H263     1.0000 0.69430  0.51959  0.27928  Biso   1.000  H
  H264     1.0000 0.75002  0.36267  0.26861  Biso   1.000  H
  H265     1.0000 0.68921  0.45300  0.28799  Biso   1.000  H
  C194     1.0000 0.32348  0.40562  0.37903  Biso   1.000  C
  H266     1.0000 0.44583  0.15448  0.41559  Biso   1.000  H
  C195     1.0000 0.45621  0.15814  0.34531  Biso   1.000  C
  C196     1.0000 0.58254  0.10820  0.33424  Biso   1.000  C
  H267     1.0000 0.65618  0.06492  0.39691  Biso   1.000  H
  O62      1.0000 0.73647  0.52347  0.19585  Biso   1.000  O
  H268     1.0000 0.82410  0.44157  0.24148  Biso   1.000  H
  H269     1.0000 0.80650  0.60737  0.25241  Biso   1.000  H
  H270     1.0000 0.78381  0.58229  0.23631  Biso   1.000  H
  O63      1.0000 0.69152  0.52092  0.19349  Biso   1.000  O
  H271     1.0000 0.71141  0.65098  0.24931  Biso   1.000  H
  C197     1.0000 0.26656  0.39230  0.33209  Biso   1.000  C
  H272     1.0000 0.37237  0.43136  0.37219  Biso   1.000  H
  H273     1.0000 0.32813  0.31151  0.39611  Biso   1.000  H
  C198     1.0000 0.50702  0.14172  0.31425  Biso   1.000  C
  H274     1.0000 0.40600  0.18056  0.33242  Biso   1.000  H
  H275     1.0000 0.61713  0.09899  0.31392  Biso   1.000  H
  C199     1.0000 0.73349  0.39230  0.16792  Biso   1.000  C
  O64      1.0000 0.26352  0.52347  0.30416  Biso   1.000  O
  O65      1.0000 0.30852  0.52092  0.30649  Biso   1.000  O
  H276     1.0000 0.21720  0.37266  0.33919  Biso   1.000  H
  H277     1.0000 0.27988  0.30929  0.31341  Biso   1.000  H
  H278     1.0000 0.26691  0.29586  0.31669  Biso   1.000  H
  H279     1.0000 0.21579  0.41904  0.33519  Biso   1.000  H
  N9       1.0000 0.47589  0.14971  0.26333  Biso   1.000  N
  C200     1.0000 0.67657  0.40562  0.12098  Biso   1.000  C
  H280     1.0000 0.78278  0.37266  0.16078  Biso   1.000  H
  H281     1.0000 0.72011  0.30929  0.18660  Biso   1.000  H
  H282     1.0000 0.73312  0.29586  0.18329  Biso   1.000  H
  H283     1.0000 0.78419  0.41904  0.16479  Biso   1.000  H
  C201     1.0000 0.21615  0.51149  0.25718  Biso   1.000  C
  C202     1.0000 0.26709  0.55943  0.25998  Biso   1.000  C
  N10      1.0000 0.52410  0.14971  0.23668  Biso   1.000  N
  O66      1.0000 0.70054  0.51826  0.09141  Biso   1.000  O
  H284     1.0000 0.62761  0.43136  0.12779  Biso   1.000  H
  H285     1.0000 0.67192  0.31151  0.10390  Biso   1.000  H
  C203     1.0000 0.26077  0.45966  0.21934  Biso   1.000  C
  H286     1.0000 0.17588  0.44157  0.25849  Biso   1.000  H
  H287     1.0000 0.19350  0.60737  0.24760  Biso   1.000  H
  H288     1.0000 0.21618  0.58229  0.26370  Biso   1.000  H
  H289     1.0000 0.28858  0.65098  0.25070  Biso   1.000  H
  C204     1.0000 0.49297  0.14172  0.18576  Biso   1.000  C
  C205     1.0000 0.65500  0.52625  0.04374  Biso   1.000  C
  O67      1.0000 0.21037  0.47775  0.17400  Biso   1.000  O
  H290     1.0000 0.27561  0.35656  0.22459  Biso   1.000  H
  H291     1.0000 0.30568  0.51959  0.22069  Biso   1.000  H
  H292     1.0000 0.24998  0.36267  0.23140  Biso   1.000  H
  H293     1.0000 0.31082  0.45300  0.21199  Biso   1.000  H
  C206     1.0000 0.54378  0.15814  0.15470  Biso   1.000  C
  C207     1.0000 0.41745  0.10820  0.16577  Biso   1.000  C
  C208     1.0000 0.58631  0.62457  0.03933  Biso   1.000  C
  H294     1.0000 0.68581  0.56242  0.02160  Biso   1.000  H
  H295     1.0000 0.63852  0.42670  0.03339  Biso   1.000  H
  C209     1.0000 0.22371  0.38153  0.13689  Biso   1.000  C
  C210     1.0000 0.52017  0.14149  0.10485  Biso   1.000  C
  H296     1.0000 0.59399  0.18056  0.16759  Biso   1.000  H
  C211     1.0000 0.39387  0.08878  0.11603  Biso   1.000  C
  H297     1.0000 0.38292  0.09899  0.18609  Biso   1.000  H
  O68      1.0000 0.52944  0.55122  0.05980  Biso   1.000  O
  H298     1.0000 0.56651  0.64699  0.00532  Biso   1.000  H
  H299     1.0000 0.60020  0.71735  0.05630  Biso   1.000  H
  C212     1.0000 0.29304  0.41949  0.11705  Biso   1.000  C
  H300     1.0000 0.22887  0.28110  0.14960  Biso   1.000  H
  H301     1.0000 0.18008  0.38342  0.11031  Biso   1.000  H
  C213     1.0000 0.44539  0.10509  0.08547  Biso   1.000  C
  H302     1.0000 0.55422  0.15448  0.08442  Biso   1.000  H
  H303     1.0000 0.34381  0.06492  0.10310  Biso   1.000  H
  C214     1.0000 0.46288  0.62723  0.05707  Biso   1.000  C
  O69      1.0000 0.27989  0.55932  0.09250  Biso   1.000  O
  H304     1.0000 0.30229  0.34325  0.09450  Biso   1.000  H
  H305     1.0000 0.33683  0.42603  0.14341  Biso   1.000  H
  O70      1.0000 0.42735  0.08867  0.03558  Biso   1.000  O
  C215     1.0000 0.40766  0.55166  0.07644  Biso   1.000  C
  C216     1.0000 0.44970  0.76795  0.03689  Biso   1.000  C
  C217     1.0000 0.33838  0.62013  0.07495  Biso   1.000  C
  C218     1.0000 0.36569  0.99046  0.01628  Biso   1.000  C
  H306     1.0000 0.41717  0.45766  0.08999  Biso   1.000  H
  C219     1.0000 0.37951  0.83509  0.03638  Biso   1.000  C
  H307     1.0000 0.48659  0.81667  0.02400  Biso   1.000  H
  C220     1.0000 0.32419  0.76218  0.05488  Biso   1.000  C
  H308     1.0000 0.35902  0.98735  0.98110  Biso   1.000  H
  H309     1.0000 0.31960  0.02896  0.02429  Biso   1.000  H
  H310     1.0000 0.27771  0.80724  0.05401  Biso   1.000  H
  C221     1.0000 0.66161  0.62013  0.42506  Biso   1.000  C
  C222     1.0000 0.59234  0.55166  0.42357  Biso   1.000  C
  C223     1.0000 0.67579  0.76218  0.44509  Biso   1.000  C
  O71      1.0000 0.72011  0.55932  0.40751  Biso   1.000  O
  C224     1.0000 0.53711  0.62723  0.44291  Biso   1.000  C
  H311     1.0000 0.58281  0.45766  0.40999  Biso   1.000  H
  C225     1.0000 0.62048  0.83509  0.46363  Biso   1.000  C
  H312     1.0000 0.72228  0.80724  0.44600  Biso   1.000  H
  C226     1.0000 0.70695  0.41949  0.38296  Biso   1.000  C
  O72      1.0000 0.47055  0.55122  0.44021  Biso   1.000  O
  C227     1.0000 0.55028  0.76795  0.46308  Biso   1.000  C
  C228     1.0000 0.63430  0.99046  0.48373  Biso   1.000  C
  H313     1.0000 0.69771  0.34325  0.40551  Biso   1.000  H
  H314     1.0000 0.66322  0.42603  0.35660  Biso   1.000  H
  C229     1.0000 0.77628  0.38153  0.36312  Biso   1.000  C
  C230     1.0000 0.41374  0.62457  0.46068  Biso   1.000  C
  H315     1.0000 0.51340  0.81667  0.47601  Biso   1.000  H
  H316     1.0000 0.64103  0.98735  0.51891  Biso   1.000  H
  O73      1.0000 0.57264  0.08867  0.46443  Biso   1.000  O
  H317     1.0000 0.68038  0.02896  0.47568  Biso   1.000  H
  O74      1.0000 0.78963  0.47775  0.32601  Biso   1.000  O
  H318     1.0000 0.77112  0.28110  0.35041  Biso   1.000  H
  H319     1.0000 0.81992  0.38342  0.38970  Biso   1.000  H
  C231     1.0000 0.34500  0.52625  0.45627  Biso   1.000  C
  H320     1.0000 0.43348  0.64699  0.49469  Biso   1.000  H
  H321     1.0000 0.39979  0.71735  0.44371  Biso   1.000  H
  C232     1.0000 0.55466  0.10509  0.41454  Biso   1.000  C
  C233     1.0000 0.73923  0.45966  0.28067  Biso   1.000  C
  O75      1.0000 0.29951  0.51826  0.40860  Biso   1.000  O
  H322     1.0000 0.31418  0.56242  0.47841  Biso   1.000  H
  H323     1.0000 0.36153  0.42670  0.46662  Biso   1.000  H
  C234     1.0000 0.47982  0.14149  0.39516  Biso   1.000  C
  C235     1.0000 0.60618  0.08878  0.38398  Biso   1.000  C
  C236     1.0000 0.78384  0.51149  0.24283  Biso   1.000  C
  C237     1.0000 0.73289  0.55943  0.23999  Biso   1.000  C
  H324     1.0000 0.72438  0.35656  0.27539  Biso   1.000  H
  H325     1.0000 0.69430  0.51959  0.27928  Biso   1.000  H
  H326     1.0000 0.75002  0.36267  0.26861  Biso   1.000  H
  H327     1.0000 0.68921  0.45300  0.28799  Biso   1.000  H
  C238     1.0000 0.32348  0.40562  0.37903  Biso   1.000  C
  H328     1.0000 0.44583  0.15448  0.41559  Biso   1.000  H
  C239     1.0000 0.45621  0.15814  0.34531  Biso   1.000  C
  C240     1.0000 0.58254  0.10820  0.33424  Biso   1.000  C
  H329     1.0000 0.65618  0.06492  0.39691  Biso   1.000  H
  O76      1.0000 0.73647  0.52347  0.19585  Biso   1.000  O
  H330     1.0000 0.82410  0.44157  0.24148  Biso   1.000  H
  H331     1.0000 0.80650  0.60737  0.25241  Biso   1.000  H
  H332     1.0000 0.78381  0.58229  0.23631  Biso   1.000  H
  O77      1.0000 0.69152  0.52092  0.19349  Biso   1.000  O
  H333     1.0000 0.71141  0.65098  0.24931  Biso   1.000  H
  C241     1.0000 0.26656  0.39230  0.33209  Biso   1.000  C
  H334     1.0000 0.37237  0.43136  0.37219  Biso   1.000  H
  H335     1.0000 0.32813  0.31151  0.39611  Biso   1.000  H
  C242     1.0000 0.50702  0.14172  0.31425  Biso   1.000  C
  H336     1.0000 0.40600  0.18056  0.33242  Biso   1.000  H
  H337     1.0000 0.61713  0.09899  0.31392  Biso   1.000  H
  C243     1.0000 0.73349  0.39230  0.16792  Biso   1.000  C
  O78      1.0000 0.26352  0.52347  0.30416  Biso   1.000  O
  O79      1.0000 0.30852  0.52092  0.30649  Biso   1.000  O
  H338     1.0000 0.21720  0.37266  0.33919  Biso   1.000  H
  H339     1.0000 0.27988  0.30929  0.31341  Biso   1.000  H
  H340     1.0000 0.26691  0.29586  0.31669  Biso   1.000  H
  H341     1.0000 0.21579  0.41904  0.33519  Biso   1.000  H
  N11      1.0000 0.47589  0.14971  0.26333  Biso   1.000  N
  C244     1.0000 0.67657  0.40562  0.12098  Biso   1.000  C
  H342     1.0000 0.78278  0.37266  0.16078  Biso   1.000  H
  H343     1.0000 0.72011  0.30929  0.18660  Biso   1.000  H
  H344     1.0000 0.73312  0.29586  0.18329  Biso   1.000  H
  H345     1.0000 0.78419  0.41904  0.16479  Biso   1.000  H
  C245     1.0000 0.21615  0.51149  0.25718  Biso   1.000  C
  C246     1.0000 0.26709  0.55943  0.25998  Biso   1.000  C
  N12      1.0000 0.52410  0.14971  0.23668  Biso   1.000  N
  O80      1.0000 0.70054  0.51826  0.09141  Biso   1.000  O
  H346     1.0000 0.62761  0.43136  0.12779  Biso   1.000  H
  H347     1.0000 0.67192  0.31151  0.10390  Biso   1.000  H
  C247     1.0000 0.26077  0.45966  0.21934  Biso   1.000  C
  H348     1.0000 0.17588  0.44157  0.25849  Biso   1.000  H
  H349     1.0000 0.19350  0.60737  0.24760  Biso   1.000  H
  H350     1.0000 0.21618  0.58229  0.26370  Biso   1.000  H
  H351     1.0000 0.28858  0.65098  0.25070  Biso   1.000  H
  C248     1.0000 0.49297  0.14172  0.18576  Biso   1.000  C
  C249     1.0000 0.65500  0.52625  0.04374  Biso   1.000  C
  O81      1.0000 0.21037  0.47775  0.17400  Biso   1.000  O
  H352     1.0000 0.27561  0.35656  0.22459  Biso   1.000  H
  H353     1.0000 0.30568  0.51959  0.22069  Biso   1.000  H
  H354     1.0000 0.24998  0.36267  0.23140  Biso   1.000  H
  H355     1.0000 0.31082  0.45300  0.21199  Biso   1.000  H
  C250     1.0000 0.54378  0.15814  0.15470  Biso   1.000  C
  C251     1.0000 0.41745  0.10820  0.16577  Biso   1.000  C
  C252     1.0000 0.58631  0.62457  0.03933  Biso   1.000  C
  H356     1.0000 0.68581  0.56242  0.02160  Biso   1.000  H
  H357     1.0000 0.63852  0.42670  0.03339  Biso   1.000  H
  C253     1.0000 0.22371  0.38153  0.13689  Biso   1.000  C
  C254     1.0000 0.52017  0.14149  0.10485  Biso   1.000  C
  H358     1.0000 0.59399  0.18056  0.16759  Biso   1.000  H
  C255     1.0000 0.39387  0.08878  0.11603  Biso   1.000  C
  H359     1.0000 0.38292  0.09899  0.18609  Biso   1.000  H
  O82      1.0000 0.52944  0.55122  0.05980  Biso   1.000  O
  H360     1.0000 0.56651  0.64699  0.00532  Biso   1.000  H
  H361     1.0000 0.60020  0.71735  0.05630  Biso   1.000  H
  C256     1.0000 0.29304  0.41949  0.11705  Biso   1.000  C
  H362     1.0000 0.22887  0.28110  0.14960  Biso   1.000  H
  H363     1.0000 0.18008  0.38342  0.11031  Biso   1.000  H
  C257     1.0000 0.44539  0.10509  0.08547  Biso   1.000  C
  H364     1.0000 0.55422  0.15448  0.08442  Biso   1.000  H
  H365     1.0000 0.34381  0.06492  0.10310  Biso   1.000  H
  C258     1.0000 0.46288  0.62723  0.05707  Biso   1.000  C
  O83      1.0000 0.27989  0.55932  0.09250  Biso   1.000  O
  H366     1.0000 0.30229  0.34325  0.09450  Biso   1.000  H
  H367     1.0000 0.33683  0.42603  0.14341  Biso   1.000  H
  O84      1.0000 0.42735  0.08867  0.03558  Biso   1.000  O
  C259     1.0000 0.40766  0.55166  0.07644  Biso   1.000  C
  C260     1.0000 0.44970  0.76795  0.03689  Biso   1.000  C
  C261     1.0000 0.33838  0.62013  0.07495  Biso   1.000  C
  C262     1.0000 0.36569  0.99046  0.01628  Biso   1.000  C
  H368     1.0000 0.41717  0.45766  0.08999  Biso   1.000  H
  C263     1.0000 0.37951  0.83509  0.03638  Biso   1.000  C
  H369     1.0000 0.48659  0.81667  0.02400  Biso   1.000  H
  C264     1.0000 0.32419  0.76218  0.05488  Biso   1.000  C
  H370     1.0000 0.35902  0.98735  0.98110  Biso   1.000  H
  H371     1.0000 0.31960  0.02896  0.02429  Biso   1.000  H
  H372     1.0000 0.27771  0.80724  0.05401  Biso   1.000  H
  C265     1.0000 0.84502  0.02619  0.45627  Biso   1.000  C
  O85      1.0000 0.79948  0.01820  0.40860  Biso   1.000  O
  C266     1.0000 0.91371  0.12463  0.46068  Biso   1.000  C
  H373     1.0000 0.81421  0.06237  0.47841  Biso   1.000  H
  H374     1.0000 0.86150  0.92665  0.46662  Biso   1.000  H
  C267     1.0000 0.82346  0.90567  0.37903  Biso   1.000  C
  O86      1.0000 0.97053  0.05116  0.44021  Biso   1.000  O
  H375     1.0000 0.93351  0.14704  0.49469  Biso   1.000  H
  H376     1.0000 0.89982  0.21729  0.44371  Biso   1.000  H
  C268     1.0000 0.76653  0.89224  0.33209  Biso   1.000  C
  C269     1.0000 0.76653  0.89235  0.33209  Biso   1.000  C
  H377     1.0000 0.87240  0.93131  0.37219  Biso   1.000  H
  H378     1.0000 0.82810  0.81145  0.39611  Biso   1.000  H
  C270     1.0000 0.03713  0.12729  0.44291  Biso   1.000  C
  O87      1.0000 0.76355  0.02342  0.30416  Biso   1.000  O
  O88      1.0000 0.80849  0.02097  0.30649  Biso   1.000  O
  H379     1.0000 0.71717  0.87260  0.33919  Biso   1.000  H
  H380     1.0000 0.77991  0.80934  0.31341  Biso   1.000  H
  H381     1.0000 0.76689  0.79592  0.31669  Biso   1.000  H
  H382     1.0000 0.71582  0.91899  0.33519  Biso   1.000  H
  C271     1.0000 0.05031  0.26789  0.46308  Biso   1.000  C
  C272     1.0000 0.09236  0.05160  0.42357  Biso   1.000  C
  C273     1.0000 0.71618  0.01154  0.25718  Biso   1.000  C
  C274     1.0000 0.76712  0.05948  0.25998  Biso   1.000  C
  H383     1.0000 0.01343  0.31661  0.47601  Biso   1.000  H
  C275     1.0000 0.12051  0.33503  0.46363  Biso   1.000  C
  H384     1.0000 0.08278  0.95761  0.40999  Biso   1.000  H
  C276     1.0000 0.16158  0.12019  0.42506  Biso   1.000  C
  H385     1.0000 0.69352  0.10731  0.24760  Biso   1.000  H
  H386     1.0000 0.71621  0.08234  0.26370  Biso   1.000  H
  C277     1.0000 0.76079  0.95960  0.21934  Biso   1.000  C
  H387     1.0000 0.67590  0.94163  0.25849  Biso   1.000  H
  H388     1.0000 0.78861  0.15104  0.25070  Biso   1.000  H
  C278     1.0000 0.17582  0.26212  0.44509  Biso   1.000  C
  C279     1.0000 0.13433  0.49040  0.48373  Biso   1.000  C
  O89      1.0000 0.22013  0.05926  0.40751  Biso   1.000  O
  H389     1.0000 0.80571  0.01964  0.22069  Biso   1.000  H
  O90      1.0000 0.71034  0.97780  0.17400  Biso   1.000  O
  H390     1.0000 0.77558  0.85651  0.22459  Biso   1.000  H
  H391     1.0000 0.75000  0.86272  0.23140  Biso   1.000  H
  H392     1.0000 0.81079  0.95306  0.21199  Biso   1.000  H
  H393     1.0000 0.22231  0.30718  0.44600  Biso   1.000  H
  O91      1.0000 0.07267  0.58861  0.46443  Biso   1.000  O
  H394     1.0000 0.18041  0.52891  0.47568  Biso   1.000  H
  H395     1.0000 0.14100  0.48729  0.51891  Biso   1.000  H
  C280     1.0000 0.20698  0.91943  0.38296  Biso   1.000  C
  C281     1.0000 0.72368  0.88148  0.13689  Biso   1.000  C
  C282     1.0000 0.05463  0.60504  0.41454  Biso   1.000  C
  H396     1.0000 0.19768  0.84319  0.40551  Biso   1.000  H
  H397     1.0000 0.16319  0.92598  0.35660  Biso   1.000  H
  C283     1.0000 0.27631  0.88148  0.36312  Biso   1.000  C
  C284     1.0000 0.79301  0.91943  0.11705  Biso   1.000  C
  H398     1.0000 0.72890  0.78105  0.14960  Biso   1.000  H
  H399     1.0000 0.68010  0.88336  0.11031  Biso   1.000  H
  C285     1.0000 0.97980  0.64144  0.39516  Biso   1.000  C
  C286     1.0000 0.10615  0.58872  0.38398  Biso   1.000  C
  O92      1.0000 0.28965  0.97780  0.32601  Biso   1.000  O
  H400     1.0000 0.27109  0.78105  0.35041  Biso   1.000  H
  H401     1.0000 0.31989  0.88336  0.38970  Biso   1.000  H
  O93      1.0000 0.77986  0.05926  0.09250  Biso   1.000  O
  H402     1.0000 0.80231  0.84319  0.09450  Biso   1.000  H
  H403     1.0000 0.83680  0.92598  0.14341  Biso   1.000  H
  H404     1.0000 0.94580  0.65442  0.41559  Biso   1.000  H
  C287     1.0000 0.95618  0.65808  0.34531  Biso   1.000  C
  C288     1.0000 0.08252  0.60815  0.33424  Biso   1.000  C
  H405     1.0000 0.15621  0.56498  0.39691  Biso   1.000  H
  C289     1.0000 0.23920  0.95960  0.28067  Biso   1.000  C
  C290     1.0000 0.83841  0.12019  0.07495  Biso   1.000  C
  H406     1.0000 0.90603  0.68050  0.33242  Biso   1.000  H
  C291     1.0000 0.00705  0.64177  0.31425  Biso   1.000  C
  H407     1.0000 0.11710  0.59893  0.31392  Biso   1.000  H
  H408     1.0000 0.22440  0.85651  0.27539  Biso   1.000  H
  H409     1.0000 0.24999  0.86272  0.26861  Biso   1.000  H
  H410     1.0000 0.18919  0.95306  0.28799  Biso   1.000  H
  C292     1.0000 0.28382  0.01154  0.24283  Biso   1.000  C
  H411     1.0000 0.19428  0.01964  0.27928  Biso   1.000  H
  C293     1.0000 0.23292  0.05948  0.23999  Biso   1.000  C
  C294     1.0000 0.82421  0.26212  0.05488  Biso   1.000  C
  C295     1.0000 0.90763  0.05160  0.07644  Biso   1.000  C
  N13      1.0000 0.97592  0.64976  0.26333  Biso   1.000  N
  O94      1.0000 0.23645  0.02342  0.19585  Biso   1.000  O
  H412     1.0000 0.32408  0.94163  0.24148  Biso   1.000  H
  H413     1.0000 0.30652  0.10731  0.25241  Biso   1.000  H
  H414     1.0000 0.28378  0.08234  0.23631  Biso   1.000  H
  O95      1.0000 0.19149  0.02097  0.19349  Biso   1.000  O
  H415     1.0000 0.21138  0.15104  0.24931  Biso   1.000  H
  C296     1.0000 0.87948  0.33503  0.03638  Biso   1.000  C
  H416     1.0000 0.77768  0.30718  0.05401  Biso   1.000  H
  C297     1.0000 0.96290  0.12729  0.05707  Biso   1.000  C
  H417     1.0000 0.91720  0.95761  0.08999  Biso   1.000  H
  N14      1.0000 0.02407  0.64976  0.23668  Biso   1.000  N
  C298     1.0000 0.23346  0.89224  0.16792  Biso   1.000  C
  C299     1.0000 0.23346  0.89235  0.16792  Biso   1.000  C
  C300     1.0000 0.94967  0.26789  0.03689  Biso   1.000  C
  C301     1.0000 0.86572  0.49040  0.01628  Biso   1.000  C
  O96      1.0000 0.02947  0.05116  0.05980  Biso   1.000  O
  C302     1.0000 0.99300  0.64177  0.18576  Biso   1.000  C
  C303     1.0000 0.17654  0.90567  0.12098  Biso   1.000  C
  H418     1.0000 0.28281  0.87260  0.16078  Biso   1.000  H
  H419     1.0000 0.22009  0.80934  0.18660  Biso   1.000  H
  H420     1.0000 0.23309  0.79592  0.18329  Biso   1.000  H
  H421     1.0000 0.28422  0.91899  0.16479  Biso   1.000  H
  H422     1.0000 0.98662  0.31661  0.02400  Biso   1.000  H
  O97      1.0000 0.92732  0.58861  0.03558  Biso   1.000  O
  H423     1.0000 0.81957  0.52891  0.02429  Biso   1.000  H
  H424     1.0000 0.85899  0.48729  0.98110  Biso   1.000  H
  C304     1.0000 0.08628  0.12463  0.03933  Biso   1.000  C
  C305     1.0000 0.91748  0.60815  0.16577  Biso   1.000  C
  C306     1.0000 0.04381  0.65808  0.15470  Biso   1.000  C
  O98      1.0000 0.20051  0.01820  0.09141  Biso   1.000  O
  H425     1.0000 0.12758  0.93131  0.12779  Biso   1.000  H
  H426     1.0000 0.17189  0.81145  0.10390  Biso   1.000  H
  C307     1.0000 0.94537  0.60504  0.08547  Biso   1.000  C
  H427     1.0000 0.06648  0.14704  0.00532  Biso   1.000  H
  H428     1.0000 0.10018  0.21729  0.05630  Biso   1.000  H
  C308     1.0000 0.15497  0.02619  0.04374  Biso   1.000  C
  C309     1.0000 0.89384  0.58872  0.11603  Biso   1.000  C
  H429     1.0000 0.88289  0.59893  0.18609  Biso   1.000  H
  C310     1.0000 0.02020  0.64144  0.10485  Biso   1.000  C
  H430     1.0000 0.09402  0.68050  0.16759  Biso   1.000  H
  H431     1.0000 0.13849  0.92665  0.03339  Biso   1.000  H
  H432     1.0000 0.18578  0.06237  0.02160  Biso   1.000  H
  H433     1.0000 0.84378  0.56498  0.10310  Biso   1.000  H
  H434     1.0000 0.05420  0.65442  0.08442  Biso   1.000  H
  C311     1.0000 0.84502  0.02619  0.45627  Biso   1.000  C
  O99      1.0000 0.79948  0.01820  0.40860  Biso   1.000  O
  C312     1.0000 0.91371  0.12463  0.46068  Biso   1.000  C
  H435     1.0000 0.81421  0.06237  0.47841  Biso   1.000  H
  H436     1.0000 0.86150  0.92665  0.46662  Biso   1.000  H
  C313     1.0000 0.82346  0.90567  0.37903  Biso   1.000  C
  O100     1.0000 0.97053  0.05116  0.44021  Biso   1.000  O
  H437     1.0000 0.93351  0.14704  0.49469  Biso   1.000  H
  H438     1.0000 0.89982  0.21729  0.44371  Biso   1.000  H
  C314     1.0000 0.76653  0.89224  0.33209  Biso   1.000  C
  C315     1.0000 0.76653  0.89235  0.33209  Biso   1.000  C
  H439     1.0000 0.87240  0.93131  0.37219  Biso   1.000  H
  H440     1.0000 0.82810  0.81145  0.39611  Biso   1.000  H
  C316     1.0000 0.03713  0.12729  0.44291  Biso   1.000  C
  O101     1.0000 0.76355  0.02342  0.30416  Biso   1.000  O
  O102     1.0000 0.80849  0.02097  0.30649  Biso   1.000  O
  H441     1.0000 0.71717  0.87260  0.33919  Biso   1.000  H
  H442     1.0000 0.77991  0.80934  0.31341  Biso   1.000  H
  H443     1.0000 0.76689  0.79592  0.31669  Biso   1.000  H
  H444     1.0000 0.71582  0.91899  0.33519  Biso   1.000  H
  C317     1.0000 0.05031  0.26789  0.46308  Biso   1.000  C
  C318     1.0000 0.09236  0.05160  0.42357  Biso   1.000  C
  C319     1.0000 0.71618  0.01154  0.25718  Biso   1.000  C
  C320     1.0000 0.76712  0.05948  0.25998  Biso   1.000  C
  H445     1.0000 0.01343  0.31661  0.47601  Biso   1.000  H
  C321     1.0000 0.12051  0.33503  0.46363  Biso   1.000  C
  H446     1.0000 0.08278  0.95761  0.40999  Biso   1.000  H
  C322     1.0000 0.16158  0.12019  0.42506  Biso   1.000  C
  H447     1.0000 0.69352  0.10731  0.24760  Biso   1.000  H
  C323     1.0000 0.76079  0.95960  0.21934  Biso   1.000  C
  H448     1.0000 0.67590  0.94163  0.25849  Biso   1.000  H
  H449     1.0000 0.71621  0.08234  0.26370  Biso   1.000  H
  H450     1.0000 0.78861  0.15104  0.25070  Biso   1.000  H
  C324     1.0000 0.17582  0.26212  0.44509  Biso   1.000  C
  C325     1.0000 0.13433  0.49040  0.48373  Biso   1.000  C
  O103     1.0000 0.22013  0.05926  0.40751  Biso   1.000  O
  H451     1.0000 0.80571  0.01964  0.22069  Biso   1.000  H
  O104     1.0000 0.71034  0.97780  0.17400  Biso   1.000  O
  H452     1.0000 0.77558  0.85651  0.22459  Biso   1.000  H
  H453     1.0000 0.75000  0.86272  0.23140  Biso   1.000  H
  H454     1.0000 0.81079  0.95306  0.21199  Biso   1.000  H
  H455     1.0000 0.22231  0.30718  0.44600  Biso   1.000  H
  O105     1.0000 0.07267  0.58861  0.46443  Biso   1.000  O
  H456     1.0000 0.18041  0.52891  0.47568  Biso   1.000  H
  H457     1.0000 0.14100  0.48729  0.51891  Biso   1.000  H
  C326     1.0000 0.20698  0.91943  0.38296  Biso   1.000  C
  C327     1.0000 0.72368  0.88148  0.13689  Biso   1.000  C
  C328     1.0000 0.05463  0.60504  0.41454  Biso   1.000  C
  H458     1.0000 0.19768  0.84319  0.40551  Biso   1.000  H
  H459     1.0000 0.16319  0.92598  0.35660  Biso   1.000  H
  C329     1.0000 0.27631  0.88148  0.36312  Biso   1.000  C
  C330     1.0000 0.79301  0.91943  0.11705  Biso   1.000  C
  H460     1.0000 0.72890  0.78105  0.14960  Biso   1.000  H
  H461     1.0000 0.68010  0.88336  0.11031  Biso   1.000  H
  C331     1.0000 0.97980  0.64144  0.39516  Biso   1.000  C
  C332     1.0000 0.10615  0.58872  0.38398  Biso   1.000  C
  O106     1.0000 0.28965  0.97780  0.32601  Biso   1.000  O
  H462     1.0000 0.27109  0.78105  0.35041  Biso   1.000  H
  H463     1.0000 0.31989  0.88336  0.38970  Biso   1.000  H
  O107     1.0000 0.77986  0.05926  0.09250  Biso   1.000  O
  H464     1.0000 0.80231  0.84319  0.09450  Biso   1.000  H
  H465     1.0000 0.83680  0.92598  0.14341  Biso   1.000  H
  H466     1.0000 0.94580  0.65442  0.41559  Biso   1.000  H
  C333     1.0000 0.95618  0.65808  0.34531  Biso   1.000  C
  C334     1.0000 0.08252  0.60815  0.33424  Biso   1.000  C
  H467     1.0000 0.15621  0.56498  0.39691  Biso   1.000  H
  C335     1.0000 0.23920  0.95960  0.28067  Biso   1.000  C
  C336     1.0000 0.83841  0.12019  0.07495  Biso   1.000  C
  H468     1.0000 0.90603  0.68050  0.33242  Biso   1.000  H
  C337     1.0000 0.00705  0.64177  0.31425  Biso   1.000  C
  H469     1.0000 0.11710  0.59893  0.31392  Biso   1.000  H
  H470     1.0000 0.22440  0.85651  0.27539  Biso   1.000  H
  H471     1.0000 0.24999  0.86272  0.26861  Biso   1.000  H
  H472     1.0000 0.18919  0.95306  0.28799  Biso   1.000  H
  C338     1.0000 0.28382  0.01154  0.24283  Biso   1.000  C
  H473     1.0000 0.19428  0.01964  0.27928  Biso   1.000  H
  C339     1.0000 0.23292  0.05948  0.23999  Biso   1.000  C
  C340     1.0000 0.82421  0.26212  0.05488  Biso   1.000  C
  C341     1.0000 0.90763  0.05160  0.07644  Biso   1.000  C
  N15      1.0000 0.97592  0.64976  0.26333  Biso   1.000  N
  O108     1.0000 0.23645  0.02342  0.19585  Biso   1.000  O
  H474     1.0000 0.32408  0.94163  0.24148  Biso   1.000  H
  H475     1.0000 0.30652  0.10731  0.25241  Biso   1.000  H
  H476     1.0000 0.28378  0.08234  0.23631  Biso   1.000  H
  O109     1.0000 0.19149  0.02097  0.19349  Biso   1.000  O
  H477     1.0000 0.21138  0.15104  0.24931  Biso   1.000  H
  C342     1.0000 0.87948  0.33503  0.03638  Biso   1.000  C
  H478     1.0000 0.77768  0.30718  0.05401  Biso   1.000  H
  C343     1.0000 0.96290  0.12729  0.05707  Biso   1.000  C
  H479     1.0000 0.91720  0.95761  0.08999  Biso   1.000  H
  N16      1.0000 0.02407  0.64976  0.23668  Biso   1.000  N
  C344     1.0000 0.23346  0.89224  0.16792  Biso   1.000  C
  C345     1.0000 0.23346  0.89235  0.16792  Biso   1.000  C
  C346     1.0000 0.94967  0.26789  0.03689  Biso   1.000  C
  C347     1.0000 0.86572  0.49040  0.01628  Biso   1.000  C
  O110     1.0000 0.02947  0.05116  0.05980  Biso   1.000  O
  C348     1.0000 0.99300  0.64177  0.18576  Biso   1.000  C
  C349     1.0000 0.17654  0.90567  0.12098  Biso   1.000  C
  H480     1.0000 0.28281  0.87260  0.16078  Biso   1.000  H
  H481     1.0000 0.22009  0.80934  0.18660  Biso   1.000  H
  H482     1.0000 0.23309  0.79592  0.18329  Biso   1.000  H
  H483     1.0000 0.28422  0.91899  0.16479  Biso   1.000  H
  H484     1.0000 0.98662  0.31661  0.02400  Biso   1.000  H
  O111     1.0000 0.92732  0.58861  0.03558  Biso   1.000  O
  H485     1.0000 0.81957  0.52891  0.02429  Biso   1.000  H
  H486     1.0000 0.85899  0.48729  0.98110  Biso   1.000  H
  C350     1.0000 0.08628  0.12463  0.03933  Biso   1.000  C
  C351     1.0000 0.91748  0.60815  0.16577  Biso   1.000  C
  C352     1.0000 0.04381  0.65808  0.15470  Biso   1.000  C
  O112     1.0000 0.20051  0.01820  0.09141  Biso   1.000  O
  H487     1.0000 0.12758  0.93131  0.12779  Biso   1.000  H
  H488     1.0000 0.17189  0.81145  0.10390  Biso   1.000  H
  C353     1.0000 0.94537  0.60504  0.08547  Biso   1.000  C
  H489     1.0000 0.06648  0.14704  0.00532  Biso   1.000  H
  H490     1.0000 0.10018  0.21729  0.05630  Biso   1.000  H
  C354     1.0000 0.15497  0.02619  0.04374  Biso   1.000  C
  C355     1.0000 0.89384  0.58872  0.11603  Biso   1.000  C
  H491     1.0000 0.88289  0.59893  0.18609  Biso   1.000  H
  C356     1.0000 0.02020  0.64144  0.10485  Biso   1.000  C
  H492     1.0000 0.09402  0.68050  0.16759  Biso   1.000  H
  H493     1.0000 0.13849  0.92665  0.03339  Biso   1.000  H
  H494     1.0000 0.18578  0.06237  0.02160  Biso   1.000  H
  H495     1.0000 0.84378  0.56498  0.10310  Biso   1.000  H
  H496     1.0000 0.05420  0.65442  0.08442  Biso   1.000  H
