data_image0
_cell_length_a       18.994
_cell_length_b       18.994
_cell_length_c       50.612
_cell_angle_alpha    90
_cell_angle_beta     90
_cell_angle_gamma    90

_symmetry_space_group_name_H-M    "P 1"
_symmetry_int_tables_number       1

loop_
  _symmetry_equiv_pos_as_xyz
  'x, y, z'

loop_
  _atom_site_label
  _atom_site_occupancy
  _atom_site_fract_x
  _atom_site_fract_y
  _atom_site_fract_z
  _atom_site_thermal_displace_type
  _atom_site_B_iso_or_equiv
  _atom_site_type_symbol
  C1       1.0000 0.65200  0.41239  0.50609  Biso   1.000  C
  C2       1.0000 0.65947  0.44667  0.53027  Biso   1.000  C
  H1       1.0000 0.67969  0.42719  0.49150  Biso   1.000  H
  C3       1.0000 0.60509  0.35738  0.50294  Biso   1.000  C
  C4       1.0000 0.71359  0.50526  0.53450  Biso   1.000  C
  C5       1.0000 0.61846  0.42361  0.55054  Biso   1.000  C
  H2       1.0000 0.60019  0.33521  0.48621  Biso   1.000  H
  C6       1.0000 0.56507  0.33468  0.52422  Biso   1.000  C
  C7       1.0000 0.74566  0.53691  0.50958  Biso   1.000  C
  H3       1.0000 0.75218  0.48636  0.54560  Biso   1.000  H
  H4       1.0000 0.69069  0.54359  0.54459  Biso   1.000  H
  C8       1.0000 0.57297  0.36927  0.54791  Biso   1.000  C
  H5       1.0000 0.62209  0.44640  0.56720  Biso   1.000  H
  C9       1.0000 0.51858  0.27540  0.52215  Biso   1.000  C
  C10      1.0000 0.71259  0.59408  0.49714  Biso   1.000  C
  C11      1.0000 0.80620  0.50758  0.49879  Biso   1.000  C
  H6       1.0000 0.54591  0.35490  0.56269  Biso   1.000  H
  C12      1.0000 0.48136  0.22460  0.52215  Biso   1.000  C
  C13      1.0000 0.74397  0.62488  0.47447  Biso   1.000  C
  C14      1.0000 0.64289  0.62230  0.50812  Biso   1.000  C
  C15      1.0000 0.83658  0.53806  0.47617  Biso   1.000  C
  C16      1.0000 0.84016  0.44409  0.51144  Biso   1.000  C
  C17      1.0000 0.43487  0.16532  0.52422  Biso   1.000  C
  C18      1.0000 0.70996  0.68737  0.46129  Biso   1.000  C
  C19      1.0000 0.80457  0.59519  0.46345  Biso   1.000  C
  H7       1.0000 0.61388  0.64047  0.49340  Biso   1.000  H
  H8       1.0000 0.61667  0.58329  0.51660  Biso   1.000  H
  C20      1.0000 0.65468  0.68237  0.52873  Biso   1.000  C
  C21      1.0000 0.90397  0.50727  0.46461  Biso   1.000  C
  H9       1.0000 0.80310  0.41487  0.51970  Biso   1.000  H
  H10      1.0000 0.86285  0.41539  0.49749  Biso   1.000  H
  C22      1.0000 0.89576  0.46257  0.53256  Biso   1.000  C
  C23      1.0000 0.39491  0.14257  0.50294  Biso   1.000  C
  C24      1.0000 0.42698  0.13067  0.54791  Biso   1.000  C
  C25      1.0000 0.66121  0.67011  0.43855  Biso   1.000  C
  H11      1.0000 0.68290  0.71380  0.47481  Biso   1.000  H
  H12      1.0000 0.74760  0.71886  0.45469  Biso   1.000  H
  C26      1.0000 0.83458  0.62388  0.43814  Biso   1.000  C
  H13      1.0000 0.60919  0.69696  0.53610  Biso   1.000  H
  H14      1.0000 0.68501  0.66516  0.54299  Biso   1.000  H
  H15      1.0000 0.67716  0.72270  0.52009  Biso   1.000  H
  C27      1.0000 0.89418  0.44551  0.44537  Biso   1.000  C
  C28      1.0000 0.89486  0.44819  0.44381  Biso   1.000  C
  H16      1.0000 0.93430  0.49137  0.47939  Biso   1.000  H
  H17      1.0000 0.92945  0.54538  0.45531  Biso   1.000  H
  H18      1.0000 0.91687  0.41919  0.53940  Biso   1.000  H
  H19      1.0000 0.93245  0.49200  0.52460  Biso   1.000  H
  H20      1.0000 0.87317  0.48831  0.54710  Biso   1.000  H
  C29      1.0000 0.34800  0.08761  0.50609  Biso   1.000  C
  H21      1.0000 0.39981  0.16479  0.48621  Biso   1.000  H
  C30      1.0000 0.38149  0.07639  0.55054  Biso   1.000  C
  H22      1.0000 0.45409  0.14510  0.56269  Biso   1.000  H
  C31      1.0000 0.64157  0.72281  0.42160  Biso   1.000  C
  C32      1.0000 0.63309  0.60430  0.43423  Biso   1.000  C
  H23      1.0000 0.85727  0.58497  0.42830  Biso   1.000  H
  H24      1.0000 0.79557  0.64220  0.42709  Biso   1.000  H
  C33      1.0000 0.88928  0.68348  0.44240  Biso   1.000  C
  C34      1.0000 0.95425  0.42250  0.43231  Biso   1.000  C
  C35      1.0000 0.95330  0.40687  0.43800  Biso   1.000  C
  C36      1.0000 0.82958  0.41371  0.44029  Biso   1.000  C
  C37      1.0000 0.83058  0.43408  0.43179  Biso   1.000  C
  C38      1.0000 0.34048  0.05328  0.53027  Biso   1.000  C
  H25      1.0000 0.32031  0.07281  0.49150  Biso   1.000  H
  H26      1.0000 0.37791  0.05360  0.56720  Biso   1.000  H
  C39      1.0000 0.59550  0.71149  0.40129  Biso   1.000  C
  H27      1.0000 0.66068  0.76856  0.42399  Biso   1.000  H
  C40      1.0000 0.58619  0.59140  0.41393  Biso   1.000  C
  H28      1.0000 0.64636  0.56660  0.44551  Biso   1.000  H
  H29      1.0000 0.90418  0.70217  0.42520  Biso   1.000  H
  H30      1.0000 0.86796  0.72128  0.45290  Biso   1.000  H
  H31      1.0000 0.93029  0.66458  0.45181  Biso   1.000  H
  C41      1.0000 0.94977  0.36770  0.41419  Biso   1.000  C
  C42      1.0000 0.94730  0.35137  0.42020  Biso   1.000  C
  H32      1.0000 0.99837  0.44419  0.43571  Biso   1.000  H
  H33      1.0000 0.99726  0.41650  0.44620  Biso   1.000  H
  C43      1.0000 0.82516  0.35890  0.42219  Biso   1.000  C
  C44      1.0000 0.82458  0.37859  0.41409  Biso   1.000  C
  H34      1.0000 0.78856  0.42950  0.44930  Biso   1.000  H
  H35      1.0000 0.79067  0.46241  0.43581  Biso   1.000  H
  C45      1.0000 0.28641  0.99468  0.53450  Biso   1.000  C
  C46      1.0000 0.56686  0.64668  0.39744  Biso   1.000  C
  H36      1.0000 0.58350  0.74918  0.38981  Biso   1.000  H
  H37      1.0000 0.56749  0.54559  0.41131  Biso   1.000  H
  C47      1.0000 0.88517  0.33590  0.40911  Biso   1.000  C
  C48      1.0000 0.88286  0.33732  0.40826  Biso   1.000  C
  H38      1.0000 0.99079  0.35190  0.40520  Biso   1.000  H
  H39      1.0000 0.98715  0.32310  0.41621  Biso   1.000  H
  H40      1.0000 0.78098  0.33721  0.41879  Biso   1.000  H
  H41      1.0000 0.78056  0.36901  0.40589  Biso   1.000  H
  C49      1.0000 0.25429  0.96309  0.50958  Biso   1.000  C
  H42      1.0000 0.24782  0.01358  0.54560  Biso   1.000  H
  H43      1.0000 0.30931  0.95635  0.54459  Biso   1.000  H
  C50      1.0000 0.51379  0.63678  0.37695  Biso   1.000  C
  C51      1.0000 0.88107  0.28119  0.38920  Biso   1.000  C
  C52      1.0000 0.19380  0.99237  0.49879  Biso   1.000  C
  C53      1.0000 0.28741  0.90587  0.49714  Biso   1.000  C
  C54      1.0000 0.46878  0.63109  0.36080  Biso   1.000  C
  C55      1.0000 0.88675  0.23618  0.37305  Biso   1.000  C
  C56      1.0000 0.16342  0.96188  0.47617  Biso   1.000  C
  C57      1.0000 0.15979  0.05591  0.51144  Biso   1.000  C
  C58      1.0000 0.25598  0.87507  0.47447  Biso   1.000  C
  C59      1.0000 0.35711  0.87770  0.50812  Biso   1.000  C
  C60      1.0000 0.41408  0.63520  0.34089  Biso   1.000  C
  C61      1.0000 0.41271  0.63288  0.34174  Biso   1.000  C
  C62      1.0000 0.89665  0.18311  0.35256  Biso   1.000  C
  C63      1.0000 0.09598  0.99268  0.46461  Biso   1.000  C
  C64      1.0000 0.19538  0.90476  0.46345  Biso   1.000  C
  H44      1.0000 0.19690  0.08508  0.51970  Biso   1.000  H
  H45      1.0000 0.13710  0.08461  0.49749  Biso   1.000  H
  C65      1.0000 0.10419  0.03738  0.53256  Biso   1.000  C
  C66      1.0000 0.28999  0.81257  0.46129  Biso   1.000  C
  H46      1.0000 0.38607  0.85948  0.49340  Biso   1.000  H
  H47      1.0000 0.38328  0.91666  0.51660  Biso   1.000  H
  C67      1.0000 0.34527  0.81757  0.52873  Biso   1.000  C
  C68      1.0000 0.38228  0.69980  0.33581  Biso   1.000  C
  C69      1.0000 0.39860  0.69727  0.32980  Biso   1.000  C
  C70      1.0000 0.39107  0.57518  0.32781  Biso   1.000  C
  C71      1.0000 0.37138  0.57460  0.33591  Biso   1.000  C
  C72      1.0000 0.96146  0.15447  0.34871  Biso   1.000  C
  C73      1.0000 0.84137  0.16379  0.33607  Biso   1.000  C
  C74      1.0000 0.10582  0.05449  0.44537  Biso   1.000  C
  C75      1.0000 0.10509  0.05181  0.44381  Biso   1.000  C
  H48      1.0000 0.06570  0.00858  0.47939  Biso   1.000  H
  H49      1.0000 0.07050  0.95456  0.45531  Biso   1.000  H
  C76      1.0000 0.16542  0.87607  0.43814  Biso   1.000  C
  H50      1.0000 0.08308  0.08081  0.53940  Biso   1.000  H
  H51      1.0000 0.06749  0.00800  0.52460  Biso   1.000  H
  H52      1.0000 0.12678  0.01169  0.54710  Biso   1.000  H
  C77      1.0000 0.33879  0.82989  0.43855  Biso   1.000  C
  H53      1.0000 0.31710  0.78620  0.47481  Biso   1.000  H
  H54      1.0000 0.25240  0.78109  0.45469  Biso   1.000  H
  H55      1.0000 0.39081  0.80299  0.53610  Biso   1.000  H
  H56      1.0000 0.31499  0.83479  0.54299  Biso   1.000  H
  H57      1.0000 0.32279  0.77730  0.52009  Biso   1.000  H
  C78      1.0000 0.32747  0.70428  0.31769  Biso   1.000  C
  C79      1.0000 0.34311  0.70327  0.31200  Biso   1.000  C
  H58      1.0000 0.39807  0.74076  0.34480  Biso   1.000  H
  H59      1.0000 0.42687  0.73718  0.33379  Biso   1.000  H
  C80      1.0000 0.33632  0.57960  0.30971  Biso   1.000  C
  C81      1.0000 0.31589  0.58060  0.31821  Biso   1.000  C
  H60      1.0000 0.41281  0.53101  0.33121  Biso   1.000  H
  H61      1.0000 0.38102  0.53059  0.34411  Biso   1.000  H
  C82      1.0000 0.97278  0.10840  0.32840  Biso   1.000  C
  H62      1.0000 0.99916  0.16647  0.36019  Biso   1.000  H
  C83      1.0000 0.85427  0.11688  0.31577  Biso   1.000  C
  H63      1.0000 0.79557  0.18248  0.33869  Biso   1.000  H
  C84      1.0000 0.04570  0.07750  0.43231  Biso   1.000  C
  C85      1.0000 0.04670  0.09308  0.43800  Biso   1.000  C
  C86      1.0000 0.17037  0.08629  0.44029  Biso   1.000  C
  C87      1.0000 0.16937  0.06592  0.43179  Biso   1.000  C
  H64      1.0000 0.14268  0.91497  0.42830  Biso   1.000  H
  H65      1.0000 0.20438  0.85780  0.42709  Biso   1.000  H
  C88      1.0000 0.11072  0.81647  0.44240  Biso   1.000  C
  C89      1.0000 0.35838  0.77719  0.42160  Biso   1.000  C
  C90      1.0000 0.36691  0.89565  0.43423  Biso   1.000  C
  C91      1.0000 0.30452  0.64420  0.30463  Biso   1.000  C
  C92      1.0000 0.30178  0.64489  0.30619  Biso   1.000  C
  H66      1.0000 0.30578  0.74839  0.31429  Biso   1.000  H
  H67      1.0000 0.33347  0.74729  0.30380  Biso   1.000  H
  H68      1.0000 0.32047  0.53859  0.30070  Biso   1.000  H
  H69      1.0000 0.28762  0.54070  0.31419  Biso   1.000  H
  C93      1.0000 0.92008  0.08882  0.31145  Biso   1.000  C
  H70      1.0000 0.01858  0.08929  0.32601  Biso   1.000  H
  H71      1.0000 0.81657  0.10361  0.30449  Biso   1.000  H
  C94      1.0000 0.05017  0.13230  0.41419  Biso   1.000  C
  C95      1.0000 0.05270  0.14857  0.42020  Biso   1.000  C
  H72      1.0000 0.00158  0.05581  0.43571  Biso   1.000  H
  H73      1.0000 0.00269  0.08350  0.44620  Biso   1.000  H
  C96      1.0000 0.17479  0.14110  0.42219  Biso   1.000  C
  C97      1.0000 0.17537  0.12141  0.41409  Biso   1.000  C
  H74      1.0000 0.21138  0.07050  0.44930  Biso   1.000  H
  H75      1.0000 0.20928  0.03759  0.43581  Biso   1.000  H
  H76      1.0000 0.09582  0.79778  0.42520  Biso   1.000  H
  H77      1.0000 0.13199  0.77867  0.45290  Biso   1.000  H
  H78      1.0000 0.06971  0.83537  0.45181  Biso   1.000  H
  C98      1.0000 0.40450  0.78846  0.40129  Biso   1.000  C
  H79      1.0000 0.33927  0.73139  0.42399  Biso   1.000  H
  C99      1.0000 0.41381  0.90855  0.41393  Biso   1.000  C
  H80      1.0000 0.35359  0.93340  0.44551  Biso   1.000  H
  C100     1.0000 0.24271  0.65400  0.28539  Biso   1.000  C
  C101     1.0000 0.93740  0.04001  0.28871  Biso   1.000  C
  C102     1.0000 0.11477  0.16410  0.40911  Biso   1.000  C
  C103     1.0000 0.11709  0.16268  0.40826  Biso   1.000  C
  H81      1.0000 0.00921  0.14810  0.40520  Biso   1.000  H
  H82      1.0000 0.01279  0.17690  0.41621  Biso   1.000  H
  H83      1.0000 0.21902  0.16279  0.41879  Biso   1.000  H
  H84      1.0000 0.21939  0.13099  0.40589  Biso   1.000  H
  C104     1.0000 0.43308  0.85327  0.39744  Biso   1.000  C
  H85      1.0000 0.41650  0.75076  0.38981  Biso   1.000  H
  H86      1.0000 0.43251  0.95435  0.41131  Biso   1.000  H
  C105     1.0000 0.21191  0.58661  0.27383  Biso   1.000  C
  H87      1.0000 0.25861  0.68427  0.27061  Biso   1.000  H
  H88      1.0000 0.20459  0.67948  0.29469  Biso   1.000  H
  C106     1.0000 0.87486  0.00600  0.27553  Biso   1.000  C
  H89      1.0000 0.96378  0.06707  0.27519  Biso   1.000  H
  H90      1.0000 0.96888  0.00242  0.29531  Biso   1.000  H
  C107     1.0000 0.11888  0.21881  0.38920  Biso   1.000  C
  C108     1.0000 0.48621  0.86317  0.37695  Biso   1.000  C
  C109     1.0000 0.24239  0.55618  0.25121  Biso   1.000  C
  C110     1.0000 0.15479  0.55460  0.28655  Biso   1.000  C
  C111     1.0000 0.84406  0.03738  0.25286  Biso   1.000  C
  C112     1.0000 0.84516  0.94535  0.28655  Biso   1.000  C
  C113     1.0000 0.11319  0.26377  0.37305  Biso   1.000  C
  C114     1.0000 0.53117  0.86885  0.36080  Biso   1.000  C
  C115     1.0000 0.21312  0.49568  0.24042  Biso   1.000  C
  C116     1.0000 0.30589  0.59019  0.23856  Biso   1.000  C
  C117     1.0000 0.12509  0.49400  0.27553  Biso   1.000  C
  C118     1.0000 0.12609  0.58461  0.31186  Biso   1.000  C
  C119     1.0000 0.78688  0.00432  0.24042  Biso   1.000  C
  C120     1.0000 0.87228  0.10709  0.24188  Biso   1.000  C
  C121     1.0000 0.78809  0.91339  0.27383  Biso   1.000  C
  C122     1.0000 0.87385  0.91539  0.31186  Biso   1.000  C
  C123     1.0000 0.10330  0.31689  0.35256  Biso   1.000  C
  C124     1.0000 0.58587  0.86480  0.34089  Biso   1.000  C
  C125     1.0000 0.58729  0.86706  0.34174  Biso   1.000  C
  C126     1.0000 0.24471  0.46357  0.21550  Biso   1.000  C
  C127     1.0000 0.15589  0.46257  0.25286  Biso   1.000  C
  H91      1.0000 0.33511  0.55307  0.23030  Biso   1.000  H
  H92      1.0000 0.33458  0.61288  0.25251  Biso   1.000  H
  C128     1.0000 0.28741  0.64578  0.21744  Biso   1.000  C
  C129     1.0000 0.06260  0.45999  0.28871  Biso   1.000  C
  H93      1.0000 0.16500  0.60730  0.32170  Biso   1.000  H
  H94      1.0000 0.10777  0.54559  0.32291  Biso   1.000  H
  C130     1.0000 0.06649  0.63931  0.30760  Biso   1.000  C
  C131     1.0000 0.75529  0.03638  0.21550  Biso   1.000  C
  C132     1.0000 0.75756  0.94377  0.25121  Biso   1.000  C
  H95      1.0000 0.89049  0.13610  0.25660  Biso   1.000  H
  H96      1.0000 0.83326  0.13331  0.23340  Biso   1.000  H
  C133     1.0000 0.93240  0.09529  0.22127  Biso   1.000  C
  C134     1.0000 0.75729  0.84600  0.28539  Biso   1.000  C
  H97      1.0000 0.83500  0.89265  0.32170  Biso   1.000  H
  H98      1.0000 0.89218  0.95435  0.32291  Biso   1.000  H
  C135     1.0000 0.93345  0.86069  0.30760  Biso   1.000  C
  C136     1.0000 0.03849  0.34548  0.34871  Biso   1.000  C
  C137     1.0000 0.15858  0.33621  0.33607  Biso   1.000  C
  C138     1.0000 0.61767  0.80020  0.33581  Biso   1.000  C
  C139     1.0000 0.60140  0.80267  0.32980  Biso   1.000  C
  C140     1.0000 0.60888  0.92477  0.32781  Biso   1.000  C
  C141     1.0000 0.62857  0.92540  0.33591  Biso   1.000  C
  C142     1.0000 0.30331  0.40950  0.21973  Biso   1.000  C
  H99      1.0000 0.26361  0.50221  0.20440  Biso   1.000  H
  H100     1.0000 0.20638  0.44067  0.20541  Biso   1.000  H
  C143     1.0000 0.12767  0.39291  0.24188  Biso   1.000  C
  H101     1.0000 0.33079  0.66689  0.21060  Biso   1.000  H
  H102     1.0000 0.25798  0.68248  0.22540  Biso   1.000  H
  H103     1.0000 0.26171  0.62320  0.20290  Biso   1.000  H
  H104     1.0000 0.03622  0.43287  0.27519  Biso   1.000  H
  H105     1.0000 0.03112  0.49758  0.29531  Biso   1.000  H
  C144     1.0000 0.07992  0.41118  0.31145  Biso   1.000  C
  H106     1.0000 0.04780  0.65421  0.32480  Biso   1.000  H
  H107     1.0000 0.02869  0.61798  0.29710  Biso   1.000  H
  H108     1.0000 0.08540  0.68027  0.29819  Biso   1.000  H
  C145     1.0000 0.69669  0.09050  0.21973  Biso   1.000  C
  H109     1.0000 0.79357  0.05928  0.20541  Biso   1.000  H
  H110     1.0000 0.73639  0.99779  0.20440  Biso   1.000  H
  C146     1.0000 0.69406  0.90976  0.23856  Biso   1.000  C
  H111     1.0000 0.94698  0.14078  0.21390  Biso   1.000  H
  H112     1.0000 0.91518  0.06502  0.20701  Biso   1.000  H
  H113     1.0000 0.97268  0.07281  0.22991  Biso   1.000  H
  C147     1.0000 0.69548  0.85580  0.30463  Biso   1.000  C
  H114     1.0000 0.74139  0.81568  0.27061  Biso   1.000  H
  H115     1.0000 0.79536  0.82047  0.29469  Biso   1.000  H
  C148     1.0000 0.69817  0.85506  0.30619  Biso   1.000  C
  H116     1.0000 0.95220  0.84579  0.32480  Biso   1.000  H
  H117     1.0000 0.97125  0.88196  0.29710  Biso   1.000  H
  H118     1.0000 0.91455  0.81968  0.29819  Biso   1.000  H
  C149     1.0000 0.02722  0.39160  0.32840  Biso   1.000  C
  H119     1.0000 0.00079  0.33347  0.36019  Biso   1.000  H
  C150     1.0000 0.14568  0.38307  0.31577  Biso   1.000  C
  H120     1.0000 0.20438  0.31747  0.33869  Biso   1.000  H
  C151     1.0000 0.67248  0.79567  0.31769  Biso   1.000  C
  C152     1.0000 0.65689  0.79667  0.31200  Biso   1.000  C
  H121     1.0000 0.60187  0.75919  0.34480  Biso   1.000  H
  H122     1.0000 0.57308  0.76277  0.33379  Biso   1.000  H
  C153     1.0000 0.66368  0.92040  0.30971  Biso   1.000  C
  C154     1.0000 0.68406  0.91940  0.31821  Biso   1.000  C
  H123     1.0000 0.58719  0.96899  0.33121  Biso   1.000  H
  H124     1.0000 0.61898  0.96936  0.34411  Biso   1.000  H
  C155     1.0000 0.33758  0.40197  0.24391  Biso   1.000  C
  C156     1.0000 0.32637  0.36848  0.19946  Biso   1.000  C
  H125     1.0000 0.10951  0.36390  0.25660  Biso   1.000  H
  H126     1.0000 0.16668  0.36669  0.23340  Biso   1.000  H
  C157     1.0000 0.06760  0.40471  0.22127  Biso   1.000  C
  C158     1.0000 0.66237  0.09798  0.24391  Biso   1.000  C
  C159     1.0000 0.67358  0.13152  0.19946  Biso   1.000  C
  H127     1.0000 0.66489  0.94688  0.23030  Biso   1.000  H
  H128     1.0000 0.66537  0.88707  0.25251  Biso   1.000  H
  C160     1.0000 0.71259  0.85416  0.21744  Biso   1.000  C
  H129     1.0000 0.98136  0.41071  0.32601  Biso   1.000  H
  H130     1.0000 0.18337  0.39639  0.30449  Biso   1.000  H
  H131     1.0000 0.69417  0.75161  0.31429  Biso   1.000  H
  H132     1.0000 0.66647  0.75266  0.30380  Biso   1.000  H
  H133     1.0000 0.67948  0.96136  0.30070  Biso   1.000  H
  H134     1.0000 0.71238  0.95925  0.31419  Biso   1.000  H
  C161     1.0000 0.39260  0.35511  0.24706  Biso   1.000  C
  H135     1.0000 0.32279  0.42971  0.25850  Biso   1.000  H
  C162     1.0000 0.38070  0.32300  0.20209  Biso   1.000  C
  H136     1.0000 0.30357  0.37206  0.18280  Biso   1.000  H
  H137     1.0000 0.05302  0.35917  0.21390  Biso   1.000  H
  H138     1.0000 0.08482  0.43498  0.20701  Biso   1.000  H
  H139     1.0000 0.02732  0.42719  0.22991  Biso   1.000  H
  C163     1.0000 0.60740  0.14489  0.24706  Biso   1.000  C
  H140     1.0000 0.67716  0.07029  0.25850  Biso   1.000  H
  C164     1.0000 0.61930  0.17700  0.20209  Biso   1.000  C
  H141     1.0000 0.69638  0.12788  0.18280  Biso   1.000  H
  H142     1.0000 0.66916  0.83305  0.21060  Biso   1.000  H
  H143     1.0000 0.74197  0.81747  0.22540  Biso   1.000  H
  H144     1.0000 0.73829  0.87680  0.20290  Biso   1.000  H
  H145     1.0000 0.41482  0.35022  0.26379  Biso   1.000  H
  C165     1.0000 0.41529  0.31510  0.22578  Biso   1.000  C
  H146     1.0000 0.39507  0.29588  0.18731  Biso   1.000  H
  C166     1.0000 0.58466  0.18490  0.22578  Biso   1.000  C
  H147     1.0000 0.58518  0.14978  0.26379  Biso   1.000  H
  H148     1.0000 0.60488  0.20412  0.18731  Biso   1.000  H
  C167     1.0000 0.47457  0.26861  0.22785  Biso   1.000  C
  C168     1.0000 0.52538  0.23139  0.22785  Biso   1.000  C
  C169     1.0000 0.43487  0.66526  0.47578  Biso   1.000  C
  C170     1.0000 0.39491  0.64257  0.49706  Biso   1.000  C
  C171     1.0000 0.42698  0.63067  0.45209  Biso   1.000  C
  C172     1.0000 0.48136  0.72460  0.47785  Biso   1.000  C
  C173     1.0000 0.34800  0.58761  0.49391  Biso   1.000  C
  H149     1.0000 0.39981  0.66479  0.51379  Biso   1.000  H
  C174     1.0000 0.38149  0.57639  0.44946  Biso   1.000  C
  H150     1.0000 0.45409  0.64510  0.43731  Biso   1.000  H
  C175     1.0000 0.51858  0.77540  0.47785  Biso   1.000  C
  C176     1.0000 0.34048  0.55328  0.46973  Biso   1.000  C
  H151     1.0000 0.32031  0.57276  0.50850  Biso   1.000  H
  H152     1.0000 0.37791  0.55360  0.43280  Biso   1.000  H
  C177     1.0000 0.56507  0.83468  0.47578  Biso   1.000  C
  C178     1.0000 0.28641  0.49468  0.46550  Biso   1.000  C
  C179     1.0000 0.60509  0.85738  0.49706  Biso   1.000  C
  C180     1.0000 0.57297  0.86927  0.45209  Biso   1.000  C
  C181     1.0000 0.25429  0.46309  0.49042  Biso   1.000  C
  H153     1.0000 0.24782  0.51358  0.45440  Biso   1.000  H
  H154     1.0000 0.30931  0.45641  0.45541  Biso   1.000  H
  C182     1.0000 0.65200  0.91239  0.49391  Biso   1.000  C
  H155     1.0000 0.60019  0.83516  0.51379  Biso   1.000  H
  H156     1.0000 0.54591  0.85490  0.43731  Biso   1.000  H
  C183     1.0000 0.61846  0.92355  0.44946  Biso   1.000  C
  C184     1.0000 0.28741  0.40587  0.50286  Biso   1.000  C
  C185     1.0000 0.19380  0.49237  0.50121  Biso   1.000  C
  C186     1.0000 0.65947  0.94667  0.46973  Biso   1.000  C
  H157     1.0000 0.67969  0.92719  0.50850  Biso   1.000  H
  H158     1.0000 0.62209  0.94635  0.43280  Biso   1.000  H
  C187     1.0000 0.35711  0.37770  0.49188  Biso   1.000  C
  C188     1.0000 0.25598  0.37507  0.52553  Biso   1.000  C
  C189     1.0000 0.16342  0.46188  0.52383  Biso   1.000  C
  C190     1.0000 0.15979  0.55586  0.48856  Biso   1.000  C
  C191     1.0000 0.71359  0.00532  0.46550  Biso   1.000  C
  C192     1.0000 0.34527  0.31757  0.47127  Biso   1.000  C
  H159     1.0000 0.38607  0.35948  0.50660  Biso   1.000  H
  H160     1.0000 0.38328  0.41671  0.48340  Biso   1.000  H
  C193     1.0000 0.19538  0.40481  0.53655  Biso   1.000  C
  C194     1.0000 0.28999  0.31257  0.53871  Biso   1.000  C
  C195     1.0000 0.09598  0.49268  0.53539  Biso   1.000  C
  H161     1.0000 0.19690  0.58508  0.48030  Biso   1.000  H
  H162     1.0000 0.13710  0.58461  0.50251  Biso   1.000  H
  C196     1.0000 0.10419  0.53738  0.46744  Biso   1.000  C
  H163     1.0000 0.75218  0.98636  0.45440  Biso   1.000  H
  C197     1.0000 0.74566  0.03691  0.49042  Biso   1.000  C
  H164     1.0000 0.69069  0.04359  0.45541  Biso   1.000  H
  H165     1.0000 0.39081  0.30299  0.46390  Biso   1.000  H
  H166     1.0000 0.31499  0.33479  0.45701  Biso   1.000  H
  H167     1.0000 0.32279  0.27730  0.47991  Biso   1.000  H
  C198     1.0000 0.16542  0.37607  0.56186  Biso   1.000  C
  H168     1.0000 0.31710  0.28620  0.52519  Biso   1.000  H
  H169     1.0000 0.25240  0.28109  0.54531  Biso   1.000  H
  C199     1.0000 0.33879  0.32989  0.56145  Biso   1.000  C
  C200     1.0000 0.10582  0.55449  0.55463  Biso   1.000  C
  H170     1.0000 0.06570  0.50858  0.52061  Biso   1.000  H
  H171     1.0000 0.07050  0.45456  0.54469  Biso   1.000  H
  C201     1.0000 0.10509  0.55181  0.55619  Biso   1.000  C
  H172     1.0000 0.08308  0.58076  0.46060  Biso   1.000  H
  H173     1.0000 0.06749  0.50800  0.47540  Biso   1.000  H
  H174     1.0000 0.12678  0.51169  0.45290  Biso   1.000  H
  C202     1.0000 0.71259  0.09408  0.50286  Biso   1.000  C
  C203     1.0000 0.80620  0.00758  0.50121  Biso   1.000  C
  H175     1.0000 0.14268  0.41497  0.57170  Biso   1.000  H
  H176     1.0000 0.20438  0.35780  0.57291  Biso   1.000  H
  C204     1.0000 0.11072  0.31647  0.55760  Biso   1.000  C
  C205     1.0000 0.35838  0.27719  0.57840  Biso   1.000  C
  C206     1.0000 0.36691  0.39570  0.56577  Biso   1.000  C
  C207     1.0000 0.04570  0.57750  0.56769  Biso   1.000  C
  C208     1.0000 0.17037  0.58629  0.55971  Biso   1.000  C
  C209     1.0000 0.04670  0.59308  0.56200  Biso   1.000  C
  C210     1.0000 0.16937  0.56586  0.56821  Biso   1.000  C
  C211     1.0000 0.74397  0.12488  0.52553  Biso   1.000  C
  C212     1.0000 0.64289  0.12230  0.49188  Biso   1.000  C
  C213     1.0000 0.84016  0.94409  0.48856  Biso   1.000  C
  C214     1.0000 0.83658  0.03812  0.52383  Biso   1.000  C
  H177     1.0000 0.09582  0.29778  0.57480  Biso   1.000  H
  H178     1.0000 0.13199  0.27867  0.54710  Biso   1.000  H
  H179     1.0000 0.06971  0.33537  0.54819  Biso   1.000  H
  H180     1.0000 0.33927  0.23139  0.57601  Biso   1.000  H
  C215     1.0000 0.40450  0.28851  0.59871  Biso   1.000  C
  C216     1.0000 0.41381  0.40860  0.58607  Biso   1.000  C
  H181     1.0000 0.35359  0.43340  0.55449  Biso   1.000  H
  C217     1.0000 0.05017  0.63230  0.58581  Biso   1.000  C
  H182     1.0000 0.00158  0.55581  0.56429  Biso   1.000  H
  C218     1.0000 0.05270  0.64857  0.57980  Biso   1.000  C
  H183     1.0000 0.00269  0.58350  0.55380  Biso   1.000  H
  H184     1.0000 0.21138  0.57050  0.55070  Biso   1.000  H
  C219     1.0000 0.17479  0.64110  0.57781  Biso   1.000  C
  H185     1.0000 0.20928  0.53759  0.56419  Biso   1.000  H
  C220     1.0000 0.17537  0.62141  0.58591  Biso   1.000  C
  C221     1.0000 0.80457  0.09519  0.53655  Biso   1.000  C
  C222     1.0000 0.70996  0.18737  0.53871  Biso   1.000  C
  H186     1.0000 0.61388  0.14052  0.50660  Biso   1.000  H
  H187     1.0000 0.61667  0.08329  0.48340  Biso   1.000  H
  C223     1.0000 0.65468  0.18237  0.47127  Biso   1.000  C
  H188     1.0000 0.80310  0.91487  0.48030  Biso   1.000  H
  H189     1.0000 0.86285  0.91539  0.50251  Biso   1.000  H
  C224     1.0000 0.89576  0.96257  0.46744  Biso   1.000  C
  C225     1.0000 0.90397  0.00732  0.53539  Biso   1.000  C
  H190     1.0000 0.41650  0.25082  0.61019  Biso   1.000  H
  C226     1.0000 0.43308  0.35327  0.60256  Biso   1.000  C
  H191     1.0000 0.43251  0.45441  0.58869  Biso   1.000  H
  C227     1.0000 0.11477  0.66410  0.59089  Biso   1.000  C
  H192     1.0000 0.00921  0.64810  0.59480  Biso   1.000  H
  C228     1.0000 0.11709  0.66268  0.59174  Biso   1.000  C
  H193     1.0000 0.01279  0.67690  0.58379  Biso   1.000  H
  H194     1.0000 0.21902  0.66279  0.58121  Biso   1.000  H
  H195     1.0000 0.21939  0.63099  0.59411  Biso   1.000  H
  C229     1.0000 0.83458  0.12388  0.56186  Biso   1.000  C
  H196     1.0000 0.68290  0.21380  0.52519  Biso   1.000  H
  H197     1.0000 0.74760  0.21891  0.54531  Biso   1.000  H
  C230     1.0000 0.66121  0.17011  0.56145  Biso   1.000  C
  H198     1.0000 0.60919  0.19701  0.46390  Biso   1.000  H
  H199     1.0000 0.68501  0.16521  0.45701  Biso   1.000  H
  H200     1.0000 0.67716  0.22270  0.47991  Biso   1.000  H
  H201     1.0000 0.91687  0.91919  0.46060  Biso   1.000  H
  H202     1.0000 0.93245  0.99200  0.47540  Biso   1.000  H
  H203     1.0000 0.87317  0.98826  0.45290  Biso   1.000  H
  C231     1.0000 0.89418  0.94546  0.55463  Biso   1.000  C
  H204     1.0000 0.93430  0.99137  0.52061  Biso   1.000  H
  C232     1.0000 0.89486  0.94819  0.55619  Biso   1.000  C
  H205     1.0000 0.92945  0.04538  0.54469  Biso   1.000  H
  C233     1.0000 0.48621  0.36317  0.62305  Biso   1.000  C
  C234     1.0000 0.11888  0.71881  0.61080  Biso   1.000  C
  H206     1.0000 0.85727  0.08497  0.57170  Biso   1.000  H
  H207     1.0000 0.79557  0.14220  0.57291  Biso   1.000  H
  C235     1.0000 0.88928  0.18348  0.55760  Biso   1.000  C
  C236     1.0000 0.64157  0.22281  0.57840  Biso   1.000  C
  C237     1.0000 0.63309  0.10430  0.56577  Biso   1.000  C
  C238     1.0000 0.95425  0.92250  0.56769  Biso   1.000  C
  C239     1.0000 0.82958  0.91366  0.55971  Biso   1.000  C
  C240     1.0000 0.95330  0.90687  0.56200  Biso   1.000  C
  C241     1.0000 0.83058  0.93408  0.56821  Biso   1.000  C
  C242     1.0000 0.53117  0.36891  0.63920  Biso   1.000  C
  C243     1.0000 0.11319  0.76377  0.62695  Biso   1.000  C
  H208     1.0000 0.90418  0.20217  0.57480  Biso   1.000  H
  H209     1.0000 0.86796  0.22128  0.54710  Biso   1.000  H
  H210     1.0000 0.93029  0.16458  0.54819  Biso   1.000  H
  H211     1.0000 0.66068  0.26861  0.57601  Biso   1.000  H
  C244     1.0000 0.59550  0.21149  0.59871  Biso   1.000  C
  C245     1.0000 0.58619  0.09140  0.58607  Biso   1.000  C
  H212     1.0000 0.64636  0.06660  0.55449  Biso   1.000  H
  C246     1.0000 0.94977  0.86770  0.58581  Biso   1.000  C
  H213     1.0000 0.99837  0.94419  0.56429  Biso   1.000  H
  C247     1.0000 0.94730  0.85137  0.57980  Biso   1.000  C
  H214     1.0000 0.99726  0.91650  0.55380  Biso   1.000  H
  H215     1.0000 0.78856  0.92945  0.55070  Biso   1.000  H
  C248     1.0000 0.82516  0.85890  0.57781  Biso   1.000  C
  H216     1.0000 0.79067  0.96236  0.56419  Biso   1.000  H
  C249     1.0000 0.82458  0.87859  0.58591  Biso   1.000  C
  C250     1.0000 0.58587  0.36480  0.65911  Biso   1.000  C
  C251     1.0000 0.58729  0.36712  0.65826  Biso   1.000  C
  C252     1.0000 0.10330  0.81689  0.64744  Biso   1.000  C
  H217     1.0000 0.58350  0.24918  0.61019  Biso   1.000  H
  C253     1.0000 0.56686  0.14668  0.60256  Biso   1.000  C
  H218     1.0000 0.56749  0.04559  0.58869  Biso   1.000  H
  C254     1.0000 0.88517  0.83590  0.59089  Biso   1.000  C
  H219     1.0000 0.99079  0.85190  0.59480  Biso   1.000  H
  C255     1.0000 0.88286  0.83726  0.59174  Biso   1.000  C
  H220     1.0000 0.98715  0.82310  0.58379  Biso   1.000  H
  H221     1.0000 0.78098  0.83716  0.58121  Biso   1.000  H
  H222     1.0000 0.78056  0.86896  0.59411  Biso   1.000  H
  C256     1.0000 0.61767  0.30020  0.66419  Biso   1.000  C
  C257     1.0000 0.60888  0.42477  0.67219  Biso   1.000  C
  C258     1.0000 0.60140  0.30267  0.67020  Biso   1.000  C
  C259     1.0000 0.62857  0.42540  0.66409  Biso   1.000  C
  C260     1.0000 0.03849  0.84548  0.65129  Biso   1.000  C
  C261     1.0000 0.15858  0.83616  0.66393  Biso   1.000  C
  C262     1.0000 0.51379  0.13678  0.62305  Biso   1.000  C
  C263     1.0000 0.88107  0.78119  0.61080  Biso   1.000  C
  H223     1.0000 0.60187  0.25919  0.65520  Biso   1.000  H
  C264     1.0000 0.67248  0.29567  0.68231  Biso   1.000  C
  H224     1.0000 0.57308  0.26277  0.66621  Biso   1.000  H
  C265     1.0000 0.65689  0.29667  0.68800  Biso   1.000  C
  C266     1.0000 0.66368  0.42040  0.69029  Biso   1.000  C
  H225     1.0000 0.58719  0.46899  0.66879  Biso   1.000  H
  C267     1.0000 0.68406  0.41940  0.68179  Biso   1.000  C
  H226     1.0000 0.61898  0.46941  0.65589  Biso   1.000  H
  C268     1.0000 0.02722  0.89160  0.67160  Biso   1.000  C
  H227     1.0000 0.00079  0.83347  0.63981  Biso   1.000  H
  H228     1.0000 0.20438  0.81747  0.66131  Biso   1.000  H
  C269     1.0000 0.14568  0.88307  0.68423  Biso   1.000  C
  C270     1.0000 0.46878  0.13109  0.63920  Biso   1.000  C
  C271     1.0000 0.88675  0.73618  0.62695  Biso   1.000  C
  H229     1.0000 0.69417  0.25161  0.68571  Biso   1.000  H
  C272     1.0000 0.69548  0.35580  0.69537  Biso   1.000  C
  H230     1.0000 0.66647  0.25271  0.69620  Biso   1.000  H
  C273     1.0000 0.69817  0.35511  0.69381  Biso   1.000  C
  H231     1.0000 0.67948  0.46141  0.69930  Biso   1.000  H
  H232     1.0000 0.71238  0.45930  0.68581  Biso   1.000  H
  C274     1.0000 0.07992  0.91118  0.68855  Biso   1.000  C
  H233     1.0000 0.98136  0.91066  0.67399  Biso   1.000  H
  H234     1.0000 0.18337  0.89639  0.69551  Biso   1.000  H
  C275     1.0000 0.41408  0.13520  0.65911  Biso   1.000  C
  C276     1.0000 0.41271  0.13288  0.65826  Biso   1.000  C
  C277     1.0000 0.89665  0.68306  0.64744  Biso   1.000  C
  C278     1.0000 0.75729  0.34600  0.71461  Biso   1.000  C
  C279     1.0000 0.06260  0.95999  0.71129  Biso   1.000  C
  C280     1.0000 0.38228  0.19980  0.66419  Biso   1.000  C
  C281     1.0000 0.39860  0.19727  0.67020  Biso   1.000  C
  C282     1.0000 0.39107  0.07518  0.67219  Biso   1.000  C
  C283     1.0000 0.37138  0.07460  0.66409  Biso   1.000  C
  C284     1.0000 0.96146  0.65447  0.65129  Biso   1.000  C
  C285     1.0000 0.84137  0.66379  0.66393  Biso   1.000  C
  C286     1.0000 0.78809  0.41339  0.72617  Biso   1.000  C
  H235     1.0000 0.74139  0.31568  0.72939  Biso   1.000  H
  H236     1.0000 0.79536  0.32047  0.70531  Biso   1.000  H
  C287     1.0000 0.12509  0.99400  0.72447  Biso   1.000  C
  H237     1.0000 0.03622  0.93287  0.72481  Biso   1.000  H
  H238     1.0000 0.03112  0.99758  0.70469  Biso   1.000  H
  C288     1.0000 0.32747  0.20428  0.68231  Biso   1.000  C
  C289     1.0000 0.34311  0.20327  0.68800  Biso   1.000  C
  H239     1.0000 0.39807  0.24081  0.65520  Biso   1.000  H
  H240     1.0000 0.42687  0.23718  0.66621  Biso   1.000  H
  C290     1.0000 0.33632  0.07960  0.69029  Biso   1.000  C
  C291     1.0000 0.31589  0.08060  0.68179  Biso   1.000  C
  H241     1.0000 0.41281  0.03101  0.66879  Biso   1.000  H
  H242     1.0000 0.38102  0.03059  0.65589  Biso   1.000  H
  C292     1.0000 0.97278  0.60840  0.67160  Biso   1.000  C
  H243     1.0000 0.99916  0.66647  0.63981  Biso   1.000  H
  C293     1.0000 0.85427  0.61688  0.68423  Biso   1.000  C
  H244     1.0000 0.79557  0.68248  0.66131  Biso   1.000  H
  C294     1.0000 0.75756  0.44377  0.74879  Biso   1.000  C
  C295     1.0000 0.84516  0.44540  0.71345  Biso   1.000  C
  C296     1.0000 0.15589  0.96257  0.74714  Biso   1.000  C
  C297     1.0000 0.15479  0.05460  0.71345  Biso   1.000  C
  C298     1.0000 0.30452  0.14420  0.69537  Biso   1.000  C
  C299     1.0000 0.30178  0.14489  0.69381  Biso   1.000  C
  H245     1.0000 0.30578  0.24839  0.68571  Biso   1.000  H
  H246     1.0000 0.33347  0.24729  0.69620  Biso   1.000  H
  H247     1.0000 0.32047  0.03859  0.69930  Biso   1.000  H
  H248     1.0000 0.28762  0.04070  0.68581  Biso   1.000  H
  C300     1.0000 0.92008  0.58876  0.68855  Biso   1.000  C
  H249     1.0000 0.01858  0.58929  0.67399  Biso   1.000  H
  H250     1.0000 0.81657  0.60356  0.69551  Biso   1.000  H
  C301     1.0000 0.78688  0.50426  0.75958  Biso   1.000  C
  C302     1.0000 0.69406  0.40981  0.76144  Biso   1.000  C
  C303     1.0000 0.87486  0.50600  0.72447  Biso   1.000  C
  C304     1.0000 0.87385  0.41539  0.68814  Biso   1.000  C
  C305     1.0000 0.21312  0.99568  0.75958  Biso   1.000  C
  C306     1.0000 0.12767  0.89286  0.75812  Biso   1.000  C
  C307     1.0000 0.21191  0.08661  0.72617  Biso   1.000  C
  C308     1.0000 0.12609  0.08461  0.68814  Biso   1.000  C
  C309     1.0000 0.24271  0.15400  0.71461  Biso   1.000  C
  C310     1.0000 0.93740  0.53996  0.71129  Biso   1.000  C
  C311     1.0000 0.84406  0.53738  0.74714  Biso   1.000  C
  C312     1.0000 0.75529  0.53638  0.78450  Biso   1.000  C
  H251     1.0000 0.66489  0.44688  0.76970  Biso   1.000  H
  H252     1.0000 0.66537  0.38707  0.74749  Biso   1.000  H
  C313     1.0000 0.71259  0.35416  0.78256  Biso   1.000  C
  H253     1.0000 0.83500  0.39270  0.67830  Biso   1.000  H
  H254     1.0000 0.89218  0.45441  0.67709  Biso   1.000  H
  C314     1.0000 0.93345  0.36069  0.69240  Biso   1.000  C
  C315     1.0000 0.24471  0.96357  0.78450  Biso   1.000  C
  C316     1.0000 0.24239  0.05618  0.74879  Biso   1.000  C
  H255     1.0000 0.10951  0.86385  0.74340  Biso   1.000  H
  H256     1.0000 0.16668  0.86669  0.76660  Biso   1.000  H
  C317     1.0000 0.06760  0.90465  0.77873  Biso   1.000  C
  H257     1.0000 0.16500  0.10730  0.67830  Biso   1.000  H
  H258     1.0000 0.10777  0.04559  0.67709  Biso   1.000  H
  C318     1.0000 0.06649  0.13931  0.69240  Biso   1.000  C
  H259     1.0000 0.25861  0.18432  0.72939  Biso   1.000  H
  H260     1.0000 0.20459  0.17948  0.70531  Biso   1.000  H
  H261     1.0000 0.96378  0.56707  0.72481  Biso   1.000  H
  H262     1.0000 0.96888  0.50237  0.70469  Biso   1.000  H
  C319     1.0000 0.87228  0.60709  0.75812  Biso   1.000  C
  H263     1.0000 0.73639  0.49779  0.79560  Biso   1.000  H
  H264     1.0000 0.79357  0.55928  0.79459  Biso   1.000  H
  C320     1.0000 0.69669  0.59050  0.78027  Biso   1.000  C
  H265     1.0000 0.66916  0.33311  0.78940  Biso   1.000  H
  H266     1.0000 0.74197  0.31747  0.77460  Biso   1.000  H
  H267     1.0000 0.73829  0.37680  0.79710  Biso   1.000  H
  H268     1.0000 0.95220  0.34579  0.67520  Biso   1.000  H
  H269     1.0000 0.97125  0.38202  0.70290  Biso   1.000  H
  H270     1.0000 0.91455  0.31968  0.70181  Biso   1.000  H
  H271     1.0000 0.20638  0.94067  0.79459  Biso   1.000  H
  C321     1.0000 0.30331  0.90950  0.78027  Biso   1.000  C
  H272     1.0000 0.26361  0.00221  0.79560  Biso   1.000  H
  C322     1.0000 0.30589  0.09019  0.76144  Biso   1.000  C
  H273     1.0000 0.05302  0.85917  0.78610  Biso   1.000  H
  H274     1.0000 0.08482  0.93498  0.79299  Biso   1.000  H
  H275     1.0000 0.02732  0.92719  0.77009  Biso   1.000  H
  H276     1.0000 0.04780  0.15421  0.67520  Biso   1.000  H
  H277     1.0000 0.02869  0.11798  0.70290  Biso   1.000  H
  H278     1.0000 0.08540  0.18032  0.70181  Biso   1.000  H
  H279     1.0000 0.89049  0.63610  0.74340  Biso   1.000  H
  H280     1.0000 0.83326  0.63331  0.76660  Biso   1.000  H
  C323     1.0000 0.93240  0.59529  0.77873  Biso   1.000  C
  C324     1.0000 0.66237  0.59798  0.75609  Biso   1.000  C
  C325     1.0000 0.67358  0.63146  0.80054  Biso   1.000  C
  C326     1.0000 0.33758  0.90197  0.75609  Biso   1.000  C
  C327     1.0000 0.32637  0.86848  0.80054  Biso   1.000  C
  H281     1.0000 0.33511  0.05312  0.76970  Biso   1.000  H
  H282     1.0000 0.33458  0.11288  0.74749  Biso   1.000  H
  C328     1.0000 0.28741  0.14578  0.78256  Biso   1.000  C
  H283     1.0000 0.94698  0.64078  0.78610  Biso   1.000  H
  H284     1.0000 0.91518  0.56497  0.79299  Biso   1.000  H
  H285     1.0000 0.97268  0.57276  0.77009  Biso   1.000  H
  H286     1.0000 0.67716  0.57029  0.74150  Biso   1.000  H
  C329     1.0000 0.60740  0.64489  0.75294  Biso   1.000  C
  C330     1.0000 0.61930  0.67700  0.79791  Biso   1.000  C
  H287     1.0000 0.69638  0.62788  0.81720  Biso   1.000  H
  H288     1.0000 0.32279  0.92966  0.74150  Biso   1.000  H
  C331     1.0000 0.39260  0.85506  0.75294  Biso   1.000  C
  C332     1.0000 0.38070  0.82300  0.79791  Biso   1.000  C
  H289     1.0000 0.30357  0.87206  0.81720  Biso   1.000  H
  H290     1.0000 0.33079  0.16689  0.78940  Biso   1.000  H
  H291     1.0000 0.25798  0.18248  0.77460  Biso   1.000  H
  H292     1.0000 0.26171  0.12320  0.79710  Biso   1.000  H
  H293     1.0000 0.58518  0.64978  0.73621  Biso   1.000  H
  C333     1.0000 0.58466  0.68490  0.77422  Biso   1.000  C
  H294     1.0000 0.60488  0.70406  0.81269  Biso   1.000  H
  H295     1.0000 0.41482  0.85016  0.73621  Biso   1.000  H
  C334     1.0000 0.41529  0.81510  0.77422  Biso   1.000  C
  H296     1.0000 0.39507  0.79588  0.81269  Biso   1.000  H
  C335     1.0000 0.52538  0.73139  0.77215  Biso   1.000  C
  C336     1.0000 0.47457  0.76856  0.77215  Biso   1.000  C
  C337     1.0000 0.82637  0.36848  0.30054  Biso   1.000  C
  C338     1.0000 0.80325  0.40950  0.28027  Biso   1.000  C
  C339     1.0000 0.88070  0.32300  0.29791  Biso   1.000  C
  H297     1.0000 0.80357  0.37206  0.31720  Biso   1.000  H
  C340     1.0000 0.74466  0.46357  0.28450  Biso   1.000  C
  C341     1.0000 0.83758  0.40197  0.25609  Biso   1.000  C
  C342     1.0000 0.91529  0.31510  0.27422  Biso   1.000  C
  H298     1.0000 0.89507  0.29588  0.31269  Biso   1.000  H
  C343     1.0000 0.71307  0.49568  0.25958  Biso   1.000  C
  H299     1.0000 0.76356  0.50221  0.29560  Biso   1.000  H
  H300     1.0000 0.70638  0.44067  0.29459  Biso   1.000  H
  H301     1.0000 0.82279  0.42971  0.24150  Biso   1.000  H
  C344     1.0000 0.89260  0.35511  0.25294  Biso   1.000  C
  C345     1.0000 0.97457  0.26861  0.27215  Biso   1.000  C
  C346     1.0000 0.65589  0.46257  0.24714  Biso   1.000  C
  C347     1.0000 0.74239  0.55618  0.24879  Biso   1.000  C
  H302     1.0000 0.91476  0.35022  0.23621  Biso   1.000  H
  C348     1.0000 0.02538  0.23139  0.27215  Biso   1.000  C
  C349     1.0000 0.62767  0.39291  0.25812  Biso   1.000  C
  C350     1.0000 0.62509  0.49400  0.22447  Biso   1.000  C
  C351     1.0000 0.71186  0.58661  0.22617  Biso   1.000  C
  C352     1.0000 0.80589  0.59019  0.26144  Biso   1.000  C
  C353     1.0000 0.08471  0.18490  0.27422  Biso   1.000  C
  C354     1.0000 0.56760  0.40471  0.27873  Biso   1.000  C
  H303     1.0000 0.60951  0.36390  0.24340  Biso   1.000  H
  H304     1.0000 0.66668  0.36669  0.26660  Biso   1.000  H
  C355     1.0000 0.65479  0.55460  0.21345  Biso   1.000  C
  C356     1.0000 0.56260  0.45999  0.21129  Biso   1.000  C
  C357     1.0000 0.74266  0.65400  0.21461  Biso   1.000  C
  H305     1.0000 0.83505  0.55307  0.26970  Biso   1.000  H
  H306     1.0000 0.83458  0.61288  0.24749  Biso   1.000  H
  C358     1.0000 0.78735  0.64578  0.28256  Biso   1.000  C
  C359     1.0000 0.10740  0.14489  0.25294  Biso   1.000  C
  C360     1.0000 0.11930  0.17700  0.29791  Biso   1.000  C
  H307     1.0000 0.55296  0.35917  0.28610  Biso   1.000  H
  H308     1.0000 0.58476  0.43498  0.29299  Biso   1.000  H
  H309     1.0000 0.52727  0.42719  0.27009  Biso   1.000  H
  C361     1.0000 0.62609  0.58461  0.18814  Biso   1.000  C
  H310     1.0000 0.53617  0.43287  0.22481  Biso   1.000  H
  H311     1.0000 0.53106  0.49758  0.20469  Biso   1.000  H
  C362     1.0000 0.57987  0.41118  0.18855  Biso   1.000  C
  C363     1.0000 0.80446  0.64420  0.19537  Biso   1.000  C
  H312     1.0000 0.75856  0.68427  0.22939  Biso   1.000  H
  H313     1.0000 0.70459  0.67948  0.20531  Biso   1.000  H
  C364     1.0000 0.80178  0.64489  0.19381  Biso   1.000  C
  H314     1.0000 0.83079  0.66689  0.28940  Biso   1.000  H
  H315     1.0000 0.75798  0.68248  0.27460  Biso   1.000  H
  H316     1.0000 0.76166  0.62320  0.29710  Biso   1.000  H
  C365     1.0000 0.16242  0.09798  0.25609  Biso   1.000  C
  H317     1.0000 0.08518  0.14978  0.23621  Biso   1.000  H
  H318     1.0000 0.10488  0.20412  0.31269  Biso   1.000  H
  C366     1.0000 0.17358  0.13152  0.30054  Biso   1.000  C
  H319     1.0000 0.66500  0.60730  0.17830  Biso   1.000  H
  H320     1.0000 0.60777  0.54559  0.17709  Biso   1.000  H
  C367     1.0000 0.56649  0.63931  0.19240  Biso   1.000  C
  C368     1.0000 0.52717  0.39160  0.17160  Biso   1.000  C
  C369     1.0000 0.64568  0.38307  0.18423  Biso   1.000  C
  C370     1.0000 0.82747  0.70428  0.18231  Biso   1.000  C
  C371     1.0000 0.83626  0.57960  0.19029  Biso   1.000  C
  C372     1.0000 0.84306  0.70327  0.18800  Biso   1.000  C
  C373     1.0000 0.81589  0.58060  0.18179  Biso   1.000  C
  C374     1.0000 0.19669  0.09050  0.28027  Biso   1.000  C
  H321     1.0000 0.17721  0.07029  0.24150  Biso   1.000  H
  H322     1.0000 0.19638  0.12788  0.31720  Biso   1.000  H
  H323     1.0000 0.54780  0.65421  0.17520  Biso   1.000  H
  H324     1.0000 0.52869  0.61798  0.20290  Biso   1.000  H
  H325     1.0000 0.58540  0.68027  0.20181  Biso   1.000  H
  H326     1.0000 0.48136  0.41071  0.17399  Biso   1.000  H
  C375     1.0000 0.53849  0.34548  0.15129  Biso   1.000  C
  C376     1.0000 0.65858  0.33621  0.16393  Biso   1.000  C
  H327     1.0000 0.68337  0.39639  0.19551  Biso   1.000  H
  C377     1.0000 0.88228  0.69980  0.16419  Biso   1.000  C
  H328     1.0000 0.80578  0.74839  0.18571  Biso   1.000  H
  C378     1.0000 0.89860  0.69727  0.17020  Biso   1.000  C
  H329     1.0000 0.83347  0.74729  0.19620  Biso   1.000  H
  H330     1.0000 0.82047  0.53859  0.19930  Biso   1.000  H
  C379     1.0000 0.89107  0.57518  0.17219  Biso   1.000  C
  H331     1.0000 0.78756  0.54070  0.18581  Biso   1.000  H
  C380     1.0000 0.87138  0.57460  0.16409  Biso   1.000  C
  C381     1.0000 0.25529  0.03638  0.28450  Biso   1.000  C
  H332     1.0000 0.50079  0.33347  0.13981  Biso   1.000  H
  C382     1.0000 0.60330  0.31689  0.14744  Biso   1.000  C
  H333     1.0000 0.70438  0.31747  0.16131  Biso   1.000  H
  C383     1.0000 0.91408  0.63520  0.15911  Biso   1.000  C
  H334     1.0000 0.89807  0.74076  0.15520  Biso   1.000  H
  C384     1.0000 0.91266  0.63288  0.15826  Biso   1.000  C
  H335     1.0000 0.92687  0.73718  0.16621  Biso   1.000  H
  H336     1.0000 0.91276  0.53101  0.16879  Biso   1.000  H
  H337     1.0000 0.88096  0.53059  0.15589  Biso   1.000  H
  H338     1.0000 0.23639  0.99779  0.29560  Biso   1.000  H
  C385     1.0000 0.28688  0.00432  0.25958  Biso   1.000  C
  H339     1.0000 0.29357  0.05928  0.29459  Biso   1.000  H
  C386     1.0000 0.61319  0.26377  0.12695  Biso   1.000  C
  C387     1.0000 0.96878  0.63109  0.13920  Biso   1.000  C
  C388     1.0000 0.25761  0.94377  0.24879  Biso   1.000  C
  C389     1.0000 0.34411  0.03738  0.24714  Biso   1.000  C
  C390     1.0000 0.61888  0.21881  0.11080  Biso   1.000  C
  C391     1.0000 0.01379  0.63678  0.12305  Biso   1.000  C
  C392     1.0000 0.28809  0.91339  0.22617  Biso   1.000  C
  C393     1.0000 0.19411  0.90976  0.26144  Biso   1.000  C
  C394     1.0000 0.37491  0.00600  0.22447  Biso   1.000  C
  C395     1.0000 0.37228  0.10709  0.25812  Biso   1.000  C
  C396     1.0000 0.61477  0.16410  0.09089  Biso   1.000  C
  C397     1.0000 0.61709  0.16268  0.09174  Biso   1.000  C
  C398     1.0000 0.06692  0.64668  0.10256  Biso   1.000  C
  C399     1.0000 0.34521  0.94535  0.21345  Biso   1.000  C
  C400     1.0000 0.25729  0.84600  0.21461  Biso   1.000  C
  H340     1.0000 0.16489  0.94688  0.26970  Biso   1.000  H
  H341     1.0000 0.16542  0.88707  0.24749  Biso   1.000  H
  C401     1.0000 0.21259  0.85416  0.28256  Biso   1.000  C
  C402     1.0000 0.43740  0.04001  0.21129  Biso   1.000  C
  H342     1.0000 0.39049  0.13610  0.24340  Biso   1.000  H
  H343     1.0000 0.33332  0.13331  0.26660  Biso   1.000  H
  C403     1.0000 0.43240  0.09529  0.27873  Biso   1.000  C
  C404     1.0000 0.55017  0.13230  0.08581  Biso   1.000  C
  C405     1.0000 0.67479  0.14110  0.07781  Biso   1.000  C
  C406     1.0000 0.55270  0.14857  0.07980  Biso   1.000  C
  C407     1.0000 0.67537  0.12141  0.08591  Biso   1.000  C
  C408     1.0000 0.09550  0.71149  0.09871  Biso   1.000  C
  C409     1.0000 0.08619  0.59140  0.08607  Biso   1.000  C
  C410     1.0000 0.37391  0.91539  0.18814  Biso   1.000  C
  C411     1.0000 0.19548  0.85580  0.19537  Biso   1.000  C
  H344     1.0000 0.24139  0.81568  0.22939  Biso   1.000  H
  H345     1.0000 0.29541  0.82047  0.20531  Biso   1.000  H
  C412     1.0000 0.19822  0.85506  0.19381  Biso   1.000  C
  H346     1.0000 0.16921  0.83305  0.28940  Biso   1.000  H
  H347     1.0000 0.24197  0.81747  0.27460  Biso   1.000  H
  H348     1.0000 0.23829  0.87680  0.29710  Biso   1.000  H
  H349     1.0000 0.46378  0.06707  0.22481  Biso   1.000  H
  H350     1.0000 0.46888  0.00242  0.20469  Biso   1.000  H
  C413     1.0000 0.42008  0.08882  0.18855  Biso   1.000  C
  H351     1.0000 0.44698  0.14078  0.28610  Biso   1.000  H
  H352     1.0000 0.41518  0.06502  0.29299  Biso   1.000  H
  H353     1.0000 0.47268  0.07281  0.27009  Biso   1.000  H
  H354     1.0000 0.50916  0.14810  0.09480  Biso   1.000  H
  C414     1.0000 0.54570  0.07750  0.06769  Biso   1.000  C
  H355     1.0000 0.51279  0.17690  0.08379  Biso   1.000  H
  C415     1.0000 0.54670  0.09308  0.06200  Biso   1.000  C
  C416     1.0000 0.67037  0.08629  0.05971  Biso   1.000  C
  H356     1.0000 0.71896  0.16279  0.08121  Biso   1.000  H
  C417     1.0000 0.66937  0.06592  0.06821  Biso   1.000  C
  H357     1.0000 0.71939  0.13099  0.09411  Biso   1.000  H
  C418     1.0000 0.14157  0.72281  0.07840  Biso   1.000  C
  H358     1.0000 0.08350  0.74918  0.11019  Biso   1.000  H
  H359     1.0000 0.06749  0.54559  0.08869  Biso   1.000  H
  C419     1.0000 0.13309  0.60430  0.06577  Biso   1.000  C
  H360     1.0000 0.33500  0.89265  0.17830  Biso   1.000  H
  H361     1.0000 0.39218  0.95435  0.17709  Biso   1.000  H
  C420     1.0000 0.43351  0.86069  0.19240  Biso   1.000  C
  C421     1.0000 0.17248  0.79567  0.18231  Biso   1.000  C
  C422     1.0000 0.16368  0.92040  0.19029  Biso   1.000  C
  C423     1.0000 0.15689  0.79667  0.18800  Biso   1.000  C
  C424     1.0000 0.18411  0.91940  0.18179  Biso   1.000  C
  C425     1.0000 0.47278  0.10840  0.17160  Biso   1.000  C
  C426     1.0000 0.35427  0.11688  0.18423  Biso   1.000  C
  H362     1.0000 0.50158  0.05581  0.06429  Biso   1.000  H
  C427     1.0000 0.60577  0.05449  0.05463  Biso   1.000  C
  H363     1.0000 0.50269  0.08350  0.05380  Biso   1.000  H
  C428     1.0000 0.60509  0.05181  0.05619  Biso   1.000  C
  H364     1.0000 0.71138  0.07050  0.05070  Biso   1.000  H
  H365     1.0000 0.70928  0.03759  0.06419  Biso   1.000  H
  C429     1.0000 0.16121  0.67011  0.06145  Biso   1.000  C
  H366     1.0000 0.16068  0.76856  0.07601  Biso   1.000  H
  H367     1.0000 0.14641  0.56660  0.05449  Biso   1.000  H
  H368     1.0000 0.45220  0.84579  0.17520  Biso   1.000  H
  H369     1.0000 0.47131  0.88196  0.20290  Biso   1.000  H
  H370     1.0000 0.41460  0.81968  0.20181  Biso   1.000  H
  C430     1.0000 0.11772  0.80020  0.16419  Biso   1.000  C
  H371     1.0000 0.19422  0.75161  0.18571  Biso   1.000  H
  C431     1.0000 0.10140  0.80267  0.17020  Biso   1.000  C
  H372     1.0000 0.16647  0.75266  0.19620  Biso   1.000  H
  H373     1.0000 0.17948  0.96136  0.19930  Biso   1.000  H
  C432     1.0000 0.10888  0.92477  0.17219  Biso   1.000  C
  H374     1.0000 0.21238  0.95925  0.18581  Biso   1.000  H
  C433     1.0000 0.12862  0.92540  0.16409  Biso   1.000  C
  H375     1.0000 0.51858  0.08929  0.17399  Biso   1.000  H
  C434     1.0000 0.46151  0.15447  0.15129  Biso   1.000  C
  C435     1.0000 0.34137  0.16379  0.16393  Biso   1.000  C
  H376     1.0000 0.31657  0.10361  0.19551  Biso   1.000  H
  C436     1.0000 0.59598  0.99268  0.03539  Biso   1.000  C
  C437     1.0000 0.21001  0.68737  0.03871  Biso   1.000  C
  C438     1.0000 0.08592  0.86480  0.15911  Biso   1.000  C
  H377     1.0000 0.10187  0.75919  0.15520  Biso   1.000  H
  C439     1.0000 0.08729  0.86706  0.15826  Biso   1.000  C
  H378     1.0000 0.07308  0.76277  0.16621  Biso   1.000  H
  H379     1.0000 0.08719  0.96899  0.16879  Biso   1.000  H
  H380     1.0000 0.11898  0.96936  0.15589  Biso   1.000  H
  H381     1.0000 0.49921  0.16647  0.13981  Biso   1.000  H
  C440     1.0000 0.39670  0.18311  0.14744  Biso   1.000  C
  H382     1.0000 0.29557  0.18248  0.16131  Biso   1.000  H
  H383     1.0000 0.56570  0.00858  0.02061  Biso   1.000  H
  C441     1.0000 0.66337  0.96188  0.02383  Biso   1.000  C
  H384     1.0000 0.57050  0.95456  0.04469  Biso   1.000  H
  C442     1.0000 0.24397  0.62488  0.02553  Biso   1.000  C
  H385     1.0000 0.18290  0.71380  0.02519  Biso   1.000  H
  H386     1.0000 0.24760  0.71886  0.04531  Biso   1.000  H
  C443     1.0000 0.03122  0.86885  0.13920  Biso   1.000  C
  C444     1.0000 0.38681  0.23618  0.12695  Biso   1.000  C
  C445     1.0000 0.69380  0.99237  0.00121  Biso   1.000  C
  C446     1.0000 0.69538  0.90476  0.03655  Biso   1.000  C
  C447     1.0000 0.21259  0.59408  0.00286  Biso   1.000  C
  C448     1.0000 0.30457  0.59519  0.03655  Biso   1.000  C
  C449     1.0000 0.98615  0.86317  0.12305  Biso   1.000  C
  C450     1.0000 0.38107  0.28119  0.11080  Biso   1.000  C
  C451     1.0000 0.75429  0.96309  0.99042  Biso   1.000  C
  C452     1.0000 0.65979  0.05591  0.98856  Biso   1.000  C
  C453     1.0000 0.75598  0.87507  0.02553  Biso   1.000  C
  C454     1.0000 0.66537  0.87607  0.06186  Biso   1.000  C
  C455     1.0000 0.24571  0.53691  0.99042  Biso   1.000  C
  C456     1.0000 0.14289  0.62230  0.99188  Biso   1.000  C
  C457     1.0000 0.33658  0.53806  0.02383  Biso   1.000  C
  C458     1.0000 0.33458  0.62388  0.06186  Biso   1.000  C
  C459     1.0000 0.93308  0.85327  0.10256  Biso   1.000  C
  C460     1.0000 0.38517  0.33590  0.09089  Biso   1.000  C
  C461     1.0000 0.38291  0.33732  0.09174  Biso   1.000  C
  C462     1.0000 0.78635  0.99468  0.96550  Biso   1.000  C
  C463     1.0000 0.78735  0.90587  0.00286  Biso   1.000  C
  H387     1.0000 0.63710  0.08461  0.00251  Biso   1.000  H
  H388     1.0000 0.69690  0.08508  0.98030  Biso   1.000  H
  C464     1.0000 0.60419  0.03738  0.96744  Biso   1.000  C
  C465     1.0000 0.78999  0.81257  0.03871  Biso   1.000  C
  H389     1.0000 0.64268  0.91497  0.07170  Biso   1.000  H
  H390     1.0000 0.70438  0.85780  0.07291  Biso   1.000  H
  C466     1.0000 0.61067  0.81647  0.05760  Biso   1.000  C
  C467     1.0000 0.21359  0.50526  0.96550  Biso   1.000  C
  C468     1.0000 0.30620  0.50758  0.00121  Biso   1.000  C
  H391     1.0000 0.11672  0.58329  0.98340  Biso   1.000  H
  C469     1.0000 0.15468  0.68237  0.97127  Biso   1.000  C
  H392     1.0000 0.11388  0.64047  0.00660  Biso   1.000  H
  C470     1.0000 0.40397  0.50727  0.03539  Biso   1.000  C
  H393     1.0000 0.35727  0.58497  0.07170  Biso   1.000  H
  H394     1.0000 0.29557  0.64220  0.07291  Biso   1.000  H
  C471     1.0000 0.38928  0.68348  0.05760  Biso   1.000  C
  C472     1.0000 0.90450  0.78846  0.09871  Biso   1.000  C
  C473     1.0000 0.91376  0.90855  0.08607  Biso   1.000  C
  C474     1.0000 0.44977  0.36770  0.08581  Biso   1.000  C
  C475     1.0000 0.44730  0.35137  0.07980  Biso   1.000  C
  C476     1.0000 0.32521  0.35890  0.07781  Biso   1.000  C
  C477     1.0000 0.32458  0.37859  0.08591  Biso   1.000  C
  H395     1.0000 0.80926  0.95635  0.95541  Biso   1.000  H
  H396     1.0000 0.74776  0.01358  0.95440  Biso   1.000  H
  C478     1.0000 0.84048  0.05328  0.96973  Biso   1.000  C
  C479     1.0000 0.85706  0.87770  0.99188  Biso   1.000  C
  H397     1.0000 0.58308  0.08081  0.96060  Biso   1.000  H
  H398     1.0000 0.56749  0.00800  0.97540  Biso   1.000  H
  H399     1.0000 0.62678  0.01169  0.95290  Biso   1.000  H
  H400     1.0000 0.81710  0.78620  0.02519  Biso   1.000  H
  H401     1.0000 0.75240  0.78109  0.04531  Biso   1.000  H
  C480     1.0000 0.83879  0.82989  0.06145  Biso   1.000  C
  H402     1.0000 0.59577  0.79778  0.07480  Biso   1.000  H
  H403     1.0000 0.63199  0.77867  0.04710  Biso   1.000  H
  H404     1.0000 0.56971  0.83537  0.04819  Biso   1.000  H
  H405     1.0000 0.25218  0.48636  0.95440  Biso   1.000  H
  H406     1.0000 0.19069  0.54359  0.95541  Biso   1.000  H
  C481     1.0000 0.15947  0.44667  0.96973  Biso   1.000  C
  C482     1.0000 0.34021  0.44409  0.98856  Biso   1.000  C
  H407     1.0000 0.10919  0.69696  0.96390  Biso   1.000  H
  H408     1.0000 0.18501  0.66516  0.95701  Biso   1.000  H
  H409     1.0000 0.17721  0.72270  0.97991  Biso   1.000  H
  C483     1.0000 0.39418  0.44551  0.05463  Biso   1.000  C
  H410     1.0000 0.43430  0.49137  0.02061  Biso   1.000  H
  H411     1.0000 0.42950  0.54538  0.04469  Biso   1.000  H
  C484     1.0000 0.39491  0.44819  0.05619  Biso   1.000  C
  H412     1.0000 0.40418  0.70217  0.07480  Biso   1.000  H
  H413     1.0000 0.36801  0.72128  0.04710  Biso   1.000  H
  H414     1.0000 0.43029  0.66458  0.04819  Biso   1.000  H
  C485     1.0000 0.85838  0.77719  0.07840  Biso   1.000  C
  H415     1.0000 0.91650  0.75076  0.11019  Biso   1.000  H
  C486     1.0000 0.86685  0.89565  0.06577  Biso   1.000  C
  H416     1.0000 0.93245  0.95435  0.08869  Biso   1.000  H
  C487     1.0000 0.45430  0.42250  0.06769  Biso   1.000  C
  C488     1.0000 0.45330  0.40687  0.06200  Biso   1.000  C
  H417     1.0000 0.49079  0.35190  0.09480  Biso   1.000  H
  H418     1.0000 0.48721  0.32310  0.08379  Biso   1.000  H
  C489     1.0000 0.32958  0.41371  0.05971  Biso   1.000  C
  C490     1.0000 0.33058  0.43408  0.06821  Biso   1.000  C
  H419     1.0000 0.28098  0.33721  0.08121  Biso   1.000  H
  H420     1.0000 0.28061  0.36901  0.09411  Biso   1.000  H
  C491     1.0000 0.84795  0.08761  0.99391  Biso   1.000  C
  C492     1.0000 0.88149  0.07639  0.94946  Biso   1.000  C
  H421     1.0000 0.88328  0.91666  0.98340  Biso   1.000  H
  C493     1.0000 0.84527  0.81757  0.97127  Biso   1.000  C
  H422     1.0000 0.88607  0.85948  0.00660  Biso   1.000  H
  C494     1.0000 0.15200  0.41239  0.99391  Biso   1.000  C
  C495     1.0000 0.11851  0.42361  0.94946  Biso   1.000  C
  H423     1.0000 0.30310  0.41487  0.98030  Biso   1.000  H
  C496     1.0000 0.39581  0.46257  0.96744  Biso   1.000  C
  H424     1.0000 0.36290  0.41539  0.00251  Biso   1.000  H
  H425     1.0000 0.83927  0.73139  0.07601  Biso   1.000  H
  H426     1.0000 0.85359  0.93340  0.05449  Biso   1.000  H
  H427     1.0000 0.49837  0.44419  0.06429  Biso   1.000  H
  H428     1.0000 0.49726  0.41650  0.05380  Biso   1.000  H
  H429     1.0000 0.28862  0.42950  0.05070  Biso   1.000  H
  H430     1.0000 0.29067  0.46241  0.06419  Biso   1.000  H
  H431     1.0000 0.82026  0.07281  0.00850  Biso   1.000  H
  C497     1.0000 0.89486  0.14257  0.99706  Biso   1.000  C
  C498     1.0000 0.92698  0.13067  0.95209  Biso   1.000  C
  H432     1.0000 0.87786  0.05360  0.93280  Biso   1.000  H
  H433     1.0000 0.89075  0.80299  0.96390  Biso   1.000  H
  H434     1.0000 0.81499  0.83479  0.95701  Biso   1.000  H
  H435     1.0000 0.82279  0.77730  0.97991  Biso   1.000  H
  C499     1.0000 0.10509  0.35738  0.99706  Biso   1.000  C
  H436     1.0000 0.17969  0.42719  0.00850  Biso   1.000  H
  C500     1.0000 0.07302  0.36927  0.95209  Biso   1.000  C
  H437     1.0000 0.12209  0.44640  0.93280  Biso   1.000  H
  H438     1.0000 0.41687  0.41919  0.96060  Biso   1.000  H
  H439     1.0000 0.43251  0.49200  0.97540  Biso   1.000  H
  H440     1.0000 0.37317  0.48831  0.95290  Biso   1.000  H
  H441     1.0000 0.89976  0.16479  0.01379  Biso   1.000  H
  C501     1.0000 0.93487  0.16532  0.97578  Biso   1.000  C
  H442     1.0000 0.95409  0.14510  0.93731  Biso   1.000  H
  C502     1.0000 0.06507  0.33468  0.97578  Biso   1.000  C
  H443     1.0000 0.10019  0.33521  0.01379  Biso   1.000  H
  H444     1.0000 0.04591  0.35490  0.93731  Biso   1.000  H
  C503     1.0000 0.98136  0.22460  0.97785  Biso   1.000  C
  C504     1.0000 0.01858  0.27540  0.97785  Biso   1.000  C
  C505     1.0000 0.88070  0.82300  0.70209  Biso   1.000  C
  C506     1.0000 0.82637  0.86848  0.69946  Biso   1.000  C
  C507     1.0000 0.91529  0.81510  0.72578  Biso   1.000  C
  H445     1.0000 0.89507  0.79588  0.68731  Biso   1.000  H
  C508     1.0000 0.80325  0.90950  0.71973  Biso   1.000  C
  H446     1.0000 0.80357  0.87206  0.68280  Biso   1.000  H
  C509     1.0000 0.89260  0.85506  0.74706  Biso   1.000  C
  C510     1.0000 0.97457  0.76856  0.72785  Biso   1.000  C
  C511     1.0000 0.74466  0.96357  0.71550  Biso   1.000  C
  C512     1.0000 0.83758  0.90197  0.74391  Biso   1.000  C
  H447     1.0000 0.91476  0.85016  0.76379  Biso   1.000  H
  C513     1.0000 0.02538  0.73139  0.72785  Biso   1.000  C
  C514     1.0000 0.71307  0.99568  0.74042  Biso   1.000  C
  H448     1.0000 0.70638  0.94067  0.70541  Biso   1.000  H
  H449     1.0000 0.76356  0.00221  0.70440  Biso   1.000  H
  H450     1.0000 0.82279  0.92966  0.75850  Biso   1.000  H
  C515     1.0000 0.08471  0.68490  0.72578  Biso   1.000  C
  C516     1.0000 0.65589  0.96257  0.75286  Biso   1.000  C
  C517     1.0000 0.74239  0.05618  0.75121  Biso   1.000  C
  C518     1.0000 0.10740  0.64489  0.74706  Biso   1.000  C
  C519     1.0000 0.11930  0.67700  0.70209  Biso   1.000  C
  C520     1.0000 0.62767  0.89286  0.74188  Biso   1.000  C
  C521     1.0000 0.62509  0.99400  0.77553  Biso   1.000  C
  C522     1.0000 0.71186  0.08661  0.77383  Biso   1.000  C
  C523     1.0000 0.80589  0.09019  0.73856  Biso   1.000  C
  C524     1.0000 0.16242  0.59798  0.74391  Biso   1.000  C
  H451     1.0000 0.08518  0.64978  0.76379  Biso   1.000  H
  H452     1.0000 0.10488  0.70406  0.68731  Biso   1.000  H
  C525     1.0000 0.17358  0.63146  0.69946  Biso   1.000  C
  C526     1.0000 0.56760  0.90465  0.72127  Biso   1.000  C
  H453     1.0000 0.60951  0.86385  0.75660  Biso   1.000  H
  H454     1.0000 0.66668  0.86669  0.73340  Biso   1.000  H
  C527     1.0000 0.56260  0.95999  0.78871  Biso   1.000  C
  C528     1.0000 0.65479  0.05460  0.78655  Biso   1.000  C
  C529     1.0000 0.74266  0.15400  0.78539  Biso   1.000  C
  H455     1.0000 0.83505  0.05312  0.73030  Biso   1.000  H
  H456     1.0000 0.83458  0.11288  0.75251  Biso   1.000  H
  C530     1.0000 0.78735  0.14578  0.71744  Biso   1.000  C
  C531     1.0000 0.19669  0.59050  0.71973  Biso   1.000  C
  H457     1.0000 0.17721  0.57029  0.75850  Biso   1.000  H
  H458     1.0000 0.19638  0.62788  0.68280  Biso   1.000  H
  H459     1.0000 0.55296  0.85917  0.71390  Biso   1.000  H
  H460     1.0000 0.58476  0.93498  0.70701  Biso   1.000  H
  H461     1.0000 0.52727  0.92719  0.72991  Biso   1.000  H
  H462     1.0000 0.53617  0.93287  0.77519  Biso   1.000  H
  H463     1.0000 0.53106  0.99758  0.79531  Biso   1.000  H
  C532     1.0000 0.57987  0.91118  0.81145  Biso   1.000  C
  C533     1.0000 0.62609  0.08461  0.81186  Biso   1.000  C
  C534     1.0000 0.80446  0.14420  0.80463  Biso   1.000  C
  H464     1.0000 0.75856  0.18432  0.77061  Biso   1.000  H
  H465     1.0000 0.70459  0.17948  0.79469  Biso   1.000  H
  C535     1.0000 0.80178  0.14489  0.80619  Biso   1.000  C
  H466     1.0000 0.83079  0.16689  0.71060  Biso   1.000  H
  H467     1.0000 0.75798  0.18248  0.72540  Biso   1.000  H
  H468     1.0000 0.76166  0.12320  0.70290  Biso   1.000  H
  C536     1.0000 0.25529  0.53638  0.71550  Biso   1.000  C
  C537     1.0000 0.52717  0.89160  0.82840  Biso   1.000  C
  C538     1.0000 0.64568  0.88307  0.81577  Biso   1.000  C
  H469     1.0000 0.66500  0.10730  0.82170  Biso   1.000  H
  H470     1.0000 0.60777  0.04559  0.82291  Biso   1.000  H
  C539     1.0000 0.56649  0.13931  0.80760  Biso   1.000  C
  C540     1.0000 0.82747  0.20428  0.81769  Biso   1.000  C
  C541     1.0000 0.83626  0.07960  0.80971  Biso   1.000  C
  C542     1.0000 0.84306  0.20327  0.81200  Biso   1.000  C
  C543     1.0000 0.81589  0.08060  0.81821  Biso   1.000  C
  C544     1.0000 0.28688  0.50426  0.74042  Biso   1.000  C
  H471     1.0000 0.23639  0.49779  0.70440  Biso   1.000  H
  H472     1.0000 0.29357  0.55928  0.70541  Biso   1.000  H
  H473     1.0000 0.48136  0.91066  0.82601  Biso   1.000  H
  C545     1.0000 0.53849  0.84548  0.84871  Biso   1.000  C
  C546     1.0000 0.65858  0.83616  0.83607  Biso   1.000  C
  H474     1.0000 0.68337  0.89639  0.80449  Biso   1.000  H
  H475     1.0000 0.54780  0.15421  0.82480  Biso   1.000  H
  H476     1.0000 0.52869  0.11798  0.79710  Biso   1.000  H
  H477     1.0000 0.58540  0.18032  0.79819  Biso   1.000  H
  C547     1.0000 0.88228  0.19980  0.83581  Biso   1.000  C
  H478     1.0000 0.80578  0.24839  0.81429  Biso   1.000  H
  C548     1.0000 0.89860  0.19727  0.82980  Biso   1.000  C
  H479     1.0000 0.83347  0.24729  0.80380  Biso   1.000  H
  H480     1.0000 0.82047  0.03859  0.80070  Biso   1.000  H
  C549     1.0000 0.89107  0.07518  0.82781  Biso   1.000  C
  H481     1.0000 0.78756  0.04070  0.81419  Biso   1.000  H
  C550     1.0000 0.87138  0.07460  0.83591  Biso   1.000  C
  C551     1.0000 0.34411  0.53738  0.75286  Biso   1.000  C
  C552     1.0000 0.25761  0.44377  0.75121  Biso   1.000  C
  H482     1.0000 0.50079  0.83347  0.86019  Biso   1.000  H
  C553     1.0000 0.60330  0.81689  0.85256  Biso   1.000  C
  H483     1.0000 0.70438  0.81747  0.83869  Biso   1.000  H
  C554     1.0000 0.91408  0.13520  0.84089  Biso   1.000  C
  H484     1.0000 0.89807  0.24081  0.84480  Biso   1.000  H
  C555     1.0000 0.91266  0.13288  0.84174  Biso   1.000  C
  H485     1.0000 0.92687  0.23718  0.83379  Biso   1.000  H
  H486     1.0000 0.91276  0.03101  0.83121  Biso   1.000  H
  H487     1.0000 0.88096  0.03059  0.84411  Biso   1.000  H
  C556     1.0000 0.37491  0.50600  0.77553  Biso   1.000  C
  C557     1.0000 0.37228  0.60709  0.74188  Biso   1.000  C
  C558     1.0000 0.28809  0.41339  0.77383  Biso   1.000  C
  C559     1.0000 0.19411  0.40981  0.73856  Biso   1.000  C
  C560     1.0000 0.61319  0.76377  0.87305  Biso   1.000  C
  C561     1.0000 0.96878  0.13109  0.86080  Biso   1.000  C
  C562     1.0000 0.34521  0.44540  0.78655  Biso   1.000  C
  C563     1.0000 0.43740  0.53996  0.78871  Biso   1.000  C
  H488     1.0000 0.39049  0.63610  0.75660  Biso   1.000  H
  H489     1.0000 0.33332  0.63331  0.73340  Biso   1.000  H
  C564     1.0000 0.43240  0.59529  0.72127  Biso   1.000  C
  C565     1.0000 0.25729  0.34600  0.78539  Biso   1.000  C
  H490     1.0000 0.16489  0.44688  0.73030  Biso   1.000  H
  H491     1.0000 0.16542  0.38707  0.75251  Biso   1.000  H
  C566     1.0000 0.21259  0.35416  0.71744  Biso   1.000  C
  C567     1.0000 0.61888  0.71881  0.88920  Biso   1.000  C
  C568     1.0000 0.01379  0.13678  0.87695  Biso   1.000  C
  C569     1.0000 0.37391  0.41539  0.81186  Biso   1.000  C
  H492     1.0000 0.46378  0.56707  0.77519  Biso   1.000  H
  H493     1.0000 0.46888  0.50237  0.79531  Biso   1.000  H
  C570     1.0000 0.42008  0.58876  0.81145  Biso   1.000  C
  H494     1.0000 0.44698  0.64078  0.71390  Biso   1.000  H
  H495     1.0000 0.41518  0.56497  0.70701  Biso   1.000  H
  H496     1.0000 0.47268  0.57276  0.72991  Biso   1.000  H
  C571     1.0000 0.19548  0.35580  0.80463  Biso   1.000  C
  H497     1.0000 0.24139  0.31568  0.77061  Biso   1.000  H
  H498     1.0000 0.29541  0.32047  0.79469  Biso   1.000  H
  C572     1.0000 0.19822  0.35511  0.80619  Biso   1.000  C
  H499     1.0000 0.16921  0.33311  0.71060  Biso   1.000  H
  H500     1.0000 0.24197  0.31747  0.72540  Biso   1.000  H
  H501     1.0000 0.23829  0.37680  0.70290  Biso   1.000  H
  C573     1.0000 0.61477  0.66410  0.90911  Biso   1.000  C
  C574     1.0000 0.61709  0.66268  0.90826  Biso   1.000  C
  C575     1.0000 0.06692  0.14668  0.89744  Biso   1.000  C
  H502     1.0000 0.33500  0.39270  0.82170  Biso   1.000  H
  H503     1.0000 0.39218  0.45441  0.82291  Biso   1.000  H
  C576     1.0000 0.43351  0.36069  0.80760  Biso   1.000  C
  C577     1.0000 0.47278  0.60840  0.82840  Biso   1.000  C
  C578     1.0000 0.35427  0.61688  0.81577  Biso   1.000  C
  C579     1.0000 0.17248  0.29567  0.81769  Biso   1.000  C
  C580     1.0000 0.16368  0.42040  0.80971  Biso   1.000  C
  C581     1.0000 0.15689  0.29667  0.81200  Biso   1.000  C
  C582     1.0000 0.18411  0.41940  0.81821  Biso   1.000  C
  C583     1.0000 0.55017  0.63230  0.91419  Biso   1.000  C
  C584     1.0000 0.67479  0.64110  0.92219  Biso   1.000  C
  C585     1.0000 0.55270  0.64857  0.92020  Biso   1.000  C
  C586     1.0000 0.67537  0.62141  0.91409  Biso   1.000  C
  C587     1.0000 0.09550  0.21149  0.90129  Biso   1.000  C
  C588     1.0000 0.08619  0.09140  0.91393  Biso   1.000  C
  H504     1.0000 0.45220  0.34579  0.82480  Biso   1.000  H
  H505     1.0000 0.47131  0.38202  0.79710  Biso   1.000  H
  H506     1.0000 0.41460  0.31968  0.79819  Biso   1.000  H
  H507     1.0000 0.51858  0.58929  0.82601  Biso   1.000  H
  C589     1.0000 0.46151  0.65447  0.84871  Biso   1.000  C
  C590     1.0000 0.34137  0.66379  0.83607  Biso   1.000  C
  H508     1.0000 0.31657  0.60356  0.80449  Biso   1.000  H
  C591     1.0000 0.11772  0.30020  0.83581  Biso   1.000  C
  H509     1.0000 0.19422  0.25161  0.81429  Biso   1.000  H
  C592     1.0000 0.10140  0.30267  0.82980  Biso   1.000  C
  H510     1.0000 0.16647  0.25271  0.80380  Biso   1.000  H
  H511     1.0000 0.17948  0.46141  0.80070  Biso   1.000  H
  C593     1.0000 0.10888  0.42477  0.82781  Biso   1.000  C
  H512     1.0000 0.21238  0.45930  0.81419  Biso   1.000  H
  C594     1.0000 0.12862  0.42540  0.83591  Biso   1.000  C
  H513     1.0000 0.50916  0.64810  0.90520  Biso   1.000  H
  C595     1.0000 0.54570  0.57750  0.93231  Biso   1.000  C
  H514     1.0000 0.51279  0.67690  0.91621  Biso   1.000  H
  C596     1.0000 0.54670  0.59308  0.93800  Biso   1.000  C
  C597     1.0000 0.67037  0.58629  0.94029  Biso   1.000  C
  H515     1.0000 0.71896  0.66279  0.91879  Biso   1.000  H
  C598     1.0000 0.66937  0.56586  0.93179  Biso   1.000  C
  H516     1.0000 0.71939  0.63099  0.90589  Biso   1.000  H
  C599     1.0000 0.14157  0.22281  0.92160  Biso   1.000  C
  H517     1.0000 0.08350  0.24918  0.88981  Biso   1.000  H
  H518     1.0000 0.06749  0.04559  0.91131  Biso   1.000  H
  C600     1.0000 0.13309  0.10430  0.93423  Biso   1.000  C
  H519     1.0000 0.49921  0.66647  0.86019  Biso   1.000  H
  C601     1.0000 0.39670  0.68306  0.85256  Biso   1.000  C
  H520     1.0000 0.29557  0.68248  0.83869  Biso   1.000  H
  C602     1.0000 0.08592  0.36480  0.84089  Biso   1.000  C
  H521     1.0000 0.10187  0.25919  0.84480  Biso   1.000  H
  C603     1.0000 0.08729  0.36712  0.84174  Biso   1.000  C
  H522     1.0000 0.07308  0.26277  0.83379  Biso   1.000  H
  H523     1.0000 0.08719  0.46899  0.83121  Biso   1.000  H
  H524     1.0000 0.11898  0.46941  0.84411  Biso   1.000  H
  H525     1.0000 0.50158  0.55581  0.93571  Biso   1.000  H
  C604     1.0000 0.60577  0.55449  0.94537  Biso   1.000  C
  H526     1.0000 0.50269  0.58350  0.94620  Biso   1.000  H
  C605     1.0000 0.60509  0.55181  0.94381  Biso   1.000  C
  H527     1.0000 0.71138  0.57050  0.94930  Biso   1.000  H
  H528     1.0000 0.70928  0.53759  0.93581  Biso   1.000  H
  C606     1.0000 0.16121  0.17011  0.93855  Biso   1.000  C
  H529     1.0000 0.16068  0.26861  0.92399  Biso   1.000  H
  H530     1.0000 0.14641  0.06660  0.94551  Biso   1.000  H
  C607     1.0000 0.38681  0.73618  0.87305  Biso   1.000  C
  C608     1.0000 0.03122  0.36891  0.86080  Biso   1.000  C
  C609     1.0000 0.59598  0.49268  0.96461  Biso   1.000  C
  C610     1.0000 0.21001  0.18737  0.96129  Biso   1.000  C
  C611     1.0000 0.38107  0.78119  0.88920  Biso   1.000  C
  C612     1.0000 0.98615  0.36317  0.87695  Biso   1.000  C
  C613     1.0000 0.66337  0.46188  0.97617  Biso   1.000  C
  H531     1.0000 0.56570  0.50858  0.97939  Biso   1.000  H
  H532     1.0000 0.57050  0.45456  0.95531  Biso   1.000  H
  C614     1.0000 0.24397  0.12488  0.97447  Biso   1.000  C
  H533     1.0000 0.18290  0.21380  0.97481  Biso   1.000  H
  H534     1.0000 0.24760  0.21891  0.95469  Biso   1.000  H
  C615     1.0000 0.38517  0.83590  0.90911  Biso   1.000  C
  C616     1.0000 0.38291  0.83726  0.90826  Biso   1.000  C
  C617     1.0000 0.93308  0.35327  0.89744  Biso   1.000  C
  C618     1.0000 0.69380  0.49237  0.99879  Biso   1.000  C
  C619     1.0000 0.69538  0.40481  0.96345  Biso   1.000  C
  C620     1.0000 0.21259  0.09408  0.99714  Biso   1.000  C
  C621     1.0000 0.30457  0.09519  0.96345  Biso   1.000  C
  C622     1.0000 0.44977  0.86770  0.91419  Biso   1.000  C
  C623     1.0000 0.44730  0.85137  0.92020  Biso   1.000  C
  C624     1.0000 0.32521  0.85890  0.92219  Biso   1.000  C
  C625     1.0000 0.32458  0.87859  0.91409  Biso   1.000  C
  C626     1.0000 0.90450  0.28851  0.90129  Biso   1.000  C
  C627     1.0000 0.91376  0.40860  0.91393  Biso   1.000  C
  C628     1.0000 0.75429  0.46309  0.00958  Biso   1.000  C
  C629     1.0000 0.65979  0.55586  0.01144  Biso   1.000  C
  C630     1.0000 0.75598  0.37507  0.97447  Biso   1.000  C
  C631     1.0000 0.66537  0.37607  0.93814  Biso   1.000  C
  C632     1.0000 0.24571  0.03691  0.00958  Biso   1.000  C
  C633     1.0000 0.14289  0.12230  0.00812  Biso   1.000  C
  C634     1.0000 0.33658  0.03812  0.97617  Biso   1.000  C
  C635     1.0000 0.33458  0.12388  0.93814  Biso   1.000  C
  C636     1.0000 0.45430  0.92250  0.93231  Biso   1.000  C
  C637     1.0000 0.45330  0.90687  0.93800  Biso   1.000  C
  H535     1.0000 0.49079  0.85190  0.90520  Biso   1.000  H
  H536     1.0000 0.48721  0.82310  0.91621  Biso   1.000  H
  C638     1.0000 0.32958  0.91366  0.94029  Biso   1.000  C
  C639     1.0000 0.33058  0.93408  0.93179  Biso   1.000  C
  H537     1.0000 0.28098  0.83716  0.91879  Biso   1.000  H
  H538     1.0000 0.28061  0.86896  0.90589  Biso   1.000  H
  C640     1.0000 0.85838  0.27719  0.92160  Biso   1.000  C
  H539     1.0000 0.91650  0.25082  0.88981  Biso   1.000  H
  C641     1.0000 0.86685  0.39570  0.93423  Biso   1.000  C
  H540     1.0000 0.93245  0.45441  0.91131  Biso   1.000  H
  C642     1.0000 0.78735  0.40587  0.99714  Biso   1.000  C
  C643     1.0000 0.78635  0.49468  0.03450  Biso   1.000  C
  H541     1.0000 0.63710  0.58461  0.99749  Biso   1.000  H
  H542     1.0000 0.69690  0.58508  0.01970  Biso   1.000  H
  C644     1.0000 0.60419  0.53738  0.03256  Biso   1.000  C
  C645     1.0000 0.78999  0.31257  0.96129  Biso   1.000  C
  H543     1.0000 0.64268  0.41497  0.92830  Biso   1.000  H
  H544     1.0000 0.70438  0.35780  0.92709  Biso   1.000  H
  C646     1.0000 0.61067  0.31647  0.94240  Biso   1.000  C
  C647     1.0000 0.30620  0.00758  0.99879  Biso   1.000  C
  C648     1.0000 0.21359  0.00532  0.03450  Biso   1.000  C
  H545     1.0000 0.11388  0.14052  0.99340  Biso   1.000  H
  H546     1.0000 0.11672  0.08329  0.01660  Biso   1.000  H
  C649     1.0000 0.15468  0.18237  0.02873  Biso   1.000  C
  C650     1.0000 0.40397  0.00732  0.96461  Biso   1.000  C
  H547     1.0000 0.35727  0.08497  0.92830  Biso   1.000  H
  H548     1.0000 0.29557  0.14220  0.92709  Biso   1.000  H
  C651     1.0000 0.38928  0.18348  0.94240  Biso   1.000  C
  C652     1.0000 0.39418  0.94546  0.94537  Biso   1.000  C
  C653     1.0000 0.39491  0.94819  0.94381  Biso   1.000  C
  H549     1.0000 0.49837  0.94419  0.93571  Biso   1.000  H
  H550     1.0000 0.49726  0.91650  0.94620  Biso   1.000  H
  H551     1.0000 0.28862  0.92945  0.94930  Biso   1.000  H
  H552     1.0000 0.29067  0.96236  0.93581  Biso   1.000  H
  C654     1.0000 0.83879  0.32989  0.93855  Biso   1.000  C
  H553     1.0000 0.83927  0.23139  0.92399  Biso   1.000  H
  H554     1.0000 0.85359  0.43340  0.94551  Biso   1.000  H
  C655     1.0000 0.85706  0.37770  0.00812  Biso   1.000  C
  H555     1.0000 0.74776  0.51358  0.04560  Biso   1.000  H
  H556     1.0000 0.80926  0.45641  0.04459  Biso   1.000  H
  C656     1.0000 0.84048  0.55328  0.03027  Biso   1.000  C
  H557     1.0000 0.58308  0.58076  0.03940  Biso   1.000  H
  H558     1.0000 0.56749  0.50800  0.02460  Biso   1.000  H
  H559     1.0000 0.62678  0.51169  0.04710  Biso   1.000  H
  H560     1.0000 0.81710  0.28620  0.97481  Biso   1.000  H
  H561     1.0000 0.75240  0.28109  0.95469  Biso   1.000  H
  H562     1.0000 0.59577  0.29778  0.92520  Biso   1.000  H
  H563     1.0000 0.63199  0.27867  0.95290  Biso   1.000  H
  H564     1.0000 0.56971  0.33537  0.95181  Biso   1.000  H
  C657     1.0000 0.34021  0.94409  0.01144  Biso   1.000  C
  H565     1.0000 0.25218  0.98636  0.04560  Biso   1.000  H
  C658     1.0000 0.15947  0.94667  0.03027  Biso   1.000  C
  H566     1.0000 0.19069  0.04359  0.04459  Biso   1.000  H
  H567     1.0000 0.10919  0.19701  0.03610  Biso   1.000  H
  H568     1.0000 0.18501  0.16521  0.04299  Biso   1.000  H
  H569     1.0000 0.17721  0.22270  0.02009  Biso   1.000  H
  H570     1.0000 0.43430  0.99137  0.97939  Biso   1.000  H
  H571     1.0000 0.42950  0.04538  0.95531  Biso   1.000  H
  H572     1.0000 0.40418  0.20217  0.92520  Biso   1.000  H
  H573     1.0000 0.36801  0.22128  0.95290  Biso   1.000  H
  H574     1.0000 0.43029  0.16458  0.95181  Biso   1.000  H
  H575     1.0000 0.88607  0.35948  0.99340  Biso   1.000  H
  H576     1.0000 0.88328  0.41671  0.01660  Biso   1.000  H
  C659     1.0000 0.84527  0.31757  0.02873  Biso   1.000  C
  C660     1.0000 0.84795  0.58761  0.00609  Biso   1.000  C
  C661     1.0000 0.88149  0.57639  0.05054  Biso   1.000  C
  H577     1.0000 0.36290  0.91539  0.99749  Biso   1.000  H
  H578     1.0000 0.30310  0.91487  0.01970  Biso   1.000  H
  C662     1.0000 0.39581  0.96257  0.03256  Biso   1.000  C
  C663     1.0000 0.15200  0.91239  0.00609  Biso   1.000  C
  C664     1.0000 0.11851  0.92355  0.05054  Biso   1.000  C
  H579     1.0000 0.89075  0.30299  0.03610  Biso   1.000  H
  H580     1.0000 0.81499  0.33479  0.04299  Biso   1.000  H
  H581     1.0000 0.82279  0.27730  0.02009  Biso   1.000  H
  H582     1.0000 0.82026  0.57276  0.99150  Biso   1.000  H
  C665     1.0000 0.89486  0.64257  0.00294  Biso   1.000  C
  C666     1.0000 0.92698  0.63067  0.04791  Biso   1.000  C
  H583     1.0000 0.87786  0.55360  0.06720  Biso   1.000  H
  H584     1.0000 0.41687  0.91919  0.03940  Biso   1.000  H
  H585     1.0000 0.43251  0.99200  0.02460  Biso   1.000  H
  H586     1.0000 0.37317  0.98826  0.04710  Biso   1.000  H
  H587     1.0000 0.17969  0.92719  0.99150  Biso   1.000  H
  C667     1.0000 0.10509  0.85738  0.00294  Biso   1.000  C
  C668     1.0000 0.07302  0.86927  0.04791  Biso   1.000  C
  H588     1.0000 0.12209  0.94635  0.06720  Biso   1.000  H
  H589     1.0000 0.89976  0.66479  0.98621  Biso   1.000  H
  C669     1.0000 0.93487  0.66526  0.02422  Biso   1.000  C
  H590     1.0000 0.95409  0.64510  0.06269  Biso   1.000  H
  H591     1.0000 0.10019  0.83516  0.98621  Biso   1.000  H
  C670     1.0000 0.06507  0.83468  0.02422  Biso   1.000  C
  H592     1.0000 0.04591  0.85490  0.06269  Biso   1.000  H
  C671     1.0000 0.98136  0.72460  0.02215  Biso   1.000  C
  C672     1.0000 0.01858  0.77540  0.02215  Biso   1.000  C
  Ne1      1.0000 0.49998  0.24999  0.37500  Biso   1.000  Ne
  He1      1.0000 0.60233  0.14933  0.41839  Biso   1.000  He
  He2      1.0000 0.39525  0.35297  0.41929  Biso   1.000  He
  He3      1.0000 0.39412  0.14152  0.33420  Biso   1.000  He
  He4      1.0000 0.60330  0.35510  0.33059  Biso   1.000  He
  Ar1      1.0000 0.49998  0.24998  0.37500  Biso   1.000  Ar
  Ne2      1.0000 0.99999  0.24999  0.12500  Biso   1.000  Ne
  He5      1.0000 0.89278  0.14030  0.16748  Biso   1.000  He
  He6      1.0000 0.10618  0.35812  0.17054  Biso   1.000  He
  He7      1.0000 0.11472  0.13739  0.07698  Biso   1.000  He
  He8      1.0000 0.88970  0.35828  0.07866  Biso   1.000  He
  Ar2      1.0000 0.00001  0.24999  0.12500  Biso   1.000  Ar
  Ne3      1.0000 0.49998  0.74999  0.62500  Biso   1.000  Ne
  He9      1.0000 0.39604  0.64420  0.66967  Biso   1.000  He
  He10     1.0000 0.60621  0.85813  0.67054  Biso   1.000  He
  He11     1.0000 0.61474  0.63739  0.57698  Biso   1.000  He
  He12     1.0000 0.38973  0.85827  0.57865  Biso   1.000  He
  Ar3      1.0000 0.49997  0.74999  0.62500  Biso   1.000  Ar
  Ne4      1.0000 0.99999  0.74999  0.87500  Biso   1.000  Ne
  He13     1.0000 0.10234  0.64930  0.91839  Biso   1.000  He
  He14     1.0000 0.89521  0.85298  0.91929  Biso   1.000  He
  He15     1.0000 0.89410  0.64149  0.83422  Biso   1.000  He
  He16     1.0000 0.10326  0.85509  0.83059  Biso   1.000  He
  Ar4      1.0000 0.99998  0.75000  0.87500  Biso   1.000  Ar
