data_image0
_cell_length_a       14.56
_cell_length_b       15.007
_cell_length_c       15.239
_cell_angle_alpha    83.05
_cell_angle_beta     81.65
_cell_angle_gamma    81.72

_symmetry_space_group_name_H-M    "P 1"
_symmetry_int_tables_number       1

loop_
  _symmetry_equiv_pos_as_xyz
  'x, y, z'

loop_
  _atom_site_label
  _atom_site_occupancy
  _atom_site_fract_x
  _atom_site_fract_y
  _atom_site_fract_z
  _atom_site_thermal_displace_type
  _atom_site_B_iso_or_equiv
  _atom_site_type_symbol
  N1       1.0000 0.28978  0.91503  0.08194  Biso   1.000  N
  C1       1.0000 0.30017  0.81888  0.09934  Biso   1.000  C
  C2       1.0000 0.34619  0.96532  0.01007  Biso   1.000  C
  C3       1.0000 0.24781  0.97142  0.14528  Biso   1.000  C
  C4       1.0000 0.34619  0.96524  0.01013  Biso   1.000  C
  C5       1.0000 0.24780  0.97141  0.14535  Biso   1.000  C
  C6       1.0000 0.34620  0.96525  0.01007  Biso   1.000  C
  N2       1.0000 0.24669  0.77541  0.04720  Biso   1.000  N
  N3       1.0000 0.24668  0.77540  0.04727  Biso   1.000  N
  N4       1.0000 0.24675  0.77541  0.04720  Biso   1.000  N
  N5       1.0000 0.24675  0.77540  0.04727  Biso   1.000  N
  H1       1.0000 0.28048  0.80293  0.16222  Biso   1.000  H
  H2       1.0000 0.36591  0.79562  0.08668  Biso   1.000  H
  H3       1.0000 0.28049  0.80286  0.16222  Biso   1.000  H
  H4       1.0000 0.36591  0.79561  0.08674  Biso   1.000  H
  N6       1.0000 0.28978  0.91495  0.08201  Biso   1.000  N
  N7       1.0000 0.28984  0.91503  0.08194  Biso   1.000  N
  N8       1.0000 0.28983  0.91502  0.08201  Biso   1.000  N
  N9       1.0000 0.31852  0.96508  0.92346  Biso   1.000  N
  N10      1.0000 0.31851  0.96515  0.92346  Biso   1.000  N
  H5       1.0000 0.41332  0.94510  0.01020  Biso   1.000  H
  C7       1.0000 0.32061  0.06422  0.03160  Biso   1.000  C
  C8       1.0000 0.32060  0.06429  0.03160  Biso   1.000  C
  O1       1.0000 0.20714  0.94356  0.21776  Biso   1.000  O
  N11      1.0000 0.25789  0.05819  0.11441  Biso   1.000  N
  N12      1.0000 0.25797  0.05812  0.11441  Biso   1.000  N
  N13      1.0000 0.25796  0.05819  0.11441  Biso   1.000  N
  C9       1.0000 0.17129  0.73044  0.08468  Biso   1.000  C
  C10      1.0000 0.17129  0.73037  0.08474  Biso   1.000  C
  C11      1.0000 0.17130  0.73038  0.08468  Biso   1.000  C
  C12      1.0000 0.17128  0.73044  0.08474  Biso   1.000  C
  C13      1.0000 0.28019  0.74900  0.95653  Biso   1.000  C
  C14      1.0000 0.28018  0.74906  0.95653  Biso   1.000  C
  C15      1.0000 0.34166  0.88942  0.87132  Biso   1.000  C
  C16      1.0000 0.34164  0.88948  0.87139  Biso   1.000  C
  C17      1.0000 0.34173  0.88942  0.87132  Biso   1.000  C
  C18      1.0000 0.34172  0.88941  0.87139  Biso   1.000  C
  C19      1.0000 0.28036  0.04722  0.89052  Biso   1.000  C
  C20      1.0000 0.28043  0.04722  0.89052  Biso   1.000  C
  N14      1.0000 0.27384  0.10730  0.95520  Biso   1.000  N
  N15      1.0000 0.27383  0.10729  0.95526  Biso   1.000  N
  N16      1.0000 0.27384  0.10723  0.95526  Biso   1.000  N
  H6       1.0000 0.37590  0.09226  0.03720  Biso   1.000  H
  H7       1.0000 0.37591  0.09219  0.03720  Biso   1.000  H
  C21      1.0000 0.22266  0.13460  0.16582  Biso   1.000  C
  C22      1.0000 0.22265  0.13466  0.16582  Biso   1.000  C
  N17      1.0000 0.14552  0.68542  0.02347  Biso   1.000  N
  N18      1.0000 0.14551  0.68541  0.02354  Biso   1.000  N
  O2       1.0000 0.13684  0.73125  0.16322  Biso   1.000  O
  O3       1.0000 0.13685  0.73117  0.16328  Biso   1.000  O
  O4       1.0000 0.13685  0.73118  0.16322  Biso   1.000  O
  O5       1.0000 0.13684  0.73124  0.16328  Biso   1.000  O
  C23      1.0000 0.20371  0.69380  0.94013  Biso   1.000  C
  C24      1.0000 0.20370  0.69386  0.94013  Biso   1.000  C
  H8       1.0000 0.34208  0.71305  0.95313  Biso   1.000  H
  N19      1.0000 0.27588  0.82336  0.88692  Biso   1.000  N
  N20      1.0000 0.27587  0.82335  0.88699  Biso   1.000  N
  H9       1.0000 0.34209  0.71299  0.95313  Biso   1.000  H
  N21      1.0000 0.27596  0.82329  0.88692  Biso   1.000  N
  N22      1.0000 0.27594  0.82335  0.88699  Biso   1.000  N
  H10      1.0000 0.40267  0.85870  0.88312  Biso   1.000  H
  H11      1.0000 0.34707  0.91241  0.80878  Biso   1.000  H
  H12      1.0000 0.40266  0.85877  0.88312  Biso   1.000  H
  H13      1.0000 0.34705  0.91247  0.80885  Biso   1.000  H
  H14      1.0000 0.34714  0.91241  0.80878  Biso   1.000  H
  H15      1.0000 0.34713  0.91240  0.80885  Biso   1.000  H
  O6       1.0000 0.25524  0.06904  0.81711  Biso   1.000  O
  O7       1.0000 0.25523  0.06904  0.81718  Biso   1.000  O
  C25      1.0000 0.25410  0.20326  0.93439  Biso   1.000  C
  C26      1.0000 0.25409  0.20325  0.93446  Biso   1.000  C
  C27      1.0000 0.25409  0.20333  0.93439  Biso   1.000  C
  H16      1.0000 0.20688  0.11220  0.22782  Biso   1.000  H
  H17      1.0000 0.27165  0.17283  0.16268  Biso   1.000  H
  N23      1.0000 0.14198  0.18781  0.13455  Biso   1.000  N
  H18      1.0000 0.20687  0.11227  0.22782  Biso   1.000  H
  H19      1.0000 0.27165  0.17283  0.16275  Biso   1.000  H
  N24      1.0000 0.14196  0.18787  0.13461  Biso   1.000  N
  H20      1.0000 0.27172  0.17283  0.16268  Biso   1.000  H
  H21      1.0000 0.27171  0.17283  0.16275  Biso   1.000  H
  N25      1.0000 0.14197  0.18780  0.13461  Biso   1.000  N
  C28      1.0000 0.06637  0.63556  0.03934  Biso   1.000  C
  C29      1.0000 0.06637  0.63563  0.03927  Biso   1.000  C
  C30      1.0000 0.06636  0.63562  0.03934  Biso   1.000  C
  H22      1.0000 0.23128  0.63425  0.92219  Biso   1.000  H
  N26      1.0000 0.16227  0.74934  0.86759  Biso   1.000  N
  H23      1.0000 0.23127  0.63424  0.92226  Biso   1.000  H
  H24      1.0000 0.23129  0.63418  0.92219  Biso   1.000  H
  C31      1.0000 0.20836  0.82201  0.83498  Biso   1.000  C
  C32      1.0000 0.20834  0.82207  0.83505  Biso   1.000  C
  C33      1.0000 0.20843  0.82201  0.83498  Biso   1.000  C
  C34      1.0000 0.20842  0.82201  0.83505  Biso   1.000  C
  H25      1.0000 0.25647  0.21685  0.87032  Biso   1.000  H
  H26      1.0000 0.30212  0.23233  0.95340  Biso   1.000  H
  N27      1.0000 0.16240  0.24065  0.97706  Biso   1.000  N
  H27      1.0000 0.25646  0.21692  0.87032  Biso   1.000  H
  H28      1.0000 0.30210  0.23239  0.95346  Biso   1.000  H
  H29      1.0000 0.25653  0.21692  0.87032  Biso   1.000  H
  H30      1.0000 0.30211  0.23240  0.95340  Biso   1.000  H
  H31      1.0000 0.25654  0.21685  0.87032  Biso   1.000  H
  H32      1.0000 0.30211  0.23233  0.95346  Biso   1.000  H
  C35      1.0000 0.05548  0.18921  0.18395  Biso   1.000  C
  C36      1.0000 0.14791  0.26434  0.06734  Biso   1.000  C
  C37      1.0000 0.05546  0.18927  0.18402  Biso   1.000  C
  C38      1.0000 0.14792  0.26428  0.06734  Biso   1.000  C
  C39      1.0000 0.05547  0.18920  0.18402  Biso   1.000  C
  H33      1.0000 0.05418  0.61680  0.10261  Biso   1.000  H
  H34      1.0000 0.08191  0.58131  0.00860  Biso   1.000  H
  N28      1.0000 0.98245  0.68619  0.01020  Biso   1.000  N
  N29      1.0000 0.98245  0.68611  0.01027  Biso   1.000  N
  N30      1.0000 0.98246  0.68612  0.01020  Biso   1.000  N
  N31      1.0000 0.98244  0.68618  0.01027  Biso   1.000  N
  C40      1.0000 0.09828  0.71846  0.81671  Biso   1.000  C
  C41      1.0000 0.09829  0.71839  0.81671  Biso   1.000  C
  O8       1.0000 0.19613  0.87300  0.76804  Biso   1.000  O
  O9       1.0000 0.19612  0.87307  0.76804  Biso   1.000  O
  C42      1.0000 0.09099  0.27455  0.93073  Biso   1.000  C
  N32      1.0000 0.99811  0.26218  0.14855  Biso   1.000  N
  N33      1.0000 0.99810  0.26217  0.14862  Biso   1.000  N
  N34      1.0000 0.99812  0.26211  0.14855  Biso   1.000  N
  O10      1.0000 0.03304  0.13459  0.24896  Biso   1.000  O
  O11      1.0000 0.03312  0.13452  0.24896  Biso   1.000  O
  H35      1.0000 0.19336  0.30294  0.07761  Biso   1.000  H
  C43      1.0000 0.04568  0.31526  0.07567  Biso   1.000  C
  H36      1.0000 0.19337  0.30287  0.07761  Biso   1.000  H
  C44      1.0000 0.04569  0.31519  0.07567  Biso   1.000  C
  C45      1.0000 0.95429  0.68480  0.92433  Biso   1.000  C
  C46      1.0000 0.95427  0.68486  0.92439  Biso   1.000  C
  C47      1.0000 0.95428  0.68479  0.92439  Biso   1.000  C
  C48      1.0000 0.90899  0.72544  0.06927  Biso   1.000  C
  C49      1.0000 0.90898  0.72544  0.06934  Biso   1.000  C
  N35      1.0000 0.00186  0.73788  0.85145  Biso   1.000  N
  N36      1.0000 0.00185  0.73795  0.85145  Biso   1.000  N
  N37      1.0000 0.00193  0.73788  0.85145  Biso   1.000  N
  H37      1.0000 0.10766  0.74665  0.75591  Biso   1.000  H
  H38      1.0000 0.11360  0.65352  0.81498  Biso   1.000  H
  H39      1.0000 0.11359  0.65352  0.81505  Biso   1.000  H
  H40      1.0000 0.10767  0.74659  0.75591  Biso   1.000  H
  N38      1.0000 0.01753  0.31380  0.98980  Biso   1.000  N
  O12      1.0000 0.08683  0.27314  0.85278  Biso   1.000  O
  O13      1.0000 0.08682  0.27321  0.85278  Biso   1.000  O
  N39      1.0000 0.01752  0.31387  0.98980  Biso   1.000  N
  C50      1.0000 0.90169  0.28160  0.18329  Biso   1.000  C
  C51      1.0000 0.90167  0.28166  0.18335  Biso   1.000  C
  C52      1.0000 0.90168  0.28159  0.18335  Biso   1.000  C
  H41      1.0000 0.04449  0.37745  0.08961  Biso   1.000  H
  H42      1.0000 0.04450  0.37738  0.08961  Biso   1.000  H
  C53      1.0000 0.85206  0.73572  0.93266  Biso   1.000  C
  H43      1.0000 0.95548  0.62261  0.91039  Biso   1.000  H
  C54      1.0000 0.85204  0.73578  0.93273  Biso   1.000  C
  H44      1.0000 0.95546  0.62267  0.91046  Biso   1.000  H
  C55      1.0000 0.85213  0.73572  0.93266  Biso   1.000  C
  C56      1.0000 0.85212  0.73571  0.93273  Biso   1.000  C
  H45      1.0000 0.95547  0.62260  0.91046  Biso   1.000  H
  N40      1.0000 0.83758  0.75934  0.02294  Biso   1.000  N
  O14      1.0000 0.91314  0.72685  0.14722  Biso   1.000  O
  N41      1.0000 0.83757  0.75933  0.02300  Biso   1.000  N
  O15      1.0000 0.91314  0.72677  0.14728  Biso   1.000  O
  N42      1.0000 0.83765  0.75934  0.02294  Biso   1.000  N
  O16      1.0000 0.91315  0.72678  0.14722  Biso   1.000  O
  N43      1.0000 0.83764  0.75933  0.02300  Biso   1.000  N
  O17      1.0000 0.91313  0.72684  0.14728  Biso   1.000  O
  C57      1.0000 0.94449  0.81085  0.81605  Biso   1.000  C
  C58      1.0000 0.94450  0.81078  0.81605  Biso   1.000  C
  C59      1.0000 0.93361  0.36436  0.96073  Biso   1.000  C
  C60      1.0000 0.93360  0.36443  0.96073  Biso   1.000  C
  N44      1.0000 0.83770  0.25072  0.13241  Biso   1.000  N
  N45      1.0000 0.83769  0.25071  0.13248  Biso   1.000  N
  H46      1.0000 0.89231  0.25340  0.24409  Biso   1.000  H
  H47      1.0000 0.88636  0.34654  0.18502  Biso   1.000  H
  H48      1.0000 0.89229  0.25347  0.24416  Biso   1.000  H
  H49      1.0000 0.88637  0.34647  0.18502  Biso   1.000  H
  H50      1.0000 0.89230  0.25340  0.24416  Biso   1.000  H
  H51      1.0000 0.80660  0.69712  0.92239  Biso   1.000  H
  N46      1.0000 0.85799  0.81225  0.86545  Biso   1.000  N
  H52      1.0000 0.80659  0.69711  0.92246  Biso   1.000  H
  N47      1.0000 0.85800  0.81218  0.86545  Biso   1.000  N
  C61      1.0000 0.74588  0.79673  0.06561  Biso   1.000  C
  C62      1.0000 0.74589  0.79666  0.06561  Biso   1.000  C
  O18      1.0000 0.96693  0.86547  0.75104  Biso   1.000  O
  O19      1.0000 0.96691  0.86553  0.75111  Biso   1.000  O
  O20      1.0000 0.96692  0.86546  0.75111  Biso   1.000  O
  N48      1.0000 0.85446  0.31457  0.97653  Biso   1.000  N
  H53      1.0000 0.94579  0.38319  0.89739  Biso   1.000  H
  H54      1.0000 0.91806  0.41868  0.99140  Biso   1.000  H
  H55      1.0000 0.94579  0.38318  0.89746  Biso   1.000  H
  H56      1.0000 0.91813  0.41868  0.99140  Biso   1.000  H
  C63      1.0000 0.79161  0.17805  0.16502  Biso   1.000  C
  C64      1.0000 0.79162  0.17798  0.16502  Biso   1.000  C
  C65      1.0000 0.79625  0.30626  0.05987  Biso   1.000  C
  C66      1.0000 0.79624  0.30625  0.05994  Biso   1.000  C
  C67      1.0000 0.79633  0.30619  0.05987  Biso   1.000  C
  C68      1.0000 0.79632  0.30619  0.05994  Biso   1.000  C
  C69      1.0000 0.77730  0.86546  0.83418  Biso   1.000  C
  C70      1.0000 0.77729  0.86545  0.83425  Biso   1.000  C
  C71      1.0000 0.77731  0.86539  0.83418  Biso   1.000  C
  C72      1.0000 0.77730  0.86539  0.83425  Biso   1.000  C
  H57      1.0000 0.74351  0.78314  0.12968  Biso   1.000  H
  H58      1.0000 0.69786  0.76766  0.04660  Biso   1.000  H
  N49      1.0000 0.72614  0.89269  0.04480  Biso   1.000  N
  H59      1.0000 0.74351  0.78307  0.12975  Biso   1.000  H
  H60      1.0000 0.69787  0.76759  0.04660  Biso   1.000  H
  H61      1.0000 0.74352  0.78308  0.12968  Biso   1.000  H
  H62      1.0000 0.74350  0.78314  0.12975  Biso   1.000  H
  C73      1.0000 0.82869  0.26955  0.91532  Biso   1.000  C
  C74      1.0000 0.82868  0.26962  0.91532  Biso   1.000  C
  N50      1.0000 0.72409  0.17670  0.11308  Biso   1.000  N
  N51      1.0000 0.72408  0.17677  0.11308  Biso   1.000  N
  O21      1.0000 0.80384  0.12706  0.23196  Biso   1.000  O
  O22      1.0000 0.80383  0.12705  0.23202  Biso   1.000  O
  O23      1.0000 0.80392  0.12699  0.23196  Biso   1.000  O
  O24      1.0000 0.80391  0.12699  0.23202  Biso   1.000  O
  C75      1.0000 0.71978  0.25106  0.04347  Biso   1.000  C
  C76      1.0000 0.71977  0.25106  0.04354  Biso   1.000  C
  C77      1.0000 0.71979  0.25100  0.04347  Biso   1.000  C
  C78      1.0000 0.71978  0.25099  0.04354  Biso   1.000  C
  H63      1.0000 0.76869  0.36581  0.07781  Biso   1.000  H
  H64      1.0000 0.76868  0.36588  0.07781  Biso   1.000  H
  H65      1.0000 0.79309  0.88786  0.77218  Biso   1.000  H
  H66      1.0000 0.72831  0.82722  0.83732  Biso   1.000  H
  N52      1.0000 0.74208  0.94187  0.88559  Biso   1.000  N
  H67      1.0000 0.79308  0.88785  0.77224  Biso   1.000  H
  N53      1.0000 0.74206  0.94193  0.88565  Biso   1.000  N
  H68      1.0000 0.79310  0.88779  0.77218  Biso   1.000  H
  N54      1.0000 0.74207  0.94187  0.88565  Biso   1.000  N
  C79      1.0000 0.67936  0.93584  0.96840  Biso   1.000  C
  C80      1.0000 0.67935  0.93583  0.96846  Biso   1.000  C
  C81      1.0000 0.67944  0.93577  0.96840  Biso   1.000  C
  C82      1.0000 0.67942  0.93583  0.96846  Biso   1.000  C
  C83      1.0000 0.71962  0.95278  0.10948  Biso   1.000  C
  C84      1.0000 0.71962  0.95270  0.10954  Biso   1.000  C
  C85      1.0000 0.71961  0.95277  0.10954  Biso   1.000  C
  N55      1.0000 0.75329  0.22458  0.95280  Biso   1.000  N
  O25      1.0000 0.86313  0.26874  0.83678  Biso   1.000  O
  O26      1.0000 0.86312  0.26881  0.83678  Biso   1.000  O
  C86      1.0000 0.65831  0.11064  0.12868  Biso   1.000  C
  C87      1.0000 0.65832  0.11057  0.12868  Biso   1.000  C
  H69      1.0000 0.65789  0.28700  0.04687  Biso   1.000  H
  H70      1.0000 0.65787  0.28707  0.04694  Biso   1.000  H
  H71      1.0000 0.65788  0.28700  0.04694  Biso   1.000  H
  C88      1.0000 0.75217  0.02858  0.85472  Biso   1.000  C
  H72      1.0000 0.62407  0.90780  0.96280  Biso   1.000  H
  H73      1.0000 0.62405  0.90786  0.96286  Biso   1.000  H
  H74      1.0000 0.62406  0.90779  0.96286  Biso   1.000  H
  C89      1.0000 0.65379  0.03468  0.98993  Biso   1.000  C
  C90      1.0000 0.65378  0.03474  0.98993  Biso   1.000  C
  O27      1.0000 0.74473  0.93095  0.18289  Biso   1.000  O
  O28      1.0000 0.74474  0.93088  0.18289  Biso   1.000  O
  N56      1.0000 0.68145  0.03498  0.07654  Biso   1.000  N
  N57      1.0000 0.68144  0.03497  0.07661  Biso   1.000  N
  N58      1.0000 0.68146  0.03491  0.07654  Biso   1.000  N
  C91      1.0000 0.69981  0.18111  0.90066  Biso   1.000  C
  C92      1.0000 0.69980  0.18110  0.90072  Biso   1.000  C
  H75      1.0000 0.59730  0.14136  0.11688  Biso   1.000  H
  H76      1.0000 0.65290  0.08765  0.19122  Biso   1.000  H
  H77      1.0000 0.59729  0.14135  0.11695  Biso   1.000  H
  H78      1.0000 0.59731  0.14129  0.11688  Biso   1.000  H
  H79      1.0000 0.65291  0.08759  0.19122  Biso   1.000  H
  H80      1.0000 0.59730  0.14129  0.11695  Biso   1.000  H
  O29      1.0000 0.79284  0.05643  0.78224  Biso   1.000  O
  N59      1.0000 0.71020  0.08496  0.91806  Biso   1.000  N
  O30      1.0000 0.79283  0.05643  0.78231  Biso   1.000  O
  N60      1.0000 0.71019  0.08503  0.91806  Biso   1.000  N
  O31      1.0000 0.79284  0.05636  0.78231  Biso   1.000  O
  H81      1.0000 0.58666  0.05489  0.98980  Biso   1.000  H
  H82      1.0000 0.58673  0.05489  0.98980  Biso   1.000  H
  H83      1.0000 0.58674  0.05482  0.98980  Biso   1.000  H
  H84      1.0000 0.71950  0.19706  0.83778  Biso   1.000  H
  H85      1.0000 0.63406  0.20437  0.91332  Biso   1.000  H
  H86      1.0000 0.71949  0.19705  0.83785  Biso   1.000  H
  H87      1.0000 0.71949  0.19713  0.83778  Biso   1.000  H
  H88      1.0000 0.63413  0.20437  0.91332  Biso   1.000  H
  N61      1.0000 0.28978  0.91503  0.08194  Biso   1.000  N
  C93      1.0000 0.30017  0.81888  0.09934  Biso   1.000  C
  C94      1.0000 0.24781  0.97142  0.14528  Biso   1.000  C
  C95      1.0000 0.34619  0.96524  0.01013  Biso   1.000  C
  C96      1.0000 0.24780  0.97141  0.14535  Biso   1.000  C
  C97      1.0000 0.34619  0.96532  0.01007  Biso   1.000  C
  C98      1.0000 0.34620  0.96525  0.01007  Biso   1.000  C
  N62      1.0000 0.24669  0.77541  0.04720  Biso   1.000  N
  N63      1.0000 0.24668  0.77540  0.04727  Biso   1.000  N
  N64      1.0000 0.24675  0.77541  0.04720  Biso   1.000  N
  N65      1.0000 0.24675  0.77540  0.04727  Biso   1.000  N
  H89      1.0000 0.28048  0.80293  0.16222  Biso   1.000  H
  H90      1.0000 0.36591  0.79562  0.08668  Biso   1.000  H
  H91      1.0000 0.36591  0.79561  0.08674  Biso   1.000  H
  H92      1.0000 0.28049  0.80286  0.16222  Biso   1.000  H
  N66      1.0000 0.28978  0.91495  0.08201  Biso   1.000  N
  N67      1.0000 0.28984  0.91503  0.08194  Biso   1.000  N
  N68      1.0000 0.28983  0.91502  0.08201  Biso   1.000  N
  O32      1.0000 0.20714  0.94356  0.21776  Biso   1.000  O
  N69      1.0000 0.25789  0.05819  0.11441  Biso   1.000  N
  N70      1.0000 0.25797  0.05812  0.11441  Biso   1.000  N
  N71      1.0000 0.25796  0.05819  0.11441  Biso   1.000  N
  N72      1.0000 0.31852  0.96508  0.92346  Biso   1.000  N
  N73      1.0000 0.31851  0.96515  0.92346  Biso   1.000  N
  H93      1.0000 0.41332  0.94510  0.01020  Biso   1.000  H
  C99      1.0000 0.32061  0.06422  0.03160  Biso   1.000  C
  C100     1.0000 0.32060  0.06429  0.03160  Biso   1.000  C
  C101     1.0000 0.17129  0.73044  0.08468  Biso   1.000  C
  C102     1.0000 0.17129  0.73037  0.08474  Biso   1.000  C
  C103     1.0000 0.17130  0.73038  0.08468  Biso   1.000  C
  C104     1.0000 0.17128  0.73044  0.08474  Biso   1.000  C
  C105     1.0000 0.28019  0.74900  0.95653  Biso   1.000  C
  C106     1.0000 0.28018  0.74906  0.95653  Biso   1.000  C
  C107     1.0000 0.22266  0.13460  0.16582  Biso   1.000  C
  C108     1.0000 0.22265  0.13466  0.16582  Biso   1.000  C
  C109     1.0000 0.34166  0.88942  0.87132  Biso   1.000  C
  C110     1.0000 0.34164  0.88948  0.87139  Biso   1.000  C
  C111     1.0000 0.34173  0.88942  0.87132  Biso   1.000  C
  C112     1.0000 0.34172  0.88941  0.87139  Biso   1.000  C
  C113     1.0000 0.28036  0.04722  0.89052  Biso   1.000  C
  C114     1.0000 0.28043  0.04722  0.89052  Biso   1.000  C
  N74      1.0000 0.27384  0.10730  0.95520  Biso   1.000  N
  N75      1.0000 0.27383  0.10729  0.95526  Biso   1.000  N
  N76      1.0000 0.27384  0.10723  0.95526  Biso   1.000  N
  H94      1.0000 0.37590  0.09226  0.03720  Biso   1.000  H
  H95      1.0000 0.37591  0.09219  0.03720  Biso   1.000  H
  N77      1.0000 0.14552  0.68542  0.02347  Biso   1.000  N
  N78      1.0000 0.14551  0.68541  0.02354  Biso   1.000  N
  O33      1.0000 0.13684  0.73125  0.16322  Biso   1.000  O
  O34      1.0000 0.13685  0.73117  0.16328  Biso   1.000  O
  O35      1.0000 0.13685  0.73118  0.16322  Biso   1.000  O
  O36      1.0000 0.13684  0.73124  0.16328  Biso   1.000  O
  C115     1.0000 0.20371  0.69380  0.94013  Biso   1.000  C
  C116     1.0000 0.20370  0.69386  0.94013  Biso   1.000  C
  H96      1.0000 0.34208  0.71305  0.95313  Biso   1.000  H
  N79      1.0000 0.27588  0.82336  0.88692  Biso   1.000  N
  N80      1.0000 0.27587  0.82335  0.88699  Biso   1.000  N
  H97      1.0000 0.34209  0.71299  0.95313  Biso   1.000  H
  N81      1.0000 0.27596  0.82329  0.88692  Biso   1.000  N
  N82      1.0000 0.27594  0.82335  0.88699  Biso   1.000  N
  H98      1.0000 0.20688  0.11220  0.22782  Biso   1.000  H
  H99      1.0000 0.27165  0.17283  0.16268  Biso   1.000  H
  N83      1.0000 0.14198  0.18781  0.13455  Biso   1.000  N
  H100     1.0000 0.20687  0.11227  0.22782  Biso   1.000  H
  H101     1.0000 0.27165  0.17283  0.16275  Biso   1.000  H
  N84      1.0000 0.14196  0.18787  0.13461  Biso   1.000  N
  H102     1.0000 0.27172  0.17283  0.16268  Biso   1.000  H
  H103     1.0000 0.27171  0.17283  0.16275  Biso   1.000  H
  N85      1.0000 0.14197  0.18780  0.13461  Biso   1.000  N
  H104     1.0000 0.40267  0.85870  0.88312  Biso   1.000  H
  H105     1.0000 0.34707  0.91241  0.80878  Biso   1.000  H
  H106     1.0000 0.40266  0.85877  0.88312  Biso   1.000  H
  H107     1.0000 0.34705  0.91247  0.80885  Biso   1.000  H
  H108     1.0000 0.34714  0.91241  0.80878  Biso   1.000  H
  H109     1.0000 0.34713  0.91240  0.80885  Biso   1.000  H
  O37      1.0000 0.25524  0.06904  0.81711  Biso   1.000  O
  O38      1.0000 0.25523  0.06904  0.81718  Biso   1.000  O
  C117     1.0000 0.25410  0.20326  0.93439  Biso   1.000  C
  C118     1.0000 0.25409  0.20325  0.93446  Biso   1.000  C
  C119     1.0000 0.25409  0.20333  0.93439  Biso   1.000  C
  C120     1.0000 0.06637  0.63556  0.03934  Biso   1.000  C
  C121     1.0000 0.06637  0.63563  0.03927  Biso   1.000  C
  C122     1.0000 0.06636  0.63562  0.03934  Biso   1.000  C
  H110     1.0000 0.23128  0.63425  0.92219  Biso   1.000  H
  N86      1.0000 0.16227  0.74934  0.86759  Biso   1.000  N
  H111     1.0000 0.23127  0.63424  0.92226  Biso   1.000  H
  H112     1.0000 0.23129  0.63418  0.92219  Biso   1.000  H
  C123     1.0000 0.20836  0.82201  0.83498  Biso   1.000  C
  C124     1.0000 0.20834  0.82207  0.83505  Biso   1.000  C
  C125     1.0000 0.20843  0.82201  0.83498  Biso   1.000  C
  C126     1.0000 0.20842  0.82201  0.83505  Biso   1.000  C
  C127     1.0000 0.05548  0.18921  0.18395  Biso   1.000  C
  C128     1.0000 0.14791  0.26434  0.06734  Biso   1.000  C
  C129     1.0000 0.05546  0.18927  0.18402  Biso   1.000  C
  C130     1.0000 0.14792  0.26428  0.06734  Biso   1.000  C
  C131     1.0000 0.05547  0.18920  0.18402  Biso   1.000  C
  H113     1.0000 0.25647  0.21685  0.87032  Biso   1.000  H
  H114     1.0000 0.30212  0.23233  0.95340  Biso   1.000  H
  N87      1.0000 0.16240  0.24065  0.97706  Biso   1.000  N
  H115     1.0000 0.25646  0.21692  0.87032  Biso   1.000  H
  H116     1.0000 0.30210  0.23239  0.95346  Biso   1.000  H
  H117     1.0000 0.25653  0.21692  0.87032  Biso   1.000  H
  H118     1.0000 0.30211  0.23240  0.95340  Biso   1.000  H
  H119     1.0000 0.25654  0.21685  0.87032  Biso   1.000  H
  H120     1.0000 0.30211  0.23233  0.95346  Biso   1.000  H
  H121     1.0000 0.05418  0.61680  0.10261  Biso   1.000  H
  H122     1.0000 0.08191  0.58131  0.00860  Biso   1.000  H
  N88      1.0000 0.98245  0.68619  0.01020  Biso   1.000  N
  N89      1.0000 0.98245  0.68611  0.01027  Biso   1.000  N
  N90      1.0000 0.98246  0.68612  0.01020  Biso   1.000  N
  N91      1.0000 0.98244  0.68618  0.01027  Biso   1.000  N
  C132     1.0000 0.09828  0.71846  0.81671  Biso   1.000  C
  C133     1.0000 0.09829  0.71839  0.81671  Biso   1.000  C
  O39      1.0000 0.19613  0.87300  0.76804  Biso   1.000  O
  O40      1.0000 0.19612  0.87307  0.76804  Biso   1.000  O
  N92      1.0000 0.99811  0.26218  0.14855  Biso   1.000  N
  N93      1.0000 0.99810  0.26217  0.14862  Biso   1.000  N
  N94      1.0000 0.99812  0.26211  0.14855  Biso   1.000  N
  O41      1.0000 0.03304  0.13459  0.24896  Biso   1.000  O
  O42      1.0000 0.03312  0.13452  0.24896  Biso   1.000  O
  H123     1.0000 0.19336  0.30294  0.07761  Biso   1.000  H
  C134     1.0000 0.04568  0.31526  0.07567  Biso   1.000  C
  H124     1.0000 0.19337  0.30287  0.07761  Biso   1.000  H
  C135     1.0000 0.04569  0.31519  0.07567  Biso   1.000  C
  C136     1.0000 0.09099  0.27455  0.93073  Biso   1.000  C
  C137     1.0000 0.95429  0.68480  0.92433  Biso   1.000  C
  C138     1.0000 0.95427  0.68486  0.92439  Biso   1.000  C
  C139     1.0000 0.95428  0.68479  0.92439  Biso   1.000  C
  C140     1.0000 0.90899  0.72544  0.06927  Biso   1.000  C
  C141     1.0000 0.90898  0.72544  0.06934  Biso   1.000  C
  N95      1.0000 0.00186  0.73788  0.85145  Biso   1.000  N
  N96      1.0000 0.00185  0.73795  0.85145  Biso   1.000  N
  N97      1.0000 0.00193  0.73788  0.85145  Biso   1.000  N
  H125     1.0000 0.10766  0.74665  0.75591  Biso   1.000  H
  H126     1.0000 0.11360  0.65352  0.81498  Biso   1.000  H
  H127     1.0000 0.11359  0.65352  0.81505  Biso   1.000  H
  H128     1.0000 0.10767  0.74659  0.75591  Biso   1.000  H
  C142     1.0000 0.90169  0.28160  0.18329  Biso   1.000  C
  C143     1.0000 0.90167  0.28166  0.18335  Biso   1.000  C
  C144     1.0000 0.90168  0.28159  0.18335  Biso   1.000  C
  N98      1.0000 0.01753  0.31380  0.98980  Biso   1.000  N
  N99      1.0000 0.01752  0.31387  0.98980  Biso   1.000  N
  H129     1.0000 0.04449  0.37745  0.08961  Biso   1.000  H
  H130     1.0000 0.04450  0.37738  0.08961  Biso   1.000  H
  O43      1.0000 0.08683  0.27314  0.85278  Biso   1.000  O
  O44      1.0000 0.08682  0.27321  0.85278  Biso   1.000  O
  C145     1.0000 0.85206  0.73572  0.93266  Biso   1.000  C
  H131     1.0000 0.95548  0.62261  0.91039  Biso   1.000  H
  C146     1.0000 0.85204  0.73578  0.93273  Biso   1.000  C
  H132     1.0000 0.95546  0.62267  0.91046  Biso   1.000  H
  C147     1.0000 0.85213  0.73572  0.93266  Biso   1.000  C
  C148     1.0000 0.85212  0.73571  0.93273  Biso   1.000  C
  H133     1.0000 0.95547  0.62260  0.91046  Biso   1.000  H
  N100     1.0000 0.83758  0.75934  0.02294  Biso   1.000  N
  O45      1.0000 0.91314  0.72685  0.14722  Biso   1.000  O
  N101     1.0000 0.83757  0.75933  0.02300  Biso   1.000  N
  O46      1.0000 0.91314  0.72677  0.14728  Biso   1.000  O
  N102     1.0000 0.83765  0.75934  0.02294  Biso   1.000  N
  O47      1.0000 0.91315  0.72678  0.14722  Biso   1.000  O
  N103     1.0000 0.83764  0.75933  0.02300  Biso   1.000  N
  O48      1.0000 0.91313  0.72684  0.14728  Biso   1.000  O
  C149     1.0000 0.94449  0.81085  0.81605  Biso   1.000  C
  C150     1.0000 0.94450  0.81078  0.81605  Biso   1.000  C
  N104     1.0000 0.83770  0.25072  0.13241  Biso   1.000  N
  N105     1.0000 0.83769  0.25071  0.13248  Biso   1.000  N
  H134     1.0000 0.89231  0.25340  0.24409  Biso   1.000  H
  H135     1.0000 0.88636  0.34654  0.18502  Biso   1.000  H
  H136     1.0000 0.89229  0.25347  0.24416  Biso   1.000  H
  H137     1.0000 0.88637  0.34647  0.18502  Biso   1.000  H
  H138     1.0000 0.89230  0.25340  0.24416  Biso   1.000  H
  C151     1.0000 0.93361  0.36436  0.96073  Biso   1.000  C
  C152     1.0000 0.93360  0.36443  0.96073  Biso   1.000  C
  H139     1.0000 0.80660  0.69712  0.92239  Biso   1.000  H
  N106     1.0000 0.85799  0.81225  0.86545  Biso   1.000  N
  H140     1.0000 0.80659  0.69711  0.92246  Biso   1.000  H
  N107     1.0000 0.85800  0.81218  0.86545  Biso   1.000  N
  C153     1.0000 0.74588  0.79673  0.06561  Biso   1.000  C
  C154     1.0000 0.74589  0.79666  0.06561  Biso   1.000  C
  O49      1.0000 0.96693  0.86547  0.75104  Biso   1.000  O
  O50      1.0000 0.96691  0.86553  0.75111  Biso   1.000  O
  O51      1.0000 0.96692  0.86546  0.75111  Biso   1.000  O
  C155     1.0000 0.79161  0.17805  0.16502  Biso   1.000  C
  C156     1.0000 0.79162  0.17798  0.16502  Biso   1.000  C
  C157     1.0000 0.79625  0.30626  0.05987  Biso   1.000  C
  C158     1.0000 0.79624  0.30625  0.05994  Biso   1.000  C
  C159     1.0000 0.79633  0.30619  0.05987  Biso   1.000  C
  C160     1.0000 0.79632  0.30619  0.05994  Biso   1.000  C
  N108     1.0000 0.85446  0.31457  0.97653  Biso   1.000  N
  H141     1.0000 0.94579  0.38319  0.89739  Biso   1.000  H
  H142     1.0000 0.91806  0.41868  0.99140  Biso   1.000  H
  H143     1.0000 0.94579  0.38318  0.89746  Biso   1.000  H
  H144     1.0000 0.91813  0.41868  0.99140  Biso   1.000  H
  C161     1.0000 0.77730  0.86546  0.83418  Biso   1.000  C
  C162     1.0000 0.77729  0.86545  0.83425  Biso   1.000  C
  C163     1.0000 0.77731  0.86539  0.83418  Biso   1.000  C
  C164     1.0000 0.77730  0.86539  0.83425  Biso   1.000  C
  H145     1.0000 0.74351  0.78314  0.12968  Biso   1.000  H
  H146     1.0000 0.69786  0.76766  0.04660  Biso   1.000  H
  N109     1.0000 0.72614  0.89269  0.04480  Biso   1.000  N
  H147     1.0000 0.74351  0.78307  0.12975  Biso   1.000  H
  H148     1.0000 0.69787  0.76759  0.04660  Biso   1.000  H
  H149     1.0000 0.74352  0.78308  0.12968  Biso   1.000  H
  H150     1.0000 0.74350  0.78314  0.12975  Biso   1.000  H
  N110     1.0000 0.72409  0.17670  0.11308  Biso   1.000  N
  N111     1.0000 0.72408  0.17677  0.11308  Biso   1.000  N
  O52      1.0000 0.80384  0.12706  0.23196  Biso   1.000  O
  O53      1.0000 0.80383  0.12705  0.23202  Biso   1.000  O
  O54      1.0000 0.80392  0.12699  0.23196  Biso   1.000  O
  O55      1.0000 0.80391  0.12699  0.23202  Biso   1.000  O
  C165     1.0000 0.71978  0.25106  0.04347  Biso   1.000  C
  C166     1.0000 0.71977  0.25106  0.04354  Biso   1.000  C
  C167     1.0000 0.71979  0.25100  0.04347  Biso   1.000  C
  C168     1.0000 0.71978  0.25099  0.04354  Biso   1.000  C
  H151     1.0000 0.76869  0.36581  0.07781  Biso   1.000  H
  H152     1.0000 0.76868  0.36588  0.07781  Biso   1.000  H
  C169     1.0000 0.82869  0.26955  0.91532  Biso   1.000  C
  C170     1.0000 0.82868  0.26962  0.91532  Biso   1.000  C
  H153     1.0000 0.79309  0.88786  0.77218  Biso   1.000  H
  H154     1.0000 0.72831  0.82722  0.83732  Biso   1.000  H
  N112     1.0000 0.74208  0.94187  0.88559  Biso   1.000  N
  H155     1.0000 0.79308  0.88785  0.77224  Biso   1.000  H
  N113     1.0000 0.74206  0.94193  0.88565  Biso   1.000  N
  H156     1.0000 0.79310  0.88779  0.77218  Biso   1.000  H
  N114     1.0000 0.74207  0.94187  0.88565  Biso   1.000  N
  C171     1.0000 0.67936  0.93584  0.96840  Biso   1.000  C
  C172     1.0000 0.67935  0.93583  0.96846  Biso   1.000  C
  C173     1.0000 0.67944  0.93577  0.96840  Biso   1.000  C
  C174     1.0000 0.67942  0.93583  0.96846  Biso   1.000  C
  C175     1.0000 0.71962  0.95278  0.10948  Biso   1.000  C
  C176     1.0000 0.71962  0.95270  0.10954  Biso   1.000  C
  C177     1.0000 0.71961  0.95277  0.10954  Biso   1.000  C
  C178     1.0000 0.65831  0.11064  0.12868  Biso   1.000  C
  C179     1.0000 0.65832  0.11057  0.12868  Biso   1.000  C
  N115     1.0000 0.75329  0.22458  0.95280  Biso   1.000  N
  H157     1.0000 0.65789  0.28700  0.04687  Biso   1.000  H
  H158     1.0000 0.65787  0.28707  0.04694  Biso   1.000  H
  H159     1.0000 0.65788  0.28700  0.04694  Biso   1.000  H
  O56      1.0000 0.86313  0.26874  0.83678  Biso   1.000  O
  O57      1.0000 0.86312  0.26881  0.83678  Biso   1.000  O
  C180     1.0000 0.75217  0.02858  0.85472  Biso   1.000  C
  H160     1.0000 0.62407  0.90780  0.96280  Biso   1.000  H
  H161     1.0000 0.62405  0.90786  0.96286  Biso   1.000  H
  H162     1.0000 0.62406  0.90779  0.96286  Biso   1.000  H
  C181     1.0000 0.65379  0.03468  0.98993  Biso   1.000  C
  C182     1.0000 0.65378  0.03474  0.98993  Biso   1.000  C
  O58      1.0000 0.74473  0.93095  0.18289  Biso   1.000  O
  O59      1.0000 0.74474  0.93088  0.18289  Biso   1.000  O
  N116     1.0000 0.68145  0.03498  0.07654  Biso   1.000  N
  N117     1.0000 0.68144  0.03497  0.07661  Biso   1.000  N
  N118     1.0000 0.68146  0.03491  0.07654  Biso   1.000  N
  H163     1.0000 0.59730  0.14136  0.11688  Biso   1.000  H
  H164     1.0000 0.65290  0.08765  0.19122  Biso   1.000  H
  H165     1.0000 0.59729  0.14135  0.11695  Biso   1.000  H
  H166     1.0000 0.59731  0.14129  0.11688  Biso   1.000  H
  H167     1.0000 0.65291  0.08759  0.19122  Biso   1.000  H
  H168     1.0000 0.59730  0.14129  0.11695  Biso   1.000  H
  C183     1.0000 0.69981  0.18111  0.90066  Biso   1.000  C
  C184     1.0000 0.69980  0.18110  0.90072  Biso   1.000  C
  O60      1.0000 0.79284  0.05643  0.78224  Biso   1.000  O
  N119     1.0000 0.71020  0.08496  0.91806  Biso   1.000  N
  O61      1.0000 0.79283  0.05643  0.78231  Biso   1.000  O
  N120     1.0000 0.71019  0.08503  0.91806  Biso   1.000  N
  O62      1.0000 0.79284  0.05636  0.78231  Biso   1.000  O
  H169     1.0000 0.58666  0.05489  0.98980  Biso   1.000  H
  H170     1.0000 0.58673  0.05489  0.98980  Biso   1.000  H
  H171     1.0000 0.58674  0.05482  0.98980  Biso   1.000  H
  H172     1.0000 0.71950  0.19706  0.83778  Biso   1.000  H
  H173     1.0000 0.63406  0.20437  0.91332  Biso   1.000  H
  H174     1.0000 0.71949  0.19705  0.83785  Biso   1.000  H
  H175     1.0000 0.71949  0.19713  0.83778  Biso   1.000  H
  H176     1.0000 0.63413  0.20437  0.91332  Biso   1.000  H
  N121     1.0000 0.28978  0.91503  0.08194  Biso   1.000  N
  C185     1.0000 0.30017  0.81888  0.09934  Biso   1.000  C
  C186     1.0000 0.24781  0.97142  0.14528  Biso   1.000  C
  C187     1.0000 0.34619  0.96524  0.01013  Biso   1.000  C
  C188     1.0000 0.24780  0.97141  0.14535  Biso   1.000  C
  C189     1.0000 0.34619  0.96532  0.01007  Biso   1.000  C
  C190     1.0000 0.34620  0.96525  0.01007  Biso   1.000  C
  N122     1.0000 0.24669  0.77541  0.04720  Biso   1.000  N
  N123     1.0000 0.24668  0.77540  0.04727  Biso   1.000  N
  N124     1.0000 0.24675  0.77541  0.04720  Biso   1.000  N
  N125     1.0000 0.24675  0.77540  0.04727  Biso   1.000  N
  H177     1.0000 0.28048  0.80293  0.16222  Biso   1.000  H
  H178     1.0000 0.36591  0.79562  0.08668  Biso   1.000  H
  H179     1.0000 0.36591  0.79561  0.08674  Biso   1.000  H
  H180     1.0000 0.28049  0.80286  0.16222  Biso   1.000  H
  N126     1.0000 0.28978  0.91495  0.08201  Biso   1.000  N
  N127     1.0000 0.28984  0.91503  0.08194  Biso   1.000  N
  N128     1.0000 0.28983  0.91502  0.08201  Biso   1.000  N
  O63      1.0000 0.20714  0.94356  0.21776  Biso   1.000  O
  N129     1.0000 0.25789  0.05819  0.11441  Biso   1.000  N
  N130     1.0000 0.25797  0.05812  0.11441  Biso   1.000  N
  N131     1.0000 0.25796  0.05819  0.11441  Biso   1.000  N
  N132     1.0000 0.31852  0.96508  0.92346  Biso   1.000  N
  N133     1.0000 0.31851  0.96515  0.92346  Biso   1.000  N
  H181     1.0000 0.41332  0.94510  0.01020  Biso   1.000  H
  C191     1.0000 0.32061  0.06422  0.03160  Biso   1.000  C
  C192     1.0000 0.32060  0.06429  0.03160  Biso   1.000  C
  C193     1.0000 0.17129  0.73044  0.08468  Biso   1.000  C
  C194     1.0000 0.17129  0.73037  0.08474  Biso   1.000  C
  C195     1.0000 0.17130  0.73038  0.08468  Biso   1.000  C
  C196     1.0000 0.17128  0.73044  0.08474  Biso   1.000  C
  C197     1.0000 0.28019  0.74900  0.95653  Biso   1.000  C
  C198     1.0000 0.28018  0.74906  0.95653  Biso   1.000  C
  C199     1.0000 0.22266  0.13460  0.16582  Biso   1.000  C
  C200     1.0000 0.22265  0.13466  0.16582  Biso   1.000  C
  C201     1.0000 0.34166  0.88942  0.87132  Biso   1.000  C
  C202     1.0000 0.34164  0.88948  0.87139  Biso   1.000  C
  C203     1.0000 0.34173  0.88942  0.87132  Biso   1.000  C
  C204     1.0000 0.34172  0.88941  0.87139  Biso   1.000  C
  C205     1.0000 0.28036  0.04722  0.89052  Biso   1.000  C
  C206     1.0000 0.28043  0.04722  0.89052  Biso   1.000  C
  N134     1.0000 0.27384  0.10730  0.95520  Biso   1.000  N
  N135     1.0000 0.27383  0.10729  0.95526  Biso   1.000  N
  N136     1.0000 0.27384  0.10723  0.95526  Biso   1.000  N
  H182     1.0000 0.37590  0.09226  0.03720  Biso   1.000  H
  H183     1.0000 0.37591  0.09219  0.03720  Biso   1.000  H
  N137     1.0000 0.14552  0.68542  0.02347  Biso   1.000  N
  N138     1.0000 0.14551  0.68541  0.02354  Biso   1.000  N
  O64      1.0000 0.13684  0.73125  0.16322  Biso   1.000  O
  O65      1.0000 0.13685  0.73117  0.16328  Biso   1.000  O
  O66      1.0000 0.13685  0.73118  0.16322  Biso   1.000  O
  O67      1.0000 0.13684  0.73124  0.16328  Biso   1.000  O
  C207     1.0000 0.20371  0.69380  0.94013  Biso   1.000  C
  C208     1.0000 0.20370  0.69386  0.94013  Biso   1.000  C
  H184     1.0000 0.34208  0.71305  0.95313  Biso   1.000  H
  N139     1.0000 0.27588  0.82336  0.88692  Biso   1.000  N
  N140     1.0000 0.27587  0.82335  0.88699  Biso   1.000  N
  H185     1.0000 0.34209  0.71299  0.95313  Biso   1.000  H
  N141     1.0000 0.27596  0.82329  0.88692  Biso   1.000  N
  N142     1.0000 0.27594  0.82335  0.88699  Biso   1.000  N
  H186     1.0000 0.20688  0.11220  0.22782  Biso   1.000  H
  H187     1.0000 0.27165  0.17283  0.16268  Biso   1.000  H
  N143     1.0000 0.14198  0.18781  0.13455  Biso   1.000  N
  H188     1.0000 0.20687  0.11227  0.22782  Biso   1.000  H
  H189     1.0000 0.27165  0.17283  0.16275  Biso   1.000  H
  N144     1.0000 0.14196  0.18787  0.13461  Biso   1.000  N
  H190     1.0000 0.27172  0.17283  0.16268  Biso   1.000  H
  H191     1.0000 0.27171  0.17283  0.16275  Biso   1.000  H
  N145     1.0000 0.14197  0.18780  0.13461  Biso   1.000  N
  H192     1.0000 0.40267  0.85870  0.88312  Biso   1.000  H
  H193     1.0000 0.34707  0.91241  0.80878  Biso   1.000  H
  H194     1.0000 0.40266  0.85877  0.88312  Biso   1.000  H
  H195     1.0000 0.34705  0.91247  0.80885  Biso   1.000  H
  H196     1.0000 0.34714  0.91241  0.80878  Biso   1.000  H
  H197     1.0000 0.34713  0.91240  0.80885  Biso   1.000  H
  O68      1.0000 0.25524  0.06904  0.81711  Biso   1.000  O
  O69      1.0000 0.25523  0.06904  0.81718  Biso   1.000  O
  C209     1.0000 0.25410  0.20326  0.93439  Biso   1.000  C
  C210     1.0000 0.25409  0.20325  0.93446  Biso   1.000  C
  C211     1.0000 0.25409  0.20333  0.93439  Biso   1.000  C
  C212     1.0000 0.06637  0.63563  0.03927  Biso   1.000  C
  C213     1.0000 0.06637  0.63556  0.03934  Biso   1.000  C
  C214     1.0000 0.06636  0.63562  0.03934  Biso   1.000  C
  H198     1.0000 0.23128  0.63425  0.92219  Biso   1.000  H
  N146     1.0000 0.16227  0.74934  0.86759  Biso   1.000  N
  H199     1.0000 0.23127  0.63424  0.92226  Biso   1.000  H
  H200     1.0000 0.23129  0.63418  0.92219  Biso   1.000  H
  C215     1.0000 0.20836  0.82201  0.83498  Biso   1.000  C
  C216     1.0000 0.20834  0.82207  0.83505  Biso   1.000  C
  C217     1.0000 0.20843  0.82201  0.83498  Biso   1.000  C
  C218     1.0000 0.20842  0.82201  0.83505  Biso   1.000  C
  C219     1.0000 0.05548  0.18921  0.18395  Biso   1.000  C
  C220     1.0000 0.14791  0.26434  0.06734  Biso   1.000  C
  C221     1.0000 0.05546  0.18927  0.18402  Biso   1.000  C
  C222     1.0000 0.14792  0.26428  0.06734  Biso   1.000  C
  C223     1.0000 0.05547  0.18920  0.18402  Biso   1.000  C
  H201     1.0000 0.25647  0.21685  0.87032  Biso   1.000  H
  H202     1.0000 0.30212  0.23233  0.95340  Biso   1.000  H
  N147     1.0000 0.16240  0.24065  0.97706  Biso   1.000  N
  H203     1.0000 0.25646  0.21692  0.87032  Biso   1.000  H
  H204     1.0000 0.30210  0.23239  0.95346  Biso   1.000  H
  H205     1.0000 0.25653  0.21692  0.87032  Biso   1.000  H
  H206     1.0000 0.30211  0.23240  0.95340  Biso   1.000  H
  H207     1.0000 0.25654  0.21685  0.87032  Biso   1.000  H
  H208     1.0000 0.30211  0.23233  0.95346  Biso   1.000  H
  H209     1.0000 0.05418  0.61680  0.10261  Biso   1.000  H
  H210     1.0000 0.08191  0.58131  0.00860  Biso   1.000  H
  N148     1.0000 0.98245  0.68619  0.01020  Biso   1.000  N
  N149     1.0000 0.98245  0.68611  0.01027  Biso   1.000  N
  N150     1.0000 0.98246  0.68612  0.01020  Biso   1.000  N
  N151     1.0000 0.98244  0.68618  0.01027  Biso   1.000  N
  C224     1.0000 0.09828  0.71846  0.81671  Biso   1.000  C
  C225     1.0000 0.09829  0.71839  0.81671  Biso   1.000  C
  O70      1.0000 0.19613  0.87300  0.76804  Biso   1.000  O
  O71      1.0000 0.19612  0.87307  0.76804  Biso   1.000  O
  N152     1.0000 0.99811  0.26218  0.14855  Biso   1.000  N
  N153     1.0000 0.99810  0.26217  0.14862  Biso   1.000  N
  N154     1.0000 0.99812  0.26211  0.14855  Biso   1.000  N
  O72      1.0000 0.03304  0.13459  0.24896  Biso   1.000  O
  O73      1.0000 0.03312  0.13452  0.24896  Biso   1.000  O
  H211     1.0000 0.19336  0.30294  0.07761  Biso   1.000  H
  C226     1.0000 0.04568  0.31526  0.07567  Biso   1.000  C
  H212     1.0000 0.19337  0.30287  0.07761  Biso   1.000  H
  C227     1.0000 0.04569  0.31519  0.07567  Biso   1.000  C
  C228     1.0000 0.09099  0.27455  0.93073  Biso   1.000  C
  C229     1.0000 0.95429  0.68480  0.92433  Biso   1.000  C
  C230     1.0000 0.95427  0.68486  0.92439  Biso   1.000  C
  C231     1.0000 0.95428  0.68479  0.92439  Biso   1.000  C
  C232     1.0000 0.90899  0.72544  0.06927  Biso   1.000  C
  C233     1.0000 0.90898  0.72544  0.06934  Biso   1.000  C
  N155     1.0000 0.00186  0.73788  0.85145  Biso   1.000  N
  N156     1.0000 0.00185  0.73795  0.85145  Biso   1.000  N
  N157     1.0000 0.00193  0.73788  0.85145  Biso   1.000  N
  H213     1.0000 0.10766  0.74665  0.75591  Biso   1.000  H
  H214     1.0000 0.11360  0.65352  0.81498  Biso   1.000  H
  H215     1.0000 0.11359  0.65352  0.81505  Biso   1.000  H
  H216     1.0000 0.10767  0.74659  0.75591  Biso   1.000  H
  C234     1.0000 0.90169  0.28160  0.18329  Biso   1.000  C
  C235     1.0000 0.90167  0.28166  0.18335  Biso   1.000  C
  C236     1.0000 0.90168  0.28159  0.18335  Biso   1.000  C
  N158     1.0000 0.01753  0.31380  0.98980  Biso   1.000  N
  N159     1.0000 0.01752  0.31387  0.98980  Biso   1.000  N
  H217     1.0000 0.04449  0.37745  0.08961  Biso   1.000  H
  H218     1.0000 0.04450  0.37738  0.08961  Biso   1.000  H
  O74      1.0000 0.08683  0.27314  0.85278  Biso   1.000  O
  O75      1.0000 0.08682  0.27321  0.85278  Biso   1.000  O
  C237     1.0000 0.85206  0.73572  0.93266  Biso   1.000  C
  H219     1.0000 0.95548  0.62261  0.91039  Biso   1.000  H
  C238     1.0000 0.85204  0.73578  0.93273  Biso   1.000  C
  H220     1.0000 0.95546  0.62267  0.91046  Biso   1.000  H
  C239     1.0000 0.85213  0.73572  0.93266  Biso   1.000  C
  C240     1.0000 0.85212  0.73571  0.93273  Biso   1.000  C
  H221     1.0000 0.95547  0.62260  0.91046  Biso   1.000  H
  N160     1.0000 0.83758  0.75934  0.02294  Biso   1.000  N
  O76      1.0000 0.91314  0.72685  0.14722  Biso   1.000  O
  N161     1.0000 0.83757  0.75933  0.02300  Biso   1.000  N
  O77      1.0000 0.91314  0.72677  0.14728  Biso   1.000  O
  N162     1.0000 0.83765  0.75934  0.02294  Biso   1.000  N
  O78      1.0000 0.91315  0.72678  0.14722  Biso   1.000  O
  N163     1.0000 0.83764  0.75933  0.02300  Biso   1.000  N
  O79      1.0000 0.91313  0.72684  0.14728  Biso   1.000  O
  C241     1.0000 0.94449  0.81085  0.81605  Biso   1.000  C
  C242     1.0000 0.94450  0.81078  0.81605  Biso   1.000  C
  N164     1.0000 0.83770  0.25072  0.13241  Biso   1.000  N
  N165     1.0000 0.83769  0.25071  0.13248  Biso   1.000  N
  H222     1.0000 0.89231  0.25340  0.24409  Biso   1.000  H
  H223     1.0000 0.88636  0.34654  0.18502  Biso   1.000  H
  H224     1.0000 0.89229  0.25347  0.24416  Biso   1.000  H
  H225     1.0000 0.88637  0.34647  0.18502  Biso   1.000  H
  H226     1.0000 0.89230  0.25340  0.24416  Biso   1.000  H
  C243     1.0000 0.93361  0.36436  0.96073  Biso   1.000  C
  C244     1.0000 0.93360  0.36443  0.96073  Biso   1.000  C
  H227     1.0000 0.80660  0.69712  0.92239  Biso   1.000  H
  N166     1.0000 0.85799  0.81225  0.86545  Biso   1.000  N
  H228     1.0000 0.80659  0.69711  0.92246  Biso   1.000  H
  N167     1.0000 0.85800  0.81218  0.86545  Biso   1.000  N
  C245     1.0000 0.74588  0.79673  0.06561  Biso   1.000  C
  C246     1.0000 0.74589  0.79666  0.06561  Biso   1.000  C
  O80      1.0000 0.96693  0.86547  0.75104  Biso   1.000  O
  O81      1.0000 0.96691  0.86553  0.75111  Biso   1.000  O
  O82      1.0000 0.96692  0.86546  0.75111  Biso   1.000  O
  C247     1.0000 0.79161  0.17805  0.16502  Biso   1.000  C
  C248     1.0000 0.79162  0.17798  0.16502  Biso   1.000  C
  C249     1.0000 0.79625  0.30626  0.05987  Biso   1.000  C
  C250     1.0000 0.79624  0.30625  0.05994  Biso   1.000  C
  C251     1.0000 0.79633  0.30619  0.05987  Biso   1.000  C
  C252     1.0000 0.79632  0.30619  0.05994  Biso   1.000  C
  N168     1.0000 0.85446  0.31457  0.97653  Biso   1.000  N
  H229     1.0000 0.94579  0.38319  0.89739  Biso   1.000  H
  H230     1.0000 0.91806  0.41868  0.99140  Biso   1.000  H
  H231     1.0000 0.94579  0.38318  0.89746  Biso   1.000  H
  H232     1.0000 0.91813  0.41868  0.99140  Biso   1.000  H
  C253     1.0000 0.77730  0.86546  0.83418  Biso   1.000  C
  C254     1.0000 0.77729  0.86545  0.83425  Biso   1.000  C
  C255     1.0000 0.77731  0.86539  0.83418  Biso   1.000  C
  C256     1.0000 0.77730  0.86539  0.83425  Biso   1.000  C
  H233     1.0000 0.74351  0.78314  0.12968  Biso   1.000  H
  H234     1.0000 0.69786  0.76766  0.04660  Biso   1.000  H
  N169     1.0000 0.72614  0.89269  0.04480  Biso   1.000  N
  H235     1.0000 0.74351  0.78307  0.12975  Biso   1.000  H
  H236     1.0000 0.69787  0.76759  0.04660  Biso   1.000  H
  H237     1.0000 0.74352  0.78308  0.12968  Biso   1.000  H
  H238     1.0000 0.74350  0.78314  0.12975  Biso   1.000  H
  N170     1.0000 0.72409  0.17670  0.11308  Biso   1.000  N
  N171     1.0000 0.72408  0.17677  0.11308  Biso   1.000  N
  O83      1.0000 0.80384  0.12706  0.23196  Biso   1.000  O
  O84      1.0000 0.80383  0.12705  0.23202  Biso   1.000  O
  O85      1.0000 0.80392  0.12699  0.23196  Biso   1.000  O
  O86      1.0000 0.80391  0.12699  0.23202  Biso   1.000  O
  C257     1.0000 0.71978  0.25106  0.04347  Biso   1.000  C
  C258     1.0000 0.71977  0.25106  0.04354  Biso   1.000  C
  C259     1.0000 0.71979  0.25100  0.04347  Biso   1.000  C
  C260     1.0000 0.71978  0.25099  0.04354  Biso   1.000  C
  H239     1.0000 0.76869  0.36581  0.07781  Biso   1.000  H
  H240     1.0000 0.76868  0.36588  0.07781  Biso   1.000  H
  C261     1.0000 0.82869  0.26955  0.91532  Biso   1.000  C
  C262     1.0000 0.82868  0.26962  0.91532  Biso   1.000  C
  H241     1.0000 0.79309  0.88786  0.77218  Biso   1.000  H
  H242     1.0000 0.72831  0.82722  0.83732  Biso   1.000  H
  N172     1.0000 0.74208  0.94187  0.88559  Biso   1.000  N
  H243     1.0000 0.79308  0.88785  0.77224  Biso   1.000  H
  N173     1.0000 0.74206  0.94193  0.88565  Biso   1.000  N
  H244     1.0000 0.79310  0.88779  0.77218  Biso   1.000  H
  N174     1.0000 0.74207  0.94187  0.88565  Biso   1.000  N
  C263     1.0000 0.67936  0.93584  0.96840  Biso   1.000  C
  C264     1.0000 0.67935  0.93583  0.96846  Biso   1.000  C
  C265     1.0000 0.67944  0.93577  0.96840  Biso   1.000  C
  C266     1.0000 0.67942  0.93583  0.96846  Biso   1.000  C
  C267     1.0000 0.71962  0.95278  0.10948  Biso   1.000  C
  C268     1.0000 0.71962  0.95270  0.10954  Biso   1.000  C
  C269     1.0000 0.71961  0.95277  0.10954  Biso   1.000  C
  C270     1.0000 0.65831  0.11064  0.12868  Biso   1.000  C
  C271     1.0000 0.65832  0.11057  0.12868  Biso   1.000  C
  N175     1.0000 0.75329  0.22458  0.95280  Biso   1.000  N
  H245     1.0000 0.65789  0.28700  0.04687  Biso   1.000  H
  H246     1.0000 0.65787  0.28707  0.04694  Biso   1.000  H
  H247     1.0000 0.65788  0.28700  0.04694  Biso   1.000  H
  O87      1.0000 0.86313  0.26874  0.83678  Biso   1.000  O
  O88      1.0000 0.86312  0.26881  0.83678  Biso   1.000  O
  C272     1.0000 0.75217  0.02858  0.85472  Biso   1.000  C
  H248     1.0000 0.62407  0.90780  0.96280  Biso   1.000  H
  H249     1.0000 0.62405  0.90786  0.96286  Biso   1.000  H
  H250     1.0000 0.62406  0.90779  0.96286  Biso   1.000  H
  C273     1.0000 0.65379  0.03468  0.98993  Biso   1.000  C
  C274     1.0000 0.65378  0.03474  0.98993  Biso   1.000  C
  O89      1.0000 0.74473  0.93095  0.18289  Biso   1.000  O
  O90      1.0000 0.74474  0.93088  0.18289  Biso   1.000  O
  N176     1.0000 0.68145  0.03498  0.07654  Biso   1.000  N
  N177     1.0000 0.68144  0.03497  0.07661  Biso   1.000  N
  N178     1.0000 0.68146  0.03491  0.07654  Biso   1.000  N
  H251     1.0000 0.59730  0.14136  0.11688  Biso   1.000  H
  H252     1.0000 0.65290  0.08765  0.19122  Biso   1.000  H
  H253     1.0000 0.59729  0.14135  0.11695  Biso   1.000  H
  H254     1.0000 0.59731  0.14129  0.11688  Biso   1.000  H
  H255     1.0000 0.65291  0.08759  0.19122  Biso   1.000  H
  H256     1.0000 0.59730  0.14129  0.11695  Biso   1.000  H
  C275     1.0000 0.69981  0.18111  0.90066  Biso   1.000  C
  C276     1.0000 0.69980  0.18110  0.90072  Biso   1.000  C
  O91      1.0000 0.79284  0.05643  0.78224  Biso   1.000  O
  N179     1.0000 0.71020  0.08496  0.91806  Biso   1.000  N
  O92      1.0000 0.79283  0.05643  0.78231  Biso   1.000  O
  N180     1.0000 0.71019  0.08503  0.91806  Biso   1.000  N
  O93      1.0000 0.79284  0.05636  0.78231  Biso   1.000  O
  H257     1.0000 0.58666  0.05489  0.98980  Biso   1.000  H
  H258     1.0000 0.58673  0.05489  0.98980  Biso   1.000  H
  H259     1.0000 0.58674  0.05482  0.98980  Biso   1.000  H
  H260     1.0000 0.71950  0.19706  0.83778  Biso   1.000  H
  H261     1.0000 0.63406  0.20437  0.91332  Biso   1.000  H
  H262     1.0000 0.71949  0.19705  0.83785  Biso   1.000  H
  H263     1.0000 0.71949  0.19713  0.83778  Biso   1.000  H
  H264     1.0000 0.63413  0.20437  0.91332  Biso   1.000  H
  N181     1.0000 0.28978  0.91503  0.08194  Biso   1.000  N
  C277     1.0000 0.30017  0.81888  0.09934  Biso   1.000  C
  C278     1.0000 0.24781  0.97142  0.14528  Biso   1.000  C
  C279     1.0000 0.34619  0.96524  0.01013  Biso   1.000  C
  C280     1.0000 0.24780  0.97141  0.14535  Biso   1.000  C
  C281     1.0000 0.34619  0.96532  0.01007  Biso   1.000  C
  C282     1.0000 0.34620  0.96525  0.01007  Biso   1.000  C
  N182     1.0000 0.24669  0.77541  0.04720  Biso   1.000  N
  N183     1.0000 0.24668  0.77540  0.04727  Biso   1.000  N
  N184     1.0000 0.24675  0.77541  0.04720  Biso   1.000  N
  N185     1.0000 0.24675  0.77540  0.04727  Biso   1.000  N
  H265     1.0000 0.28048  0.80293  0.16222  Biso   1.000  H
  H266     1.0000 0.36591  0.79562  0.08668  Biso   1.000  H
  H267     1.0000 0.36591  0.79561  0.08674  Biso   1.000  H
  H268     1.0000 0.28049  0.80286  0.16222  Biso   1.000  H
  N186     1.0000 0.28978  0.91495  0.08201  Biso   1.000  N
  N187     1.0000 0.28984  0.91503  0.08194  Biso   1.000  N
  N188     1.0000 0.28983  0.91502  0.08201  Biso   1.000  N
  O94      1.0000 0.20714  0.94356  0.21776  Biso   1.000  O
  N189     1.0000 0.25789  0.05819  0.11441  Biso   1.000  N
  N190     1.0000 0.25797  0.05812  0.11441  Biso   1.000  N
  N191     1.0000 0.25796  0.05819  0.11441  Biso   1.000  N
  N192     1.0000 0.31852  0.96508  0.92346  Biso   1.000  N
  N193     1.0000 0.31851  0.96515  0.92346  Biso   1.000  N
  H269     1.0000 0.41332  0.94510  0.01020  Biso   1.000  H
  C283     1.0000 0.32061  0.06422  0.03160  Biso   1.000  C
  C284     1.0000 0.32060  0.06429  0.03160  Biso   1.000  C
  C285     1.0000 0.17129  0.73044  0.08468  Biso   1.000  C
  C286     1.0000 0.17129  0.73037  0.08474  Biso   1.000  C
  C287     1.0000 0.17130  0.73038  0.08468  Biso   1.000  C
  C288     1.0000 0.17128  0.73044  0.08474  Biso   1.000  C
  C289     1.0000 0.28019  0.74900  0.95653  Biso   1.000  C
  C290     1.0000 0.28018  0.74906  0.95653  Biso   1.000  C
  C291     1.0000 0.22266  0.13460  0.16582  Biso   1.000  C
  C292     1.0000 0.22265  0.13466  0.16582  Biso   1.000  C
  C293     1.0000 0.34166  0.88942  0.87132  Biso   1.000  C
  C294     1.0000 0.34164  0.88948  0.87139  Biso   1.000  C
  C295     1.0000 0.34173  0.88942  0.87132  Biso   1.000  C
  C296     1.0000 0.34172  0.88941  0.87139  Biso   1.000  C
  C297     1.0000 0.28036  0.04722  0.89052  Biso   1.000  C
  C298     1.0000 0.28043  0.04722  0.89052  Biso   1.000  C
  N194     1.0000 0.27384  0.10730  0.95520  Biso   1.000  N
  N195     1.0000 0.27383  0.10729  0.95526  Biso   1.000  N
  N196     1.0000 0.27384  0.10723  0.95526  Biso   1.000  N
  H270     1.0000 0.37590  0.09226  0.03720  Biso   1.000  H
  H271     1.0000 0.37591  0.09219  0.03720  Biso   1.000  H
  N197     1.0000 0.14552  0.68542  0.02347  Biso   1.000  N
  N198     1.0000 0.14551  0.68541  0.02354  Biso   1.000  N
  O95      1.0000 0.13684  0.73125  0.16322  Biso   1.000  O
  O96      1.0000 0.13685  0.73117  0.16328  Biso   1.000  O
  O97      1.0000 0.13685  0.73118  0.16322  Biso   1.000  O
  O98      1.0000 0.13684  0.73124  0.16328  Biso   1.000  O
  C299     1.0000 0.20371  0.69380  0.94013  Biso   1.000  C
  C300     1.0000 0.20370  0.69386  0.94013  Biso   1.000  C
  H272     1.0000 0.34208  0.71305  0.95313  Biso   1.000  H
  N199     1.0000 0.27588  0.82336  0.88692  Biso   1.000  N
  N200     1.0000 0.27587  0.82335  0.88699  Biso   1.000  N
  H273     1.0000 0.34209  0.71299  0.95313  Biso   1.000  H
  N201     1.0000 0.27596  0.82329  0.88692  Biso   1.000  N
  N202     1.0000 0.27594  0.82335  0.88699  Biso   1.000  N
  H274     1.0000 0.20688  0.11220  0.22782  Biso   1.000  H
  H275     1.0000 0.27165  0.17283  0.16268  Biso   1.000  H
  N203     1.0000 0.14198  0.18781  0.13455  Biso   1.000  N
  H276     1.0000 0.20687  0.11227  0.22782  Biso   1.000  H
  H277     1.0000 0.27165  0.17283  0.16275  Biso   1.000  H
  N204     1.0000 0.14196  0.18787  0.13461  Biso   1.000  N
  H278     1.0000 0.27172  0.17283  0.16268  Biso   1.000  H
  H279     1.0000 0.27171  0.17283  0.16275  Biso   1.000  H
  N205     1.0000 0.14197  0.18780  0.13461  Biso   1.000  N
  H280     1.0000 0.40267  0.85870  0.88312  Biso   1.000  H
  H281     1.0000 0.34707  0.91241  0.80878  Biso   1.000  H
  H282     1.0000 0.40266  0.85877  0.88312  Biso   1.000  H
  H283     1.0000 0.34705  0.91247  0.80885  Biso   1.000  H
  H284     1.0000 0.34714  0.91241  0.80878  Biso   1.000  H
  H285     1.0000 0.34713  0.91240  0.80885  Biso   1.000  H
  O99      1.0000 0.25524  0.06904  0.81711  Biso   1.000  O
  O100     1.0000 0.25523  0.06904  0.81718  Biso   1.000  O
  C301     1.0000 0.25410  0.20326  0.93439  Biso   1.000  C
  C302     1.0000 0.25409  0.20325  0.93446  Biso   1.000  C
  C303     1.0000 0.25409  0.20333  0.93439  Biso   1.000  C
  C304     1.0000 0.06637  0.63563  0.03927  Biso   1.000  C
  C305     1.0000 0.06637  0.63556  0.03934  Biso   1.000  C
  C306     1.0000 0.06636  0.63562  0.03934  Biso   1.000  C
  H286     1.0000 0.23128  0.63425  0.92219  Biso   1.000  H
  N206     1.0000 0.16227  0.74934  0.86759  Biso   1.000  N
  H287     1.0000 0.23127  0.63424  0.92226  Biso   1.000  H
  H288     1.0000 0.23129  0.63418  0.92219  Biso   1.000  H
  C307     1.0000 0.20836  0.82201  0.83498  Biso   1.000  C
  C308     1.0000 0.20834  0.82207  0.83505  Biso   1.000  C
  C309     1.0000 0.20843  0.82201  0.83498  Biso   1.000  C
  C310     1.0000 0.20842  0.82201  0.83505  Biso   1.000  C
  C311     1.0000 0.05548  0.18921  0.18395  Biso   1.000  C
  C312     1.0000 0.14791  0.26434  0.06734  Biso   1.000  C
  C313     1.0000 0.05546  0.18927  0.18402  Biso   1.000  C
  C314     1.0000 0.14792  0.26428  0.06734  Biso   1.000  C
  C315     1.0000 0.05547  0.18920  0.18402  Biso   1.000  C
  H289     1.0000 0.25647  0.21685  0.87032  Biso   1.000  H
  H290     1.0000 0.30212  0.23233  0.95340  Biso   1.000  H
  N207     1.0000 0.16240  0.24065  0.97706  Biso   1.000  N
  H291     1.0000 0.25646  0.21692  0.87032  Biso   1.000  H
  H292     1.0000 0.30210  0.23239  0.95346  Biso   1.000  H
  H293     1.0000 0.25653  0.21692  0.87032  Biso   1.000  H
  H294     1.0000 0.30211  0.23240  0.95340  Biso   1.000  H
  H295     1.0000 0.25654  0.21685  0.87032  Biso   1.000  H
  H296     1.0000 0.30211  0.23233  0.95346  Biso   1.000  H
  H297     1.0000 0.05418  0.61680  0.10261  Biso   1.000  H
  H298     1.0000 0.08191  0.58131  0.00860  Biso   1.000  H
  N208     1.0000 0.98245  0.68619  0.01020  Biso   1.000  N
  N209     1.0000 0.98245  0.68611  0.01027  Biso   1.000  N
  N210     1.0000 0.98246  0.68612  0.01020  Biso   1.000  N
  N211     1.0000 0.98244  0.68618  0.01027  Biso   1.000  N
  C316     1.0000 0.09828  0.71846  0.81671  Biso   1.000  C
  C317     1.0000 0.09829  0.71839  0.81671  Biso   1.000  C
  O101     1.0000 0.19613  0.87300  0.76804  Biso   1.000  O
  O102     1.0000 0.19612  0.87307  0.76804  Biso   1.000  O
  N212     1.0000 0.99811  0.26218  0.14855  Biso   1.000  N
  N213     1.0000 0.99810  0.26217  0.14862  Biso   1.000  N
  N214     1.0000 0.99812  0.26211  0.14855  Biso   1.000  N
  O103     1.0000 0.03304  0.13459  0.24896  Biso   1.000  O
  O104     1.0000 0.03312  0.13452  0.24896  Biso   1.000  O
  H299     1.0000 0.19336  0.30294  0.07761  Biso   1.000  H
  C318     1.0000 0.04568  0.31526  0.07567  Biso   1.000  C
  H300     1.0000 0.19337  0.30287  0.07761  Biso   1.000  H
  C319     1.0000 0.04569  0.31519  0.07567  Biso   1.000  C
  C320     1.0000 0.09099  0.27455  0.93073  Biso   1.000  C
  C321     1.0000 0.95429  0.68480  0.92433  Biso   1.000  C
  C322     1.0000 0.95427  0.68486  0.92439  Biso   1.000  C
  C323     1.0000 0.95428  0.68479  0.92439  Biso   1.000  C
  C324     1.0000 0.90899  0.72544  0.06927  Biso   1.000  C
  C325     1.0000 0.90898  0.72544  0.06934  Biso   1.000  C
  N215     1.0000 0.00186  0.73788  0.85145  Biso   1.000  N
  N216     1.0000 0.00185  0.73795  0.85145  Biso   1.000  N
  N217     1.0000 0.00193  0.73788  0.85145  Biso   1.000  N
  H301     1.0000 0.10766  0.74665  0.75591  Biso   1.000  H
  H302     1.0000 0.11360  0.65352  0.81498  Biso   1.000  H
  H303     1.0000 0.11359  0.65352  0.81505  Biso   1.000  H
  H304     1.0000 0.10767  0.74659  0.75591  Biso   1.000  H
  C326     1.0000 0.90169  0.28160  0.18329  Biso   1.000  C
  C327     1.0000 0.90167  0.28166  0.18335  Biso   1.000  C
  C328     1.0000 0.90168  0.28159  0.18335  Biso   1.000  C
  N218     1.0000 0.01753  0.31380  0.98980  Biso   1.000  N
  N219     1.0000 0.01752  0.31387  0.98980  Biso   1.000  N
  H305     1.0000 0.04449  0.37745  0.08961  Biso   1.000  H
  H306     1.0000 0.04450  0.37738  0.08961  Biso   1.000  H
  O105     1.0000 0.08683  0.27314  0.85278  Biso   1.000  O
  O106     1.0000 0.08682  0.27321  0.85278  Biso   1.000  O
  C329     1.0000 0.85206  0.73572  0.93266  Biso   1.000  C
  H307     1.0000 0.95548  0.62261  0.91039  Biso   1.000  H
  C330     1.0000 0.85204  0.73578  0.93273  Biso   1.000  C
  H308     1.0000 0.95546  0.62267  0.91046  Biso   1.000  H
  C331     1.0000 0.85213  0.73572  0.93266  Biso   1.000  C
  C332     1.0000 0.85212  0.73571  0.93273  Biso   1.000  C
  H309     1.0000 0.95547  0.62260  0.91046  Biso   1.000  H
  N220     1.0000 0.83758  0.75934  0.02294  Biso   1.000  N
  O107     1.0000 0.91314  0.72685  0.14722  Biso   1.000  O
  N221     1.0000 0.83757  0.75933  0.02300  Biso   1.000  N
  O108     1.0000 0.91314  0.72677  0.14728  Biso   1.000  O
  N222     1.0000 0.83765  0.75934  0.02294  Biso   1.000  N
  O109     1.0000 0.91315  0.72678  0.14722  Biso   1.000  O
  N223     1.0000 0.83764  0.75933  0.02300  Biso   1.000  N
  O110     1.0000 0.91313  0.72684  0.14728  Biso   1.000  O
  C333     1.0000 0.94449  0.81085  0.81605  Biso   1.000  C
  C334     1.0000 0.94450  0.81078  0.81605  Biso   1.000  C
  N224     1.0000 0.83770  0.25072  0.13241  Biso   1.000  N
  N225     1.0000 0.83769  0.25071  0.13248  Biso   1.000  N
  H310     1.0000 0.89231  0.25340  0.24409  Biso   1.000  H
  H311     1.0000 0.88636  0.34654  0.18502  Biso   1.000  H
  H312     1.0000 0.89229  0.25347  0.24416  Biso   1.000  H
  H313     1.0000 0.88637  0.34647  0.18502  Biso   1.000  H
  H314     1.0000 0.89230  0.25340  0.24416  Biso   1.000  H
  C335     1.0000 0.93361  0.36436  0.96073  Biso   1.000  C
  C336     1.0000 0.93360  0.36443  0.96073  Biso   1.000  C
  H315     1.0000 0.80660  0.69712  0.92239  Biso   1.000  H
  N226     1.0000 0.85799  0.81225  0.86545  Biso   1.000  N
  H316     1.0000 0.80659  0.69711  0.92246  Biso   1.000  H
  N227     1.0000 0.85800  0.81218  0.86545  Biso   1.000  N
  C337     1.0000 0.74588  0.79673  0.06561  Biso   1.000  C
  C338     1.0000 0.74589  0.79666  0.06561  Biso   1.000  C
  O111     1.0000 0.96693  0.86547  0.75104  Biso   1.000  O
  O112     1.0000 0.96691  0.86553  0.75111  Biso   1.000  O
  O113     1.0000 0.96692  0.86546  0.75111  Biso   1.000  O
  C339     1.0000 0.79161  0.17805  0.16502  Biso   1.000  C
  C340     1.0000 0.79162  0.17798  0.16502  Biso   1.000  C
  C341     1.0000 0.79625  0.30626  0.05987  Biso   1.000  C
  C342     1.0000 0.79624  0.30625  0.05994  Biso   1.000  C
  C343     1.0000 0.79633  0.30619  0.05987  Biso   1.000  C
  C344     1.0000 0.79632  0.30619  0.05994  Biso   1.000  C
  N228     1.0000 0.85446  0.31457  0.97653  Biso   1.000  N
  H317     1.0000 0.94579  0.38319  0.89739  Biso   1.000  H
  H318     1.0000 0.91806  0.41868  0.99140  Biso   1.000  H
  H319     1.0000 0.94579  0.38318  0.89746  Biso   1.000  H
  H320     1.0000 0.91813  0.41868  0.99140  Biso   1.000  H
  C345     1.0000 0.77730  0.86546  0.83418  Biso   1.000  C
  C346     1.0000 0.77729  0.86545  0.83425  Biso   1.000  C
  C347     1.0000 0.77731  0.86539  0.83418  Biso   1.000  C
  C348     1.0000 0.77730  0.86539  0.83425  Biso   1.000  C
  H321     1.0000 0.74351  0.78314  0.12968  Biso   1.000  H
  H322     1.0000 0.69786  0.76766  0.04660  Biso   1.000  H
  N229     1.0000 0.72614  0.89269  0.04480  Biso   1.000  N
  H323     1.0000 0.74351  0.78307  0.12975  Biso   1.000  H
  H324     1.0000 0.69787  0.76759  0.04660  Biso   1.000  H
  H325     1.0000 0.74352  0.78308  0.12968  Biso   1.000  H
  H326     1.0000 0.74350  0.78314  0.12975  Biso   1.000  H
  N230     1.0000 0.72409  0.17670  0.11308  Biso   1.000  N
  N231     1.0000 0.72408  0.17677  0.11308  Biso   1.000  N
  O114     1.0000 0.80384  0.12706  0.23196  Biso   1.000  O
  O115     1.0000 0.80383  0.12705  0.23202  Biso   1.000  O
  O116     1.0000 0.80392  0.12699  0.23196  Biso   1.000  O
  O117     1.0000 0.80391  0.12699  0.23202  Biso   1.000  O
  C349     1.0000 0.71978  0.25106  0.04347  Biso   1.000  C
  C350     1.0000 0.71977  0.25106  0.04354  Biso   1.000  C
  C351     1.0000 0.71979  0.25100  0.04347  Biso   1.000  C
  C352     1.0000 0.71978  0.25099  0.04354  Biso   1.000  C
  H327     1.0000 0.76869  0.36581  0.07781  Biso   1.000  H
  H328     1.0000 0.76868  0.36588  0.07781  Biso   1.000  H
  C353     1.0000 0.82869  0.26955  0.91532  Biso   1.000  C
  C354     1.0000 0.82868  0.26962  0.91532  Biso   1.000  C
  H329     1.0000 0.79309  0.88786  0.77218  Biso   1.000  H
  H330     1.0000 0.72831  0.82722  0.83732  Biso   1.000  H
  N232     1.0000 0.74208  0.94187  0.88559  Biso   1.000  N
  H331     1.0000 0.79308  0.88785  0.77224  Biso   1.000  H
  N233     1.0000 0.74206  0.94193  0.88565  Biso   1.000  N
  H332     1.0000 0.79310  0.88779  0.77218  Biso   1.000  H
  N234     1.0000 0.74207  0.94187  0.88565  Biso   1.000  N
  C355     1.0000 0.67936  0.93584  0.96840  Biso   1.000  C
  C356     1.0000 0.67935  0.93583  0.96846  Biso   1.000  C
  C357     1.0000 0.67944  0.93577  0.96840  Biso   1.000  C
  C358     1.0000 0.67942  0.93583  0.96846  Biso   1.000  C
  C359     1.0000 0.71962  0.95278  0.10948  Biso   1.000  C
  C360     1.0000 0.71962  0.95270  0.10954  Biso   1.000  C
  C361     1.0000 0.71961  0.95277  0.10954  Biso   1.000  C
  C362     1.0000 0.65831  0.11064  0.12868  Biso   1.000  C
  C363     1.0000 0.65832  0.11057  0.12868  Biso   1.000  C
  N235     1.0000 0.75329  0.22458  0.95280  Biso   1.000  N
  H333     1.0000 0.65789  0.28700  0.04687  Biso   1.000  H
  H334     1.0000 0.65787  0.28707  0.04694  Biso   1.000  H
  H335     1.0000 0.65788  0.28700  0.04694  Biso   1.000  H
  O118     1.0000 0.86313  0.26874  0.83678  Biso   1.000  O
  O119     1.0000 0.86312  0.26881  0.83678  Biso   1.000  O
  C364     1.0000 0.75217  0.02858  0.85472  Biso   1.000  C
  H336     1.0000 0.62407  0.90780  0.96280  Biso   1.000  H
  H337     1.0000 0.62405  0.90786  0.96286  Biso   1.000  H
  H338     1.0000 0.62406  0.90779  0.96286  Biso   1.000  H
  C365     1.0000 0.65379  0.03468  0.98993  Biso   1.000  C
  C366     1.0000 0.65378  0.03474  0.98993  Biso   1.000  C
  O120     1.0000 0.74473  0.93095  0.18289  Biso   1.000  O
  O121     1.0000 0.74474  0.93088  0.18289  Biso   1.000  O
  N236     1.0000 0.68145  0.03498  0.07654  Biso   1.000  N
  N237     1.0000 0.68144  0.03497  0.07661  Biso   1.000  N
  N238     1.0000 0.68146  0.03491  0.07654  Biso   1.000  N
  H339     1.0000 0.59730  0.14136  0.11688  Biso   1.000  H
  H340     1.0000 0.65290  0.08765  0.19122  Biso   1.000  H
  H341     1.0000 0.59729  0.14135  0.11695  Biso   1.000  H
  H342     1.0000 0.59731  0.14129  0.11688  Biso   1.000  H
  H343     1.0000 0.65291  0.08759  0.19122  Biso   1.000  H
  H344     1.0000 0.59730  0.14129  0.11695  Biso   1.000  H
  C367     1.0000 0.69981  0.18111  0.90066  Biso   1.000  C
  C368     1.0000 0.69980  0.18110  0.90072  Biso   1.000  C
  O122     1.0000 0.79284  0.05643  0.78224  Biso   1.000  O
  N239     1.0000 0.71020  0.08496  0.91806  Biso   1.000  N
  O123     1.0000 0.79283  0.05643  0.78231  Biso   1.000  O
  N240     1.0000 0.71019  0.08503  0.91806  Biso   1.000  N
  O124     1.0000 0.79284  0.05636  0.78231  Biso   1.000  O
  H345     1.0000 0.58666  0.05489  0.98980  Biso   1.000  H
  H346     1.0000 0.58673  0.05489  0.98980  Biso   1.000  H
  H347     1.0000 0.58674  0.05482  0.98980  Biso   1.000  H
  H348     1.0000 0.71950  0.19706  0.83778  Biso   1.000  H
  H349     1.0000 0.63406  0.20437  0.91332  Biso   1.000  H
  H350     1.0000 0.71949  0.19705  0.83785  Biso   1.000  H
  H351     1.0000 0.71949  0.19713  0.83778  Biso   1.000  H
  H352     1.0000 0.63413  0.20437  0.91332  Biso   1.000  H
  N241     1.0000 0.28978  0.91503  0.08194  Biso   1.000  N
  C369     1.0000 0.30017  0.81888  0.09934  Biso   1.000  C
  C370     1.0000 0.34619  0.96532  0.01007  Biso   1.000  C
  C371     1.0000 0.24781  0.97142  0.14528  Biso   1.000  C
  C372     1.0000 0.34619  0.96524  0.01013  Biso   1.000  C
  C373     1.0000 0.24780  0.97141  0.14535  Biso   1.000  C
  C374     1.0000 0.34620  0.96525  0.01007  Biso   1.000  C
  H353     1.0000 0.28048  0.80293  0.16222  Biso   1.000  H
  H354     1.0000 0.36591  0.79562  0.08668  Biso   1.000  H
  N242     1.0000 0.24669  0.77541  0.04720  Biso   1.000  N
  H355     1.0000 0.28049  0.80286  0.16222  Biso   1.000  H
  H356     1.0000 0.36591  0.79561  0.08674  Biso   1.000  H
  N243     1.0000 0.28978  0.91495  0.08201  Biso   1.000  N
  N244     1.0000 0.24668  0.77540  0.04727  Biso   1.000  N
  N245     1.0000 0.28984  0.91503  0.08194  Biso   1.000  N
  N246     1.0000 0.24675  0.77541  0.04720  Biso   1.000  N
  N247     1.0000 0.28983  0.91502  0.08201  Biso   1.000  N
  N248     1.0000 0.24675  0.77540  0.04727  Biso   1.000  N
  H357     1.0000 0.41332  0.94510  0.01020  Biso   1.000  H
  N249     1.0000 0.31852  0.96508  0.92346  Biso   1.000  N
  N250     1.0000 0.31851  0.96515  0.92346  Biso   1.000  N
  C375     1.0000 0.32061  0.06422  0.03160  Biso   1.000  C
  C376     1.0000 0.32060  0.06429  0.03160  Biso   1.000  C
  O125     1.0000 0.20714  0.94356  0.21776  Biso   1.000  O
  N251     1.0000 0.25789  0.05819  0.11441  Biso   1.000  N
  N252     1.0000 0.25797  0.05812  0.11441  Biso   1.000  N
  N253     1.0000 0.25796  0.05819  0.11441  Biso   1.000  N
  C377     1.0000 0.28019  0.74900  0.95653  Biso   1.000  C
  C378     1.0000 0.28018  0.74906  0.95653  Biso   1.000  C
  C379     1.0000 0.17129  0.73044  0.08468  Biso   1.000  C
  C380     1.0000 0.17129  0.73037  0.08474  Biso   1.000  C
  C381     1.0000 0.17130  0.73038  0.08468  Biso   1.000  C
  C382     1.0000 0.17128  0.73044  0.08474  Biso   1.000  C
  C383     1.0000 0.34166  0.88942  0.87132  Biso   1.000  C
  C384     1.0000 0.34164  0.88948  0.87139  Biso   1.000  C
  C385     1.0000 0.34173  0.88942  0.87132  Biso   1.000  C
  C386     1.0000 0.34172  0.88941  0.87139  Biso   1.000  C
  C387     1.0000 0.28036  0.04722  0.89052  Biso   1.000  C
  C388     1.0000 0.28043  0.04722  0.89052  Biso   1.000  C
  N254     1.0000 0.27384  0.10730  0.95520  Biso   1.000  N
  N255     1.0000 0.27383  0.10729  0.95526  Biso   1.000  N
  N256     1.0000 0.27384  0.10723  0.95526  Biso   1.000  N
  H358     1.0000 0.37590  0.09226  0.03720  Biso   1.000  H
  H359     1.0000 0.37591  0.09219  0.03720  Biso   1.000  H
  C389     1.0000 0.22266  0.13460  0.16582  Biso   1.000  C
  C390     1.0000 0.22265  0.13466  0.16582  Biso   1.000  C
  C391     1.0000 0.20371  0.69380  0.94013  Biso   1.000  C
  H360     1.0000 0.34208  0.71305  0.95313  Biso   1.000  H
  N257     1.0000 0.27588  0.82336  0.88692  Biso   1.000  N
  C392     1.0000 0.20370  0.69386  0.94013  Biso   1.000  C
  N258     1.0000 0.27587  0.82335  0.88699  Biso   1.000  N
  H361     1.0000 0.34209  0.71299  0.95313  Biso   1.000  H
  N259     1.0000 0.27596  0.82329  0.88692  Biso   1.000  N
  N260     1.0000 0.27594  0.82335  0.88699  Biso   1.000  N
  N261     1.0000 0.14552  0.68542  0.02347  Biso   1.000  N
  O126     1.0000 0.13684  0.73125  0.16322  Biso   1.000  O
  N262     1.0000 0.14551  0.68541  0.02354  Biso   1.000  N
  O127     1.0000 0.13685  0.73117  0.16328  Biso   1.000  O
  O128     1.0000 0.13685  0.73118  0.16322  Biso   1.000  O
  O129     1.0000 0.13684  0.73124  0.16328  Biso   1.000  O
  H362     1.0000 0.40267  0.85870  0.88312  Biso   1.000  H
  H363     1.0000 0.34707  0.91241  0.80878  Biso   1.000  H
  H364     1.0000 0.40266  0.85877  0.88312  Biso   1.000  H
  H365     1.0000 0.34705  0.91247  0.80885  Biso   1.000  H
  H366     1.0000 0.34714  0.91241  0.80878  Biso   1.000  H
  H367     1.0000 0.34713  0.91240  0.80885  Biso   1.000  H
  O130     1.0000 0.25524  0.06904  0.81711  Biso   1.000  O
  O131     1.0000 0.25523  0.06904  0.81718  Biso   1.000  O
  C393     1.0000 0.25410  0.20326  0.93439  Biso   1.000  C
  C394     1.0000 0.25409  0.20325  0.93446  Biso   1.000  C
  C395     1.0000 0.25409  0.20333  0.93439  Biso   1.000  C
  H368     1.0000 0.20688  0.11220  0.22782  Biso   1.000  H
  H369     1.0000 0.27165  0.17283  0.16268  Biso   1.000  H
  N263     1.0000 0.14198  0.18781  0.13455  Biso   1.000  N
  H370     1.0000 0.20687  0.11227  0.22782  Biso   1.000  H
  H371     1.0000 0.27165  0.17283  0.16275  Biso   1.000  H
  N264     1.0000 0.14196  0.18787  0.13461  Biso   1.000  N
  H372     1.0000 0.27172  0.17283  0.16268  Biso   1.000  H
  H373     1.0000 0.27171  0.17283  0.16275  Biso   1.000  H
  N265     1.0000 0.14197  0.18780  0.13461  Biso   1.000  N
  H374     1.0000 0.23128  0.63425  0.92219  Biso   1.000  H
  N266     1.0000 0.16227  0.74934  0.86759  Biso   1.000  N
  H375     1.0000 0.23127  0.63424  0.92226  Biso   1.000  H
  H376     1.0000 0.23129  0.63418  0.92219  Biso   1.000  H
  C396     1.0000 0.20836  0.82201  0.83498  Biso   1.000  C
  C397     1.0000 0.20834  0.82207  0.83505  Biso   1.000  C
  C398     1.0000 0.20843  0.82201  0.83498  Biso   1.000  C
  C399     1.0000 0.20842  0.82201  0.83505  Biso   1.000  C
  C400     1.0000 0.06637  0.63563  0.03927  Biso   1.000  C
  C401     1.0000 0.06637  0.63556  0.03934  Biso   1.000  C
  C402     1.0000 0.06636  0.63562  0.03934  Biso   1.000  C
  H377     1.0000 0.25647  0.21685  0.87032  Biso   1.000  H
  H378     1.0000 0.30212  0.23233  0.95340  Biso   1.000  H
  N267     1.0000 0.16240  0.24065  0.97706  Biso   1.000  N
  H379     1.0000 0.25646  0.21692  0.87032  Biso   1.000  H
  H380     1.0000 0.30210  0.23239  0.95346  Biso   1.000  H
  H381     1.0000 0.25653  0.21692  0.87032  Biso   1.000  H
  H382     1.0000 0.30211  0.23240  0.95340  Biso   1.000  H
  H383     1.0000 0.25654  0.21685  0.87032  Biso   1.000  H
  H384     1.0000 0.30211  0.23233  0.95346  Biso   1.000  H
  C403     1.0000 0.05548  0.18921  0.18395  Biso   1.000  C
  C404     1.0000 0.14791  0.26434  0.06734  Biso   1.000  C
  C405     1.0000 0.05546  0.18927  0.18402  Biso   1.000  C
  C406     1.0000 0.14792  0.26428  0.06734  Biso   1.000  C
  C407     1.0000 0.05547  0.18920  0.18402  Biso   1.000  C
  C408     1.0000 0.09828  0.71846  0.81671  Biso   1.000  C
  C409     1.0000 0.09829  0.71839  0.81671  Biso   1.000  C
  O132     1.0000 0.19613  0.87300  0.76804  Biso   1.000  O
  O133     1.0000 0.19612  0.87307  0.76804  Biso   1.000  O
  H385     1.0000 0.05418  0.61680  0.10261  Biso   1.000  H
  H386     1.0000 0.08191  0.58131  0.00860  Biso   1.000  H
  N268     1.0000 0.98245  0.68619  0.01020  Biso   1.000  N
  N269     1.0000 0.98245  0.68611  0.01027  Biso   1.000  N
  N270     1.0000 0.98246  0.68612  0.01020  Biso   1.000  N
  N271     1.0000 0.98244  0.68618  0.01027  Biso   1.000  N
  C410     1.0000 0.09099  0.27455  0.93073  Biso   1.000  C
  N272     1.0000 0.99811  0.26218  0.14855  Biso   1.000  N
  N273     1.0000 0.99810  0.26217  0.14862  Biso   1.000  N
  N274     1.0000 0.99812  0.26211  0.14855  Biso   1.000  N
  O134     1.0000 0.03304  0.13459  0.24896  Biso   1.000  O
  O135     1.0000 0.03312  0.13452  0.24896  Biso   1.000  O
  H387     1.0000 0.19336  0.30294  0.07761  Biso   1.000  H
  C411     1.0000 0.04568  0.31526  0.07567  Biso   1.000  C
  H388     1.0000 0.19337  0.30287  0.07761  Biso   1.000  H
  C412     1.0000 0.04569  0.31519  0.07567  Biso   1.000  C
  H389     1.0000 0.10766  0.74665  0.75591  Biso   1.000  H
  H390     1.0000 0.11360  0.65352  0.81498  Biso   1.000  H
  N275     1.0000 0.00186  0.73788  0.85145  Biso   1.000  N
  H391     1.0000 0.11359  0.65352  0.81505  Biso   1.000  H
  N276     1.0000 0.00185  0.73795  0.85145  Biso   1.000  N
  H392     1.0000 0.10767  0.74659  0.75591  Biso   1.000  H
  N277     1.0000 0.00193  0.73788  0.85145  Biso   1.000  N
  C413     1.0000 0.95429  0.68480  0.92433  Biso   1.000  C
  C414     1.0000 0.95427  0.68486  0.92439  Biso   1.000  C
  C415     1.0000 0.95428  0.68479  0.92439  Biso   1.000  C
  C416     1.0000 0.90899  0.72544  0.06927  Biso   1.000  C
  C417     1.0000 0.90898  0.72544  0.06934  Biso   1.000  C
  N278     1.0000 0.01753  0.31380  0.98980  Biso   1.000  N
  O136     1.0000 0.08683  0.27314  0.85278  Biso   1.000  O
  O137     1.0000 0.08682  0.27321  0.85278  Biso   1.000  O
  N279     1.0000 0.01752  0.31387  0.98980  Biso   1.000  N
  C418     1.0000 0.90169  0.28160  0.18329  Biso   1.000  C
  C419     1.0000 0.90167  0.28166  0.18335  Biso   1.000  C
  C420     1.0000 0.90168  0.28159  0.18335  Biso   1.000  C
  H393     1.0000 0.04449  0.37745  0.08961  Biso   1.000  H
  H394     1.0000 0.04450  0.37738  0.08961  Biso   1.000  H
  C421     1.0000 0.94449  0.81085  0.81605  Biso   1.000  C
  C422     1.0000 0.94450  0.81078  0.81605  Biso   1.000  C
  C423     1.0000 0.85206  0.73572  0.93266  Biso   1.000  C
  H395     1.0000 0.95548  0.62261  0.91039  Biso   1.000  H
  C424     1.0000 0.85204  0.73578  0.93273  Biso   1.000  C
  H396     1.0000 0.95546  0.62267  0.91046  Biso   1.000  H
  C425     1.0000 0.85213  0.73572  0.93266  Biso   1.000  C
  C426     1.0000 0.85212  0.73571  0.93273  Biso   1.000  C
  H397     1.0000 0.95547  0.62260  0.91046  Biso   1.000  H
  N280     1.0000 0.83758  0.75934  0.02294  Biso   1.000  N
  O138     1.0000 0.91314  0.72685  0.14722  Biso   1.000  O
  N281     1.0000 0.83757  0.75933  0.02300  Biso   1.000  N
  O139     1.0000 0.91314  0.72677  0.14728  Biso   1.000  O
  N282     1.0000 0.83765  0.75934  0.02294  Biso   1.000  N
  O140     1.0000 0.91315  0.72678  0.14722  Biso   1.000  O
  N283     1.0000 0.83764  0.75933  0.02300  Biso   1.000  N
  O141     1.0000 0.91313  0.72684  0.14728  Biso   1.000  O
  C427     1.0000 0.93361  0.36436  0.96073  Biso   1.000  C
  C428     1.0000 0.93360  0.36443  0.96073  Biso   1.000  C
  H398     1.0000 0.89231  0.25340  0.24409  Biso   1.000  H
  H399     1.0000 0.88636  0.34654  0.18502  Biso   1.000  H
  N284     1.0000 0.83770  0.25072  0.13241  Biso   1.000  N
  H400     1.0000 0.89229  0.25347  0.24416  Biso   1.000  H
  N285     1.0000 0.83769  0.25071  0.13248  Biso   1.000  N
  H401     1.0000 0.88637  0.34647  0.18502  Biso   1.000  H
  H402     1.0000 0.89230  0.25340  0.24416  Biso   1.000  H
  N286     1.0000 0.85799  0.81225  0.86545  Biso   1.000  N
  O142     1.0000 0.96693  0.86547  0.75104  Biso   1.000  O
  O143     1.0000 0.96691  0.86553  0.75111  Biso   1.000  O
  N287     1.0000 0.85800  0.81218  0.86545  Biso   1.000  N
  O144     1.0000 0.96692  0.86546  0.75111  Biso   1.000  O
  H403     1.0000 0.80660  0.69712  0.92239  Biso   1.000  H
  H404     1.0000 0.80659  0.69711  0.92246  Biso   1.000  H
  C429     1.0000 0.74588  0.79673  0.06561  Biso   1.000  C
  C430     1.0000 0.74589  0.79666  0.06561  Biso   1.000  C
  H405     1.0000 0.94579  0.38319  0.89739  Biso   1.000  H
  H406     1.0000 0.91806  0.41868  0.99140  Biso   1.000  H
  N288     1.0000 0.85446  0.31457  0.97653  Biso   1.000  N
  H407     1.0000 0.94579  0.38318  0.89746  Biso   1.000  H
  H408     1.0000 0.91813  0.41868  0.99140  Biso   1.000  H
  C431     1.0000 0.79161  0.17805  0.16502  Biso   1.000  C
  C432     1.0000 0.79625  0.30626  0.05987  Biso   1.000  C
  C433     1.0000 0.79624  0.30625  0.05994  Biso   1.000  C
  C434     1.0000 0.79162  0.17798  0.16502  Biso   1.000  C
  C435     1.0000 0.79633  0.30619  0.05987  Biso   1.000  C
  C436     1.0000 0.79632  0.30619  0.05994  Biso   1.000  C
  C437     1.0000 0.77730  0.86546  0.83418  Biso   1.000  C
  C438     1.0000 0.77729  0.86545  0.83425  Biso   1.000  C
  C439     1.0000 0.77731  0.86539  0.83418  Biso   1.000  C
  C440     1.0000 0.77730  0.86539  0.83425  Biso   1.000  C
  H409     1.0000 0.74351  0.78314  0.12968  Biso   1.000  H
  H410     1.0000 0.69786  0.76766  0.04660  Biso   1.000  H
  N289     1.0000 0.72614  0.89269  0.04480  Biso   1.000  N
  H411     1.0000 0.74351  0.78307  0.12975  Biso   1.000  H
  H412     1.0000 0.69787  0.76759  0.04660  Biso   1.000  H
  H413     1.0000 0.74352  0.78308  0.12968  Biso   1.000  H
  H414     1.0000 0.74350  0.78314  0.12975  Biso   1.000  H
  C441     1.0000 0.82869  0.26955  0.91532  Biso   1.000  C
  C442     1.0000 0.82868  0.26962  0.91532  Biso   1.000  C
  N290     1.0000 0.72409  0.17670  0.11308  Biso   1.000  N
  O145     1.0000 0.80384  0.12706  0.23196  Biso   1.000  O
  N291     1.0000 0.72408  0.17677  0.11308  Biso   1.000  N
  O146     1.0000 0.80383  0.12705  0.23202  Biso   1.000  O
  O147     1.0000 0.80392  0.12699  0.23196  Biso   1.000  O
  O148     1.0000 0.80391  0.12699  0.23202  Biso   1.000  O
  H415     1.0000 0.76869  0.36581  0.07781  Biso   1.000  H
  C443     1.0000 0.71978  0.25106  0.04347  Biso   1.000  C
  H416     1.0000 0.76868  0.36588  0.07781  Biso   1.000  H
  C444     1.0000 0.71977  0.25106  0.04354  Biso   1.000  C
  C445     1.0000 0.71979  0.25100  0.04347  Biso   1.000  C
  C446     1.0000 0.71978  0.25099  0.04354  Biso   1.000  C
  H417     1.0000 0.79309  0.88786  0.77218  Biso   1.000  H
  H418     1.0000 0.72831  0.82722  0.83732  Biso   1.000  H
  N292     1.0000 0.74208  0.94187  0.88559  Biso   1.000  N
  H419     1.0000 0.79308  0.88785  0.77224  Biso   1.000  H
  N293     1.0000 0.74206  0.94193  0.88565  Biso   1.000  N
  H420     1.0000 0.79310  0.88779  0.77218  Biso   1.000  H
  N294     1.0000 0.74207  0.94187  0.88565  Biso   1.000  N
  C447     1.0000 0.67936  0.93584  0.96840  Biso   1.000  C
  C448     1.0000 0.67935  0.93583  0.96846  Biso   1.000  C
  C449     1.0000 0.67944  0.93577  0.96840  Biso   1.000  C
  C450     1.0000 0.67942  0.93583  0.96846  Biso   1.000  C
  C451     1.0000 0.71962  0.95278  0.10948  Biso   1.000  C
  C452     1.0000 0.71962  0.95270  0.10954  Biso   1.000  C
  C453     1.0000 0.71961  0.95277  0.10954  Biso   1.000  C
  N295     1.0000 0.75329  0.22458  0.95280  Biso   1.000  N
  O149     1.0000 0.86313  0.26874  0.83678  Biso   1.000  O
  O150     1.0000 0.86312  0.26881  0.83678  Biso   1.000  O
  C454     1.0000 0.65831  0.11064  0.12868  Biso   1.000  C
  C455     1.0000 0.65832  0.11057  0.12868  Biso   1.000  C
  H421     1.0000 0.65789  0.28700  0.04687  Biso   1.000  H
  H422     1.0000 0.65787  0.28707  0.04694  Biso   1.000  H
  H423     1.0000 0.65788  0.28700  0.04694  Biso   1.000  H
  C456     1.0000 0.75217  0.02858  0.85472  Biso   1.000  C
  H424     1.0000 0.62407  0.90780  0.96280  Biso   1.000  H
  H425     1.0000 0.62405  0.90786  0.96286  Biso   1.000  H
  H426     1.0000 0.62406  0.90779  0.96286  Biso   1.000  H
  C457     1.0000 0.65379  0.03468  0.98993  Biso   1.000  C
  C458     1.0000 0.65378  0.03474  0.98993  Biso   1.000  C
  O151     1.0000 0.74473  0.93095  0.18289  Biso   1.000  O
  O152     1.0000 0.74474  0.93088  0.18289  Biso   1.000  O
  N296     1.0000 0.68145  0.03498  0.07654  Biso   1.000  N
  N297     1.0000 0.68144  0.03497  0.07661  Biso   1.000  N
  N298     1.0000 0.68146  0.03491  0.07654  Biso   1.000  N
  C459     1.0000 0.69981  0.18111  0.90066  Biso   1.000  C
  C460     1.0000 0.69980  0.18110  0.90072  Biso   1.000  C
  H427     1.0000 0.59730  0.14136  0.11688  Biso   1.000  H
  H428     1.0000 0.65290  0.08765  0.19122  Biso   1.000  H
  H429     1.0000 0.59729  0.14135  0.11695  Biso   1.000  H
  H430     1.0000 0.59731  0.14129  0.11688  Biso   1.000  H
  H431     1.0000 0.65291  0.08759  0.19122  Biso   1.000  H
  H432     1.0000 0.59730  0.14129  0.11695  Biso   1.000  H
  O153     1.0000 0.79284  0.05643  0.78224  Biso   1.000  O
  N299     1.0000 0.71020  0.08496  0.91806  Biso   1.000  N
  O154     1.0000 0.79283  0.05643  0.78231  Biso   1.000  O
  N300     1.0000 0.71019  0.08503  0.91806  Biso   1.000  N
  O155     1.0000 0.79284  0.05636  0.78231  Biso   1.000  O
  H433     1.0000 0.58666  0.05489  0.98980  Biso   1.000  H
  H434     1.0000 0.58673  0.05489  0.98980  Biso   1.000  H
  H435     1.0000 0.58674  0.05482  0.98980  Biso   1.000  H
  H436     1.0000 0.71950  0.19706  0.83778  Biso   1.000  H
  H437     1.0000 0.63406  0.20437  0.91332  Biso   1.000  H
  H438     1.0000 0.71949  0.19705  0.83785  Biso   1.000  H
  H439     1.0000 0.71949  0.19713  0.83778  Biso   1.000  H
  H440     1.0000 0.63413  0.20437  0.91332  Biso   1.000  H
  N301     1.0000 0.28978  0.91503  0.08194  Biso   1.000  N
  C461     1.0000 0.30017  0.81888  0.09934  Biso   1.000  C
  C462     1.0000 0.34619  0.96532  0.01007  Biso   1.000  C
  C463     1.0000 0.24781  0.97142  0.14528  Biso   1.000  C
  C464     1.0000 0.34619  0.96524  0.01013  Biso   1.000  C
  C465     1.0000 0.24780  0.97141  0.14535  Biso   1.000  C
  C466     1.0000 0.34620  0.96525  0.01007  Biso   1.000  C
  H441     1.0000 0.28048  0.80293  0.16222  Biso   1.000  H
  H442     1.0000 0.36591  0.79562  0.08668  Biso   1.000  H
  N302     1.0000 0.24669  0.77541  0.04720  Biso   1.000  N
  H443     1.0000 0.28049  0.80286  0.16222  Biso   1.000  H
  H444     1.0000 0.36591  0.79561  0.08674  Biso   1.000  H
  N303     1.0000 0.28978  0.91495  0.08201  Biso   1.000  N
  N304     1.0000 0.24668  0.77540  0.04727  Biso   1.000  N
  N305     1.0000 0.28984  0.91503  0.08194  Biso   1.000  N
  N306     1.0000 0.24675  0.77541  0.04720  Biso   1.000  N
  N307     1.0000 0.28983  0.91502  0.08201  Biso   1.000  N
  N308     1.0000 0.24675  0.77540  0.04727  Biso   1.000  N
  H445     1.0000 0.41332  0.94510  0.01020  Biso   1.000  H
  N309     1.0000 0.31852  0.96508  0.92346  Biso   1.000  N
  N310     1.0000 0.31851  0.96515  0.92346  Biso   1.000  N
  C467     1.0000 0.32061  0.06422  0.03160  Biso   1.000  C
  C468     1.0000 0.32060  0.06429  0.03160  Biso   1.000  C
  O156     1.0000 0.20714  0.94356  0.21776  Biso   1.000  O
  N311     1.0000 0.25789  0.05819  0.11441  Biso   1.000  N
  N312     1.0000 0.25797  0.05812  0.11441  Biso   1.000  N
  N313     1.0000 0.25796  0.05819  0.11441  Biso   1.000  N
  C469     1.0000 0.28019  0.74900  0.95653  Biso   1.000  C
  C470     1.0000 0.28018  0.74906  0.95653  Biso   1.000  C
  C471     1.0000 0.17129  0.73044  0.08468  Biso   1.000  C
  C472     1.0000 0.17129  0.73037  0.08474  Biso   1.000  C
  C473     1.0000 0.17130  0.73038  0.08468  Biso   1.000  C
  C474     1.0000 0.17128  0.73044  0.08474  Biso   1.000  C
  C475     1.0000 0.34166  0.88942  0.87132  Biso   1.000  C
  C476     1.0000 0.34164  0.88948  0.87139  Biso   1.000  C
  C477     1.0000 0.34173  0.88942  0.87132  Biso   1.000  C
  C478     1.0000 0.34172  0.88941  0.87139  Biso   1.000  C
  C479     1.0000 0.28036  0.04722  0.89052  Biso   1.000  C
  C480     1.0000 0.28043  0.04722  0.89052  Biso   1.000  C
  N314     1.0000 0.27384  0.10730  0.95520  Biso   1.000  N
  N315     1.0000 0.27383  0.10729  0.95526  Biso   1.000  N
  N316     1.0000 0.27384  0.10723  0.95526  Biso   1.000  N
  H446     1.0000 0.37590  0.09226  0.03720  Biso   1.000  H
  H447     1.0000 0.37591  0.09219  0.03720  Biso   1.000  H
  C481     1.0000 0.22266  0.13460  0.16582  Biso   1.000  C
  C482     1.0000 0.22265  0.13466  0.16582  Biso   1.000  C
  C483     1.0000 0.20371  0.69380  0.94013  Biso   1.000  C
  H448     1.0000 0.34208  0.71305  0.95313  Biso   1.000  H
  N317     1.0000 0.27588  0.82336  0.88692  Biso   1.000  N
  C484     1.0000 0.20370  0.69386  0.94013  Biso   1.000  C
  N318     1.0000 0.27587  0.82335  0.88699  Biso   1.000  N
  H449     1.0000 0.34209  0.71299  0.95313  Biso   1.000  H
  N319     1.0000 0.27596  0.82329  0.88692  Biso   1.000  N
  N320     1.0000 0.27594  0.82335  0.88699  Biso   1.000  N
  N321     1.0000 0.14552  0.68542  0.02347  Biso   1.000  N
  O157     1.0000 0.13684  0.73125  0.16322  Biso   1.000  O
  N322     1.0000 0.14551  0.68541  0.02354  Biso   1.000  N
  O158     1.0000 0.13685  0.73117  0.16328  Biso   1.000  O
  O159     1.0000 0.13685  0.73118  0.16322  Biso   1.000  O
  O160     1.0000 0.13684  0.73124  0.16328  Biso   1.000  O
  H450     1.0000 0.40267  0.85870  0.88312  Biso   1.000  H
  H451     1.0000 0.34707  0.91241  0.80878  Biso   1.000  H
  H452     1.0000 0.40266  0.85877  0.88312  Biso   1.000  H
  H453     1.0000 0.34705  0.91247  0.80885  Biso   1.000  H
  H454     1.0000 0.34714  0.91241  0.80878  Biso   1.000  H
  H455     1.0000 0.34713  0.91240  0.80885  Biso   1.000  H
  O161     1.0000 0.25524  0.06904  0.81711  Biso   1.000  O
  O162     1.0000 0.25523  0.06904  0.81718  Biso   1.000  O
  C485     1.0000 0.25410  0.20326  0.93439  Biso   1.000  C
  C486     1.0000 0.25409  0.20325  0.93446  Biso   1.000  C
  C487     1.0000 0.25409  0.20333  0.93439  Biso   1.000  C
  H456     1.0000 0.20688  0.11220  0.22782  Biso   1.000  H
  H457     1.0000 0.27165  0.17283  0.16268  Biso   1.000  H
  N323     1.0000 0.14198  0.18781  0.13455  Biso   1.000  N
  H458     1.0000 0.20687  0.11227  0.22782  Biso   1.000  H
  H459     1.0000 0.27165  0.17283  0.16275  Biso   1.000  H
  N324     1.0000 0.14196  0.18787  0.13461  Biso   1.000  N
  H460     1.0000 0.27172  0.17283  0.16268  Biso   1.000  H
  H461     1.0000 0.27171  0.17283  0.16275  Biso   1.000  H
  N325     1.0000 0.14197  0.18780  0.13461  Biso   1.000  N
  H462     1.0000 0.23128  0.63425  0.92219  Biso   1.000  H
  N326     1.0000 0.16227  0.74934  0.86759  Biso   1.000  N
  H463     1.0000 0.23127  0.63424  0.92226  Biso   1.000  H
  H464     1.0000 0.23129  0.63418  0.92219  Biso   1.000  H
  C488     1.0000 0.20836  0.82201  0.83498  Biso   1.000  C
  C489     1.0000 0.20834  0.82207  0.83505  Biso   1.000  C
  C490     1.0000 0.20843  0.82201  0.83498  Biso   1.000  C
  C491     1.0000 0.20842  0.82201  0.83505  Biso   1.000  C
  C492     1.0000 0.06637  0.63563  0.03927  Biso   1.000  C
  C493     1.0000 0.06637  0.63556  0.03934  Biso   1.000  C
  C494     1.0000 0.06636  0.63562  0.03934  Biso   1.000  C
  H465     1.0000 0.25647  0.21685  0.87032  Biso   1.000  H
  H466     1.0000 0.30212  0.23233  0.95340  Biso   1.000  H
  N327     1.0000 0.16240  0.24065  0.97706  Biso   1.000  N
  H467     1.0000 0.25646  0.21692  0.87032  Biso   1.000  H
  H468     1.0000 0.30210  0.23239  0.95346  Biso   1.000  H
  H469     1.0000 0.25653  0.21692  0.87032  Biso   1.000  H
  H470     1.0000 0.30211  0.23240  0.95340  Biso   1.000  H
  H471     1.0000 0.25654  0.21685  0.87032  Biso   1.000  H
  H472     1.0000 0.30211  0.23233  0.95346  Biso   1.000  H
  C495     1.0000 0.05548  0.18921  0.18395  Biso   1.000  C
  C496     1.0000 0.14791  0.26434  0.06734  Biso   1.000  C
  C497     1.0000 0.05546  0.18927  0.18402  Biso   1.000  C
  C498     1.0000 0.14792  0.26428  0.06734  Biso   1.000  C
  C499     1.0000 0.05547  0.18920  0.18402  Biso   1.000  C
  C500     1.0000 0.09828  0.71846  0.81671  Biso   1.000  C
  C501     1.0000 0.09829  0.71839  0.81671  Biso   1.000  C
  O163     1.0000 0.19613  0.87300  0.76804  Biso   1.000  O
  O164     1.0000 0.19612  0.87307  0.76804  Biso   1.000  O
  H473     1.0000 0.05418  0.61680  0.10261  Biso   1.000  H
  H474     1.0000 0.08191  0.58131  0.00860  Biso   1.000  H
  N328     1.0000 0.98245  0.68619  0.01020  Biso   1.000  N
  N329     1.0000 0.98245  0.68611  0.01027  Biso   1.000  N
  N330     1.0000 0.98246  0.68612  0.01020  Biso   1.000  N
  N331     1.0000 0.98244  0.68618  0.01027  Biso   1.000  N
  C502     1.0000 0.09099  0.27455  0.93073  Biso   1.000  C
  N332     1.0000 0.99811  0.26218  0.14855  Biso   1.000  N
  N333     1.0000 0.99810  0.26217  0.14862  Biso   1.000  N
  N334     1.0000 0.99812  0.26211  0.14855  Biso   1.000  N
  O165     1.0000 0.03304  0.13459  0.24896  Biso   1.000  O
  O166     1.0000 0.03312  0.13452  0.24896  Biso   1.000  O
  H475     1.0000 0.19336  0.30294  0.07761  Biso   1.000  H
  C503     1.0000 0.04568  0.31526  0.07567  Biso   1.000  C
  H476     1.0000 0.19337  0.30287  0.07761  Biso   1.000  H
  C504     1.0000 0.04569  0.31519  0.07567  Biso   1.000  C
  H477     1.0000 0.10766  0.74665  0.75591  Biso   1.000  H
  H478     1.0000 0.11360  0.65352  0.81498  Biso   1.000  H
  N335     1.0000 0.00186  0.73788  0.85145  Biso   1.000  N
  H479     1.0000 0.11359  0.65352  0.81505  Biso   1.000  H
  N336     1.0000 0.00185  0.73795  0.85145  Biso   1.000  N
  H480     1.0000 0.10767  0.74659  0.75591  Biso   1.000  H
  N337     1.0000 0.00193  0.73788  0.85145  Biso   1.000  N
  C505     1.0000 0.95429  0.68480  0.92433  Biso   1.000  C
  C506     1.0000 0.95427  0.68486  0.92439  Biso   1.000  C
  C507     1.0000 0.95428  0.68479  0.92439  Biso   1.000  C
  C508     1.0000 0.90899  0.72544  0.06927  Biso   1.000  C
  C509     1.0000 0.90898  0.72544  0.06934  Biso   1.000  C
  N338     1.0000 0.01753  0.31380  0.98980  Biso   1.000  N
  O167     1.0000 0.08683  0.27314  0.85278  Biso   1.000  O
  O168     1.0000 0.08682  0.27321  0.85278  Biso   1.000  O
  N339     1.0000 0.01752  0.31387  0.98980  Biso   1.000  N
  C510     1.0000 0.90169  0.28160  0.18329  Biso   1.000  C
  C511     1.0000 0.90167  0.28166  0.18335  Biso   1.000  C
  C512     1.0000 0.90168  0.28159  0.18335  Biso   1.000  C
  H481     1.0000 0.04449  0.37745  0.08961  Biso   1.000  H
  H482     1.0000 0.04450  0.37738  0.08961  Biso   1.000  H
  C513     1.0000 0.94449  0.81085  0.81605  Biso   1.000  C
  C514     1.0000 0.94450  0.81078  0.81605  Biso   1.000  C
  C515     1.0000 0.85206  0.73572  0.93266  Biso   1.000  C
  H483     1.0000 0.95548  0.62261  0.91039  Biso   1.000  H
  C516     1.0000 0.85204  0.73578  0.93273  Biso   1.000  C
  H484     1.0000 0.95546  0.62267  0.91046  Biso   1.000  H
  C517     1.0000 0.85213  0.73572  0.93266  Biso   1.000  C
  C518     1.0000 0.85212  0.73571  0.93273  Biso   1.000  C
  H485     1.0000 0.95547  0.62260  0.91046  Biso   1.000  H
  N340     1.0000 0.83758  0.75934  0.02294  Biso   1.000  N
  O169     1.0000 0.91314  0.72685  0.14722  Biso   1.000  O
  N341     1.0000 0.83757  0.75933  0.02300  Biso   1.000  N
  O170     1.0000 0.91314  0.72677  0.14728  Biso   1.000  O
  N342     1.0000 0.83765  0.75934  0.02294  Biso   1.000  N
  O171     1.0000 0.91315  0.72678  0.14722  Biso   1.000  O
  N343     1.0000 0.83764  0.75933  0.02300  Biso   1.000  N
  O172     1.0000 0.91313  0.72684  0.14728  Biso   1.000  O
  C519     1.0000 0.93361  0.36436  0.96073  Biso   1.000  C
  C520     1.0000 0.93360  0.36443  0.96073  Biso   1.000  C
  H486     1.0000 0.89231  0.25340  0.24409  Biso   1.000  H
  H487     1.0000 0.88636  0.34654  0.18502  Biso   1.000  H
  N344     1.0000 0.83770  0.25072  0.13241  Biso   1.000  N
  H488     1.0000 0.89229  0.25347  0.24416  Biso   1.000  H
  N345     1.0000 0.83769  0.25071  0.13248  Biso   1.000  N
  H489     1.0000 0.88637  0.34647  0.18502  Biso   1.000  H
  H490     1.0000 0.89230  0.25340  0.24416  Biso   1.000  H
  N346     1.0000 0.85799  0.81225  0.86545  Biso   1.000  N
  O173     1.0000 0.96693  0.86547  0.75104  Biso   1.000  O
  O174     1.0000 0.96691  0.86553  0.75111  Biso   1.000  O
  N347     1.0000 0.85800  0.81218  0.86545  Biso   1.000  N
  O175     1.0000 0.96692  0.86546  0.75111  Biso   1.000  O
  H491     1.0000 0.80660  0.69712  0.92239  Biso   1.000  H
  H492     1.0000 0.80659  0.69711  0.92246  Biso   1.000  H
  C521     1.0000 0.74588  0.79673  0.06561  Biso   1.000  C
  C522     1.0000 0.74589  0.79666  0.06561  Biso   1.000  C
  H493     1.0000 0.94579  0.38319  0.89739  Biso   1.000  H
  H494     1.0000 0.91806  0.41868  0.99140  Biso   1.000  H
  N348     1.0000 0.85446  0.31457  0.97653  Biso   1.000  N
  H495     1.0000 0.94579  0.38318  0.89746  Biso   1.000  H
  H496     1.0000 0.91813  0.41868  0.99140  Biso   1.000  H
  C523     1.0000 0.79161  0.17805  0.16502  Biso   1.000  C
  C524     1.0000 0.79625  0.30626  0.05987  Biso   1.000  C
  C525     1.0000 0.79624  0.30625  0.05994  Biso   1.000  C
  C526     1.0000 0.79162  0.17798  0.16502  Biso   1.000  C
  C527     1.0000 0.79633  0.30619  0.05987  Biso   1.000  C
  C528     1.0000 0.79632  0.30619  0.05994  Biso   1.000  C
  C529     1.0000 0.77730  0.86546  0.83418  Biso   1.000  C
  C530     1.0000 0.77729  0.86545  0.83425  Biso   1.000  C
  C531     1.0000 0.77731  0.86539  0.83418  Biso   1.000  C
  C532     1.0000 0.77730  0.86539  0.83425  Biso   1.000  C
  H497     1.0000 0.74351  0.78314  0.12968  Biso   1.000  H
  H498     1.0000 0.69786  0.76766  0.04660  Biso   1.000  H
  N349     1.0000 0.72614  0.89269  0.04480  Biso   1.000  N
  H499     1.0000 0.74351  0.78307  0.12975  Biso   1.000  H
  H500     1.0000 0.69787  0.76759  0.04660  Biso   1.000  H
  H501     1.0000 0.74352  0.78308  0.12968  Biso   1.000  H
  H502     1.0000 0.74350  0.78314  0.12975  Biso   1.000  H
  C533     1.0000 0.82869  0.26955  0.91532  Biso   1.000  C
  C534     1.0000 0.82868  0.26962  0.91532  Biso   1.000  C
  N350     1.0000 0.72409  0.17670  0.11308  Biso   1.000  N
  O176     1.0000 0.80384  0.12706  0.23196  Biso   1.000  O
  N351     1.0000 0.72408  0.17677  0.11308  Biso   1.000  N
  O177     1.0000 0.80383  0.12705  0.23202  Biso   1.000  O
  O178     1.0000 0.80392  0.12699  0.23196  Biso   1.000  O
  O179     1.0000 0.80391  0.12699  0.23202  Biso   1.000  O
  H503     1.0000 0.76869  0.36581  0.07781  Biso   1.000  H
  C535     1.0000 0.71978  0.25106  0.04347  Biso   1.000  C
  H504     1.0000 0.76868  0.36588  0.07781  Biso   1.000  H
  C536     1.0000 0.71977  0.25106  0.04354  Biso   1.000  C
  C537     1.0000 0.71979  0.25100  0.04347  Biso   1.000  C
  C538     1.0000 0.71978  0.25099  0.04354  Biso   1.000  C
  H505     1.0000 0.79309  0.88786  0.77218  Biso   1.000  H
  H506     1.0000 0.72831  0.82722  0.83732  Biso   1.000  H
  N352     1.0000 0.74208  0.94187  0.88559  Biso   1.000  N
  H507     1.0000 0.79308  0.88785  0.77224  Biso   1.000  H
  N353     1.0000 0.74206  0.94193  0.88565  Biso   1.000  N
  H508     1.0000 0.79310  0.88779  0.77218  Biso   1.000  H
  N354     1.0000 0.74207  0.94187  0.88565  Biso   1.000  N
  C539     1.0000 0.67936  0.93584  0.96840  Biso   1.000  C
  C540     1.0000 0.67935  0.93583  0.96846  Biso   1.000  C
  C541     1.0000 0.67944  0.93577  0.96840  Biso   1.000  C
  C542     1.0000 0.67942  0.93583  0.96846  Biso   1.000  C
  C543     1.0000 0.71962  0.95278  0.10948  Biso   1.000  C
  C544     1.0000 0.71962  0.95270  0.10954  Biso   1.000  C
  C545     1.0000 0.71961  0.95277  0.10954  Biso   1.000  C
  N355     1.0000 0.75329  0.22458  0.95280  Biso   1.000  N
  O180     1.0000 0.86313  0.26874  0.83678  Biso   1.000  O
  O181     1.0000 0.86312  0.26881  0.83678  Biso   1.000  O
  C546     1.0000 0.65831  0.11064  0.12868  Biso   1.000  C
  C547     1.0000 0.65832  0.11057  0.12868  Biso   1.000  C
  H509     1.0000 0.65789  0.28700  0.04687  Biso   1.000  H
  H510     1.0000 0.65787  0.28707  0.04694  Biso   1.000  H
  H511     1.0000 0.65788  0.28700  0.04694  Biso   1.000  H
  C548     1.0000 0.75217  0.02858  0.85472  Biso   1.000  C
  H512     1.0000 0.62407  0.90780  0.96280  Biso   1.000  H
  H513     1.0000 0.62405  0.90786  0.96286  Biso   1.000  H
  H514     1.0000 0.62406  0.90779  0.96286  Biso   1.000  H
  C549     1.0000 0.65379  0.03468  0.98993  Biso   1.000  C
  C550     1.0000 0.65378  0.03474  0.98993  Biso   1.000  C
  O182     1.0000 0.74473  0.93095  0.18289  Biso   1.000  O
  O183     1.0000 0.74474  0.93088  0.18289  Biso   1.000  O
  N356     1.0000 0.68145  0.03498  0.07654  Biso   1.000  N
  N357     1.0000 0.68144  0.03497  0.07661  Biso   1.000  N
  N358     1.0000 0.68146  0.03491  0.07654  Biso   1.000  N
  C551     1.0000 0.69981  0.18111  0.90066  Biso   1.000  C
  C552     1.0000 0.69980  0.18110  0.90072  Biso   1.000  C
  H515     1.0000 0.59730  0.14136  0.11688  Biso   1.000  H
  H516     1.0000 0.65290  0.08765  0.19122  Biso   1.000  H
  H517     1.0000 0.59729  0.14135  0.11695  Biso   1.000  H
  H518     1.0000 0.59731  0.14129  0.11688  Biso   1.000  H
  H519     1.0000 0.65291  0.08759  0.19122  Biso   1.000  H
  H520     1.0000 0.59730  0.14129  0.11695  Biso   1.000  H
  O184     1.0000 0.79284  0.05643  0.78224  Biso   1.000  O
  N359     1.0000 0.71020  0.08496  0.91806  Biso   1.000  N
  O185     1.0000 0.79283  0.05643  0.78231  Biso   1.000  O
  N360     1.0000 0.71019  0.08503  0.91806  Biso   1.000  N
  O186     1.0000 0.79284  0.05636  0.78231  Biso   1.000  O
  H521     1.0000 0.58666  0.05489  0.98980  Biso   1.000  H
  H522     1.0000 0.58673  0.05489  0.98980  Biso   1.000  H
  H523     1.0000 0.58674  0.05482  0.98980  Biso   1.000  H
  H524     1.0000 0.71950  0.19706  0.83778  Biso   1.000  H
  H525     1.0000 0.63406  0.20437  0.91332  Biso   1.000  H
  H526     1.0000 0.71949  0.19705  0.83785  Biso   1.000  H
  H527     1.0000 0.71949  0.19713  0.83778  Biso   1.000  H
  H528     1.0000 0.63413  0.20437  0.91332  Biso   1.000  H
  N361     1.0000 0.28978  0.91503  0.08194  Biso   1.000  N
  C553     1.0000 0.30017  0.81888  0.09934  Biso   1.000  C
  C554     1.0000 0.34619  0.96532  0.01007  Biso   1.000  C
  C555     1.0000 0.24781  0.97142  0.14528  Biso   1.000  C
  C556     1.0000 0.34619  0.96524  0.01013  Biso   1.000  C
  C557     1.0000 0.24780  0.97141  0.14535  Biso   1.000  C
  C558     1.0000 0.34620  0.96525  0.01007  Biso   1.000  C
  H529     1.0000 0.28048  0.80293  0.16222  Biso   1.000  H
  H530     1.0000 0.36591  0.79562  0.08668  Biso   1.000  H
  N362     1.0000 0.24669  0.77541  0.04720  Biso   1.000  N
  H531     1.0000 0.28049  0.80286  0.16222  Biso   1.000  H
  H532     1.0000 0.36591  0.79561  0.08674  Biso   1.000  H
  N363     1.0000 0.28978  0.91495  0.08201  Biso   1.000  N
  N364     1.0000 0.24668  0.77540  0.04727  Biso   1.000  N
  N365     1.0000 0.28984  0.91503  0.08194  Biso   1.000  N
  N366     1.0000 0.24675  0.77541  0.04720  Biso   1.000  N
  N367     1.0000 0.28983  0.91502  0.08201  Biso   1.000  N
  N368     1.0000 0.24675  0.77540  0.04727  Biso   1.000  N
  H533     1.0000 0.41332  0.94510  0.01020  Biso   1.000  H
  N369     1.0000 0.31852  0.96508  0.92346  Biso   1.000  N
  N370     1.0000 0.31851  0.96515  0.92346  Biso   1.000  N
  C559     1.0000 0.32061  0.06422  0.03160  Biso   1.000  C
  C560     1.0000 0.32060  0.06429  0.03160  Biso   1.000  C
  O187     1.0000 0.20714  0.94356  0.21776  Biso   1.000  O
  N371     1.0000 0.25789  0.05819  0.11441  Biso   1.000  N
  N372     1.0000 0.25797  0.05812  0.11441  Biso   1.000  N
  N373     1.0000 0.25796  0.05819  0.11441  Biso   1.000  N
  C561     1.0000 0.28019  0.74900  0.95653  Biso   1.000  C
  C562     1.0000 0.28018  0.74906  0.95653  Biso   1.000  C
  C563     1.0000 0.17129  0.73044  0.08468  Biso   1.000  C
  C564     1.0000 0.17129  0.73037  0.08474  Biso   1.000  C
  C565     1.0000 0.17130  0.73038  0.08468  Biso   1.000  C
  C566     1.0000 0.17128  0.73044  0.08474  Biso   1.000  C
  C567     1.0000 0.34166  0.88942  0.87132  Biso   1.000  C
  C568     1.0000 0.34164  0.88948  0.87139  Biso   1.000  C
  C569     1.0000 0.34173  0.88942  0.87132  Biso   1.000  C
  C570     1.0000 0.34172  0.88941  0.87139  Biso   1.000  C
  C571     1.0000 0.28036  0.04722  0.89052  Biso   1.000  C
  C572     1.0000 0.28043  0.04722  0.89052  Biso   1.000  C
  N374     1.0000 0.27384  0.10730  0.95520  Biso   1.000  N
  N375     1.0000 0.27383  0.10729  0.95526  Biso   1.000  N
  N376     1.0000 0.27384  0.10723  0.95526  Biso   1.000  N
  H534     1.0000 0.37590  0.09226  0.03720  Biso   1.000  H
  H535     1.0000 0.37591  0.09219  0.03720  Biso   1.000  H
  C573     1.0000 0.22266  0.13460  0.16582  Biso   1.000  C
  C574     1.0000 0.22265  0.13466  0.16582  Biso   1.000  C
  C575     1.0000 0.20371  0.69380  0.94013  Biso   1.000  C
  H536     1.0000 0.34208  0.71305  0.95313  Biso   1.000  H
  N377     1.0000 0.27588  0.82336  0.88692  Biso   1.000  N
  C576     1.0000 0.20370  0.69386  0.94013  Biso   1.000  C
  N378     1.0000 0.27587  0.82335  0.88699  Biso   1.000  N
  H537     1.0000 0.34209  0.71299  0.95313  Biso   1.000  H
  N379     1.0000 0.27596  0.82329  0.88692  Biso   1.000  N
  N380     1.0000 0.27594  0.82335  0.88699  Biso   1.000  N
  N381     1.0000 0.14552  0.68542  0.02347  Biso   1.000  N
  O188     1.0000 0.13684  0.73125  0.16322  Biso   1.000  O
  N382     1.0000 0.14551  0.68541  0.02354  Biso   1.000  N
  O189     1.0000 0.13685  0.73117  0.16328  Biso   1.000  O
  O190     1.0000 0.13685  0.73118  0.16322  Biso   1.000  O
  O191     1.0000 0.13684  0.73124  0.16328  Biso   1.000  O
  H538     1.0000 0.40267  0.85870  0.88312  Biso   1.000  H
  H539     1.0000 0.34707  0.91241  0.80878  Biso   1.000  H
  H540     1.0000 0.40266  0.85877  0.88312  Biso   1.000  H
  H541     1.0000 0.34705  0.91247  0.80885  Biso   1.000  H
  H542     1.0000 0.34714  0.91241  0.80878  Biso   1.000  H
  H543     1.0000 0.34713  0.91240  0.80885  Biso   1.000  H
  O192     1.0000 0.25524  0.06904  0.81711  Biso   1.000  O
  O193     1.0000 0.25523  0.06904  0.81718  Biso   1.000  O
  C577     1.0000 0.25410  0.20326  0.93439  Biso   1.000  C
  C578     1.0000 0.25409  0.20325  0.93446  Biso   1.000  C
  C579     1.0000 0.25409  0.20333  0.93439  Biso   1.000  C
  H544     1.0000 0.20688  0.11220  0.22782  Biso   1.000  H
  H545     1.0000 0.27165  0.17283  0.16268  Biso   1.000  H
  N383     1.0000 0.14198  0.18781  0.13455  Biso   1.000  N
  H546     1.0000 0.20687  0.11227  0.22782  Biso   1.000  H
  H547     1.0000 0.27165  0.17283  0.16275  Biso   1.000  H
  N384     1.0000 0.14196  0.18787  0.13461  Biso   1.000  N
  H548     1.0000 0.27172  0.17283  0.16268  Biso   1.000  H
  H549     1.0000 0.27171  0.17283  0.16275  Biso   1.000  H
  N385     1.0000 0.14197  0.18780  0.13461  Biso   1.000  N
  H550     1.0000 0.23128  0.63425  0.92219  Biso   1.000  H
  N386     1.0000 0.16227  0.74934  0.86759  Biso   1.000  N
  H551     1.0000 0.23127  0.63424  0.92226  Biso   1.000  H
  H552     1.0000 0.23129  0.63418  0.92219  Biso   1.000  H
  C580     1.0000 0.20836  0.82201  0.83498  Biso   1.000  C
  C581     1.0000 0.20834  0.82207  0.83505  Biso   1.000  C
  C582     1.0000 0.20843  0.82201  0.83498  Biso   1.000  C
  C583     1.0000 0.20842  0.82201  0.83505  Biso   1.000  C
  C584     1.0000 0.06637  0.63563  0.03927  Biso   1.000  C
  C585     1.0000 0.06637  0.63556  0.03934  Biso   1.000  C
  C586     1.0000 0.06636  0.63562  0.03934  Biso   1.000  C
  H553     1.0000 0.25647  0.21685  0.87032  Biso   1.000  H
  H554     1.0000 0.30212  0.23233  0.95340  Biso   1.000  H
  N387     1.0000 0.16240  0.24065  0.97706  Biso   1.000  N
  H555     1.0000 0.25646  0.21692  0.87032  Biso   1.000  H
  H556     1.0000 0.30210  0.23239  0.95346  Biso   1.000  H
  H557     1.0000 0.25653  0.21692  0.87032  Biso   1.000  H
  H558     1.0000 0.30211  0.23240  0.95340  Biso   1.000  H
  H559     1.0000 0.25654  0.21685  0.87032  Biso   1.000  H
  H560     1.0000 0.30211  0.23233  0.95346  Biso   1.000  H
  C587     1.0000 0.05548  0.18921  0.18395  Biso   1.000  C
  C588     1.0000 0.14791  0.26434  0.06734  Biso   1.000  C
  C589     1.0000 0.05546  0.18927  0.18402  Biso   1.000  C
  C590     1.0000 0.14792  0.26428  0.06734  Biso   1.000  C
  C591     1.0000 0.05547  0.18920  0.18402  Biso   1.000  C
  C592     1.0000 0.09828  0.71846  0.81671  Biso   1.000  C
  C593     1.0000 0.09829  0.71839  0.81671  Biso   1.000  C
  O194     1.0000 0.19613  0.87300  0.76804  Biso   1.000  O
  O195     1.0000 0.19612  0.87307  0.76804  Biso   1.000  O
  H561     1.0000 0.05418  0.61680  0.10261  Biso   1.000  H
  H562     1.0000 0.08191  0.58131  0.00860  Biso   1.000  H
  N388     1.0000 0.98245  0.68619  0.01020  Biso   1.000  N
  N389     1.0000 0.98245  0.68611  0.01027  Biso   1.000  N
  N390     1.0000 0.98246  0.68612  0.01020  Biso   1.000  N
  N391     1.0000 0.98244  0.68618  0.01027  Biso   1.000  N
  C594     1.0000 0.09099  0.27455  0.93073  Biso   1.000  C
  N392     1.0000 0.99811  0.26218  0.14855  Biso   1.000  N
  N393     1.0000 0.99810  0.26217  0.14862  Biso   1.000  N
  N394     1.0000 0.99812  0.26211  0.14855  Biso   1.000  N
  O196     1.0000 0.03304  0.13459  0.24896  Biso   1.000  O
  O197     1.0000 0.03312  0.13452  0.24896  Biso   1.000  O
  H563     1.0000 0.19336  0.30294  0.07761  Biso   1.000  H
  C595     1.0000 0.04568  0.31526  0.07567  Biso   1.000  C
  H564     1.0000 0.19337  0.30287  0.07761  Biso   1.000  H
  C596     1.0000 0.04569  0.31519  0.07567  Biso   1.000  C
  H565     1.0000 0.10766  0.74665  0.75591  Biso   1.000  H
  H566     1.0000 0.11360  0.65352  0.81498  Biso   1.000  H
  N395     1.0000 0.00186  0.73788  0.85145  Biso   1.000  N
  H567     1.0000 0.11359  0.65352  0.81505  Biso   1.000  H
  N396     1.0000 0.00185  0.73795  0.85145  Biso   1.000  N
  H568     1.0000 0.10767  0.74659  0.75591  Biso   1.000  H
  N397     1.0000 0.00193  0.73788  0.85145  Biso   1.000  N
  C597     1.0000 0.95429  0.68480  0.92433  Biso   1.000  C
  C598     1.0000 0.95427  0.68486  0.92439  Biso   1.000  C
  C599     1.0000 0.95428  0.68479  0.92439  Biso   1.000  C
  C600     1.0000 0.90899  0.72544  0.06927  Biso   1.000  C
  C601     1.0000 0.90898  0.72544  0.06934  Biso   1.000  C
  N398     1.0000 0.01753  0.31380  0.98980  Biso   1.000  N
  O198     1.0000 0.08683  0.27314  0.85278  Biso   1.000  O
  O199     1.0000 0.08682  0.27321  0.85278  Biso   1.000  O
  N399     1.0000 0.01752  0.31387  0.98980  Biso   1.000  N
  C602     1.0000 0.90169  0.28160  0.18329  Biso   1.000  C
  C603     1.0000 0.90167  0.28166  0.18335  Biso   1.000  C
  C604     1.0000 0.90168  0.28159  0.18335  Biso   1.000  C
  H569     1.0000 0.04449  0.37745  0.08961  Biso   1.000  H
  H570     1.0000 0.04450  0.37738  0.08961  Biso   1.000  H
  C605     1.0000 0.94449  0.81085  0.81605  Biso   1.000  C
  C606     1.0000 0.94450  0.81078  0.81605  Biso   1.000  C
  C607     1.0000 0.85206  0.73572  0.93266  Biso   1.000  C
  H571     1.0000 0.95548  0.62261  0.91039  Biso   1.000  H
  C608     1.0000 0.85204  0.73578  0.93273  Biso   1.000  C
  H572     1.0000 0.95546  0.62267  0.91046  Biso   1.000  H
  C609     1.0000 0.85213  0.73572  0.93266  Biso   1.000  C
  C610     1.0000 0.85212  0.73571  0.93273  Biso   1.000  C
  H573     1.0000 0.95547  0.62260  0.91046  Biso   1.000  H
  N400     1.0000 0.83758  0.75934  0.02294  Biso   1.000  N
  O200     1.0000 0.91314  0.72685  0.14722  Biso   1.000  O
  N401     1.0000 0.83757  0.75933  0.02300  Biso   1.000  N
  O201     1.0000 0.91314  0.72677  0.14728  Biso   1.000  O
  N402     1.0000 0.83765  0.75934  0.02294  Biso   1.000  N
  O202     1.0000 0.91315  0.72678  0.14722  Biso   1.000  O
  N403     1.0000 0.83764  0.75933  0.02300  Biso   1.000  N
  O203     1.0000 0.91313  0.72684  0.14728  Biso   1.000  O
  C611     1.0000 0.93361  0.36436  0.96073  Biso   1.000  C
  C612     1.0000 0.93360  0.36443  0.96073  Biso   1.000  C
  H574     1.0000 0.89231  0.25340  0.24409  Biso   1.000  H
  H575     1.0000 0.88636  0.34654  0.18502  Biso   1.000  H
  N404     1.0000 0.83770  0.25072  0.13241  Biso   1.000  N
  H576     1.0000 0.89229  0.25347  0.24416  Biso   1.000  H
  N405     1.0000 0.83769  0.25071  0.13248  Biso   1.000  N
  H577     1.0000 0.88637  0.34647  0.18502  Biso   1.000  H
  H578     1.0000 0.89230  0.25340  0.24416  Biso   1.000  H
  N406     1.0000 0.85799  0.81225  0.86545  Biso   1.000  N
  O204     1.0000 0.96693  0.86547  0.75104  Biso   1.000  O
  O205     1.0000 0.96691  0.86553  0.75111  Biso   1.000  O
  N407     1.0000 0.85800  0.81218  0.86545  Biso   1.000  N
  O206     1.0000 0.96692  0.86546  0.75111  Biso   1.000  O
  H579     1.0000 0.80660  0.69712  0.92239  Biso   1.000  H
  H580     1.0000 0.80659  0.69711  0.92246  Biso   1.000  H
  C613     1.0000 0.74588  0.79673  0.06561  Biso   1.000  C
  C614     1.0000 0.74589  0.79666  0.06561  Biso   1.000  C
  H581     1.0000 0.94579  0.38319  0.89739  Biso   1.000  H
  H582     1.0000 0.91806  0.41868  0.99140  Biso   1.000  H
  N408     1.0000 0.85446  0.31457  0.97653  Biso   1.000  N
  H583     1.0000 0.94579  0.38318  0.89746  Biso   1.000  H
  H584     1.0000 0.91813  0.41868  0.99140  Biso   1.000  H
  C615     1.0000 0.79161  0.17805  0.16502  Biso   1.000  C
  C616     1.0000 0.79625  0.30626  0.05987  Biso   1.000  C
  C617     1.0000 0.79624  0.30625  0.05994  Biso   1.000  C
  C618     1.0000 0.79162  0.17798  0.16502  Biso   1.000  C
  C619     1.0000 0.79633  0.30619  0.05987  Biso   1.000  C
  C620     1.0000 0.79632  0.30619  0.05994  Biso   1.000  C
  C621     1.0000 0.77730  0.86546  0.83418  Biso   1.000  C
  C622     1.0000 0.77729  0.86545  0.83425  Biso   1.000  C
  C623     1.0000 0.77731  0.86539  0.83418  Biso   1.000  C
  C624     1.0000 0.77730  0.86539  0.83425  Biso   1.000  C
  H585     1.0000 0.74351  0.78314  0.12968  Biso   1.000  H
  H586     1.0000 0.69786  0.76766  0.04660  Biso   1.000  H
  N409     1.0000 0.72614  0.89269  0.04480  Biso   1.000  N
  H587     1.0000 0.74351  0.78307  0.12975  Biso   1.000  H
  H588     1.0000 0.69787  0.76759  0.04660  Biso   1.000  H
  H589     1.0000 0.74352  0.78308  0.12968  Biso   1.000  H
  H590     1.0000 0.74350  0.78314  0.12975  Biso   1.000  H
  C625     1.0000 0.82869  0.26955  0.91532  Biso   1.000  C
  C626     1.0000 0.82868  0.26962  0.91532  Biso   1.000  C
  N410     1.0000 0.72409  0.17670  0.11308  Biso   1.000  N
  O207     1.0000 0.80384  0.12706  0.23196  Biso   1.000  O
  N411     1.0000 0.72408  0.17677  0.11308  Biso   1.000  N
  O208     1.0000 0.80383  0.12705  0.23202  Biso   1.000  O
  O209     1.0000 0.80392  0.12699  0.23196  Biso   1.000  O
  O210     1.0000 0.80391  0.12699  0.23202  Biso   1.000  O
  H591     1.0000 0.76869  0.36581  0.07781  Biso   1.000  H
  C627     1.0000 0.71978  0.25106  0.04347  Biso   1.000  C
  H592     1.0000 0.76868  0.36588  0.07781  Biso   1.000  H
  C628     1.0000 0.71977  0.25106  0.04354  Biso   1.000  C
  C629     1.0000 0.71979  0.25100  0.04347  Biso   1.000  C
  C630     1.0000 0.71978  0.25099  0.04354  Biso   1.000  C
  H593     1.0000 0.79309  0.88786  0.77218  Biso   1.000  H
  H594     1.0000 0.72831  0.82722  0.83732  Biso   1.000  H
  N412     1.0000 0.74208  0.94187  0.88559  Biso   1.000  N
  H595     1.0000 0.79308  0.88785  0.77224  Biso   1.000  H
  N413     1.0000 0.74206  0.94193  0.88565  Biso   1.000  N
  H596     1.0000 0.79310  0.88779  0.77218  Biso   1.000  H
  N414     1.0000 0.74207  0.94187  0.88565  Biso   1.000  N
  C631     1.0000 0.67936  0.93584  0.96840  Biso   1.000  C
  C632     1.0000 0.67935  0.93583  0.96846  Biso   1.000  C
  C633     1.0000 0.67944  0.93577  0.96840  Biso   1.000  C
  C634     1.0000 0.67942  0.93583  0.96846  Biso   1.000  C
  C635     1.0000 0.71962  0.95278  0.10948  Biso   1.000  C
  C636     1.0000 0.71962  0.95270  0.10954  Biso   1.000  C
  C637     1.0000 0.71961  0.95277  0.10954  Biso   1.000  C
  N415     1.0000 0.75329  0.22458  0.95280  Biso   1.000  N
  O211     1.0000 0.86313  0.26874  0.83678  Biso   1.000  O
  O212     1.0000 0.86312  0.26881  0.83678  Biso   1.000  O
  C638     1.0000 0.65831  0.11064  0.12868  Biso   1.000  C
  C639     1.0000 0.65832  0.11057  0.12868  Biso   1.000  C
  H597     1.0000 0.65789  0.28700  0.04687  Biso   1.000  H
  H598     1.0000 0.65787  0.28707  0.04694  Biso   1.000  H
  H599     1.0000 0.65788  0.28700  0.04694  Biso   1.000  H
  C640     1.0000 0.75217  0.02858  0.85472  Biso   1.000  C
  H600     1.0000 0.62407  0.90780  0.96280  Biso   1.000  H
  H601     1.0000 0.62405  0.90786  0.96286  Biso   1.000  H
  H602     1.0000 0.62406  0.90779  0.96286  Biso   1.000  H
  C641     1.0000 0.65379  0.03468  0.98993  Biso   1.000  C
  C642     1.0000 0.65378  0.03474  0.98993  Biso   1.000  C
  O213     1.0000 0.74473  0.93095  0.18289  Biso   1.000  O
  O214     1.0000 0.74474  0.93088  0.18289  Biso   1.000  O
  N416     1.0000 0.68145  0.03498  0.07654  Biso   1.000  N
  N417     1.0000 0.68144  0.03497  0.07661  Biso   1.000  N
  N418     1.0000 0.68146  0.03491  0.07654  Biso   1.000  N
  C643     1.0000 0.69981  0.18111  0.90066  Biso   1.000  C
  C644     1.0000 0.69980  0.18110  0.90072  Biso   1.000  C
  H603     1.0000 0.59730  0.14136  0.11688  Biso   1.000  H
  H604     1.0000 0.65290  0.08765  0.19122  Biso   1.000  H
  H605     1.0000 0.59729  0.14135  0.11695  Biso   1.000  H
  H606     1.0000 0.59731  0.14129  0.11688  Biso   1.000  H
  H607     1.0000 0.65291  0.08759  0.19122  Biso   1.000  H
  H608     1.0000 0.59730  0.14129  0.11695  Biso   1.000  H
  O215     1.0000 0.79284  0.05643  0.78224  Biso   1.000  O
  N419     1.0000 0.71020  0.08496  0.91806  Biso   1.000  N
  O216     1.0000 0.79283  0.05643  0.78231  Biso   1.000  O
  N420     1.0000 0.71019  0.08503  0.91806  Biso   1.000  N
  O217     1.0000 0.79284  0.05636  0.78231  Biso   1.000  O
  H609     1.0000 0.58666  0.05489  0.98980  Biso   1.000  H
  H610     1.0000 0.58673  0.05489  0.98980  Biso   1.000  H
  H611     1.0000 0.58674  0.05482  0.98980  Biso   1.000  H
  H612     1.0000 0.71950  0.19706  0.83778  Biso   1.000  H
  H613     1.0000 0.63406  0.20437  0.91332  Biso   1.000  H
  H614     1.0000 0.71949  0.19705  0.83785  Biso   1.000  H
  H615     1.0000 0.71949  0.19713  0.83778  Biso   1.000  H
  H616     1.0000 0.63413  0.20437  0.91332  Biso   1.000  H
  N421     1.0000 0.28978  0.91503  0.08194  Biso   1.000  N
  C645     1.0000 0.30017  0.81888  0.09934  Biso   1.000  C
  C646     1.0000 0.34619  0.96532  0.01007  Biso   1.000  C
  C647     1.0000 0.24781  0.97142  0.14528  Biso   1.000  C
  C648     1.0000 0.34619  0.96524  0.01013  Biso   1.000  C
  C649     1.0000 0.24780  0.97141  0.14535  Biso   1.000  C
  C650     1.0000 0.34620  0.96525  0.01007  Biso   1.000  C
  H617     1.0000 0.28048  0.80293  0.16222  Biso   1.000  H
  H618     1.0000 0.36591  0.79562  0.08668  Biso   1.000  H
  N422     1.0000 0.24669  0.77541  0.04720  Biso   1.000  N
  H619     1.0000 0.28049  0.80286  0.16222  Biso   1.000  H
  H620     1.0000 0.36591  0.79561  0.08674  Biso   1.000  H
  N423     1.0000 0.28978  0.91495  0.08201  Biso   1.000  N
  N424     1.0000 0.24668  0.77540  0.04727  Biso   1.000  N
  N425     1.0000 0.28984  0.91503  0.08194  Biso   1.000  N
  N426     1.0000 0.24675  0.77541  0.04720  Biso   1.000  N
  N427     1.0000 0.28983  0.91502  0.08201  Biso   1.000  N
  N428     1.0000 0.24675  0.77540  0.04727  Biso   1.000  N
  H621     1.0000 0.41332  0.94510  0.01020  Biso   1.000  H
  N429     1.0000 0.31852  0.96508  0.92346  Biso   1.000  N
  N430     1.0000 0.31851  0.96515  0.92346  Biso   1.000  N
  C651     1.0000 0.32061  0.06422  0.03160  Biso   1.000  C
  C652     1.0000 0.32060  0.06429  0.03160  Biso   1.000  C
  O218     1.0000 0.20714  0.94356  0.21776  Biso   1.000  O
  N431     1.0000 0.25789  0.05819  0.11441  Biso   1.000  N
  N432     1.0000 0.25797  0.05812  0.11441  Biso   1.000  N
  N433     1.0000 0.25796  0.05819  0.11441  Biso   1.000  N
  C653     1.0000 0.28019  0.74900  0.95653  Biso   1.000  C
  C654     1.0000 0.28018  0.74906  0.95653  Biso   1.000  C
  C655     1.0000 0.17129  0.73044  0.08468  Biso   1.000  C
  C656     1.0000 0.17129  0.73037  0.08474  Biso   1.000  C
  C657     1.0000 0.17130  0.73038  0.08468  Biso   1.000  C
  C658     1.0000 0.17128  0.73044  0.08474  Biso   1.000  C
  C659     1.0000 0.34166  0.88942  0.87132  Biso   1.000  C
  C660     1.0000 0.34164  0.88948  0.87139  Biso   1.000  C
  C661     1.0000 0.34173  0.88942  0.87132  Biso   1.000  C
  C662     1.0000 0.34172  0.88941  0.87139  Biso   1.000  C
  C663     1.0000 0.28036  0.04722  0.89052  Biso   1.000  C
  C664     1.0000 0.28043  0.04722  0.89052  Biso   1.000  C
  N434     1.0000 0.27384  0.10730  0.95520  Biso   1.000  N
  N435     1.0000 0.27383  0.10729  0.95526  Biso   1.000  N
  N436     1.0000 0.27384  0.10723  0.95526  Biso   1.000  N
  H622     1.0000 0.37590  0.09226  0.03720  Biso   1.000  H
  H623     1.0000 0.37591  0.09219  0.03720  Biso   1.000  H
  C665     1.0000 0.22266  0.13460  0.16582  Biso   1.000  C
  C666     1.0000 0.22265  0.13466  0.16582  Biso   1.000  C
  C667     1.0000 0.20371  0.69380  0.94013  Biso   1.000  C
  H624     1.0000 0.34208  0.71305  0.95313  Biso   1.000  H
  N437     1.0000 0.27588  0.82336  0.88692  Biso   1.000  N
  C668     1.0000 0.20370  0.69386  0.94013  Biso   1.000  C
  N438     1.0000 0.27587  0.82335  0.88699  Biso   1.000  N
  H625     1.0000 0.34209  0.71299  0.95313  Biso   1.000  H
  N439     1.0000 0.27596  0.82329  0.88692  Biso   1.000  N
  N440     1.0000 0.27594  0.82335  0.88699  Biso   1.000  N
  N441     1.0000 0.14552  0.68542  0.02347  Biso   1.000  N
  O219     1.0000 0.13684  0.73125  0.16322  Biso   1.000  O
  N442     1.0000 0.14551  0.68541  0.02354  Biso   1.000  N
  O220     1.0000 0.13685  0.73117  0.16328  Biso   1.000  O
  O221     1.0000 0.13685  0.73118  0.16322  Biso   1.000  O
  O222     1.0000 0.13684  0.73124  0.16328  Biso   1.000  O
  H626     1.0000 0.40267  0.85870  0.88312  Biso   1.000  H
  H627     1.0000 0.34707  0.91241  0.80878  Biso   1.000  H
  H628     1.0000 0.40266  0.85877  0.88312  Biso   1.000  H
  H629     1.0000 0.34705  0.91247  0.80885  Biso   1.000  H
  H630     1.0000 0.34714  0.91241  0.80878  Biso   1.000  H
  H631     1.0000 0.34713  0.91240  0.80885  Biso   1.000  H
  O223     1.0000 0.25524  0.06904  0.81711  Biso   1.000  O
  O224     1.0000 0.25523  0.06904  0.81718  Biso   1.000  O
  C669     1.0000 0.25410  0.20326  0.93439  Biso   1.000  C
  C670     1.0000 0.25409  0.20325  0.93446  Biso   1.000  C
  C671     1.0000 0.25409  0.20333  0.93439  Biso   1.000  C
  H632     1.0000 0.20688  0.11220  0.22782  Biso   1.000  H
  H633     1.0000 0.27165  0.17283  0.16268  Biso   1.000  H
  N443     1.0000 0.14198  0.18781  0.13455  Biso   1.000  N
  H634     1.0000 0.20687  0.11227  0.22782  Biso   1.000  H
  H635     1.0000 0.27165  0.17283  0.16275  Biso   1.000  H
  N444     1.0000 0.14196  0.18787  0.13461  Biso   1.000  N
  H636     1.0000 0.27172  0.17283  0.16268  Biso   1.000  H
  H637     1.0000 0.27171  0.17283  0.16275  Biso   1.000  H
  N445     1.0000 0.14197  0.18780  0.13461  Biso   1.000  N
  H638     1.0000 0.23128  0.63425  0.92219  Biso   1.000  H
  N446     1.0000 0.16227  0.74934  0.86759  Biso   1.000  N
  H639     1.0000 0.23127  0.63424  0.92226  Biso   1.000  H
  H640     1.0000 0.23129  0.63418  0.92219  Biso   1.000  H
  C672     1.0000 0.20836  0.82201  0.83498  Biso   1.000  C
  C673     1.0000 0.20834  0.82207  0.83505  Biso   1.000  C
  C674     1.0000 0.20843  0.82201  0.83498  Biso   1.000  C
  C675     1.0000 0.20842  0.82201  0.83505  Biso   1.000  C
  C676     1.0000 0.06637  0.63563  0.03927  Biso   1.000  C
  C677     1.0000 0.06637  0.63556  0.03934  Biso   1.000  C
  C678     1.0000 0.06636  0.63562  0.03934  Biso   1.000  C
  H641     1.0000 0.25647  0.21685  0.87032  Biso   1.000  H
  H642     1.0000 0.30212  0.23233  0.95340  Biso   1.000  H
  N447     1.0000 0.16240  0.24065  0.97706  Biso   1.000  N
  H643     1.0000 0.25646  0.21692  0.87032  Biso   1.000  H
  H644     1.0000 0.30210  0.23239  0.95346  Biso   1.000  H
  H645     1.0000 0.25653  0.21692  0.87032  Biso   1.000  H
  H646     1.0000 0.30211  0.23240  0.95340  Biso   1.000  H
  H647     1.0000 0.25654  0.21685  0.87032  Biso   1.000  H
  H648     1.0000 0.30211  0.23233  0.95346  Biso   1.000  H
  C679     1.0000 0.05548  0.18921  0.18395  Biso   1.000  C
  C680     1.0000 0.14791  0.26434  0.06734  Biso   1.000  C
  C681     1.0000 0.05546  0.18927  0.18402  Biso   1.000  C
  C682     1.0000 0.14792  0.26428  0.06734  Biso   1.000  C
  C683     1.0000 0.05547  0.18920  0.18402  Biso   1.000  C
  C684     1.0000 0.09828  0.71846  0.81671  Biso   1.000  C
  C685     1.0000 0.09829  0.71839  0.81671  Biso   1.000  C
  O225     1.0000 0.19613  0.87300  0.76804  Biso   1.000  O
  O226     1.0000 0.19612  0.87307  0.76804  Biso   1.000  O
  H649     1.0000 0.05418  0.61680  0.10261  Biso   1.000  H
  H650     1.0000 0.08191  0.58131  0.00860  Biso   1.000  H
  N448     1.0000 0.98245  0.68619  0.01020  Biso   1.000  N
  N449     1.0000 0.98245  0.68611  0.01027  Biso   1.000  N
  N450     1.0000 0.98246  0.68612  0.01020  Biso   1.000  N
  N451     1.0000 0.98244  0.68618  0.01027  Biso   1.000  N
  C686     1.0000 0.09099  0.27455  0.93073  Biso   1.000  C
  N452     1.0000 0.99811  0.26218  0.14855  Biso   1.000  N
  N453     1.0000 0.99810  0.26217  0.14862  Biso   1.000  N
  N454     1.0000 0.99812  0.26211  0.14855  Biso   1.000  N
  O227     1.0000 0.03304  0.13459  0.24896  Biso   1.000  O
  O228     1.0000 0.03312  0.13452  0.24896  Biso   1.000  O
  H651     1.0000 0.19336  0.30294  0.07761  Biso   1.000  H
  C687     1.0000 0.04568  0.31526  0.07567  Biso   1.000  C
  H652     1.0000 0.19337  0.30287  0.07761  Biso   1.000  H
  C688     1.0000 0.04569  0.31519  0.07567  Biso   1.000  C
  H653     1.0000 0.10766  0.74665  0.75591  Biso   1.000  H
  H654     1.0000 0.11360  0.65352  0.81498  Biso   1.000  H
  N455     1.0000 0.00186  0.73788  0.85145  Biso   1.000  N
  H655     1.0000 0.11359  0.65352  0.81505  Biso   1.000  H
  N456     1.0000 0.00185  0.73795  0.85145  Biso   1.000  N
  H656     1.0000 0.10767  0.74659  0.75591  Biso   1.000  H
  N457     1.0000 0.00193  0.73788  0.85145  Biso   1.000  N
  C689     1.0000 0.95429  0.68480  0.92433  Biso   1.000  C
  C690     1.0000 0.95427  0.68486  0.92439  Biso   1.000  C
  C691     1.0000 0.95428  0.68479  0.92439  Biso   1.000  C
  C692     1.0000 0.90899  0.72544  0.06927  Biso   1.000  C
  C693     1.0000 0.90898  0.72544  0.06934  Biso   1.000  C
  N458     1.0000 0.01753  0.31380  0.98980  Biso   1.000  N
  O229     1.0000 0.08683  0.27314  0.85278  Biso   1.000  O
  O230     1.0000 0.08682  0.27321  0.85278  Biso   1.000  O
  N459     1.0000 0.01752  0.31387  0.98980  Biso   1.000  N
  C694     1.0000 0.90169  0.28160  0.18329  Biso   1.000  C
  C695     1.0000 0.90167  0.28166  0.18335  Biso   1.000  C
  C696     1.0000 0.90168  0.28159  0.18335  Biso   1.000  C
  H657     1.0000 0.04449  0.37745  0.08961  Biso   1.000  H
  H658     1.0000 0.04450  0.37738  0.08961  Biso   1.000  H
  C697     1.0000 0.94449  0.81085  0.81605  Biso   1.000  C
  C698     1.0000 0.94450  0.81078  0.81605  Biso   1.000  C
  C699     1.0000 0.85206  0.73572  0.93266  Biso   1.000  C
  H659     1.0000 0.95548  0.62261  0.91039  Biso   1.000  H
  C700     1.0000 0.85204  0.73578  0.93273  Biso   1.000  C
  H660     1.0000 0.95546  0.62267  0.91046  Biso   1.000  H
  C701     1.0000 0.85213  0.73572  0.93266  Biso   1.000  C
  C702     1.0000 0.85212  0.73571  0.93273  Biso   1.000  C
  H661     1.0000 0.95547  0.62260  0.91046  Biso   1.000  H
  N460     1.0000 0.83758  0.75934  0.02294  Biso   1.000  N
  O231     1.0000 0.91314  0.72685  0.14722  Biso   1.000  O
  N461     1.0000 0.83757  0.75933  0.02300  Biso   1.000  N
  O232     1.0000 0.91314  0.72677  0.14728  Biso   1.000  O
  N462     1.0000 0.83765  0.75934  0.02294  Biso   1.000  N
  O233     1.0000 0.91315  0.72678  0.14722  Biso   1.000  O
  N463     1.0000 0.83764  0.75933  0.02300  Biso   1.000  N
  O234     1.0000 0.91313  0.72684  0.14728  Biso   1.000  O
  C703     1.0000 0.93361  0.36436  0.96073  Biso   1.000  C
  C704     1.0000 0.93360  0.36443  0.96073  Biso   1.000  C
  H662     1.0000 0.89231  0.25340  0.24409  Biso   1.000  H
  H663     1.0000 0.88636  0.34654  0.18502  Biso   1.000  H
  N464     1.0000 0.83770  0.25072  0.13241  Biso   1.000  N
  H664     1.0000 0.89229  0.25347  0.24416  Biso   1.000  H
  N465     1.0000 0.83769  0.25071  0.13248  Biso   1.000  N
  H665     1.0000 0.88637  0.34647  0.18502  Biso   1.000  H
  H666     1.0000 0.89230  0.25340  0.24416  Biso   1.000  H
  N466     1.0000 0.85799  0.81225  0.86545  Biso   1.000  N
  O235     1.0000 0.96693  0.86547  0.75104  Biso   1.000  O
  O236     1.0000 0.96691  0.86553  0.75111  Biso   1.000  O
  N467     1.0000 0.85800  0.81218  0.86545  Biso   1.000  N
  O237     1.0000 0.96692  0.86546  0.75111  Biso   1.000  O
  H667     1.0000 0.80660  0.69712  0.92239  Biso   1.000  H
  H668     1.0000 0.80659  0.69711  0.92246  Biso   1.000  H
  C705     1.0000 0.74588  0.79673  0.06561  Biso   1.000  C
  C706     1.0000 0.74589  0.79666  0.06561  Biso   1.000  C
  H669     1.0000 0.94579  0.38319  0.89739  Biso   1.000  H
  H670     1.0000 0.91806  0.41868  0.99140  Biso   1.000  H
  N468     1.0000 0.85446  0.31457  0.97653  Biso   1.000  N
  H671     1.0000 0.94579  0.38318  0.89746  Biso   1.000  H
  H672     1.0000 0.91813  0.41868  0.99140  Biso   1.000  H
  C707     1.0000 0.79161  0.17805  0.16502  Biso   1.000  C
  C708     1.0000 0.79625  0.30626  0.05987  Biso   1.000  C
  C709     1.0000 0.79624  0.30625  0.05994  Biso   1.000  C
  C710     1.0000 0.79162  0.17798  0.16502  Biso   1.000  C
  C711     1.0000 0.79633  0.30619  0.05987  Biso   1.000  C
  C712     1.0000 0.79632  0.30619  0.05994  Biso   1.000  C
  C713     1.0000 0.77730  0.86546  0.83418  Biso   1.000  C
  C714     1.0000 0.77729  0.86545  0.83425  Biso   1.000  C
  C715     1.0000 0.77731  0.86539  0.83418  Biso   1.000  C
  C716     1.0000 0.77730  0.86539  0.83425  Biso   1.000  C
  H673     1.0000 0.74351  0.78314  0.12968  Biso   1.000  H
  H674     1.0000 0.69786  0.76766  0.04660  Biso   1.000  H
  N469     1.0000 0.72614  0.89269  0.04480  Biso   1.000  N
  H675     1.0000 0.74351  0.78307  0.12975  Biso   1.000  H
  H676     1.0000 0.69787  0.76759  0.04660  Biso   1.000  H
  H677     1.0000 0.74352  0.78308  0.12968  Biso   1.000  H
  H678     1.0000 0.74350  0.78314  0.12975  Biso   1.000  H
  C717     1.0000 0.82869  0.26955  0.91532  Biso   1.000  C
  C718     1.0000 0.82868  0.26962  0.91532  Biso   1.000  C
  N470     1.0000 0.72409  0.17670  0.11308  Biso   1.000  N
  O238     1.0000 0.80384  0.12706  0.23196  Biso   1.000  O
  N471     1.0000 0.72408  0.17677  0.11308  Biso   1.000  N
  O239     1.0000 0.80383  0.12705  0.23202  Biso   1.000  O
  O240     1.0000 0.80392  0.12699  0.23196  Biso   1.000  O
  O241     1.0000 0.80391  0.12699  0.23202  Biso   1.000  O
  H679     1.0000 0.76869  0.36581  0.07781  Biso   1.000  H
  C719     1.0000 0.71978  0.25106  0.04347  Biso   1.000  C
  H680     1.0000 0.76868  0.36588  0.07781  Biso   1.000  H
  C720     1.0000 0.71977  0.25106  0.04354  Biso   1.000  C
  C721     1.0000 0.71979  0.25100  0.04347  Biso   1.000  C
  C722     1.0000 0.71978  0.25099  0.04354  Biso   1.000  C
  H681     1.0000 0.79309  0.88786  0.77218  Biso   1.000  H
  H682     1.0000 0.72831  0.82722  0.83732  Biso   1.000  H
  N472     1.0000 0.74208  0.94187  0.88559  Biso   1.000  N
  H683     1.0000 0.79308  0.88785  0.77224  Biso   1.000  H
  N473     1.0000 0.74206  0.94193  0.88565  Biso   1.000  N
  H684     1.0000 0.79310  0.88779  0.77218  Biso   1.000  H
  N474     1.0000 0.74207  0.94187  0.88565  Biso   1.000  N
  C723     1.0000 0.67936  0.93584  0.96840  Biso   1.000  C
  C724     1.0000 0.67935  0.93583  0.96846  Biso   1.000  C
  C725     1.0000 0.67944  0.93577  0.96840  Biso   1.000  C
  C726     1.0000 0.67942  0.93583  0.96846  Biso   1.000  C
  C727     1.0000 0.71962  0.95278  0.10948  Biso   1.000  C
  C728     1.0000 0.71962  0.95270  0.10954  Biso   1.000  C
  C729     1.0000 0.71961  0.95277  0.10954  Biso   1.000  C
  N475     1.0000 0.75329  0.22458  0.95280  Biso   1.000  N
  O242     1.0000 0.86313  0.26874  0.83678  Biso   1.000  O
  O243     1.0000 0.86312  0.26881  0.83678  Biso   1.000  O
  C730     1.0000 0.65831  0.11064  0.12868  Biso   1.000  C
  C731     1.0000 0.65832  0.11057  0.12868  Biso   1.000  C
  H685     1.0000 0.65789  0.28700  0.04687  Biso   1.000  H
  H686     1.0000 0.65787  0.28707  0.04694  Biso   1.000  H
  H687     1.0000 0.65788  0.28700  0.04694  Biso   1.000  H
  C732     1.0000 0.75217  0.02858  0.85472  Biso   1.000  C
  H688     1.0000 0.62407  0.90780  0.96280  Biso   1.000  H
  H689     1.0000 0.62405  0.90786  0.96286  Biso   1.000  H
  H690     1.0000 0.62406  0.90779  0.96286  Biso   1.000  H
  C733     1.0000 0.65379  0.03468  0.98993  Biso   1.000  C
  C734     1.0000 0.65378  0.03474  0.98993  Biso   1.000  C
  O244     1.0000 0.74473  0.93095  0.18289  Biso   1.000  O
  O245     1.0000 0.74474  0.93088  0.18289  Biso   1.000  O
  N476     1.0000 0.68145  0.03498  0.07654  Biso   1.000  N
  N477     1.0000 0.68144  0.03497  0.07661  Biso   1.000  N
  N478     1.0000 0.68146  0.03491  0.07654  Biso   1.000  N
  C735     1.0000 0.69981  0.18111  0.90066  Biso   1.000  C
  C736     1.0000 0.69980  0.18110  0.90072  Biso   1.000  C
  H691     1.0000 0.59730  0.14136  0.11688  Biso   1.000  H
  H692     1.0000 0.65290  0.08765  0.19122  Biso   1.000  H
  H693     1.0000 0.59729  0.14135  0.11695  Biso   1.000  H
  H694     1.0000 0.59731  0.14129  0.11688  Biso   1.000  H
  H695     1.0000 0.65291  0.08759  0.19122  Biso   1.000  H
  H696     1.0000 0.59730  0.14129  0.11695  Biso   1.000  H
  O246     1.0000 0.79284  0.05643  0.78224  Biso   1.000  O
  N479     1.0000 0.71020  0.08496  0.91806  Biso   1.000  N
  O247     1.0000 0.79283  0.05643  0.78231  Biso   1.000  O
  N480     1.0000 0.71019  0.08503  0.91806  Biso   1.000  N
  O248     1.0000 0.79284  0.05636  0.78231  Biso   1.000  O
  H697     1.0000 0.58666  0.05489  0.98980  Biso   1.000  H
  H698     1.0000 0.58673  0.05489  0.98980  Biso   1.000  H
  H699     1.0000 0.58674  0.05482  0.98980  Biso   1.000  H
  H700     1.0000 0.71950  0.19706  0.83778  Biso   1.000  H
  H701     1.0000 0.63406  0.20437  0.91332  Biso   1.000  H
  H702     1.0000 0.71949  0.19705  0.83785  Biso   1.000  H
  H703     1.0000 0.71949  0.19713  0.83778  Biso   1.000  H
  H704     1.0000 0.63413  0.20437  0.91332  Biso   1.000  H
  C737     1.0000 0.47002  0.74142  0.23909  Biso   1.000  C
  C738     1.0000 0.45583  0.65550  0.19949  Biso   1.000  C
  N481     1.0000 0.39451  0.75290  0.31077  Biso   1.000  N
  H705     1.0000 0.46861  0.79408  0.19429  Biso   1.000  H
  N482     1.0000 0.56324  0.71687  0.26796  Biso   1.000  N
  N483     1.0000 0.37383  0.62695  0.25849  Biso   1.000  N
  N484     1.0000 0.54329  0.59629  0.20742  Biso   1.000  N
  H706     1.0000 0.44361  0.66861  0.13741  Biso   1.000  H
  C739     1.0000 0.33739  0.68567  0.31757  Biso   1.000  C
  C740     1.0000 0.37568  0.82767  0.36304  Biso   1.000  C
  C741     1.0000 0.60753  0.63359  0.24316  Biso   1.000  C
  C742     1.0000 0.61203  0.78419  0.29870  Biso   1.000  C
  C743     1.0000 0.32210  0.55774  0.23896  Biso   1.000  C
  C744     1.0000 0.56549  0.51436  0.16442  Biso   1.000  C
  O249     1.0000 0.26546  0.68233  0.36977  Biso   1.000  O
  H707     1.0000 0.30927  0.83630  0.38437  Biso   1.000  H
  H708     1.0000 0.39020  0.88180  0.32490  Biso   1.000  H
  N485     1.0000 0.42605  0.81881  0.43744  Biso   1.000  N
  O250     1.0000 0.68246  0.60185  0.25383  Biso   1.000  O
  H709     1.0000 0.59350  0.84301  0.26783  Biso   1.000  H
  H710     1.0000 0.67881  0.76892  0.28230  Biso   1.000  H
  N486     1.0000 0.59405  0.79069  0.39171  Biso   1.000  N
  N487     1.0000 0.36376  0.46650  0.26683  Biso   1.000  N
  H711     1.0000 0.25853  0.56762  0.26889  Biso   1.000  H
  H712     1.0000 0.31907  0.56333  0.17528  Biso   1.000  H
  N488     1.0000 0.52845  0.43696  0.21529  Biso   1.000  N
  H713     1.0000 0.54152  0.52451  0.10748  Biso   1.000  H
  H714     1.0000 0.63313  0.50057  0.15262  Biso   1.000  H
  C745     1.0000 0.38957  0.79247  0.52379  Biso   1.000  C
  C746     1.0000 0.51675  0.84873  0.43464  Biso   1.000  C
  C747     1.0000 0.65746  0.75434  0.44738  Biso   1.000  C
  C748     1.0000 0.32231  0.41690  0.33850  Biso   1.000  C
  C749     1.0000 0.43582  0.41601  0.21349  Biso   1.000  C
  C750     1.0000 0.58489  0.36390  0.24649  Biso   1.000  C
  N489     1.0000 0.45676  0.79289  0.57753  Biso   1.000  N
  O251     1.0000 0.31245  0.76773  0.54612  Biso   1.000  O
  C751     1.0000 0.53458  0.83572  0.53339  Biso   1.000  C
  H715     1.0000 0.51660  0.91200  0.40958  Biso   1.000  H
  N490     1.0000 0.62406  0.77994  0.52965  Biso   1.000  N
  O252     1.0000 0.73192  0.70545  0.42731  Biso   1.000  O
  N491     1.0000 0.36866  0.33040  0.34083  Biso   1.000  N
  O253     1.0000 0.25677  0.44185  0.39204  Biso   1.000  O
  C752     1.0000 0.43688  0.31858  0.26009  Biso   1.000  C
  H716     1.0000 0.42174  0.41907  0.15222  Biso   1.000  H
  N492     1.0000 0.53435  0.29533  0.27910  Biso   1.000  N
  O254     1.0000 0.67094  0.36005  0.24856  Biso   1.000  O
  C753     1.0000 0.43131  0.78917  0.67494  Biso   1.000  C
  H717     1.0000 0.53681  0.89362  0.55612  Biso   1.000  H
  C754     1.0000 0.66972  0.74810  0.60873  Biso   1.000  C
  C755     1.0000 0.33027  0.25191  0.39124  Biso   1.000  C
  H718     1.0000 0.41959  0.27690  0.22249  Biso   1.000  H
  C756     1.0000 0.56868  0.21083  0.32510  Biso   1.000  C
  N493     1.0000 0.46564  0.70468  0.72087  Biso   1.000  N
  H719     1.0000 0.36357  0.79909  0.68840  Biso   1.000  H
  H720     1.0000 0.45608  0.83783  0.69667  Biso   1.000  H
  N494     1.0000 0.63139  0.66960  0.65920  Biso   1.000  N
  H721     1.0000 0.73619  0.73217  0.59093  Biso   1.000  H
  H722     1.0000 0.66208  0.79667  0.64680  Biso   1.000  H
  H723     1.0000 0.26379  0.26783  0.40911  Biso   1.000  H
  H724     1.0000 0.33791  0.20334  0.35317  Biso   1.000  H
  N495     1.0000 0.37600  0.22006  0.47031  Biso   1.000  N
  N496     1.0000 0.54324  0.20705  0.42251  Biso   1.000  N
  H725     1.0000 0.63641  0.20091  0.31163  Biso   1.000  H
  H726     1.0000 0.54391  0.16218  0.30330  Biso   1.000  H
  C757     1.0000 0.41510  0.63611  0.75348  Biso   1.000  C
  C758     1.0000 0.56312  0.68143  0.73988  Biso   1.000  C
  C759     1.0000 0.67768  0.58311  0.66147  Biso   1.000  C
  C760     1.0000 0.34252  0.24566  0.55266  Biso   1.000  C
  C761     1.0000 0.46541  0.16429  0.46658  Biso   1.000  C
  C762     1.0000 0.61043  0.20747  0.47618  Biso   1.000  C
  N497     1.0000 0.47154  0.56305  0.78468  Biso   1.000  N
  O255     1.0000 0.32905  0.63996  0.75148  Biso   1.000  O
  C763     1.0000 0.56418  0.58400  0.78648  Biso   1.000  C
  H727     1.0000 0.58040  0.72311  0.77748  Biso   1.000  H
  N498     1.0000 0.63623  0.53351  0.73314  Biso   1.000  N
  O256     1.0000 0.74330  0.55816  0.60793  Biso   1.000  O
  N499     1.0000 0.40594  0.20932  0.60826  Biso   1.000  N
  O257     1.0000 0.26814  0.29456  0.57266  Biso   1.000  O
  H728     1.0000 0.46317  0.10638  0.44391  Biso   1.000  H
  C764     1.0000 0.48324  0.15128  0.56532  Biso   1.000  C
  N500     1.0000 0.57393  0.18120  0.56259  Biso   1.000  N
  O258     1.0000 0.68754  0.23227  0.45391  Biso   1.000  O
  C765     1.0000 0.43450  0.48565  0.83555  Biso   1.000  C
  H729     1.0000 0.57833  0.58087  0.84782  Biso   1.000  H
  C766     1.0000 0.67789  0.44227  0.76101  Biso   1.000  C
  C767     1.0000 0.38803  0.21582  0.70127  Biso   1.000  C
  H730     1.0000 0.48340  0.08801  0.59039  Biso   1.000  H
  C768     1.0000 0.62432  0.17227  0.63693  Biso   1.000  C
  N501     1.0000 0.45669  0.40371  0.79261  Biso   1.000  N
  H731     1.0000 0.45854  0.47549  0.89249  Biso   1.000  H
  H732     1.0000 0.36692  0.49943  0.84742  Biso   1.000  H
  N502     1.0000 0.62615  0.37305  0.74154  Biso   1.000  N
  H733     1.0000 0.74153  0.43239  0.73107  Biso   1.000  H
  H734     1.0000 0.68092  0.43668  0.82468  Biso   1.000  H
  H735     1.0000 0.40648  0.15699  0.73221  Biso   1.000  H
  H736     1.0000 0.32118  0.23109  0.71767  Biso   1.000  H
  N503     1.0000 0.43676  0.28314  0.73201  Biso   1.000  N
  H737     1.0000 0.69072  0.16371  0.61560  Biso   1.000  H
  H738     1.0000 0.60979  0.11821  0.67507  Biso   1.000  H
  N504     1.0000 0.60548  0.24711  0.68920  Biso   1.000  N
  C769     1.0000 0.39246  0.36642  0.75681  Biso   1.000  C
  C770     1.0000 0.54423  0.34451  0.80048  Biso   1.000  C
  C771     1.0000 0.66260  0.31434  0.68240  Biso   1.000  C
  C772     1.0000 0.53004  0.25859  0.76088  Biso   1.000  C
  O259     1.0000 0.31753  0.39816  0.74614  Biso   1.000  O
  H739     1.0000 0.55637  0.33140  0.86262  Biso   1.000  H
  O260     1.0000 0.73453  0.31767  0.63026  Biso   1.000  O
  H740     1.0000 0.53139  0.20593  0.80568  Biso   1.000  H
