data_image0
_cell_length_a       18.142
_cell_length_b       28.462
_cell_length_c       21.328
_cell_angle_alpha    90
_cell_angle_beta     90
_cell_angle_gamma    90

_symmetry_space_group_name_H-M    "P 1"
_symmetry_int_tables_number       1

loop_
  _symmetry_equiv_pos_as_xyz
  'x, y, z'

loop_
  _atom_site_label
  _atom_site_occupancy
  _atom_site_fract_x
  _atom_site_fract_y
  _atom_site_fract_z
  _atom_site_thermal_displace_type
  _atom_site_B_iso_or_equiv
  _atom_site_type_symbol
  C1       1.0000 0.70312  0.57891  0.47267  Biso   1.000  C
  C2       1.0000 0.63753  0.59933  0.45147  Biso   1.000  C
  H1       1.0000 0.70362  0.54680  0.48481  Biso   1.000  H
  C3       1.0000 0.76623  0.60467  0.47604  Biso   1.000  C
  C4       1.0000 0.56692  0.57333  0.44946  Biso   1.000  C
  C5       1.0000 0.64050  0.64623  0.43295  Biso   1.000  C
  N1       1.0000 0.76689  0.65038  0.45930  Biso   1.000  N
  H2       1.0000 0.81033  0.59030  0.49039  Biso   1.000  H
  C6       1.0000 0.56637  0.52407  0.44763  Biso   1.000  C
  C7       1.0000 0.50000  0.59718  0.45143  Biso   1.000  C
  C8       1.0000 0.70571  0.67121  0.43703  Biso   1.000  C
  H3       1.0000 0.59740  0.66120  0.41739  Biso   1.000  H
  C9       1.0000 0.83513  0.67891  0.47102  Biso   1.000  C
  C10      1.0000 0.50000  0.49912  0.44650  Biso   1.000  C
  H4       1.0000 0.61173  0.50741  0.44711  Biso   1.000  H
  C11      1.0000 0.43308  0.57333  0.44946  Biso   1.000  C
  H5       1.0000 0.50000  0.63052  0.45410  Biso   1.000  H
  H6       1.0000 0.70731  0.70311  0.42409  Biso   1.000  H
  C12      1.0000 0.84081  0.68699  0.54098  Biso   1.000  C
  H7       1.0000 0.83199  0.70930  0.44871  Biso   1.000  H
  H8       1.0000 0.87912  0.66179  0.45569  Biso   1.000  H
  C13      1.0000 0.50000  0.44670  0.44772  Biso   1.000  C
  C14      1.0000 0.43363  0.52407  0.44763  Biso   1.000  C
  C15      1.0000 0.36253  0.59933  0.45147  Biso   1.000  C
  C16      1.0000 0.78922  0.71523  0.57127  Biso   1.000  C
  C17      1.0000 0.89323  0.66461  0.57643  Biso   1.000  C
  C18      1.0000 0.43463  0.42077  0.44908  Biso   1.000  C
  C19      1.0000 0.56543  0.42077  0.44908  Biso   1.000  C
  H9       1.0000 0.38833  0.50741  0.44711  Biso   1.000  H
  C20      1.0000 0.35950  0.64623  0.43295  Biso   1.000  C
  C21      1.0000 0.29688  0.57891  0.47267  Biso   1.000  C
  C22      1.0000 0.78872  0.71857  0.63597  Biso   1.000  C
  H10      1.0000 0.75400  0.73231  0.54731  Biso   1.000  H
  H11      1.0000 0.93033  0.64651  0.55631  Biso   1.000  H
  C23      1.0000 0.89274  0.66812  0.64150  Biso   1.000  C
  C24      1.0000 0.43589  0.37306  0.45799  Biso   1.000  C
  H12      1.0000 0.38882  0.43641  0.44392  Biso   1.000  H
  C25      1.0000 0.56411  0.37306  0.45799  Biso   1.000  C
  H13      1.0000 0.61123  0.43641  0.44392  Biso   1.000  H
  C26      1.0000 0.29429  0.67121  0.43703  Biso   1.000  C
  H14      1.0000 0.40260  0.66120  0.41739  Biso   1.000  H
  H15      1.0000 0.29638  0.54680  0.48481  Biso   1.000  H
  C27      1.0000 0.23382  0.60467  0.47604  Biso   1.000  C
  C28      1.0000 0.83982  0.69405  0.67146  Biso   1.000  C
  H16      1.0000 0.75322  0.73783  0.65618  Biso   1.000  H
  H17      1.0000 0.92945  0.65231  0.66532  Biso   1.000  H
  N2       1.0000 0.50000  0.35022  0.46352  Biso   1.000  N
  H18      1.0000 0.39081  0.35609  0.46019  Biso   1.000  H
  H19      1.0000 0.60919  0.35609  0.46019  Biso   1.000  H
  N3       1.0000 0.23311  0.65038  0.45930  Biso   1.000  N
  H20      1.0000 0.29269  0.70311  0.42409  Biso   1.000  H
  H21      1.0000 0.18973  0.59030  0.49039  Biso   1.000  H
  C29      1.0000 0.83293  0.69370  0.74217  Biso   1.000  C
  C30      1.0000 0.50000  0.30015  0.48551  Biso   1.000  C
  C31      1.0000 0.16492  0.67891  0.47102  Biso   1.000  C
  N4       1.0000 0.76590  0.66569  0.75905  Biso   1.000  N
  H22      1.0000 0.87730  0.67940  0.76121  Biso   1.000  H
  H23      1.0000 0.82813  0.72620  0.75811  Biso   1.000  H
  H24      1.0000 0.54421  0.28371  0.46952  Biso   1.000  H
  C32      1.0000 0.50000  0.29945  0.55598  Biso   1.000  C
  H25      1.0000 0.45579  0.28371  0.46952  Biso   1.000  H
  C33      1.0000 0.15919  0.68699  0.54098  Biso   1.000  C
  H26      1.0000 0.16801  0.70930  0.44871  Biso   1.000  H
  H27      1.0000 0.12088  0.66179  0.45569  Biso   1.000  H
  C34      1.0000 0.76452  0.61911  0.74601  Biso   1.000  C
  C35      1.0000 0.70499  0.68744  0.78245  Biso   1.000  C
  C36      1.0000 0.43430  0.30068  0.58923  Biso   1.000  C
  C37      1.0000 0.56570  0.30068  0.58923  Biso   1.000  C
  C38      1.0000 0.21078  0.71523  0.57127  Biso   1.000  C
  C39      1.0000 0.10682  0.66461  0.57643  Biso   1.000  C
  C40      1.0000 0.70141  0.59318  0.75389  Biso   1.000  C
  H28      1.0000 0.80790  0.60410  0.73120  Biso   1.000  H
  C41      1.0000 0.64144  0.66257  0.79145  Biso   1.000  C
  H29      1.0000 0.70670  0.71991  0.79262  Biso   1.000  H
  H30      1.0000 0.38882  0.29910  0.56719  Biso   1.000  H
  C42      1.0000 0.43402  0.30416  0.65351  Biso   1.000  C
  C43      1.0000 0.56603  0.30416  0.65351  Biso   1.000  C
  H31      1.0000 0.61123  0.29910  0.56719  Biso   1.000  H
  C44      1.0000 0.21128  0.71857  0.63597  Biso   1.000  C
  H32      1.0000 0.24600  0.73231  0.54731  Biso   1.000  H
  H33      1.0000 0.06973  0.64651  0.55631  Biso   1.000  H
  C45      1.0000 0.10732  0.66812  0.64150  Biso   1.000  C
  C46      1.0000 0.63703  0.61485  0.77593  Biso   1.000  C
  H34      1.0000 0.70130  0.56061  0.74442  Biso   1.000  H
  H35      1.0000 0.59944  0.67792  0.80851  Biso   1.000  H
  C47      1.0000 0.50000  0.30683  0.68628  Biso   1.000  C
  H36      1.0000 0.38860  0.30479  0.67559  Biso   1.000  H
  H37      1.0000 0.61140  0.30479  0.67559  Biso   1.000  H
  C48      1.0000 0.16018  0.69405  0.67146  Biso   1.000  C
  H38      1.0000 0.24683  0.73783  0.65618  Biso   1.000  H
  H39      1.0000 0.07061  0.65231  0.66532  Biso   1.000  H
  C49      1.0000 0.56653  0.58893  0.78034  Biso   1.000  C
  C50      1.0000 0.50000  0.31368  0.75628  Biso   1.000  C
  C51      1.0000 0.16713  0.69370  0.74217  Biso   1.000  C
  C52      1.0000 0.56642  0.53970  0.78352  Biso   1.000  C
  C53      1.0000 0.50000  0.61282  0.77860  Biso   1.000  C
  N5       1.0000 0.50000  0.36491  0.77190  Biso   1.000  N
  H40      1.0000 0.45579  0.29861  0.77462  Biso   1.000  H
  H41      1.0000 0.54421  0.29861  0.77462  Biso   1.000  H
  N6       1.0000 0.23410  0.66569  0.75905  Biso   1.000  N
  H42      1.0000 0.12270  0.67940  0.76121  Biso   1.000  H
  H43      1.0000 0.17192  0.72620  0.75811  Biso   1.000  H
  C54      1.0000 0.50000  0.51497  0.78502  Biso   1.000  C
  H44      1.0000 0.61184  0.52312  0.78460  Biso   1.000  H
  C55      1.0000 0.43352  0.58893  0.78034  Biso   1.000  C
  H45      1.0000 0.50000  0.64612  0.77612  Biso   1.000  H
  C56      1.0000 0.43612  0.38866  0.77673  Biso   1.000  C
  C57      1.0000 0.56388  0.38866  0.77673  Biso   1.000  C
  C58      1.0000 0.23553  0.61911  0.74601  Biso   1.000  C
  C59      1.0000 0.29501  0.68744  0.78245  Biso   1.000  C
  C60      1.0000 0.50000  0.46269  0.78451  Biso   1.000  C
  C61      1.0000 0.43363  0.53970  0.78352  Biso   1.000  C
  C62      1.0000 0.36303  0.61485  0.77593  Biso   1.000  C
  H46      1.0000 0.39103  0.37169  0.77541  Biso   1.000  H
  C63      1.0000 0.43430  0.43662  0.78338  Biso   1.000  C
  H47      1.0000 0.60903  0.37169  0.77541  Biso   1.000  H
  C64      1.0000 0.56570  0.43662  0.78338  Biso   1.000  C
  C65      1.0000 0.29859  0.59318  0.75389  Biso   1.000  C
  H48      1.0000 0.19210  0.60410  0.73120  Biso   1.000  H
  C66      1.0000 0.35862  0.66257  0.79145  Biso   1.000  C
  H49      1.0000 0.29330  0.71991  0.79262  Biso   1.000  H
  H50      1.0000 0.38822  0.52312  0.78460  Biso   1.000  H
  H51      1.0000 0.38833  0.45232  0.78718  Biso   1.000  H
  H52      1.0000 0.61173  0.45232  0.78718  Biso   1.000  H
  H53      1.0000 0.29870  0.56061  0.74442  Biso   1.000  H
  H54      1.0000 0.40062  0.67792  0.80851  Biso   1.000  H
  C67      1.0000 0.56642  0.46033  0.28352  Biso   1.000  C
  C68      1.0000 0.50000  0.48507  0.28502  Biso   1.000  C
  C69      1.0000 0.56653  0.41107  0.28034  Biso   1.000  C
  H55      1.0000 0.61184  0.47692  0.28460  Biso   1.000  H
  C70      1.0000 0.43363  0.46033  0.28352  Biso   1.000  C
  C71      1.0000 0.50000  0.53731  0.28451  Biso   1.000  C
  C72      1.0000 0.50000  0.38718  0.27860  Biso   1.000  C
  C73      1.0000 0.63703  0.38518  0.27593  Biso   1.000  C
  C74      1.0000 0.43352  0.41107  0.28034  Biso   1.000  C
  H56      1.0000 0.38822  0.47692  0.28460  Biso   1.000  H
  C75      1.0000 0.56570  0.56338  0.28338  Biso   1.000  C
  C76      1.0000 0.43430  0.56338  0.28338  Biso   1.000  C
  H57      1.0000 0.50000  0.35391  0.27612  Biso   1.000  H
  C77      1.0000 0.70141  0.40682  0.25389  Biso   1.000  C
  C78      1.0000 0.64144  0.33747  0.29145  Biso   1.000  C
  C79      1.0000 0.36303  0.38518  0.27593  Biso   1.000  C
  C80      1.0000 0.56388  0.61138  0.27668  Biso   1.000  C
  H58      1.0000 0.61173  0.54771  0.28718  Biso   1.000  H
  C81      1.0000 0.43612  0.61138  0.27668  Biso   1.000  C
  H59      1.0000 0.38833  0.54771  0.28718  Biso   1.000  H
  H60      1.0000 0.70130  0.43939  0.24442  Biso   1.000  H
  C82      1.0000 0.76452  0.38089  0.24601  Biso   1.000  C
  C83      1.0000 0.70499  0.31256  0.28245  Biso   1.000  C
  H61      1.0000 0.59944  0.32211  0.30851  Biso   1.000  H
  C84      1.0000 0.35862  0.33747  0.29145  Biso   1.000  C
  C85      1.0000 0.29859  0.40682  0.25389  Biso   1.000  C
  N7       1.0000 0.50000  0.63509  0.27190  Biso   1.000  N
  H62      1.0000 0.60903  0.62831  0.27541  Biso   1.000  H
  H63      1.0000 0.39103  0.62831  0.27541  Biso   1.000  H
  N8       1.0000 0.76590  0.33434  0.25905  Biso   1.000  N
  H64      1.0000 0.80790  0.39590  0.23120  Biso   1.000  H
  H65      1.0000 0.70670  0.28009  0.29262  Biso   1.000  H
  C86      1.0000 0.29501  0.31256  0.28245  Biso   1.000  C
  H66      1.0000 0.40062  0.32211  0.30851  Biso   1.000  H
  C87      1.0000 0.23553  0.38089  0.24601  Biso   1.000  C
  H67      1.0000 0.29870  0.43939  0.24442  Biso   1.000  H
  C88      1.0000 0.50000  0.68632  0.25628  Biso   1.000  C
  C89      1.0000 0.83293  0.30630  0.24217  Biso   1.000  C
  N9       1.0000 0.23410  0.33434  0.25905  Biso   1.000  N
  H68      1.0000 0.29330  0.28009  0.29262  Biso   1.000  H
  H69      1.0000 0.19210  0.39590  0.23120  Biso   1.000  H
  C90      1.0000 0.50000  0.69317  0.18628  Biso   1.000  C
  H70      1.0000 0.54421  0.70143  0.27462  Biso   1.000  H
  H71      1.0000 0.45579  0.70143  0.27462  Biso   1.000  H
  H72      1.0000 0.87730  0.32060  0.26121  Biso   1.000  H
  H73      1.0000 0.82813  0.27380  0.25811  Biso   1.000  H
  C91      1.0000 0.83982  0.30599  0.17142  Biso   1.000  C
  C92      1.0000 0.16713  0.30630  0.24217  Biso   1.000  C
  C93      1.0000 0.43402  0.69584  0.15351  Biso   1.000  C
  C94      1.0000 0.56603  0.69584  0.15351  Biso   1.000  C
  C95      1.0000 0.78872  0.28143  0.13597  Biso   1.000  C
  C96      1.0000 0.89274  0.33192  0.14150  Biso   1.000  C
  H74      1.0000 0.12270  0.32060  0.26121  Biso   1.000  H
  H75      1.0000 0.17192  0.27380  0.25811  Biso   1.000  H
  C97      1.0000 0.16018  0.30599  0.17142  Biso   1.000  C
  H76      1.0000 0.38860  0.69521  0.17559  Biso   1.000  H
  C98      1.0000 0.43430  0.69935  0.08918  Biso   1.000  C
  C99      1.0000 0.56570  0.69935  0.08918  Biso   1.000  C
  H77      1.0000 0.61140  0.69521  0.17559  Biso   1.000  H
  H78      1.0000 0.75322  0.26221  0.15618  Biso   1.000  H
  C100     1.0000 0.78922  0.28480  0.07127  Biso   1.000  C
  C101     1.0000 0.89323  0.33539  0.07638  Biso   1.000  C
  H79      1.0000 0.92945  0.34769  0.16532  Biso   1.000  H
  C102     1.0000 0.21128  0.28143  0.13597  Biso   1.000  C
  C103     1.0000 0.10732  0.33192  0.14150  Biso   1.000  C
  C104     1.0000 0.50000  0.70058  0.05598  Biso   1.000  C
  H80      1.0000 0.38882  0.70090  0.06719  Biso   1.000  H
  H81      1.0000 0.61123  0.70090  0.06719  Biso   1.000  H
  H82      1.0000 0.75400  0.26769  0.04731  Biso   1.000  H
  C105     1.0000 0.84081  0.31301  0.04098  Biso   1.000  C
  H83      1.0000 0.93033  0.35349  0.05631  Biso   1.000  H
  H84      1.0000 0.24683  0.26221  0.15618  Biso   1.000  H
  C106     1.0000 0.21078  0.28480  0.07127  Biso   1.000  C
  C107     1.0000 0.10682  0.33539  0.07638  Biso   1.000  C
  H85      1.0000 0.07061  0.34769  0.16532  Biso   1.000  H
  C108     1.0000 0.50000  0.69985  0.98551  Biso   1.000  C
  C109     1.0000 0.83513  0.32113  0.97102  Biso   1.000  C
  H86      1.0000 0.24600  0.26769  0.04731  Biso   1.000  H
  C110     1.0000 0.15919  0.31301  0.04098  Biso   1.000  C
  H87      1.0000 0.06973  0.35349  0.05631  Biso   1.000  H
  N10      1.0000 0.50000  0.64978  0.96352  Biso   1.000  N
  H88      1.0000 0.45579  0.71632  0.96948  Biso   1.000  H
  H89      1.0000 0.54421  0.71632  0.96948  Biso   1.000  H
  N11      1.0000 0.76689  0.34962  0.95930  Biso   1.000  N
  H90      1.0000 0.83199  0.29070  0.94871  Biso   1.000  H
  H91      1.0000 0.87912  0.33821  0.95569  Biso   1.000  H
  C111     1.0000 0.16492  0.32113  0.97102  Biso   1.000  C
  C112     1.0000 0.43589  0.62694  0.95799  Biso   1.000  C
  C113     1.0000 0.56411  0.62694  0.95799  Biso   1.000  C
  C114     1.0000 0.70571  0.32879  0.93703  Biso   1.000  C
  C115     1.0000 0.76623  0.39533  0.97604  Biso   1.000  C
  N12      1.0000 0.23311  0.34962  0.95930  Biso   1.000  N
  H92      1.0000 0.16801  0.29070  0.94871  Biso   1.000  H
  H93      1.0000 0.12088  0.33821  0.95569  Biso   1.000  H
  C116     1.0000 0.43463  0.57923  0.94908  Biso   1.000  C
  H94      1.0000 0.39081  0.64391  0.96019  Biso   1.000  H
  C117     1.0000 0.56543  0.57923  0.94908  Biso   1.000  C
  H95      1.0000 0.60919  0.64391  0.96019  Biso   1.000  H
  C118     1.0000 0.64050  0.35377  0.93295  Biso   1.000  C
  H96      1.0000 0.70731  0.29689  0.92409  Biso   1.000  H
  C119     1.0000 0.70312  0.42112  0.97267  Biso   1.000  C
  H97      1.0000 0.81033  0.40970  0.99039  Biso   1.000  H
  C120     1.0000 0.29429  0.32879  0.93703  Biso   1.000  C
  C121     1.0000 0.23382  0.39533  0.97604  Biso   1.000  C
  C122     1.0000 0.50000  0.55330  0.94772  Biso   1.000  C
  H98      1.0000 0.38882  0.56359  0.94388  Biso   1.000  H
  H99      1.0000 0.61123  0.56359  0.94388  Biso   1.000  H
  C123     1.0000 0.63753  0.40067  0.95147  Biso   1.000  C
  H100     1.0000 0.59740  0.33880  0.91739  Biso   1.000  H
  H101     1.0000 0.70362  0.45320  0.98481  Biso   1.000  H
  H102     1.0000 0.29269  0.29689  0.92409  Biso   1.000  H
  C124     1.0000 0.35950  0.35377  0.93295  Biso   1.000  C
  C125     1.0000 0.29688  0.42112  0.97267  Biso   1.000  C
  H103     1.0000 0.18973  0.40970  0.99039  Biso   1.000  H
  C126     1.0000 0.50000  0.50088  0.94650  Biso   1.000  C
  C127     1.0000 0.56692  0.42671  0.94946  Biso   1.000  C
  H104     1.0000 0.40260  0.33880  0.91739  Biso   1.000  H
  C128     1.0000 0.36253  0.40067  0.95147  Biso   1.000  C
  H105     1.0000 0.29638  0.45320  0.98481  Biso   1.000  H
  C129     1.0000 0.43363  0.47597  0.94763  Biso   1.000  C
  C130     1.0000 0.56637  0.47597  0.94763  Biso   1.000  C
  C131     1.0000 0.50000  0.40282  0.95138  Biso   1.000  C
  C132     1.0000 0.43308  0.42671  0.94946  Biso   1.000  C
  H106     1.0000 0.38833  0.49262  0.94711  Biso   1.000  H
  H107     1.0000 0.61173  0.49262  0.94711  Biso   1.000  H
  H108     1.0000 0.50000  0.36951  0.95410  Biso   1.000  H
  C133     1.0000 0.71078  0.21523  0.57127  Biso   1.000  C
  C134     1.0000 0.65919  0.18699  0.54098  Biso   1.000  C
  C135     1.0000 0.71128  0.21857  0.63597  Biso   1.000  C
  H109     1.0000 0.74600  0.23231  0.54731  Biso   1.000  H
  C136     1.0000 0.71133  0.21857  0.63597  Biso   1.000  C
  C137     1.0000 0.66487  0.17891  0.47102  Biso   1.000  C
  C138     1.0000 0.66492  0.17891  0.47102  Biso   1.000  C
  C139     1.0000 0.60677  0.16461  0.57643  Biso   1.000  C
  C140     1.0000 0.71084  0.21523  0.57127  Biso   1.000  C
  C141     1.0000 0.60682  0.16461  0.57643  Biso   1.000  C
  C142     1.0000 0.66018  0.19405  0.67146  Biso   1.000  C
  H110     1.0000 0.74678  0.23779  0.65618  Biso   1.000  H
  C143     1.0000 0.66024  0.19405  0.67146  Biso   1.000  C
  H111     1.0000 0.74683  0.23779  0.65618  Biso   1.000  H
  N13      1.0000 0.73311  0.15038  0.45930  Biso   1.000  N
  H112     1.0000 0.66801  0.20930  0.44871  Biso   1.000  H
  H113     1.0000 0.62088  0.16179  0.45569  Biso   1.000  H
  N14      1.0000 0.73316  0.15038  0.45930  Biso   1.000  N
  H114     1.0000 0.62093  0.16179  0.45569  Biso   1.000  H
  H115     1.0000 0.56967  0.14651  0.55631  Biso   1.000  H
  C144     1.0000 0.60726  0.16812  0.64150  Biso   1.000  C
  H116     1.0000 0.56973  0.14651  0.55631  Biso   1.000  H
  C145     1.0000 0.60732  0.16812  0.64150  Biso   1.000  C
  C146     1.0000 0.66707  0.19370  0.74217  Biso   1.000  C
  C147     1.0000 0.66713  0.19370  0.74217  Biso   1.000  C
  C148     1.0000 0.79429  0.17121  0.43703  Biso   1.000  C
  C149     1.0000 0.73377  0.10467  0.47604  Biso   1.000  C
  C150     1.0000 0.79434  0.17121  0.43703  Biso   1.000  C
  C151     1.0000 0.73382  0.10467  0.47604  Biso   1.000  C
  H117     1.0000 0.57061  0.15231  0.66532  Biso   1.000  H
  N15      1.0000 0.73410  0.16566  0.75905  Biso   1.000  N
  H118     1.0000 0.62270  0.17940  0.76121  Biso   1.000  H
  H119     1.0000 0.67187  0.22620  0.75811  Biso   1.000  H
  H120     1.0000 0.67192  0.22620  0.75811  Biso   1.000  H
  H121     1.0000 0.79269  0.20311  0.42409  Biso   1.000  H
  C152     1.0000 0.85950  0.14623  0.43295  Biso   1.000  C
  C153     1.0000 0.79688  0.07888  0.47267  Biso   1.000  C
  H122     1.0000 0.68967  0.09030  0.49039  Biso   1.000  H
  C154     1.0000 0.79694  0.07888  0.47267  Biso   1.000  C
  H123     1.0000 0.68973  0.09030  0.49039  Biso   1.000  H
  C155     1.0000 0.73548  0.11911  0.74601  Biso   1.000  C
  C156     1.0000 0.79501  0.18744  0.78245  Biso   1.000  C
  C157     1.0000 0.73553  0.11911  0.74601  Biso   1.000  C
  H124     1.0000 0.90260  0.16120  0.41739  Biso   1.000  H
  C158     1.0000 0.86247  0.09933  0.45147  Biso   1.000  C
  C159     1.0000 0.86253  0.09933  0.45147  Biso   1.000  C
  H125     1.0000 0.79638  0.04680  0.48481  Biso   1.000  H
  H126     1.0000 0.79644  0.04680  0.48481  Biso   1.000  H
  C160     1.0000 0.79859  0.09318  0.75389  Biso   1.000  C
  H127     1.0000 0.69210  0.10410  0.73120  Biso   1.000  H
  C161     1.0000 0.79864  0.09318  0.75389  Biso   1.000  C
  H128     1.0000 0.79330  0.21991  0.79262  Biso   1.000  H
  C162     1.0000 0.85862  0.16257  0.79145  Biso   1.000  C
  C163     1.0000 0.93308  0.07333  0.44946  Biso   1.000  C
  C164     1.0000 0.93314  0.07333  0.44946  Biso   1.000  C
  C165     1.0000 0.86297  0.11485  0.77593  Biso   1.000  C
  H129     1.0000 0.79870  0.06061  0.74442  Biso   1.000  H
  C166     1.0000 0.86303  0.11485  0.77593  Biso   1.000  C
  H130     1.0000 0.90062  0.17789  0.80851  Biso   1.000  H
  C167     1.0000 0.93363  0.02407  0.44763  Biso   1.000  C
  C168     1.0000 0.00000  0.09718  0.45143  Biso   1.000  C
  C169     1.0000 0.93352  0.08893  0.78034  Biso   1.000  C
  H131     1.0000 0.88827  0.00741  0.44711  Biso   1.000  H
  H132     1.0000 0.88833  0.00741  0.44711  Biso   1.000  H
  C170     1.0000 0.00000  0.99912  0.44650  Biso   1.000  C
  H133     1.0000 0.00000  0.13049  0.45410  Biso   1.000  H
  C171     1.0000 0.06692  0.07333  0.44946  Biso   1.000  C
  C172     1.0000 0.93358  0.03970  0.78352  Biso   1.000  C
  C173     1.0000 0.00000  0.11282  0.77860  Biso   1.000  C
  C174     1.0000 0.93363  0.03970  0.78352  Biso   1.000  C
  C175     1.0000 0.00000  0.94670  0.44772  Biso   1.000  C
  C176     1.0000 0.06637  0.02407  0.44763  Biso   1.000  C
  C177     1.0000 0.06642  0.02407  0.44763  Biso   1.000  C
  C178     1.0000 0.13753  0.09933  0.45147  Biso   1.000  C
  H134     1.0000 0.88822  0.02308  0.78460  Biso   1.000  H
  C179     1.0000 0.00000  0.01497  0.78502  Biso   1.000  C
  H135     1.0000 0.00000  0.14609  0.77612  Biso   1.000  H
  C180     1.0000 0.06648  0.08893  0.78034  Biso   1.000  C
  C181     1.0000 0.06653  0.08893  0.78034  Biso   1.000  C
  C182     1.0000 0.93457  0.92077  0.44908  Biso   1.000  C
  C183     1.0000 0.93463  0.92077  0.44908  Biso   1.000  C
  C184     1.0000 0.06543  0.92077  0.44908  Biso   1.000  C
  H136     1.0000 0.11173  0.00741  0.44711  Biso   1.000  H
  C185     1.0000 0.14050  0.14623  0.43295  Biso   1.000  C
  C186     1.0000 0.20312  0.07888  0.47267  Biso   1.000  C
  C187     1.0000 0.00000  0.96269  0.78451  Biso   1.000  C
  C188     1.0000 0.06642  0.03970  0.78352  Biso   1.000  C
  C189     1.0000 0.13703  0.11485  0.77593  Biso   1.000  C
  H137     1.0000 0.88882  0.93641  0.44392  Biso   1.000  H
  C190     1.0000 0.93589  0.87306  0.45799  Biso   1.000  C
  H138     1.0000 0.11118  0.93641  0.44392  Biso   1.000  H
  C191     1.0000 0.06411  0.87306  0.45799  Biso   1.000  C
  H139     1.0000 0.11123  0.93641  0.44392  Biso   1.000  H
  C192     1.0000 0.20571  0.17121  0.43703  Biso   1.000  C
  H140     1.0000 0.09740  0.16120  0.41739  Biso   1.000  H
  H141     1.0000 0.20362  0.04680  0.48481  Biso   1.000  H
  C193     1.0000 0.26623  0.10467  0.47604  Biso   1.000  C
  C194     1.0000 0.93430  0.93662  0.78338  Biso   1.000  C
  C195     1.0000 0.06570  0.93662  0.78338  Biso   1.000  C
  H142     1.0000 0.11178  0.02308  0.78460  Biso   1.000  H
  H143     1.0000 0.11184  0.02308  0.78460  Biso   1.000  H
  C196     1.0000 0.20141  0.09318  0.75389  Biso   1.000  C
  C197     1.0000 0.14138  0.16257  0.79145  Biso   1.000  C
  C198     1.0000 0.14144  0.16257  0.79145  Biso   1.000  C
  H144     1.0000 0.89081  0.85609  0.46019  Biso   1.000  H
  N16      1.0000 0.00000  0.85022  0.46352  Biso   1.000  N
  H145     1.0000 0.10919  0.85609  0.46019  Biso   1.000  H
  H146     1.0000 0.10925  0.85609  0.46019  Biso   1.000  H
  N17      1.0000 0.26689  0.15038  0.45930  Biso   1.000  N
  H147     1.0000 0.20731  0.20311  0.42409  Biso   1.000  H
  H148     1.0000 0.31033  0.09030  0.49039  Biso   1.000  H
  C199     1.0000 0.93612  0.88862  0.77673  Biso   1.000  C
  H149     1.0000 0.88827  0.95229  0.78718  Biso   1.000  H
  H150     1.0000 0.88833  0.95229  0.78718  Biso   1.000  H
  C200     1.0000 0.06388  0.88862  0.77673  Biso   1.000  C
  H151     1.0000 0.11173  0.95229  0.78718  Biso   1.000  H
  C201     1.0000 0.06394  0.88862  0.77673  Biso   1.000  C
  H152     1.0000 0.20130  0.06061  0.74442  Biso   1.000  H
  C202     1.0000 0.26452  0.11911  0.74601  Biso   1.000  C
  C203     1.0000 0.20499  0.18744  0.78245  Biso   1.000  C
  H153     1.0000 0.09938  0.17789  0.80851  Biso   1.000  H
  C204     1.0000 0.20505  0.18744  0.78245  Biso   1.000  C
  H154     1.0000 0.09944  0.17789  0.80851  Biso   1.000  H
  C205     1.0000 0.00000  0.80015  0.48551  Biso   1.000  C
  C206     1.0000 0.33513  0.17891  0.47102  Biso   1.000  C
  H155     1.0000 0.89097  0.87169  0.77541  Biso   1.000  H
  N18      1.0000 0.00000  0.86491  0.77190  Biso   1.000  N
  H156     1.0000 0.89103  0.87169  0.77541  Biso   1.000  H
  H157     1.0000 0.10903  0.87169  0.77541  Biso   1.000  H
  N19      1.0000 0.26590  0.16566  0.75905  Biso   1.000  N
  H158     1.0000 0.30790  0.10410  0.73120  Biso   1.000  H
  H159     1.0000 0.20670  0.21991  0.79262  Biso   1.000  H
  H160     1.0000 0.95579  0.78371  0.46952  Biso   1.000  H
  C207     1.0000 0.00000  0.79945  0.55598  Biso   1.000  C
  H161     1.0000 0.95585  0.78371  0.46952  Biso   1.000  H
  H162     1.0000 0.04421  0.78371  0.46952  Biso   1.000  H
  C208     1.0000 0.34081  0.18699  0.54098  Biso   1.000  C
  H163     1.0000 0.33199  0.20930  0.44871  Biso   1.000  H
  H164     1.0000 0.37912  0.16179  0.45569  Biso   1.000  H
  C209     1.0000 0.34087  0.18699  0.54098  Biso   1.000  C
  H165     1.0000 0.33205  0.20930  0.44871  Biso   1.000  H
  C210     1.0000 0.00000  0.81368  0.75628  Biso   1.000  C
  C211     1.0000 0.33293  0.19370  0.74217  Biso   1.000  C
  C212     1.0000 0.93430  0.80068  0.58923  Biso   1.000  C
  C213     1.0000 0.06570  0.80068  0.58923  Biso   1.000  C
  C214     1.0000 0.28922  0.21523  0.57127  Biso   1.000  C
  C215     1.0000 0.39323  0.16461  0.57643  Biso   1.000  C
  C216     1.0000 0.00000  0.80683  0.68628  Biso   1.000  C
  H166     1.0000 0.95579  0.79861  0.77462  Biso   1.000  H
  H167     1.0000 0.95585  0.79861  0.77462  Biso   1.000  H
  H168     1.0000 0.04421  0.79861  0.77462  Biso   1.000  H
  C217     1.0000 0.33982  0.19405  0.67146  Biso   1.000  C
  H169     1.0000 0.37730  0.17940  0.76121  Biso   1.000  H
  H170     1.0000 0.32813  0.22620  0.75811  Biso   1.000  H
  H171     1.0000 0.37736  0.17940  0.76121  Biso   1.000  H
  H172     1.0000 0.88882  0.79910  0.56719  Biso   1.000  H
  C218     1.0000 0.93402  0.80416  0.65351  Biso   1.000  C
  C219     1.0000 0.06598  0.80416  0.65351  Biso   1.000  C
  H173     1.0000 0.11118  0.79910  0.56719  Biso   1.000  H
  C220     1.0000 0.06603  0.80416  0.65351  Biso   1.000  C
  H174     1.0000 0.11123  0.79910  0.56719  Biso   1.000  H
  C221     1.0000 0.28872  0.21857  0.63597  Biso   1.000  C
  H175     1.0000 0.25400  0.23231  0.54731  Biso   1.000  H
  H176     1.0000 0.25405  0.23231  0.54731  Biso   1.000  H
  H177     1.0000 0.43033  0.14651  0.55631  Biso   1.000  H
  C222     1.0000 0.39274  0.16812  0.64150  Biso   1.000  C
  H178     1.0000 0.88860  0.80479  0.67559  Biso   1.000  H
  H179     1.0000 0.11140  0.80479  0.67559  Biso   1.000  H
  H180     1.0000 0.25322  0.23779  0.65618  Biso   1.000  H
  H181     1.0000 0.42939  0.15231  0.66532  Biso   1.000  H
  H182     1.0000 0.42945  0.15231  0.66532  Biso   1.000  H
  C223     1.0000 0.71078  0.21523  0.57127  Biso   1.000  C
  C224     1.0000 0.65919  0.18699  0.54098  Biso   1.000  C
  H183     1.0000 0.74600  0.23231  0.54731  Biso   1.000  H
  C225     1.0000 0.71128  0.21857  0.63597  Biso   1.000  C
  C226     1.0000 0.71133  0.21857  0.63597  Biso   1.000  C
  C227     1.0000 0.60677  0.16461  0.57643  Biso   1.000  C
  C228     1.0000 0.66487  0.17891  0.47102  Biso   1.000  C
  C229     1.0000 0.71084  0.21523  0.57127  Biso   1.000  C
  C230     1.0000 0.60682  0.16461  0.57643  Biso   1.000  C
  C231     1.0000 0.66492  0.17891  0.47102  Biso   1.000  C
  C232     1.0000 0.66018  0.19405  0.67146  Biso   1.000  C
  H184     1.0000 0.74678  0.23779  0.65618  Biso   1.000  H
  C233     1.0000 0.66024  0.19405  0.67146  Biso   1.000  C
  H185     1.0000 0.74683  0.23779  0.65618  Biso   1.000  H
  H186     1.0000 0.56967  0.14651  0.55631  Biso   1.000  H
  C234     1.0000 0.60726  0.16812  0.64150  Biso   1.000  C
  H187     1.0000 0.56973  0.14651  0.55631  Biso   1.000  H
  C235     1.0000 0.60732  0.16812  0.64150  Biso   1.000  C
  H188     1.0000 0.66801  0.20930  0.44871  Biso   1.000  H
  N20      1.0000 0.73311  0.15038  0.45930  Biso   1.000  N
  H189     1.0000 0.62088  0.16179  0.45569  Biso   1.000  H
  N21      1.0000 0.73316  0.15038  0.45930  Biso   1.000  N
  H190     1.0000 0.62093  0.16179  0.45569  Biso   1.000  H
  C236     1.0000 0.66707  0.19370  0.74217  Biso   1.000  C
  C237     1.0000 0.66713  0.19370  0.74217  Biso   1.000  C
  H191     1.0000 0.57061  0.15231  0.66532  Biso   1.000  H
  C238     1.0000 0.79429  0.17121  0.43703  Biso   1.000  C
  C239     1.0000 0.73377  0.10467  0.47604  Biso   1.000  C
  C240     1.0000 0.79434  0.17121  0.43703  Biso   1.000  C
  C241     1.0000 0.73382  0.10467  0.47604  Biso   1.000  C
  N22      1.0000 0.73410  0.16566  0.75905  Biso   1.000  N
  H192     1.0000 0.62270  0.17940  0.76121  Biso   1.000  H
  H193     1.0000 0.67187  0.22620  0.75811  Biso   1.000  H
  H194     1.0000 0.67192  0.22620  0.75811  Biso   1.000  H
  H195     1.0000 0.79269  0.20311  0.42409  Biso   1.000  H
  C242     1.0000 0.85950  0.14623  0.43295  Biso   1.000  C
  C243     1.0000 0.79688  0.07888  0.47267  Biso   1.000  C
  H196     1.0000 0.68967  0.09030  0.49039  Biso   1.000  H
  C244     1.0000 0.79694  0.07888  0.47267  Biso   1.000  C
  H197     1.0000 0.68973  0.09030  0.49039  Biso   1.000  H
  C245     1.0000 0.79501  0.18744  0.78245  Biso   1.000  C
  C246     1.0000 0.73548  0.11911  0.74601  Biso   1.000  C
  C247     1.0000 0.73553  0.11911  0.74601  Biso   1.000  C
  H198     1.0000 0.90260  0.16120  0.41739  Biso   1.000  H
  C248     1.0000 0.86247  0.09933  0.45147  Biso   1.000  C
  C249     1.0000 0.86253  0.09933  0.45147  Biso   1.000  C
  H199     1.0000 0.79638  0.04680  0.48481  Biso   1.000  H
  H200     1.0000 0.79644  0.04680  0.48481  Biso   1.000  H
  H201     1.0000 0.79330  0.21991  0.79262  Biso   1.000  H
  C250     1.0000 0.85862  0.16257  0.79145  Biso   1.000  C
  H202     1.0000 0.69210  0.10410  0.73120  Biso   1.000  H
  C251     1.0000 0.79859  0.09318  0.75389  Biso   1.000  C
  C252     1.0000 0.79864  0.09318  0.75389  Biso   1.000  C
  C253     1.0000 0.93308  0.07333  0.44946  Biso   1.000  C
  C254     1.0000 0.93314  0.07333  0.44946  Biso   1.000  C
  H203     1.0000 0.90062  0.17789  0.80851  Biso   1.000  H
  C255     1.0000 0.86297  0.11485  0.77593  Biso   1.000  C
  C256     1.0000 0.86303  0.11485  0.77593  Biso   1.000  C
  H204     1.0000 0.79870  0.06061  0.74442  Biso   1.000  H
  C257     1.0000 0.93363  0.02407  0.44763  Biso   1.000  C
  C258     1.0000 0.00000  0.09718  0.45143  Biso   1.000  C
  C259     1.0000 0.93352  0.08893  0.78034  Biso   1.000  C
  C260     1.0000 0.00000  0.99912  0.44650  Biso   1.000  C
  H205     1.0000 0.88827  0.00741  0.44711  Biso   1.000  H
  H206     1.0000 0.88833  0.00741  0.44711  Biso   1.000  H
  H207     1.0000 0.00000  0.13049  0.45410  Biso   1.000  H
  C261     1.0000 0.06692  0.07333  0.44946  Biso   1.000  C
  C262     1.0000 0.93358  0.03970  0.78352  Biso   1.000  C
  C263     1.0000 0.00000  0.11282  0.77860  Biso   1.000  C
  C264     1.0000 0.93363  0.03970  0.78352  Biso   1.000  C
  C265     1.0000 0.00000  0.94670  0.44772  Biso   1.000  C
  C266     1.0000 0.06637  0.02407  0.44763  Biso   1.000  C
  C267     1.0000 0.06642  0.02407  0.44763  Biso   1.000  C
  C268     1.0000 0.13753  0.09933  0.45147  Biso   1.000  C
  H208     1.0000 0.88822  0.02308  0.78460  Biso   1.000  H
  C269     1.0000 0.00000  0.01497  0.78502  Biso   1.000  C
  H209     1.0000 0.00000  0.14609  0.77612  Biso   1.000  H
  C270     1.0000 0.06648  0.08893  0.78034  Biso   1.000  C
  C271     1.0000 0.06653  0.08893  0.78034  Biso   1.000  C
  C272     1.0000 0.93457  0.92077  0.44908  Biso   1.000  C
  C273     1.0000 0.93463  0.92077  0.44908  Biso   1.000  C
  C274     1.0000 0.06543  0.92077  0.44908  Biso   1.000  C
  H210     1.0000 0.11173  0.00741  0.44711  Biso   1.000  H
  C275     1.0000 0.14050  0.14623  0.43295  Biso   1.000  C
  C276     1.0000 0.20312  0.07888  0.47267  Biso   1.000  C
  C277     1.0000 0.00000  0.96269  0.78451  Biso   1.000  C
  C278     1.0000 0.06642  0.03970  0.78352  Biso   1.000  C
  C279     1.0000 0.13703  0.11485  0.77593  Biso   1.000  C
  H211     1.0000 0.88882  0.93641  0.44392  Biso   1.000  H
  C280     1.0000 0.93589  0.87306  0.45799  Biso   1.000  C
  H212     1.0000 0.11118  0.93641  0.44392  Biso   1.000  H
  C281     1.0000 0.06411  0.87306  0.45799  Biso   1.000  C
  H213     1.0000 0.11123  0.93641  0.44392  Biso   1.000  H
  C282     1.0000 0.20571  0.17121  0.43703  Biso   1.000  C
  H214     1.0000 0.09740  0.16120  0.41739  Biso   1.000  H
  H215     1.0000 0.20362  0.04680  0.48481  Biso   1.000  H
  C283     1.0000 0.26623  0.10467  0.47604  Biso   1.000  C
  C284     1.0000 0.93430  0.93662  0.78338  Biso   1.000  C
  C285     1.0000 0.06570  0.93662  0.78338  Biso   1.000  C
  H216     1.0000 0.11178  0.02308  0.78460  Biso   1.000  H
  H217     1.0000 0.11184  0.02308  0.78460  Biso   1.000  H
  C286     1.0000 0.20141  0.09318  0.75389  Biso   1.000  C
  C287     1.0000 0.14138  0.16257  0.79145  Biso   1.000  C
  C288     1.0000 0.14144  0.16257  0.79145  Biso   1.000  C
  H218     1.0000 0.89081  0.85609  0.46019  Biso   1.000  H
  N23      1.0000 0.00000  0.85022  0.46352  Biso   1.000  N
  H219     1.0000 0.10919  0.85609  0.46019  Biso   1.000  H
  H220     1.0000 0.10925  0.85609  0.46019  Biso   1.000  H
  N24      1.0000 0.26689  0.15038  0.45930  Biso   1.000  N
  H221     1.0000 0.20731  0.20311  0.42409  Biso   1.000  H
  H222     1.0000 0.31033  0.09030  0.49039  Biso   1.000  H
  C289     1.0000 0.93612  0.88862  0.77673  Biso   1.000  C
  H223     1.0000 0.88827  0.95229  0.78718  Biso   1.000  H
  H224     1.0000 0.88833  0.95229  0.78718  Biso   1.000  H
  C290     1.0000 0.06388  0.88862  0.77673  Biso   1.000  C
  H225     1.0000 0.11173  0.95229  0.78718  Biso   1.000  H
  C291     1.0000 0.06394  0.88862  0.77673  Biso   1.000  C
  H226     1.0000 0.20130  0.06061  0.74442  Biso   1.000  H
  C292     1.0000 0.26452  0.11911  0.74601  Biso   1.000  C
  C293     1.0000 0.20499  0.18744  0.78245  Biso   1.000  C
  H227     1.0000 0.09938  0.17789  0.80851  Biso   1.000  H
  C294     1.0000 0.20505  0.18744  0.78245  Biso   1.000  C
  H228     1.0000 0.09944  0.17789  0.80851  Biso   1.000  H
  C295     1.0000 0.00000  0.80015  0.48551  Biso   1.000  C
  C296     1.0000 0.33513  0.17891  0.47102  Biso   1.000  C
  H229     1.0000 0.89097  0.87169  0.77541  Biso   1.000  H
  N25      1.0000 0.00000  0.86491  0.77190  Biso   1.000  N
  H230     1.0000 0.89103  0.87169  0.77541  Biso   1.000  H
  H231     1.0000 0.10903  0.87169  0.77541  Biso   1.000  H
  N26      1.0000 0.26590  0.16566  0.75905  Biso   1.000  N
  H232     1.0000 0.30790  0.10410  0.73120  Biso   1.000  H
  H233     1.0000 0.20670  0.21991  0.79262  Biso   1.000  H
  H234     1.0000 0.95579  0.78371  0.46952  Biso   1.000  H
  C297     1.0000 0.00000  0.79945  0.55598  Biso   1.000  C
  H235     1.0000 0.95585  0.78371  0.46952  Biso   1.000  H
  H236     1.0000 0.04421  0.78371  0.46952  Biso   1.000  H
  C298     1.0000 0.34081  0.18699  0.54098  Biso   1.000  C
  H237     1.0000 0.33199  0.20930  0.44871  Biso   1.000  H
  H238     1.0000 0.37912  0.16179  0.45569  Biso   1.000  H
  C299     1.0000 0.34087  0.18699  0.54098  Biso   1.000  C
  H239     1.0000 0.33205  0.20930  0.44871  Biso   1.000  H
  C300     1.0000 0.00000  0.81368  0.75628  Biso   1.000  C
  C301     1.0000 0.33293  0.19370  0.74217  Biso   1.000  C
  C302     1.0000 0.93430  0.80068  0.58923  Biso   1.000  C
  C303     1.0000 0.06570  0.80068  0.58923  Biso   1.000  C
  C304     1.0000 0.28922  0.21523  0.57127  Biso   1.000  C
  C305     1.0000 0.39323  0.16461  0.57643  Biso   1.000  C
  H240     1.0000 0.95579  0.79861  0.77462  Biso   1.000  H
  C306     1.0000 0.00000  0.80683  0.68628  Biso   1.000  C
  H241     1.0000 0.95585  0.79861  0.77462  Biso   1.000  H
  H242     1.0000 0.04421  0.79861  0.77462  Biso   1.000  H
  H243     1.0000 0.37730  0.17940  0.76121  Biso   1.000  H
  H244     1.0000 0.32813  0.22620  0.75811  Biso   1.000  H
  C307     1.0000 0.33982  0.19405  0.67146  Biso   1.000  C
  H245     1.0000 0.37736  0.17940  0.76121  Biso   1.000  H
  H246     1.0000 0.88882  0.79910  0.56719  Biso   1.000  H
  C308     1.0000 0.93402  0.80416  0.65351  Biso   1.000  C
  C309     1.0000 0.06598  0.80416  0.65351  Biso   1.000  C
  H247     1.0000 0.11118  0.79910  0.56719  Biso   1.000  H
  C310     1.0000 0.06603  0.80416  0.65351  Biso   1.000  C
  H248     1.0000 0.11123  0.79910  0.56719  Biso   1.000  H
  C311     1.0000 0.28872  0.21857  0.63597  Biso   1.000  C
  H249     1.0000 0.25400  0.23231  0.54731  Biso   1.000  H
  H250     1.0000 0.25405  0.23231  0.54731  Biso   1.000  H
  H251     1.0000 0.43033  0.14651  0.55631  Biso   1.000  H
  C312     1.0000 0.39274  0.16812  0.64150  Biso   1.000  C
  H252     1.0000 0.88860  0.80479  0.67559  Biso   1.000  H
  H253     1.0000 0.11140  0.80479  0.67559  Biso   1.000  H
  H254     1.0000 0.25322  0.23779  0.65618  Biso   1.000  H
  H255     1.0000 0.42939  0.15231  0.66532  Biso   1.000  H
  H256     1.0000 0.42945  0.15231  0.66532  Biso   1.000  H
  C313     1.0000 0.79501  0.81259  0.28245  Biso   1.000  C
  N27      1.0000 0.73410  0.83434  0.25905  Biso   1.000  N
  H257     1.0000 0.79330  0.78013  0.29262  Biso   1.000  H
  C314     1.0000 0.85862  0.83747  0.29145  Biso   1.000  C
  C315     1.0000 0.66707  0.80634  0.24217  Biso   1.000  C
  C316     1.0000 0.66713  0.80634  0.24217  Biso   1.000  C
  C317     1.0000 0.73548  0.88089  0.24601  Biso   1.000  C
  C318     1.0000 0.73553  0.88089  0.24601  Biso   1.000  C
  C319     1.0000 0.86297  0.88518  0.27593  Biso   1.000  C
  C320     1.0000 0.86303  0.88518  0.27593  Biso   1.000  C
  H258     1.0000 0.90062  0.82211  0.30851  Biso   1.000  H
  C321     1.0000 0.66018  0.80599  0.17142  Biso   1.000  C
  C322     1.0000 0.66024  0.80599  0.17142  Biso   1.000  C
  H259     1.0000 0.62270  0.82060  0.26121  Biso   1.000  H
  H260     1.0000 0.67187  0.77380  0.25811  Biso   1.000  H
  H261     1.0000 0.67192  0.77380  0.25811  Biso   1.000  H
  C323     1.0000 0.79859  0.90682  0.25389  Biso   1.000  C
  H262     1.0000 0.69210  0.89590  0.23120  Biso   1.000  H
  C324     1.0000 0.79864  0.90682  0.25389  Biso   1.000  C
  C325     1.0000 0.93352  0.91111  0.28034  Biso   1.000  C
  C326     1.0000 0.71128  0.78146  0.13597  Biso   1.000  C
  C327     1.0000 0.60726  0.83192  0.14150  Biso   1.000  C
  C328     1.0000 0.71133  0.78146  0.13597  Biso   1.000  C
  C329     1.0000 0.60732  0.83192  0.14150  Biso   1.000  C
  H263     1.0000 0.79870  0.93943  0.24442  Biso   1.000  H
  C330     1.0000 0.93358  0.96033  0.28352  Biso   1.000  C
  C331     1.0000 0.93363  0.96033  0.28352  Biso   1.000  C
  C332     1.0000 0.00000  0.88718  0.27860  Biso   1.000  C
  H264     1.0000 0.74678  0.76221  0.15618  Biso   1.000  H
  C333     1.0000 0.71078  0.78480  0.07127  Biso   1.000  C
  H265     1.0000 0.74683  0.76221  0.15618  Biso   1.000  H
  C334     1.0000 0.71084  0.78480  0.07127  Biso   1.000  C
  C335     1.0000 0.60677  0.83539  0.07638  Biso   1.000  C
  H266     1.0000 0.57061  0.84773  0.16532  Biso   1.000  H
  C336     1.0000 0.60682  0.83539  0.07638  Biso   1.000  C
  H267     1.0000 0.88822  0.97692  0.28460  Biso   1.000  H
  C337     1.0000 0.00000  0.98507  0.28502  Biso   1.000  C
  H268     1.0000 0.00000  0.85391  0.27612  Biso   1.000  H
  C338     1.0000 0.06648  0.91111  0.28034  Biso   1.000  C
  C339     1.0000 0.06653  0.91111  0.28034  Biso   1.000  C
  H269     1.0000 0.74600  0.76773  0.04731  Biso   1.000  H
  C340     1.0000 0.65919  0.81301  0.04098  Biso   1.000  C
  H270     1.0000 0.56967  0.85352  0.05631  Biso   1.000  H
  H271     1.0000 0.56973  0.85352  0.05631  Biso   1.000  H
  C341     1.0000 0.00000  0.03735  0.28451  Biso   1.000  C
  C342     1.0000 0.06642  0.96033  0.28352  Biso   1.000  C
  C343     1.0000 0.13703  0.88518  0.27593  Biso   1.000  C
  C344     1.0000 0.66487  0.82113  0.97102  Biso   1.000  C
  C345     1.0000 0.66492  0.82113  0.97102  Biso   1.000  C
  C346     1.0000 0.93430  0.06338  0.28338  Biso   1.000  C
  C347     1.0000 0.06570  0.06338  0.28338  Biso   1.000  C
  H272     1.0000 0.11178  0.97692  0.28460  Biso   1.000  H
  H273     1.0000 0.11184  0.97692  0.28460  Biso   1.000  H
  C348     1.0000 0.20141  0.90682  0.25389  Biso   1.000  C
  C349     1.0000 0.14138  0.83747  0.29145  Biso   1.000  C
  C350     1.0000 0.14144  0.83747  0.29145  Biso   1.000  C
  N28      1.0000 0.73311  0.84966  0.95930  Biso   1.000  N
  H274     1.0000 0.66801  0.79070  0.94871  Biso   1.000  H
  H275     1.0000 0.62088  0.83821  0.95569  Biso   1.000  H
  N29      1.0000 0.73316  0.84966  0.95930  Biso   1.000  N
  H276     1.0000 0.62093  0.83821  0.95569  Biso   1.000  H
  C351     1.0000 0.93612  0.11138  0.27668  Biso   1.000  C
  H277     1.0000 0.88827  0.04771  0.28718  Biso   1.000  H
  H278     1.0000 0.88833  0.04771  0.28718  Biso   1.000  H
  C352     1.0000 0.06388  0.11138  0.27668  Biso   1.000  C
  H279     1.0000 0.11173  0.04771  0.28718  Biso   1.000  H
  C353     1.0000 0.06394  0.11138  0.27668  Biso   1.000  C
  H280     1.0000 0.20130  0.93943  0.24442  Biso   1.000  H
  C354     1.0000 0.26452  0.88089  0.24601  Biso   1.000  C
  C355     1.0000 0.20499  0.81259  0.28245  Biso   1.000  C
  H281     1.0000 0.09938  0.82211  0.30851  Biso   1.000  H
  C356     1.0000 0.20505  0.81259  0.28245  Biso   1.000  C
  H282     1.0000 0.09944  0.82211  0.30851  Biso   1.000  H
  C357     1.0000 0.79429  0.82879  0.93703  Biso   1.000  C
  C358     1.0000 0.73377  0.89537  0.97604  Biso   1.000  C
  C359     1.0000 0.79434  0.82879  0.93703  Biso   1.000  C
  C360     1.0000 0.73382  0.89537  0.97604  Biso   1.000  C
  H283     1.0000 0.89097  0.12831  0.27541  Biso   1.000  H
  N30      1.0000 0.00000  0.13509  0.27190  Biso   1.000  N
  H284     1.0000 0.89103  0.12831  0.27541  Biso   1.000  H
  H285     1.0000 0.10903  0.12831  0.27541  Biso   1.000  H
  N31      1.0000 0.26590  0.83434  0.25905  Biso   1.000  N
  H286     1.0000 0.30790  0.89590  0.23120  Biso   1.000  H
  H287     1.0000 0.20670  0.78013  0.29262  Biso   1.000  H
  H288     1.0000 0.79269  0.79692  0.92409  Biso   1.000  H
  C361     1.0000 0.85950  0.85381  0.93295  Biso   1.000  C
  C362     1.0000 0.79688  0.92112  0.97267  Biso   1.000  C
  H289     1.0000 0.68967  0.90970  0.99039  Biso   1.000  H
  C363     1.0000 0.79694  0.92112  0.97267  Biso   1.000  C
  H290     1.0000 0.68973  0.90970  0.99039  Biso   1.000  H
  C364     1.0000 0.00000  0.18635  0.25628  Biso   1.000  C
  C365     1.0000 0.33293  0.80634  0.24217  Biso   1.000  C
  H291     1.0000 0.90260  0.83880  0.91739  Biso   1.000  H
  C366     1.0000 0.86247  0.90067  0.95147  Biso   1.000  C
  C367     1.0000 0.86253  0.90067  0.95147  Biso   1.000  C
  H292     1.0000 0.79638  0.95320  0.98481  Biso   1.000  H
  H293     1.0000 0.79644  0.95320  0.98481  Biso   1.000  H
  H294     1.0000 0.95579  0.20143  0.27462  Biso   1.000  H
  C368     1.0000 0.00000  0.19317  0.18628  Biso   1.000  C
  H295     1.0000 0.95585  0.20143  0.27462  Biso   1.000  H
  H296     1.0000 0.04421  0.20143  0.27462  Biso   1.000  H
  H297     1.0000 0.37730  0.82060  0.26121  Biso   1.000  H
  H298     1.0000 0.32813  0.77380  0.25811  Biso   1.000  H
  C369     1.0000 0.33982  0.80599  0.17142  Biso   1.000  C
  H299     1.0000 0.37736  0.82060  0.26121  Biso   1.000  H
  C370     1.0000 0.93308  0.92671  0.94946  Biso   1.000  C
  C371     1.0000 0.93314  0.92671  0.94946  Biso   1.000  C
  C372     1.0000 0.93402  0.19584  0.15351  Biso   1.000  C
  C373     1.0000 0.06598  0.19584  0.15351  Biso   1.000  C
  C374     1.0000 0.06603  0.19584  0.15351  Biso   1.000  C
  C375     1.0000 0.28872  0.78146  0.13597  Biso   1.000  C
  C376     1.0000 0.39274  0.83192  0.14150  Biso   1.000  C
  C377     1.0000 0.93363  0.97597  0.94763  Biso   1.000  C
  C378     1.0000 0.00000  0.90282  0.95138  Biso   1.000  C
  H300     1.0000 0.88860  0.19521  0.17559  Biso   1.000  H
  C379     1.0000 0.93430  0.19935  0.08918  Biso   1.000  C
  C380     1.0000 0.06570  0.19935  0.08918  Biso   1.000  C
  H301     1.0000 0.11140  0.19521  0.17559  Biso   1.000  H
  H302     1.0000 0.25322  0.76221  0.15618  Biso   1.000  H
  C381     1.0000 0.28922  0.78480  0.07127  Biso   1.000  C
  C382     1.0000 0.39323  0.83539  0.07638  Biso   1.000  C
  H303     1.0000 0.42939  0.84773  0.16532  Biso   1.000  H
  H304     1.0000 0.42945  0.84773  0.16532  Biso   1.000  H
  H305     1.0000 0.88827  0.99262  0.94711  Biso   1.000  H
  H306     1.0000 0.88833  0.99262  0.94711  Biso   1.000  H
  C383     1.0000 0.00000  0.00088  0.94650  Biso   1.000  C
  H307     1.0000 0.00000  0.86951  0.95410  Biso   1.000  H
  C384     1.0000 0.06692  0.92671  0.94946  Biso   1.000  C
  C385     1.0000 0.00000  0.20058  0.05598  Biso   1.000  C
  H308     1.0000 0.88882  0.20090  0.06719  Biso   1.000  H
  H309     1.0000 0.11118  0.20090  0.06719  Biso   1.000  H
  H310     1.0000 0.11123  0.20090  0.06719  Biso   1.000  H
  C386     1.0000 0.34081  0.81301  0.04098  Biso   1.000  C
  C387     1.0000 0.34087  0.81301  0.04098  Biso   1.000  C
  H311     1.0000 0.25400  0.76773  0.04731  Biso   1.000  H
  H312     1.0000 0.25405  0.76773  0.04731  Biso   1.000  H
  H313     1.0000 0.43033  0.85352  0.05631  Biso   1.000  H
  C388     1.0000 0.00000  0.05330  0.94772  Biso   1.000  C
  C389     1.0000 0.06637  0.97597  0.94763  Biso   1.000  C
  C390     1.0000 0.06642  0.97597  0.94763  Biso   1.000  C
  C391     1.0000 0.13753  0.90067  0.95147  Biso   1.000  C
  C392     1.0000 0.00000  0.19988  0.98551  Biso   1.000  C
  C393     1.0000 0.33513  0.82113  0.97102  Biso   1.000  C
  C394     1.0000 0.93457  0.07923  0.94908  Biso   1.000  C
  C395     1.0000 0.93463  0.07923  0.94908  Biso   1.000  C
  C396     1.0000 0.06543  0.07923  0.94908  Biso   1.000  C
  H314     1.0000 0.11173  0.99262  0.94711  Biso   1.000  H
  C397     1.0000 0.14050  0.85381  0.93295  Biso   1.000  C
  C398     1.0000 0.20312  0.92112  0.97267  Biso   1.000  C
  N32      1.0000 0.00000  0.14978  0.96352  Biso   1.000  N
  H315     1.0000 0.95579  0.21632  0.96948  Biso   1.000  H
  H316     1.0000 0.95585  0.21632  0.96948  Biso   1.000  H
  H317     1.0000 0.04421  0.21632  0.96948  Biso   1.000  H
  N33      1.0000 0.26689  0.84966  0.95930  Biso   1.000  N
  H318     1.0000 0.33199  0.79070  0.94871  Biso   1.000  H
  H319     1.0000 0.37912  0.83821  0.95569  Biso   1.000  H
  H320     1.0000 0.33205  0.79070  0.94871  Biso   1.000  H
  H321     1.0000 0.88882  0.06363  0.94388  Biso   1.000  H
  C399     1.0000 0.93589  0.12694  0.95799  Biso   1.000  C
  H322     1.0000 0.11118  0.06363  0.94388  Biso   1.000  H
  C400     1.0000 0.06411  0.12694  0.95799  Biso   1.000  C
  H323     1.0000 0.11123  0.06363  0.94388  Biso   1.000  H
  C401     1.0000 0.20571  0.82879  0.93703  Biso   1.000  C
  H324     1.0000 0.09740  0.83880  0.91739  Biso   1.000  H
  H325     1.0000 0.20362  0.95320  0.98481  Biso   1.000  H
  C402     1.0000 0.26623  0.89537  0.97604  Biso   1.000  C
  H326     1.0000 0.89081  0.14391  0.96019  Biso   1.000  H
  H327     1.0000 0.10919  0.14391  0.96019  Biso   1.000  H
  H328     1.0000 0.10925  0.14391  0.96019  Biso   1.000  H
  H329     1.0000 0.20731  0.79692  0.92409  Biso   1.000  H
  H330     1.0000 0.31033  0.90970  0.99039  Biso   1.000  H
  C403     1.0000 0.79501  0.81259  0.28245  Biso   1.000  C
  N34      1.0000 0.73410  0.83434  0.25905  Biso   1.000  N
  H331     1.0000 0.79330  0.78013  0.29262  Biso   1.000  H
  C404     1.0000 0.85862  0.83747  0.29145  Biso   1.000  C
  C405     1.0000 0.66707  0.80634  0.24217  Biso   1.000  C
  C406     1.0000 0.66713  0.80634  0.24217  Biso   1.000  C
  C407     1.0000 0.73548  0.88089  0.24601  Biso   1.000  C
  C408     1.0000 0.73553  0.88089  0.24601  Biso   1.000  C
  H332     1.0000 0.90062  0.82211  0.30851  Biso   1.000  H
  C409     1.0000 0.86297  0.88518  0.27593  Biso   1.000  C
  C410     1.0000 0.86303  0.88518  0.27593  Biso   1.000  C
  C411     1.0000 0.66018  0.80599  0.17142  Biso   1.000  C
  C412     1.0000 0.66024  0.80599  0.17142  Biso   1.000  C
  H333     1.0000 0.62270  0.82060  0.26121  Biso   1.000  H
  H334     1.0000 0.67187  0.77380  0.25811  Biso   1.000  H
  H335     1.0000 0.67192  0.77380  0.25811  Biso   1.000  H
  H336     1.0000 0.69210  0.89590  0.23120  Biso   1.000  H
  C413     1.0000 0.79859  0.90682  0.25389  Biso   1.000  C
  C414     1.0000 0.79864  0.90682  0.25389  Biso   1.000  C
  C415     1.0000 0.93352  0.91111  0.28034  Biso   1.000  C
  C416     1.0000 0.71128  0.78146  0.13597  Biso   1.000  C
  C417     1.0000 0.71133  0.78146  0.13597  Biso   1.000  C
  C418     1.0000 0.60726  0.83192  0.14150  Biso   1.000  C
  C419     1.0000 0.60732  0.83192  0.14150  Biso   1.000  C
  H337     1.0000 0.79870  0.93943  0.24442  Biso   1.000  H
  C420     1.0000 0.93358  0.96033  0.28352  Biso   1.000  C
  C421     1.0000 0.93363  0.96033  0.28352  Biso   1.000  C
  C422     1.0000 0.00000  0.88718  0.27860  Biso   1.000  C
  C423     1.0000 0.71078  0.78480  0.07127  Biso   1.000  C
  C424     1.0000 0.71084  0.78480  0.07127  Biso   1.000  C
  H338     1.0000 0.74678  0.76221  0.15618  Biso   1.000  H
  H339     1.0000 0.74683  0.76221  0.15618  Biso   1.000  H
  C425     1.0000 0.60677  0.83539  0.07638  Biso   1.000  C
  C426     1.0000 0.60682  0.83539  0.07638  Biso   1.000  C
  H340     1.0000 0.57061  0.84773  0.16532  Biso   1.000  H
  H341     1.0000 0.88822  0.97692  0.28460  Biso   1.000  H
  C427     1.0000 0.00000  0.98507  0.28502  Biso   1.000  C
  H342     1.0000 0.00000  0.85391  0.27612  Biso   1.000  H
  C428     1.0000 0.06648  0.91111  0.28034  Biso   1.000  C
  C429     1.0000 0.06653  0.91111  0.28034  Biso   1.000  C
  C430     1.0000 0.65919  0.81301  0.04098  Biso   1.000  C
  H343     1.0000 0.74600  0.76773  0.04731  Biso   1.000  H
  H344     1.0000 0.56967  0.85352  0.05631  Biso   1.000  H
  H345     1.0000 0.56973  0.85352  0.05631  Biso   1.000  H
  C431     1.0000 0.00000  0.03735  0.28451  Biso   1.000  C
  C432     1.0000 0.06642  0.96033  0.28352  Biso   1.000  C
  C433     1.0000 0.13703  0.88518  0.27593  Biso   1.000  C
  C434     1.0000 0.66487  0.82113  0.97102  Biso   1.000  C
  C435     1.0000 0.66492  0.82113  0.97102  Biso   1.000  C
  C436     1.0000 0.93430  0.06338  0.28338  Biso   1.000  C
  C437     1.0000 0.06570  0.06338  0.28338  Biso   1.000  C
  H346     1.0000 0.11178  0.97692  0.28460  Biso   1.000  H
  H347     1.0000 0.11184  0.97692  0.28460  Biso   1.000  H
  C438     1.0000 0.20141  0.90682  0.25389  Biso   1.000  C
  C439     1.0000 0.14138  0.83747  0.29145  Biso   1.000  C
  C440     1.0000 0.14144  0.83747  0.29145  Biso   1.000  C
  N35      1.0000 0.73311  0.84966  0.95930  Biso   1.000  N
  H348     1.0000 0.66801  0.79070  0.94871  Biso   1.000  H
  H349     1.0000 0.62088  0.83821  0.95569  Biso   1.000  H
  N36      1.0000 0.73316  0.84966  0.95930  Biso   1.000  N
  H350     1.0000 0.62093  0.83821  0.95569  Biso   1.000  H
  C441     1.0000 0.93612  0.11138  0.27668  Biso   1.000  C
  H351     1.0000 0.88827  0.04771  0.28718  Biso   1.000  H
  H352     1.0000 0.88833  0.04771  0.28718  Biso   1.000  H
  C442     1.0000 0.06388  0.11138  0.27668  Biso   1.000  C
  H353     1.0000 0.11173  0.04771  0.28718  Biso   1.000  H
  C443     1.0000 0.06394  0.11138  0.27668  Biso   1.000  C
  H354     1.0000 0.20130  0.93943  0.24442  Biso   1.000  H
  C444     1.0000 0.26452  0.88089  0.24601  Biso   1.000  C
  C445     1.0000 0.20499  0.81259  0.28245  Biso   1.000  C
  H355     1.0000 0.09938  0.82211  0.30851  Biso   1.000  H
  C446     1.0000 0.20505  0.81259  0.28245  Biso   1.000  C
  H356     1.0000 0.09944  0.82211  0.30851  Biso   1.000  H
  C447     1.0000 0.79429  0.82879  0.93703  Biso   1.000  C
  C448     1.0000 0.73377  0.89537  0.97604  Biso   1.000  C
  C449     1.0000 0.79434  0.82879  0.93703  Biso   1.000  C
  C450     1.0000 0.73382  0.89537  0.97604  Biso   1.000  C
  H357     1.0000 0.89097  0.12831  0.27541  Biso   1.000  H
  N37      1.0000 0.00000  0.13509  0.27190  Biso   1.000  N
  H358     1.0000 0.89103  0.12831  0.27541  Biso   1.000  H
  H359     1.0000 0.10903  0.12831  0.27541  Biso   1.000  H
  N38      1.0000 0.26590  0.83434  0.25905  Biso   1.000  N
  H360     1.0000 0.30790  0.89590  0.23120  Biso   1.000  H
  H361     1.0000 0.20670  0.78013  0.29262  Biso   1.000  H
  H362     1.0000 0.79269  0.79692  0.92409  Biso   1.000  H
  C451     1.0000 0.85950  0.85381  0.93295  Biso   1.000  C
  C452     1.0000 0.79688  0.92112  0.97267  Biso   1.000  C
  H363     1.0000 0.68967  0.90970  0.99039  Biso   1.000  H
  C453     1.0000 0.79694  0.92112  0.97267  Biso   1.000  C
  H364     1.0000 0.68973  0.90970  0.99039  Biso   1.000  H
  C454     1.0000 0.00000  0.18635  0.25628  Biso   1.000  C
  C455     1.0000 0.33293  0.80634  0.24217  Biso   1.000  C
  H365     1.0000 0.90260  0.83880  0.91739  Biso   1.000  H
  C456     1.0000 0.86247  0.90067  0.95147  Biso   1.000  C
  C457     1.0000 0.86253  0.90067  0.95147  Biso   1.000  C
  H366     1.0000 0.79638  0.95320  0.98481  Biso   1.000  H
  H367     1.0000 0.79644  0.95320  0.98481  Biso   1.000  H
  C458     1.0000 0.00000  0.19317  0.18628  Biso   1.000  C
  H368     1.0000 0.95579  0.20143  0.27462  Biso   1.000  H
  H369     1.0000 0.95585  0.20143  0.27462  Biso   1.000  H
  H370     1.0000 0.04421  0.20143  0.27462  Biso   1.000  H
  C459     1.0000 0.33982  0.80599  0.17142  Biso   1.000  C
  H371     1.0000 0.37730  0.82060  0.26121  Biso   1.000  H
  H372     1.0000 0.32813  0.77380  0.25811  Biso   1.000  H
  H373     1.0000 0.37736  0.82060  0.26121  Biso   1.000  H
  C460     1.0000 0.93308  0.92671  0.94946  Biso   1.000  C
  C461     1.0000 0.93314  0.92671  0.94946  Biso   1.000  C
  C462     1.0000 0.93402  0.19584  0.15351  Biso   1.000  C
  C463     1.0000 0.06598  0.19584  0.15351  Biso   1.000  C
  C464     1.0000 0.06603  0.19584  0.15351  Biso   1.000  C
  C465     1.0000 0.28872  0.78146  0.13597  Biso   1.000  C
  C466     1.0000 0.39274  0.83192  0.14150  Biso   1.000  C
  C467     1.0000 0.93363  0.97597  0.94763  Biso   1.000  C
  C468     1.0000 0.00000  0.90282  0.95138  Biso   1.000  C
  C469     1.0000 0.93430  0.19935  0.08918  Biso   1.000  C
  H374     1.0000 0.88860  0.19521  0.17559  Biso   1.000  H
  C470     1.0000 0.06570  0.19935  0.08918  Biso   1.000  C
  H375     1.0000 0.11140  0.19521  0.17559  Biso   1.000  H
  C471     1.0000 0.28922  0.78480  0.07127  Biso   1.000  C
  H376     1.0000 0.25322  0.76221  0.15618  Biso   1.000  H
  C472     1.0000 0.39323  0.83539  0.07638  Biso   1.000  C
  H377     1.0000 0.42939  0.84773  0.16532  Biso   1.000  H
  H378     1.0000 0.42945  0.84773  0.16532  Biso   1.000  H
  H379     1.0000 0.88827  0.99262  0.94711  Biso   1.000  H
  H380     1.0000 0.88833  0.99262  0.94711  Biso   1.000  H
  C473     1.0000 0.00000  0.00088  0.94650  Biso   1.000  C
  H381     1.0000 0.00000  0.86951  0.95410  Biso   1.000  H
  C474     1.0000 0.06692  0.92671  0.94946  Biso   1.000  C
  C475     1.0000 0.00000  0.20058  0.05598  Biso   1.000  C
  H382     1.0000 0.88882  0.20090  0.06719  Biso   1.000  H
  H383     1.0000 0.11118  0.20090  0.06719  Biso   1.000  H
  H384     1.0000 0.11123  0.20090  0.06719  Biso   1.000  H
  C476     1.0000 0.34081  0.81301  0.04098  Biso   1.000  C
  C477     1.0000 0.34087  0.81301  0.04098  Biso   1.000  C
  H385     1.0000 0.25400  0.76773  0.04731  Biso   1.000  H
  H386     1.0000 0.25405  0.76773  0.04731  Biso   1.000  H
  H387     1.0000 0.43033  0.85352  0.05631  Biso   1.000  H
  C478     1.0000 0.00000  0.05330  0.94772  Biso   1.000  C
  C479     1.0000 0.06637  0.97597  0.94763  Biso   1.000  C
  C480     1.0000 0.06642  0.97597  0.94763  Biso   1.000  C
  C481     1.0000 0.13753  0.90067  0.95147  Biso   1.000  C
  C482     1.0000 0.00000  0.19988  0.98551  Biso   1.000  C
  C483     1.0000 0.33513  0.82113  0.97102  Biso   1.000  C
  C484     1.0000 0.93457  0.07923  0.94908  Biso   1.000  C
  C485     1.0000 0.93463  0.07923  0.94908  Biso   1.000  C
  C486     1.0000 0.06543  0.07923  0.94908  Biso   1.000  C
  H388     1.0000 0.11173  0.99262  0.94711  Biso   1.000  H
  C487     1.0000 0.14050  0.85381  0.93295  Biso   1.000  C
  C488     1.0000 0.20312  0.92112  0.97267  Biso   1.000  C
  N39      1.0000 0.00000  0.14978  0.96352  Biso   1.000  N
  H389     1.0000 0.95579  0.21632  0.96948  Biso   1.000  H
  H390     1.0000 0.95585  0.21632  0.96948  Biso   1.000  H
  H391     1.0000 0.04421  0.21632  0.96948  Biso   1.000  H
  N40      1.0000 0.26689  0.84966  0.95930  Biso   1.000  N
  H392     1.0000 0.33199  0.79070  0.94871  Biso   1.000  H
  H393     1.0000 0.37912  0.83821  0.95569  Biso   1.000  H
  H394     1.0000 0.33205  0.79070  0.94871  Biso   1.000  H
  H395     1.0000 0.88882  0.06363  0.94388  Biso   1.000  H
  C489     1.0000 0.93589  0.12694  0.95799  Biso   1.000  C
  H396     1.0000 0.11118  0.06363  0.94388  Biso   1.000  H
  C490     1.0000 0.06411  0.12694  0.95799  Biso   1.000  C
  H397     1.0000 0.11123  0.06363  0.94388  Biso   1.000  H
  C491     1.0000 0.20571  0.82879  0.93703  Biso   1.000  C
  H398     1.0000 0.09740  0.83880  0.91739  Biso   1.000  H
  H399     1.0000 0.20362  0.95320  0.98481  Biso   1.000  H
  C492     1.0000 0.26623  0.89537  0.97604  Biso   1.000  C
  H400     1.0000 0.89081  0.14391  0.96019  Biso   1.000  H
  H401     1.0000 0.10919  0.14391  0.96019  Biso   1.000  H
  H402     1.0000 0.10925  0.14391  0.96019  Biso   1.000  H
  H403     1.0000 0.20731  0.79692  0.92409  Biso   1.000  H
  H404     1.0000 0.31033  0.90970  0.99039  Biso   1.000  H
  Ne1      1.0000 0.50001  0.44172  0.11293  Biso   1.000  Ne
  He1      1.0000 0.45266  0.50806  0.11702  Biso   1.000  He
  He2      1.0000 0.43087  0.38431  0.11199  Biso   1.000  He
  He3      1.0000 0.54266  0.50298  0.11660  Biso   1.000  He
  Ar1      1.0000 0.50001  0.44308  0.11858  Biso   1.000  Ar
  Ne2      1.0000 0.50001  0.55829  0.61293  Biso   1.000  Ne
  He4      1.0000 0.46045  0.50042  0.61632  Biso   1.000  He
  He5      1.0000 0.54153  0.49828  0.61649  Biso   1.000  He
  He6      1.0000 0.43223  0.62149  0.61210  Biso   1.000  He
  Ar2      1.0000 0.50006  0.55690  0.61859  Biso   1.000  Ar
  Ne3      1.0000 0.96763  0.06956  0.61273  Biso   1.000  Ne
  He7      1.0000 0.96445  0.01903  0.61664  Biso   1.000  He
  He8      1.0000 0.07743  0.10661  0.61276  Biso   1.000  He
  He9      1.0000 0.15615  0.97526  0.61329  Biso   1.000  He
  Ar3      1.0000 0.96834  0.06948  0.61584  Biso   1.000  Ar
  Ne4      1.0000 0.96763  0.06956  0.61273  Biso   1.000  Ne
  He10     1.0000 0.96445  0.01903  0.61664  Biso   1.000  He
  He11     1.0000 0.07743  0.10661  0.61276  Biso   1.000  He
  He12     1.0000 0.15615  0.97526  0.61329  Biso   1.000  He
  Ar4      1.0000 0.96834  0.06948  0.61584  Biso   1.000  Ar
  Ne5      1.0000 0.96763  0.93046  0.11272  Biso   1.000  Ne
  He13     1.0000 0.04288  0.03599  0.11533  Biso   1.000  He
  He14     1.0000 0.04268  0.00300  0.11660  Biso   1.000  He
  He15     1.0000 0.93086  0.88432  0.11199  Biso   1.000  He
  Ar5      1.0000 0.00413  0.94667  0.11701  Biso   1.000  Ar
  Ne6      1.0000 0.96763  0.93046  0.11272  Biso   1.000  Ne
  He16     1.0000 0.04288  0.03599  0.11533  Biso   1.000  He
  He17     1.0000 0.04268  0.00300  0.11660  Biso   1.000  He
  He18     1.0000 0.93086  0.88432  0.11199  Biso   1.000  He
  Ar6      1.0000 0.00413  0.94667  0.11701  Biso   1.000  Ar
