data_image0
_cell_length_a       18.085
_cell_length_b       28.501
_cell_length_c       21.571
_cell_angle_alpha    90
_cell_angle_beta     90
_cell_angle_gamma    90

_symmetry_space_group_name_H-M    "P 1"
_symmetry_int_tables_number       1

loop_
  _symmetry_equiv_pos_as_xyz
  'x, y, z'

loop_
  _atom_site_label
  _atom_site_occupancy
  _atom_site_fract_x
  _atom_site_fract_y
  _atom_site_fract_z
  _atom_site_thermal_displace_type
  _atom_site_B_iso_or_equiv
  _atom_site_type_symbol
  C1       1.0000 0.43390  0.53114  0.42033  Biso   1.000  C
  C2       1.0000 0.50003  0.50595  0.42029  Biso   1.000  C
  H1       1.0000 0.38828  0.51458  0.42140  Biso   1.000  H
  C3       1.0000 0.43296  0.58051  0.41890  Biso   1.000  C
  C4       1.0000 0.50003  0.45402  0.41922  Biso   1.000  C
  C5       1.0000 0.56610  0.53114  0.42033  Biso   1.000  C
  C6       1.0000 0.50003  0.60422  0.41718  Biso   1.000  C
  C7       1.0000 0.36246  0.60643  0.41496  Biso   1.000  C
  C8       1.0000 0.43484  0.42816  0.41649  Biso   1.000  C
  C9       1.0000 0.56522  0.42816  0.41649  Biso   1.000  C
  H2       1.0000 0.61172  0.51458  0.42140  Biso   1.000  H
  C10      1.0000 0.56704  0.58051  0.41890  Biso   1.000  C
  H3       1.0000 0.50003  0.63749  0.41491  Biso   1.000  H
  C11      1.0000 0.35858  0.65370  0.43280  Biso   1.000  C
  C12      1.0000 0.29831  0.58668  0.39192  Biso   1.000  C
  C13      1.0000 0.43611  0.38083  0.40735  Biso   1.000  C
  H4       1.0000 0.38872  0.44370  0.42107  Biso   1.000  H
  C14      1.0000 0.56389  0.38083  0.40735  Biso   1.000  C
  H5       1.0000 0.61128  0.44370  0.42107  Biso   1.000  H
  C15      1.0000 0.63754  0.60643  0.41496  Biso   1.000  C
  H6       1.0000 0.40061  0.66850  0.45070  Biso   1.000  H
  C16      1.0000 0.29450  0.67882  0.42460  Biso   1.000  C
  C17      1.0000 0.23566  0.61247  0.38501  Biso   1.000  C
  H7       1.0000 0.29798  0.55451  0.38070  Biso   1.000  H
  N1       1.0000 0.50003  0.35739  0.40170  Biso   1.000  N
  H8       1.0000 0.39082  0.36409  0.40499  Biso   1.000  H
  H9       1.0000 0.60918  0.36409  0.40499  Biso   1.000  H
  C18      1.0000 0.64142  0.65370  0.43280  Biso   1.000  C
  C19      1.0000 0.70169  0.58668  0.39192  Biso   1.000  C
  N2       1.0000 0.23461  0.65791  0.39970  Biso   1.000  N
  H10      1.0000 0.29240  0.71089  0.43637  Biso   1.000  H
  H11      1.0000 0.19209  0.59798  0.36948  Biso   1.000  H
  C20      1.0000 0.50003  0.30673  0.38431  Biso   1.000  C
  H12      1.0000 0.59939  0.66850  0.45070  Biso   1.000  H
  C21      1.0000 0.70550  0.67882  0.42460  Biso   1.000  C
  C22      1.0000 0.76439  0.61247  0.38501  Biso   1.000  C
  H13      1.0000 0.70202  0.55451  0.38070  Biso   1.000  H
  C23      1.0000 0.16749  0.68615  0.38459  Biso   1.000  C
  C24      1.0000 0.50003  0.30287  0.31450  Biso   1.000  C
  H14      1.0000 0.54443  0.29108  0.40151  Biso   1.000  H
  H15      1.0000 0.45563  0.29108  0.40151  Biso   1.000  H
  N3       1.0000 0.76539  0.65791  0.39970  Biso   1.000  N
  H16      1.0000 0.70760  0.71089  0.43637  Biso   1.000  H
  H17      1.0000 0.80791  0.59798  0.36948  Biso   1.000  H
  H18      1.0000 0.17119  0.71759  0.40378  Biso   1.000  H
  H19      1.0000 0.12270  0.67050  0.40100  Biso   1.000  H
  C25      1.0000 0.16212  0.69068  0.31487  Biso   1.000  C
  C26      1.0000 0.43378  0.30195  0.28214  Biso   1.000  C
  C27      1.0000 0.56622  0.30195  0.28214  Biso   1.000  C
  C28      1.0000 0.83251  0.68615  0.38459  Biso   1.000  C
  C29      1.0000 0.10832  0.66742  0.28237  Biso   1.000  C
  C30      1.0000 0.21498  0.71590  0.28167  Biso   1.000  C
  C31      1.0000 0.43378  0.30195  0.21784  Biso   1.000  C
  H20      1.0000 0.38828  0.30139  0.30411  Biso   1.000  H
  C32      1.0000 0.56622  0.30195  0.21784  Biso   1.000  C
  H21      1.0000 0.61172  0.30139  0.30411  Biso   1.000  H
  H22      1.0000 0.82881  0.71759  0.40378  Biso   1.000  H
  H23      1.0000 0.87730  0.67050  0.40100  Biso   1.000  H
  C33      1.0000 0.83788  0.69068  0.31487  Biso   1.000  C
  C34      1.0000 0.10832  0.66742  0.21761  Biso   1.000  C
  H24      1.0000 0.07061  0.65110  0.30411  Biso   1.000  H
  C35      1.0000 0.21498  0.71590  0.21830  Biso   1.000  C
  H25      1.0000 0.25159  0.73327  0.30342  Biso   1.000  H
  H26      1.0000 0.38828  0.30139  0.19591  Biso   1.000  H
  C36      1.0000 0.50003  0.30287  0.18548  Biso   1.000  C
  H27      1.0000 0.61172  0.30139  0.19591  Biso   1.000  H
  C37      1.0000 0.89168  0.66742  0.28237  Biso   1.000  C
  C38      1.0000 0.78502  0.71590  0.28167  Biso   1.000  C
  C39      1.0000 0.16212  0.69068  0.18511  Biso   1.000  C
  H28      1.0000 0.07061  0.65110  0.19591  Biso   1.000  H
  H29      1.0000 0.25159  0.73327  0.19661  Biso   1.000  H
  C40      1.0000 0.50003  0.30673  0.11571  Biso   1.000  C
  C41      1.0000 0.89168  0.66742  0.21761  Biso   1.000  C
  H30      1.0000 0.92939  0.65110  0.30411  Biso   1.000  H
  C42      1.0000 0.78502  0.71590  0.21830  Biso   1.000  C
  H31      1.0000 0.74841  0.73327  0.30342  Biso   1.000  H
  C43      1.0000 0.16749  0.68615  0.11539  Biso   1.000  C
  N4       1.0000 0.50003  0.35739  0.09828  Biso   1.000  N
  H32      1.0000 0.54443  0.29108  0.09851  Biso   1.000  H
  H33      1.0000 0.45563  0.29108  0.09851  Biso   1.000  H
  C44      1.0000 0.83788  0.69068  0.18511  Biso   1.000  C
  H34      1.0000 0.92939  0.65110  0.19591  Biso   1.000  H
  H35      1.0000 0.74841  0.73327  0.19661  Biso   1.000  H
  N5       1.0000 0.23461  0.65791  0.10032  Biso   1.000  N
  H36      1.0000 0.17119  0.71759  0.09619  Biso   1.000  H
  H37      1.0000 0.12270  0.67050  0.09898  Biso   1.000  H
  C45      1.0000 0.43611  0.38083  0.09262  Biso   1.000  C
  C46      1.0000 0.56389  0.38083  0.09262  Biso   1.000  C
  C47      1.0000 0.83251  0.68615  0.11539  Biso   1.000  C
  C48      1.0000 0.29450  0.67882  0.07543  Biso   1.000  C
  C49      1.0000 0.23566  0.61247  0.11502  Biso   1.000  C
  H38      1.0000 0.39082  0.36409  0.09499  Biso   1.000  H
  C50      1.0000 0.43484  0.42816  0.08349  Biso   1.000  C
  H39      1.0000 0.60918  0.36409  0.09499  Biso   1.000  H
  C51      1.0000 0.56522  0.42816  0.08349  Biso   1.000  C
  N6       1.0000 0.76539  0.65791  0.10032  Biso   1.000  N
  H40      1.0000 0.82881  0.71759  0.09619  Biso   1.000  H
  H41      1.0000 0.87730  0.67050  0.09898  Biso   1.000  H
  C52      1.0000 0.35858  0.65370  0.06722  Biso   1.000  C
  H42      1.0000 0.29240  0.71089  0.06360  Biso   1.000  H
  C53      1.0000 0.29831  0.58668  0.10811  Biso   1.000  C
  H43      1.0000 0.19209  0.59798  0.13050  Biso   1.000  H
  H44      1.0000 0.38872  0.44370  0.07890  Biso   1.000  H
  C54      1.0000 0.50003  0.45402  0.08076  Biso   1.000  C
  H45      1.0000 0.61128  0.44370  0.07890  Biso   1.000  H
  C55      1.0000 0.70550  0.67882  0.07543  Biso   1.000  C
  C56      1.0000 0.76439  0.61247  0.11502  Biso   1.000  C
  C57      1.0000 0.36246  0.60643  0.08507  Biso   1.000  C
  H46      1.0000 0.40061  0.66850  0.04928  Biso   1.000  H
  H47      1.0000 0.29798  0.55451  0.11928  Biso   1.000  H
  C58      1.0000 0.50003  0.50595  0.07969  Biso   1.000  C
  C59      1.0000 0.64142  0.65370  0.06722  Biso   1.000  C
  H48      1.0000 0.70760  0.71089  0.06360  Biso   1.000  H
  C60      1.0000 0.70169  0.58668  0.10811  Biso   1.000  C
  H49      1.0000 0.80791  0.59798  0.13050  Biso   1.000  H
  C61      1.0000 0.43296  0.58051  0.08108  Biso   1.000  C
  C62      1.0000 0.56610  0.53114  0.07964  Biso   1.000  C
  C63      1.0000 0.43390  0.53114  0.07964  Biso   1.000  C
  C64      1.0000 0.63754  0.60643  0.08507  Biso   1.000  C
  H50      1.0000 0.59939  0.66850  0.04928  Biso   1.000  H
  H51      1.0000 0.70202  0.55451  0.11928  Biso   1.000  H
  C65      1.0000 0.50003  0.60422  0.08280  Biso   1.000  C
  H52      1.0000 0.61172  0.51458  0.07858  Biso   1.000  H
  C66      1.0000 0.56704  0.58051  0.08108  Biso   1.000  C
  H53      1.0000 0.38828  0.51458  0.07858  Biso   1.000  H
  H54      1.0000 0.50003  0.63749  0.08511  Biso   1.000  H
  C67      1.0000 0.43390  0.46883  0.57967  Biso   1.000  C
  C68      1.0000 0.43296  0.41949  0.58106  Biso   1.000  C
  C69      1.0000 0.50003  0.49402  0.57971  Biso   1.000  C
  H55      1.0000 0.38828  0.48539  0.57860  Biso   1.000  H
  C70      1.0000 0.36246  0.39353  0.58504  Biso   1.000  C
  C71      1.0000 0.50003  0.39574  0.58277  Biso   1.000  C
  C72      1.0000 0.50003  0.54595  0.58078  Biso   1.000  C
  C73      1.0000 0.56610  0.46883  0.57967  Biso   1.000  C
  C74      1.0000 0.35858  0.34627  0.56720  Biso   1.000  C
  C75      1.0000 0.29831  0.41328  0.60808  Biso   1.000  C
  H56      1.0000 0.50003  0.36248  0.58509  Biso   1.000  H
  C76      1.0000 0.56704  0.41949  0.58106  Biso   1.000  C
  C77      1.0000 0.56522  0.57180  0.58347  Biso   1.000  C
  C78      1.0000 0.43484  0.57180  0.58347  Biso   1.000  C
  H57      1.0000 0.61172  0.48539  0.57860  Biso   1.000  H
  C79      1.0000 0.29450  0.32118  0.57540  Biso   1.000  C
  H58      1.0000 0.40061  0.33150  0.54930  Biso   1.000  H
  C80      1.0000 0.23566  0.38753  0.61499  Biso   1.000  C
  H59      1.0000 0.29798  0.44549  0.61930  Biso   1.000  H
  C81      1.0000 0.63754  0.39353  0.58504  Biso   1.000  C
  C82      1.0000 0.56389  0.61914  0.59260  Biso   1.000  C
  H60      1.0000 0.61128  0.55630  0.57888  Biso   1.000  H
  C83      1.0000 0.43611  0.61914  0.59260  Biso   1.000  C
  H61      1.0000 0.38872  0.55630  0.57888  Biso   1.000  H
  N7       1.0000 0.23461  0.34209  0.60030  Biso   1.000  N
  H62      1.0000 0.29240  0.28908  0.56358  Biso   1.000  H
  H63      1.0000 0.19209  0.40199  0.63048  Biso   1.000  H
  C84      1.0000 0.64142  0.34627  0.56720  Biso   1.000  C
  C85      1.0000 0.70169  0.41328  0.60808  Biso   1.000  C
  N8       1.0000 0.50003  0.64257  0.59830  Biso   1.000  N
  H64      1.0000 0.60918  0.63587  0.59501  Biso   1.000  H
  H65      1.0000 0.39082  0.63587  0.59501  Biso   1.000  H
  C86      1.0000 0.16749  0.31381  0.61541  Biso   1.000  C
  H66      1.0000 0.59939  0.33150  0.54930  Biso   1.000  H
  C87      1.0000 0.70550  0.32118  0.57540  Biso   1.000  C
  C88      1.0000 0.76439  0.38753  0.61499  Biso   1.000  C
  H67      1.0000 0.70202  0.44549  0.61930  Biso   1.000  H
  C89      1.0000 0.50003  0.69324  0.61569  Biso   1.000  C
  H68      1.0000 0.17119  0.28241  0.59617  Biso   1.000  H
  H69      1.0000 0.12270  0.32950  0.59900  Biso   1.000  H
  C90      1.0000 0.16212  0.30929  0.68513  Biso   1.000  C
  N9       1.0000 0.76539  0.34209  0.60030  Biso   1.000  N
  H70      1.0000 0.70760  0.28908  0.56358  Biso   1.000  H
  H71      1.0000 0.80791  0.40199  0.63048  Biso   1.000  H
  C91      1.0000 0.50003  0.69713  0.68550  Biso   1.000  C
  H72      1.0000 0.45563  0.70889  0.59849  Biso   1.000  H
  H73      1.0000 0.54443  0.70889  0.59849  Biso   1.000  H
  C92      1.0000 0.10832  0.33258  0.71763  Biso   1.000  C
  C93      1.0000 0.21498  0.28410  0.71828  Biso   1.000  C
  C94      1.0000 0.83251  0.31381  0.61541  Biso   1.000  C
  C95      1.0000 0.56622  0.69801  0.71782  Biso   1.000  C
  C96      1.0000 0.43378  0.69801  0.71782  Biso   1.000  C
  H74      1.0000 0.07061  0.34890  0.69589  Biso   1.000  H
  C97      1.0000 0.10832  0.33258  0.78235  Biso   1.000  C
  H75      1.0000 0.25159  0.26669  0.69658  Biso   1.000  H
  C98      1.0000 0.21498  0.28410  0.78170  Biso   1.000  C
  H76      1.0000 0.82881  0.28241  0.59617  Biso   1.000  H
  H77      1.0000 0.87730  0.32950  0.59900  Biso   1.000  H
  C99      1.0000 0.83788  0.30929  0.68513  Biso   1.000  C
  H78      1.0000 0.61172  0.69857  0.69589  Biso   1.000  H
  C100     1.0000 0.56622  0.69801  0.78216  Biso   1.000  C
  H79      1.0000 0.38828  0.69857  0.69589  Biso   1.000  H
  C101     1.0000 0.43378  0.69801  0.78216  Biso   1.000  C
  C102     1.0000 0.16212  0.30929  0.81484  Biso   1.000  C
  H80      1.0000 0.07061  0.34890  0.80409  Biso   1.000  H
  H81      1.0000 0.25159  0.26669  0.80339  Biso   1.000  H
  C103     1.0000 0.89168  0.33258  0.71763  Biso   1.000  C
  C104     1.0000 0.78502  0.28410  0.71828  Biso   1.000  C
  H82      1.0000 0.61172  0.69857  0.80409  Biso   1.000  H
  C105     1.0000 0.50003  0.69713  0.81447  Biso   1.000  C
  H83      1.0000 0.38828  0.69857  0.80409  Biso   1.000  H
  C106     1.0000 0.16749  0.31381  0.88457  Biso   1.000  C
  H84      1.0000 0.92939  0.34890  0.69589  Biso   1.000  H
  C107     1.0000 0.89168  0.33258  0.78235  Biso   1.000  C
  H85      1.0000 0.74841  0.26669  0.69658  Biso   1.000  H
  C108     1.0000 0.78502  0.28410  0.78170  Biso   1.000  C
  C109     1.0000 0.50003  0.69324  0.88429  Biso   1.000  C
  N10      1.0000 0.23461  0.34209  0.89968  Biso   1.000  N
  H86      1.0000 0.17119  0.28241  0.90381  Biso   1.000  H
  H87      1.0000 0.12270  0.32950  0.90098  Biso   1.000  H
  C110     1.0000 0.83788  0.30929  0.81484  Biso   1.000  C
  H88      1.0000 0.92939  0.34890  0.80409  Biso   1.000  H
  H89      1.0000 0.74841  0.26669  0.80339  Biso   1.000  H
  N11      1.0000 0.50003  0.64257  0.90167  Biso   1.000  N
  H90      1.0000 0.45563  0.70889  0.90149  Biso   1.000  H
  H91      1.0000 0.54443  0.70889  0.90149  Biso   1.000  H
  C111     1.0000 0.29450  0.32118  0.92457  Biso   1.000  C
  C112     1.0000 0.23566  0.38753  0.88498  Biso   1.000  C
  C113     1.0000 0.83251  0.31381  0.88457  Biso   1.000  C
  C114     1.0000 0.56389  0.61914  0.90738  Biso   1.000  C
  C115     1.0000 0.43611  0.61914  0.90738  Biso   1.000  C
  C116     1.0000 0.35858  0.34627  0.93278  Biso   1.000  C
  H92      1.0000 0.29240  0.28908  0.93640  Biso   1.000  H
  H93      1.0000 0.19209  0.40199  0.86950  Biso   1.000  H
  C117     1.0000 0.29831  0.41328  0.89189  Biso   1.000  C
  N12      1.0000 0.76539  0.34209  0.89968  Biso   1.000  N
  H94      1.0000 0.82881  0.28241  0.90381  Biso   1.000  H
  H95      1.0000 0.87730  0.32950  0.90098  Biso   1.000  H
  C118     1.0000 0.56522  0.57180  0.91651  Biso   1.000  C
  H96      1.0000 0.60918  0.63587  0.90496  Biso   1.000  H
  C119     1.0000 0.43484  0.57180  0.91651  Biso   1.000  C
  H97      1.0000 0.39082  0.63587  0.90496  Biso   1.000  H
  C120     1.0000 0.36246  0.39353  0.91493  Biso   1.000  C
  H98      1.0000 0.40061  0.33150  0.95067  Biso   1.000  H
  H99      1.0000 0.29798  0.44549  0.88067  Biso   1.000  H
  C121     1.0000 0.70550  0.32118  0.92457  Biso   1.000  C
  C122     1.0000 0.76439  0.38753  0.88498  Biso   1.000  C
  C123     1.0000 0.50003  0.54595  0.91920  Biso   1.000  C
  H100     1.0000 0.61128  0.55630  0.92110  Biso   1.000  H
  H101     1.0000 0.38872  0.55630  0.92110  Biso   1.000  H
  C124     1.0000 0.43296  0.41949  0.91892  Biso   1.000  C
  C125     1.0000 0.64142  0.34627  0.93278  Biso   1.000  C
  H102     1.0000 0.70760  0.28908  0.93640  Biso   1.000  H
  C126     1.0000 0.70169  0.41328  0.89189  Biso   1.000  C
  H103     1.0000 0.80791  0.40199  0.86950  Biso   1.000  H
  C127     1.0000 0.50003  0.49402  0.92031  Biso   1.000  C
  C128     1.0000 0.43390  0.46883  0.92031  Biso   1.000  C
  C129     1.0000 0.50003  0.39574  0.91720  Biso   1.000  C
  C130     1.0000 0.63754  0.39353  0.91493  Biso   1.000  C
  H104     1.0000 0.59939  0.33150  0.95067  Biso   1.000  H
  H105     1.0000 0.70202  0.44549  0.88067  Biso   1.000  H
  C131     1.0000 0.56610  0.46883  0.92031  Biso   1.000  C
  H106     1.0000 0.38828  0.48539  0.92138  Biso   1.000  H
  H107     1.0000 0.50003  0.36248  0.91489  Biso   1.000  H
  C132     1.0000 0.56704  0.41949  0.91892  Biso   1.000  C
  H108     1.0000 0.61172  0.48539  0.92138  Biso   1.000  H
  C133     1.0000 0.33254  0.18617  0.38459  Biso   1.000  C
  C134     1.0000 0.33785  0.19070  0.31487  Biso   1.000  C
  N13      1.0000 0.26541  0.15792  0.39970  Biso   1.000  N
  H109     1.0000 0.32878  0.21761  0.40378  Biso   1.000  H
  H110     1.0000 0.37733  0.17049  0.40100  Biso   1.000  H
  C135     1.0000 0.28499  0.21589  0.28167  Biso   1.000  C
  C136     1.0000 0.39171  0.16743  0.28237  Biso   1.000  C
  C137     1.0000 0.20553  0.17884  0.42460  Biso   1.000  C
  C138     1.0000 0.26436  0.11245  0.38501  Biso   1.000  C
  C139     1.0000 0.28499  0.21589  0.21830  Biso   1.000  C
  H111     1.0000 0.24838  0.23329  0.30342  Biso   1.000  H
  C140     1.0000 0.39171  0.16743  0.21761  Biso   1.000  C
  H112     1.0000 0.42942  0.15108  0.30411  Biso   1.000  H
  C141     1.0000 0.14144  0.15371  0.43280  Biso   1.000  C
  H113     1.0000 0.20758  0.21090  0.43637  Biso   1.000  H
  H114     1.0000 0.20763  0.21090  0.43637  Biso   1.000  H
  H115     1.0000 0.30788  0.09800  0.36948  Biso   1.000  H
  C142     1.0000 0.20171  0.08670  0.39192  Biso   1.000  C
  H116     1.0000 0.30793  0.09800  0.36948  Biso   1.000  H
  C143     1.0000 0.33785  0.19070  0.18511  Biso   1.000  C
  H117     1.0000 0.24838  0.23329  0.19661  Biso   1.000  H
  H118     1.0000 0.42942  0.15108  0.19591  Biso   1.000  H
  C144     1.0000 0.13757  0.10645  0.41496  Biso   1.000  C
  H119     1.0000 0.09942  0.16849  0.45070  Biso   1.000  H
  H120     1.0000 0.20199  0.05449  0.38070  Biso   1.000  H
  C145     1.0000 0.33254  0.18617  0.11539  Biso   1.000  C
  C146     1.0000 0.06702  0.08052  0.41890  Biso   1.000  C
  C147     1.0000 0.06707  0.08052  0.41890  Biso   1.000  C
  N14      1.0000 0.26541  0.15792  0.10032  Biso   1.000  N
  H121     1.0000 0.32878  0.21761  0.09619  Biso   1.000  H
  H122     1.0000 0.37733  0.17049  0.09898  Biso   1.000  H
  C148     1.0000 0.06613  0.03116  0.42033  Biso   1.000  C
  C149     1.0000 0.00000  0.10424  0.41718  Biso   1.000  C
  C150     1.0000 0.20553  0.17884  0.07543  Biso   1.000  C
  C151     1.0000 0.26436  0.11245  0.11502  Biso   1.000  C
  C152     1.0000 0.00000  0.00596  0.42029  Biso   1.000  C
  H123     1.0000 0.11169  0.01460  0.42140  Biso   1.000  H
  H124     1.0000 0.00000  0.13750  0.41491  Biso   1.000  H
  C153     1.0000 0.93298  0.08052  0.41890  Biso   1.000  C
  C154     1.0000 0.14144  0.15371  0.06722  Biso   1.000  C
  H125     1.0000 0.20758  0.21090  0.06360  Biso   1.000  H
  H126     1.0000 0.20763  0.21090  0.06360  Biso   1.000  H
  H127     1.0000 0.30788  0.09800  0.13050  Biso   1.000  H
  C155     1.0000 0.20171  0.08670  0.10811  Biso   1.000  C
  H128     1.0000 0.30793  0.09800  0.13050  Biso   1.000  H
  C156     1.0000 0.00000  0.95404  0.41922  Biso   1.000  C
  C157     1.0000 0.93387  0.03116  0.42033  Biso   1.000  C
  C158     1.0000 0.86243  0.10645  0.41496  Biso   1.000  C
  C159     1.0000 0.13757  0.10645  0.08507  Biso   1.000  C
  H129     1.0000 0.09942  0.16849  0.04928  Biso   1.000  H
  H130     1.0000 0.20199  0.05449  0.11928  Biso   1.000  H
  C160     1.0000 0.93481  0.92818  0.41649  Biso   1.000  C
  C161     1.0000 0.06519  0.92818  0.41649  Biso   1.000  C
  H131     1.0000 0.88831  0.01460  0.42140  Biso   1.000  H
  C162     1.0000 0.85856  0.15371  0.43280  Biso   1.000  C
  C163     1.0000 0.79829  0.08670  0.39192  Biso   1.000  C
  C164     1.0000 0.85861  0.15371  0.43280  Biso   1.000  C
  C165     1.0000 0.06702  0.08052  0.08108  Biso   1.000  C
  C166     1.0000 0.06707  0.08052  0.08108  Biso   1.000  C
  C167     1.0000 0.93613  0.88085  0.40735  Biso   1.000  C
  H132     1.0000 0.88869  0.94369  0.42107  Biso   1.000  H
  C168     1.0000 0.06387  0.88085  0.40735  Biso   1.000  C
  H133     1.0000 0.11131  0.94369  0.42107  Biso   1.000  H
  H134     1.0000 0.90058  0.16849  0.45070  Biso   1.000  H
  C169     1.0000 0.79447  0.17884  0.42460  Biso   1.000  C
  C170     1.0000 0.73564  0.11245  0.38501  Biso   1.000  C
  H135     1.0000 0.79801  0.05449  0.38070  Biso   1.000  H
  C171     1.0000 0.06613  0.03116  0.07964  Biso   1.000  C
  C172     1.0000 0.00000  0.10424  0.08280  Biso   1.000  C
  H136     1.0000 0.89079  0.86411  0.40499  Biso   1.000  H
  N15      1.0000 0.00000  0.85741  0.40170  Biso   1.000  N
  H137     1.0000 0.10921  0.86411  0.40499  Biso   1.000  H
  N16      1.0000 0.73459  0.15792  0.39970  Biso   1.000  N
  H138     1.0000 0.79242  0.21090  0.43637  Biso   1.000  H
  H139     1.0000 0.69212  0.09800  0.36948  Biso   1.000  H
  C173     1.0000 0.00000  0.00596  0.07969  Biso   1.000  C
  H140     1.0000 0.11169  0.01460  0.07858  Biso   1.000  H
  H141     1.0000 0.00000  0.13750  0.08511  Biso   1.000  H
  C174     1.0000 0.93298  0.08052  0.08108  Biso   1.000  C
  C175     1.0000 0.00000  0.80674  0.38431  Biso   1.000  C
  C176     1.0000 0.66746  0.18617  0.38459  Biso   1.000  C
  C177     1.0000 0.00000  0.95404  0.08076  Biso   1.000  C
  C178     1.0000 0.93387  0.03116  0.07964  Biso   1.000  C
  C179     1.0000 0.86243  0.10645  0.08507  Biso   1.000  C
  H142     1.0000 0.95560  0.79110  0.40151  Biso   1.000  H
  C180     1.0000 0.00000  0.80288  0.31450  Biso   1.000  C
  H143     1.0000 0.04440  0.79110  0.40151  Biso   1.000  H
  H144     1.0000 0.67122  0.21761  0.40378  Biso   1.000  H
  H145     1.0000 0.62267  0.17049  0.40100  Biso   1.000  H
  C181     1.0000 0.66215  0.19070  0.31487  Biso   1.000  C
  H146     1.0000 0.62273  0.17049  0.40100  Biso   1.000  H
  C182     1.0000 0.93481  0.92818  0.08349  Biso   1.000  C
  C183     1.0000 0.06519  0.92818  0.08349  Biso   1.000  C
  H147     1.0000 0.88831  0.01460  0.07858  Biso   1.000  H
  C184     1.0000 0.85856  0.15371  0.06722  Biso   1.000  C
  C185     1.0000 0.79829  0.08670  0.10811  Biso   1.000  C
  C186     1.0000 0.85861  0.15371  0.06722  Biso   1.000  C
  C187     1.0000 0.93381  0.80197  0.28214  Biso   1.000  C
  C188     1.0000 0.06619  0.80197  0.28214  Biso   1.000  C
  C189     1.0000 0.06624  0.80197  0.28214  Biso   1.000  C
  C190     1.0000 0.60829  0.16743  0.28237  Biso   1.000  C
  C191     1.0000 0.71501  0.21589  0.28167  Biso   1.000  C
  C192     1.0000 0.93613  0.88085  0.09262  Biso   1.000  C
  H148     1.0000 0.88869  0.94369  0.07890  Biso   1.000  H
  C193     1.0000 0.06387  0.88085  0.09262  Biso   1.000  C
  H149     1.0000 0.11131  0.94369  0.07890  Biso   1.000  H
  H150     1.0000 0.90058  0.16849  0.04928  Biso   1.000  H
  C194     1.0000 0.79447  0.17884  0.07543  Biso   1.000  C
  C195     1.0000 0.73564  0.11245  0.11502  Biso   1.000  C
  H151     1.0000 0.79801  0.05449  0.11928  Biso   1.000  H
  C196     1.0000 0.93381  0.80197  0.21784  Biso   1.000  C
  H152     1.0000 0.88831  0.80141  0.30411  Biso   1.000  H
  C197     1.0000 0.06619  0.80197  0.21784  Biso   1.000  C
  C198     1.0000 0.06624  0.80197  0.21784  Biso   1.000  C
  H153     1.0000 0.11169  0.80141  0.30411  Biso   1.000  H
  C199     1.0000 0.60829  0.16743  0.21761  Biso   1.000  C
  H154     1.0000 0.57058  0.15108  0.30411  Biso   1.000  H
  C200     1.0000 0.71501  0.21589  0.21830  Biso   1.000  C
  H155     1.0000 0.75162  0.23329  0.30342  Biso   1.000  H
  H156     1.0000 0.89079  0.86411  0.09499  Biso   1.000  H
  N17      1.0000 0.00000  0.85741  0.09828  Biso   1.000  N
  H157     1.0000 0.10921  0.86411  0.09499  Biso   1.000  H
  N18      1.0000 0.73459  0.15792  0.10032  Biso   1.000  N
  H158     1.0000 0.79242  0.21090  0.06360  Biso   1.000  H
  H159     1.0000 0.69212  0.09800  0.13050  Biso   1.000  H
  C201     1.0000 0.00000  0.80288  0.18548  Biso   1.000  C
  H160     1.0000 0.88831  0.80141  0.19591  Biso   1.000  H
  H161     1.0000 0.11169  0.80141  0.19591  Biso   1.000  H
  C202     1.0000 0.66215  0.19070  0.18511  Biso   1.000  C
  H162     1.0000 0.57058  0.15108  0.19591  Biso   1.000  H
  H163     1.0000 0.75162  0.23329  0.19661  Biso   1.000  H
  C203     1.0000 0.00000  0.80674  0.11571  Biso   1.000  C
  C204     1.0000 0.66746  0.18617  0.11539  Biso   1.000  C
  H164     1.0000 0.95560  0.79110  0.09851  Biso   1.000  H
  H165     1.0000 0.04440  0.79110  0.09851  Biso   1.000  H
  H166     1.0000 0.67122  0.21761  0.09619  Biso   1.000  H
  H167     1.0000 0.62267  0.17049  0.09898  Biso   1.000  H
  H168     1.0000 0.62273  0.17049  0.09898  Biso   1.000  H
  C205     1.0000 0.33254  0.18617  0.38459  Biso   1.000  C
  C206     1.0000 0.33785  0.19070  0.31487  Biso   1.000  C
  N19      1.0000 0.26541  0.15792  0.39970  Biso   1.000  N
  H169     1.0000 0.32878  0.21761  0.40378  Biso   1.000  H
  H170     1.0000 0.37733  0.17049  0.40100  Biso   1.000  H
  C207     1.0000 0.28499  0.21589  0.28167  Biso   1.000  C
  C208     1.0000 0.39171  0.16743  0.28237  Biso   1.000  C
  C209     1.0000 0.20553  0.17884  0.42460  Biso   1.000  C
  C210     1.0000 0.26436  0.11245  0.38501  Biso   1.000  C
  C211     1.0000 0.28499  0.21589  0.21830  Biso   1.000  C
  H171     1.0000 0.24838  0.23329  0.30342  Biso   1.000  H
  C212     1.0000 0.39171  0.16743  0.21761  Biso   1.000  C
  H172     1.0000 0.42942  0.15108  0.30411  Biso   1.000  H
  C213     1.0000 0.14144  0.15371  0.43280  Biso   1.000  C
  H173     1.0000 0.20758  0.21090  0.43637  Biso   1.000  H
  H174     1.0000 0.20763  0.21090  0.43637  Biso   1.000  H
  C214     1.0000 0.20171  0.08670  0.39192  Biso   1.000  C
  H175     1.0000 0.30788  0.09800  0.36948  Biso   1.000  H
  H176     1.0000 0.30793  0.09800  0.36948  Biso   1.000  H
  C215     1.0000 0.33785  0.19070  0.18511  Biso   1.000  C
  H177     1.0000 0.24838  0.23329  0.19661  Biso   1.000  H
  H178     1.0000 0.42942  0.15108  0.19591  Biso   1.000  H
  C216     1.0000 0.13757  0.10645  0.41496  Biso   1.000  C
  H179     1.0000 0.09942  0.16849  0.45070  Biso   1.000  H
  H180     1.0000 0.20199  0.05449  0.38070  Biso   1.000  H
  C217     1.0000 0.33254  0.18617  0.11539  Biso   1.000  C
  C218     1.0000 0.06702  0.08052  0.41890  Biso   1.000  C
  C219     1.0000 0.06707  0.08052  0.41890  Biso   1.000  C
  N20      1.0000 0.26541  0.15792  0.10032  Biso   1.000  N
  H181     1.0000 0.32878  0.21761  0.09619  Biso   1.000  H
  H182     1.0000 0.37733  0.17049  0.09898  Biso   1.000  H
  C220     1.0000 0.06613  0.03116  0.42033  Biso   1.000  C
  C221     1.0000 0.00000  0.10424  0.41718  Biso   1.000  C
  C222     1.0000 0.20553  0.17884  0.07543  Biso   1.000  C
  C223     1.0000 0.26436  0.11245  0.11502  Biso   1.000  C
  H183     1.0000 0.11169  0.01460  0.42140  Biso   1.000  H
  C224     1.0000 0.00000  0.00596  0.42029  Biso   1.000  C
  C225     1.0000 0.93298  0.08052  0.41890  Biso   1.000  C
  H184     1.0000 0.00000  0.13750  0.41491  Biso   1.000  H
  C226     1.0000 0.14144  0.15371  0.06722  Biso   1.000  C
  H185     1.0000 0.20758  0.21090  0.06360  Biso   1.000  H
  H186     1.0000 0.20763  0.21090  0.06360  Biso   1.000  H
  C227     1.0000 0.20171  0.08670  0.10811  Biso   1.000  C
  H187     1.0000 0.30788  0.09800  0.13050  Biso   1.000  H
  H188     1.0000 0.30793  0.09800  0.13050  Biso   1.000  H
  C228     1.0000 0.00000  0.95404  0.41922  Biso   1.000  C
  C229     1.0000 0.93387  0.03116  0.42033  Biso   1.000  C
  C230     1.0000 0.86243  0.10645  0.41496  Biso   1.000  C
  C231     1.0000 0.13757  0.10645  0.08507  Biso   1.000  C
  H189     1.0000 0.09942  0.16849  0.04928  Biso   1.000  H
  H190     1.0000 0.20199  0.05449  0.11928  Biso   1.000  H
  C232     1.0000 0.93481  0.92818  0.41649  Biso   1.000  C
  C233     1.0000 0.06519  0.92818  0.41649  Biso   1.000  C
  H191     1.0000 0.88831  0.01460  0.42140  Biso   1.000  H
  C234     1.0000 0.85856  0.15371  0.43280  Biso   1.000  C
  C235     1.0000 0.79829  0.08670  0.39192  Biso   1.000  C
  C236     1.0000 0.85861  0.15371  0.43280  Biso   1.000  C
  C237     1.0000 0.06702  0.08052  0.08108  Biso   1.000  C
  C238     1.0000 0.06707  0.08052  0.08108  Biso   1.000  C
  C239     1.0000 0.93613  0.88085  0.40735  Biso   1.000  C
  H192     1.0000 0.88869  0.94369  0.42107  Biso   1.000  H
  C240     1.0000 0.06387  0.88085  0.40735  Biso   1.000  C
  H193     1.0000 0.11131  0.94369  0.42107  Biso   1.000  H
  H194     1.0000 0.90058  0.16849  0.45070  Biso   1.000  H
  C241     1.0000 0.79447  0.17884  0.42460  Biso   1.000  C
  C242     1.0000 0.73564  0.11245  0.38501  Biso   1.000  C
  H195     1.0000 0.79801  0.05449  0.38070  Biso   1.000  H
  C243     1.0000 0.06613  0.03116  0.07964  Biso   1.000  C
  C244     1.0000 0.00000  0.10424  0.08280  Biso   1.000  C
  H196     1.0000 0.89079  0.86411  0.40499  Biso   1.000  H
  N21      1.0000 0.00000  0.85741  0.40170  Biso   1.000  N
  H197     1.0000 0.10921  0.86411  0.40499  Biso   1.000  H
  N22      1.0000 0.73459  0.15792  0.39970  Biso   1.000  N
  H198     1.0000 0.79242  0.21090  0.43637  Biso   1.000  H
  H199     1.0000 0.69212  0.09800  0.36948  Biso   1.000  H
  H200     1.0000 0.11169  0.01460  0.07858  Biso   1.000  H
  C245     1.0000 0.00000  0.00596  0.07969  Biso   1.000  C
  C246     1.0000 0.93298  0.08052  0.08108  Biso   1.000  C
  H201     1.0000 0.00000  0.13750  0.08511  Biso   1.000  H
  C247     1.0000 0.00000  0.80674  0.38431  Biso   1.000  C
  C248     1.0000 0.66746  0.18617  0.38459  Biso   1.000  C
  C249     1.0000 0.00000  0.95404  0.08076  Biso   1.000  C
  C250     1.0000 0.93387  0.03116  0.07964  Biso   1.000  C
  C251     1.0000 0.86243  0.10645  0.08507  Biso   1.000  C
  H202     1.0000 0.95560  0.79110  0.40151  Biso   1.000  H
  C252     1.0000 0.00000  0.80288  0.31450  Biso   1.000  C
  H203     1.0000 0.04440  0.79110  0.40151  Biso   1.000  H
  H204     1.0000 0.67122  0.21761  0.40378  Biso   1.000  H
  H205     1.0000 0.62267  0.17049  0.40100  Biso   1.000  H
  C253     1.0000 0.66215  0.19070  0.31487  Biso   1.000  C
  H206     1.0000 0.62273  0.17049  0.40100  Biso   1.000  H
  C254     1.0000 0.93481  0.92818  0.08349  Biso   1.000  C
  C255     1.0000 0.06519  0.92818  0.08349  Biso   1.000  C
  H207     1.0000 0.88831  0.01460  0.07858  Biso   1.000  H
  C256     1.0000 0.85856  0.15371  0.06722  Biso   1.000  C
  C257     1.0000 0.79829  0.08670  0.10811  Biso   1.000  C
  C258     1.0000 0.85861  0.15371  0.06722  Biso   1.000  C
  C259     1.0000 0.93381  0.80197  0.28214  Biso   1.000  C
  C260     1.0000 0.06619  0.80197  0.28214  Biso   1.000  C
  C261     1.0000 0.06624  0.80197  0.28214  Biso   1.000  C
  C262     1.0000 0.60829  0.16743  0.28237  Biso   1.000  C
  C263     1.0000 0.71501  0.21589  0.28167  Biso   1.000  C
  C264     1.0000 0.93613  0.88085  0.09262  Biso   1.000  C
  H208     1.0000 0.88869  0.94369  0.07890  Biso   1.000  H
  C265     1.0000 0.06387  0.88085  0.09262  Biso   1.000  C
  H209     1.0000 0.11131  0.94369  0.07890  Biso   1.000  H
  H210     1.0000 0.90058  0.16849  0.04928  Biso   1.000  H
  C266     1.0000 0.79447  0.17884  0.07543  Biso   1.000  C
  C267     1.0000 0.73564  0.11245  0.11502  Biso   1.000  C
  H211     1.0000 0.79801  0.05449  0.11928  Biso   1.000  H
  C268     1.0000 0.93381  0.80197  0.21784  Biso   1.000  C
  H212     1.0000 0.88831  0.80141  0.30411  Biso   1.000  H
  C269     1.0000 0.06619  0.80197  0.21784  Biso   1.000  C
  C270     1.0000 0.06624  0.80197  0.21784  Biso   1.000  C
  H213     1.0000 0.11169  0.80141  0.30411  Biso   1.000  H
  C271     1.0000 0.60829  0.16743  0.21761  Biso   1.000  C
  H214     1.0000 0.57058  0.15108  0.30411  Biso   1.000  H
  C272     1.0000 0.71501  0.21589  0.21830  Biso   1.000  C
  H215     1.0000 0.75162  0.23329  0.30342  Biso   1.000  H
  H216     1.0000 0.89079  0.86411  0.09499  Biso   1.000  H
  N23      1.0000 0.00000  0.85741  0.09828  Biso   1.000  N
  H217     1.0000 0.10921  0.86411  0.09499  Biso   1.000  H
  N24      1.0000 0.73459  0.15792  0.10032  Biso   1.000  N
  H218     1.0000 0.79242  0.21090  0.06360  Biso   1.000  H
  H219     1.0000 0.69212  0.09800  0.13050  Biso   1.000  H
  C273     1.0000 0.00000  0.80288  0.18548  Biso   1.000  C
  H220     1.0000 0.88831  0.80141  0.19591  Biso   1.000  H
  H221     1.0000 0.11169  0.80141  0.19591  Biso   1.000  H
  C274     1.0000 0.66215  0.19070  0.18511  Biso   1.000  C
  H222     1.0000 0.57058  0.15108  0.19591  Biso   1.000  H
  H223     1.0000 0.75162  0.23329  0.19661  Biso   1.000  H
  C275     1.0000 0.00000  0.80674  0.11571  Biso   1.000  C
  C276     1.0000 0.66746  0.18617  0.11539  Biso   1.000  C
  H224     1.0000 0.95560  0.79110  0.09851  Biso   1.000  H
  H225     1.0000 0.04440  0.79110  0.09851  Biso   1.000  H
  H226     1.0000 0.67122  0.21761  0.09619  Biso   1.000  H
  H227     1.0000 0.62267  0.17049  0.09898  Biso   1.000  H
  H228     1.0000 0.62273  0.17049  0.09898  Biso   1.000  H
  C277     1.0000 0.33254  0.81383  0.61541  Biso   1.000  C
  N25      1.0000 0.26541  0.84208  0.60030  Biso   1.000  N
  H229     1.0000 0.32878  0.78239  0.59617  Biso   1.000  H
  H230     1.0000 0.37733  0.82948  0.59900  Biso   1.000  H
  C278     1.0000 0.33785  0.80930  0.68513  Biso   1.000  C
  C279     1.0000 0.20553  0.82116  0.57540  Biso   1.000  C
  C280     1.0000 0.26436  0.88751  0.61499  Biso   1.000  C
  C281     1.0000 0.39171  0.83257  0.71763  Biso   1.000  C
  C282     1.0000 0.28499  0.78408  0.71828  Biso   1.000  C
  C283     1.0000 0.14144  0.84625  0.56720  Biso   1.000  C
  H231     1.0000 0.20758  0.78910  0.56358  Biso   1.000  H
  H232     1.0000 0.20763  0.78910  0.56358  Biso   1.000  H
  H233     1.0000 0.30788  0.90197  0.63048  Biso   1.000  H
  C284     1.0000 0.20171  0.91330  0.60808  Biso   1.000  C
  H234     1.0000 0.30793  0.90197  0.63048  Biso   1.000  H
  H235     1.0000 0.42942  0.84888  0.69589  Biso   1.000  H
  C285     1.0000 0.39171  0.83257  0.78235  Biso   1.000  C
  H236     1.0000 0.24838  0.76667  0.69658  Biso   1.000  H
  C286     1.0000 0.28499  0.78408  0.78170  Biso   1.000  C
  C287     1.0000 0.13757  0.89355  0.58504  Biso   1.000  C
  H237     1.0000 0.09942  0.83148  0.54930  Biso   1.000  H
  H238     1.0000 0.20199  0.94548  0.61930  Biso   1.000  H
  C288     1.0000 0.33785  0.80930  0.81484  Biso   1.000  C
  H239     1.0000 0.42942  0.84888  0.80409  Biso   1.000  H
  H240     1.0000 0.24838  0.76667  0.80339  Biso   1.000  H
  C289     1.0000 0.06702  0.91948  0.58106  Biso   1.000  C
  C290     1.0000 0.06707  0.91948  0.58106  Biso   1.000  C
  C291     1.0000 0.33254  0.81383  0.88457  Biso   1.000  C
  C292     1.0000 0.00000  0.89572  0.58277  Biso   1.000  C
  C293     1.0000 0.06613  0.96881  0.57967  Biso   1.000  C
  N26      1.0000 0.26541  0.84208  0.89968  Biso   1.000  N
  H241     1.0000 0.32878  0.78239  0.90381  Biso   1.000  H
  H242     1.0000 0.37733  0.82948  0.90098  Biso   1.000  H
  H243     1.0000 0.00000  0.86250  0.58509  Biso   1.000  H
  C294     1.0000 0.93298  0.91948  0.58106  Biso   1.000  C
  C295     1.0000 0.00000  0.99400  0.57971  Biso   1.000  C
  H244     1.0000 0.11169  0.98537  0.57860  Biso   1.000  H
  C296     1.0000 0.20553  0.82116  0.92457  Biso   1.000  C
  C297     1.0000 0.26436  0.88751  0.88498  Biso   1.000  C
  C298     1.0000 0.93387  0.96881  0.57967  Biso   1.000  C
  C299     1.0000 0.86243  0.89355  0.58504  Biso   1.000  C
  C300     1.0000 0.00000  0.04596  0.58078  Biso   1.000  C
  C301     1.0000 0.14144  0.84625  0.93278  Biso   1.000  C
  H245     1.0000 0.20758  0.78910  0.93640  Biso   1.000  H
  H246     1.0000 0.20763  0.78910  0.93640  Biso   1.000  H
  H247     1.0000 0.30788  0.90197  0.86950  Biso   1.000  H
  C302     1.0000 0.20171  0.91330  0.89189  Biso   1.000  C
  H248     1.0000 0.30793  0.90197  0.86950  Biso   1.000  H
  H249     1.0000 0.88831  0.98537  0.57860  Biso   1.000  H
  C303     1.0000 0.85856  0.84625  0.56720  Biso   1.000  C
  C304     1.0000 0.79829  0.91330  0.60808  Biso   1.000  C
  C305     1.0000 0.85861  0.84625  0.56720  Biso   1.000  C
  C306     1.0000 0.93481  0.07186  0.58347  Biso   1.000  C
  C307     1.0000 0.06519  0.07186  0.58347  Biso   1.000  C
  C308     1.0000 0.13757  0.89355  0.91493  Biso   1.000  C
  H250     1.0000 0.09942  0.83148  0.95067  Biso   1.000  H
  H251     1.0000 0.20199  0.94548  0.88067  Biso   1.000  H
  H252     1.0000 0.90058  0.83148  0.54930  Biso   1.000  H
  C309     1.0000 0.79447  0.82116  0.57540  Biso   1.000  C
  C310     1.0000 0.73564  0.88751  0.61499  Biso   1.000  C
  H253     1.0000 0.79801  0.94548  0.61930  Biso   1.000  H
  C311     1.0000 0.93613  0.11919  0.59260  Biso   1.000  C
  H254     1.0000 0.88869  0.05631  0.57888  Biso   1.000  H
  C312     1.0000 0.06387  0.11919  0.59260  Biso   1.000  C
  H255     1.0000 0.11131  0.05631  0.57888  Biso   1.000  H
  C313     1.0000 0.06702  0.91948  0.91892  Biso   1.000  C
  C314     1.0000 0.06707  0.91948  0.91892  Biso   1.000  C
  N27      1.0000 0.73459  0.84208  0.60030  Biso   1.000  N
  H256     1.0000 0.79242  0.78910  0.56358  Biso   1.000  H
  H257     1.0000 0.69212  0.90197  0.63048  Biso   1.000  H
  H258     1.0000 0.89079  0.13593  0.59501  Biso   1.000  H
  N28      1.0000 0.00000  0.14259  0.59830  Biso   1.000  N
  H259     1.0000 0.10921  0.13593  0.59501  Biso   1.000  H
  C315     1.0000 0.00000  0.89572  0.91720  Biso   1.000  C
  C316     1.0000 0.06613  0.96881  0.92031  Biso   1.000  C
  C317     1.0000 0.66746  0.81383  0.61541  Biso   1.000  C
  C318     1.0000 0.00000  0.19329  0.61569  Biso   1.000  C
  H260     1.0000 0.00000  0.86250  0.91489  Biso   1.000  H
  C319     1.0000 0.93298  0.91948  0.91892  Biso   1.000  C
  C320     1.0000 0.00000  0.99400  0.92031  Biso   1.000  C
  H261     1.0000 0.11169  0.98537  0.92138  Biso   1.000  H
  H262     1.0000 0.67122  0.78239  0.59617  Biso   1.000  H
  H263     1.0000 0.62267  0.82948  0.59900  Biso   1.000  H
  C321     1.0000 0.66215  0.80930  0.68513  Biso   1.000  C
  H264     1.0000 0.62273  0.82948  0.59900  Biso   1.000  H
  H265     1.0000 0.95560  0.20887  0.59849  Biso   1.000  H
  C322     1.0000 0.00000  0.19715  0.68550  Biso   1.000  C
  H266     1.0000 0.04440  0.20887  0.59849  Biso   1.000  H
  C323     1.0000 0.93387  0.96881  0.92031  Biso   1.000  C
  C324     1.0000 0.86243  0.89355  0.91493  Biso   1.000  C
  C325     1.0000 0.00000  0.04596  0.91920  Biso   1.000  C
  C326     1.0000 0.60829  0.83257  0.71763  Biso   1.000  C
  C327     1.0000 0.71501  0.78408  0.71828  Biso   1.000  C
  C328     1.0000 0.93381  0.19803  0.71782  Biso   1.000  C
  C329     1.0000 0.06619  0.19803  0.71782  Biso   1.000  C
  C330     1.0000 0.06624  0.19803  0.71782  Biso   1.000  C
  H267     1.0000 0.88831  0.98537  0.92138  Biso   1.000  H
  C331     1.0000 0.85856  0.84625  0.93278  Biso   1.000  C
  C332     1.0000 0.79829  0.91330  0.89189  Biso   1.000  C
  C333     1.0000 0.85861  0.84625  0.93278  Biso   1.000  C
  C334     1.0000 0.93481  0.07186  0.91651  Biso   1.000  C
  C335     1.0000 0.06519  0.07186  0.91651  Biso   1.000  C
  H268     1.0000 0.57058  0.84888  0.69589  Biso   1.000  H
  C336     1.0000 0.60829  0.83257  0.78235  Biso   1.000  C
  H269     1.0000 0.75162  0.76667  0.69658  Biso   1.000  H
  C337     1.0000 0.71501  0.78408  0.78170  Biso   1.000  C
  H270     1.0000 0.88831  0.19859  0.69589  Biso   1.000  H
  C338     1.0000 0.93381  0.19803  0.78216  Biso   1.000  C
  H271     1.0000 0.11169  0.19859  0.69589  Biso   1.000  H
  C339     1.0000 0.06619  0.19803  0.78216  Biso   1.000  C
  C340     1.0000 0.06624  0.19803  0.78216  Biso   1.000  C
  H272     1.0000 0.90058  0.83148  0.95067  Biso   1.000  H
  C341     1.0000 0.79447  0.82116  0.92457  Biso   1.000  C
  C342     1.0000 0.73564  0.88751  0.88498  Biso   1.000  C
  H273     1.0000 0.79801  0.94548  0.88067  Biso   1.000  H
  C343     1.0000 0.93613  0.11919  0.90738  Biso   1.000  C
  H274     1.0000 0.88869  0.05631  0.92110  Biso   1.000  H
  C344     1.0000 0.06387  0.11919  0.90738  Biso   1.000  C
  H275     1.0000 0.11131  0.05631  0.92110  Biso   1.000  H
  C345     1.0000 0.66215  0.80930  0.81484  Biso   1.000  C
  H276     1.0000 0.57058  0.84888  0.80409  Biso   1.000  H
  H277     1.0000 0.75162  0.76667  0.80339  Biso   1.000  H
  H278     1.0000 0.88831  0.19859  0.80409  Biso   1.000  H
  C346     1.0000 0.00000  0.19715  0.81447  Biso   1.000  C
  H279     1.0000 0.11169  0.19859  0.80409  Biso   1.000  H
  N29      1.0000 0.73459  0.84208  0.89968  Biso   1.000  N
  H280     1.0000 0.79242  0.78910  0.93640  Biso   1.000  H
  H281     1.0000 0.69212  0.90197  0.86950  Biso   1.000  H
  N30      1.0000 0.00000  0.14259  0.90167  Biso   1.000  N
  H282     1.0000 0.89079  0.13593  0.90496  Biso   1.000  H
  H283     1.0000 0.10921  0.13593  0.90496  Biso   1.000  H
  C347     1.0000 0.66746  0.81383  0.88457  Biso   1.000  C
  C348     1.0000 0.00000  0.19329  0.88429  Biso   1.000  C
  H284     1.0000 0.67122  0.78239  0.90381  Biso   1.000  H
  H285     1.0000 0.62267  0.82948  0.90098  Biso   1.000  H
  H286     1.0000 0.62273  0.82948  0.90098  Biso   1.000  H
  H287     1.0000 0.95560  0.20887  0.90149  Biso   1.000  H
  H288     1.0000 0.04440  0.20887  0.90149  Biso   1.000  H
  C349     1.0000 0.33254  0.81383  0.61541  Biso   1.000  C
  N31      1.0000 0.26541  0.84208  0.60030  Biso   1.000  N
  H289     1.0000 0.32878  0.78239  0.59617  Biso   1.000  H
  H290     1.0000 0.37733  0.82948  0.59900  Biso   1.000  H
  C350     1.0000 0.33785  0.80930  0.68513  Biso   1.000  C
  C351     1.0000 0.20553  0.82116  0.57540  Biso   1.000  C
  C352     1.0000 0.26436  0.88751  0.61499  Biso   1.000  C
  C353     1.0000 0.39171  0.83257  0.71763  Biso   1.000  C
  C354     1.0000 0.28499  0.78408  0.71828  Biso   1.000  C
  C355     1.0000 0.14144  0.84625  0.56720  Biso   1.000  C
  H291     1.0000 0.20758  0.78910  0.56358  Biso   1.000  H
  H292     1.0000 0.20763  0.78910  0.56358  Biso   1.000  H
  C356     1.0000 0.20171  0.91330  0.60808  Biso   1.000  C
  H293     1.0000 0.30788  0.90197  0.63048  Biso   1.000  H
  H294     1.0000 0.30793  0.90197  0.63048  Biso   1.000  H
  H295     1.0000 0.42942  0.84888  0.69589  Biso   1.000  H
  C357     1.0000 0.39171  0.83257  0.78235  Biso   1.000  C
  H296     1.0000 0.24838  0.76667  0.69658  Biso   1.000  H
  C358     1.0000 0.28499  0.78408  0.78170  Biso   1.000  C
  C359     1.0000 0.13757  0.89355  0.58504  Biso   1.000  C
  H297     1.0000 0.09942  0.83148  0.54930  Biso   1.000  H
  H298     1.0000 0.20199  0.94548  0.61930  Biso   1.000  H
  C360     1.0000 0.33785  0.80930  0.81484  Biso   1.000  C
  H299     1.0000 0.42942  0.84888  0.80409  Biso   1.000  H
  H300     1.0000 0.24838  0.76667  0.80339  Biso   1.000  H
  C361     1.0000 0.06702  0.91948  0.58106  Biso   1.000  C
  C362     1.0000 0.06707  0.91948  0.58106  Biso   1.000  C
  C363     1.0000 0.33254  0.81383  0.88457  Biso   1.000  C
  C364     1.0000 0.06613  0.96881  0.57967  Biso   1.000  C
  C365     1.0000 0.00000  0.89572  0.58277  Biso   1.000  C
  N32      1.0000 0.26541  0.84208  0.89968  Biso   1.000  N
  H301     1.0000 0.32878  0.78239  0.90381  Biso   1.000  H
  H302     1.0000 0.37733  0.82948  0.90098  Biso   1.000  H
  H303     1.0000 0.11169  0.98537  0.57860  Biso   1.000  H
  C366     1.0000 0.00000  0.99400  0.57971  Biso   1.000  C
  C367     1.0000 0.93298  0.91948  0.58106  Biso   1.000  C
  H304     1.0000 0.00000  0.86250  0.58509  Biso   1.000  H
  C368     1.0000 0.20553  0.82116  0.92457  Biso   1.000  C
  C369     1.0000 0.26436  0.88751  0.88498  Biso   1.000  C
  C370     1.0000 0.93387  0.96881  0.57967  Biso   1.000  C
  C371     1.0000 0.00000  0.04596  0.58078  Biso   1.000  C
  C372     1.0000 0.86243  0.89355  0.58504  Biso   1.000  C
  C373     1.0000 0.14144  0.84625  0.93278  Biso   1.000  C
  H305     1.0000 0.20758  0.78910  0.93640  Biso   1.000  H
  H306     1.0000 0.20763  0.78910  0.93640  Biso   1.000  H
  C374     1.0000 0.20171  0.91330  0.89189  Biso   1.000  C
  H307     1.0000 0.30788  0.90197  0.86950  Biso   1.000  H
  H308     1.0000 0.30793  0.90197  0.86950  Biso   1.000  H
  H309     1.0000 0.88831  0.98537  0.57860  Biso   1.000  H
  C375     1.0000 0.93481  0.07186  0.58347  Biso   1.000  C
  C376     1.0000 0.06519  0.07186  0.58347  Biso   1.000  C
  C377     1.0000 0.85856  0.84625  0.56720  Biso   1.000  C
  C378     1.0000 0.79829  0.91330  0.60808  Biso   1.000  C
  C379     1.0000 0.85861  0.84625  0.56720  Biso   1.000  C
  C380     1.0000 0.13757  0.89355  0.91493  Biso   1.000  C
  H310     1.0000 0.09942  0.83148  0.95067  Biso   1.000  H
  H311     1.0000 0.20199  0.94548  0.88067  Biso   1.000  H
  C381     1.0000 0.93613  0.11919  0.59260  Biso   1.000  C
  H312     1.0000 0.88869  0.05631  0.57888  Biso   1.000  H
  C382     1.0000 0.06387  0.11919  0.59260  Biso   1.000  C
  H313     1.0000 0.11131  0.05631  0.57888  Biso   1.000  H
  H314     1.0000 0.90058  0.83148  0.54930  Biso   1.000  H
  C383     1.0000 0.79447  0.82116  0.57540  Biso   1.000  C
  C384     1.0000 0.73564  0.88751  0.61499  Biso   1.000  C
  H315     1.0000 0.79801  0.94548  0.61930  Biso   1.000  H
  C385     1.0000 0.06702  0.91948  0.91892  Biso   1.000  C
  C386     1.0000 0.06707  0.91948  0.91892  Biso   1.000  C
  H316     1.0000 0.89079  0.13593  0.59501  Biso   1.000  H
  N33      1.0000 0.00000  0.14259  0.59830  Biso   1.000  N
  H317     1.0000 0.10921  0.13593  0.59501  Biso   1.000  H
  N34      1.0000 0.73459  0.84208  0.60030  Biso   1.000  N
  H318     1.0000 0.79242  0.78910  0.56358  Biso   1.000  H
  H319     1.0000 0.69212  0.90197  0.63048  Biso   1.000  H
  C387     1.0000 0.06613  0.96881  0.92031  Biso   1.000  C
  C388     1.0000 0.00000  0.89572  0.91720  Biso   1.000  C
  C389     1.0000 0.00000  0.19329  0.61569  Biso   1.000  C
  C390     1.0000 0.66746  0.81383  0.61541  Biso   1.000  C
  H320     1.0000 0.11169  0.98537  0.92138  Biso   1.000  H
  C391     1.0000 0.00000  0.99400  0.92031  Biso   1.000  C
  C392     1.0000 0.93298  0.91948  0.91892  Biso   1.000  C
  H321     1.0000 0.00000  0.86250  0.91489  Biso   1.000  H
  H322     1.0000 0.95560  0.20887  0.59849  Biso   1.000  H
  C393     1.0000 0.00000  0.19715  0.68550  Biso   1.000  C
  H323     1.0000 0.04440  0.20887  0.59849  Biso   1.000  H
  H324     1.0000 0.67122  0.78239  0.59617  Biso   1.000  H
  H325     1.0000 0.62267  0.82948  0.59900  Biso   1.000  H
  C394     1.0000 0.66215  0.80930  0.68513  Biso   1.000  C
  H326     1.0000 0.62273  0.82948  0.59900  Biso   1.000  H
  C395     1.0000 0.93387  0.96881  0.92031  Biso   1.000  C
  C396     1.0000 0.00000  0.04596  0.91920  Biso   1.000  C
  C397     1.0000 0.86243  0.89355  0.91493  Biso   1.000  C
  C398     1.0000 0.93381  0.19803  0.71782  Biso   1.000  C
  C399     1.0000 0.06619  0.19803  0.71782  Biso   1.000  C
  C400     1.0000 0.06624  0.19803  0.71782  Biso   1.000  C
  C401     1.0000 0.60829  0.83257  0.71763  Biso   1.000  C
  C402     1.0000 0.71501  0.78408  0.71828  Biso   1.000  C
  H327     1.0000 0.88831  0.98537  0.92138  Biso   1.000  H
  C403     1.0000 0.93481  0.07186  0.91651  Biso   1.000  C
  C404     1.0000 0.06519  0.07186  0.91651  Biso   1.000  C
  C405     1.0000 0.85856  0.84625  0.93278  Biso   1.000  C
  C406     1.0000 0.79829  0.91330  0.89189  Biso   1.000  C
  C407     1.0000 0.85861  0.84625  0.93278  Biso   1.000  C
  H328     1.0000 0.88831  0.19859  0.69589  Biso   1.000  H
  C408     1.0000 0.93381  0.19803  0.78216  Biso   1.000  C
  H329     1.0000 0.11169  0.19859  0.69589  Biso   1.000  H
  C409     1.0000 0.06619  0.19803  0.78216  Biso   1.000  C
  C410     1.0000 0.06624  0.19803  0.78216  Biso   1.000  C
  H330     1.0000 0.57058  0.84888  0.69589  Biso   1.000  H
  C411     1.0000 0.60829  0.83257  0.78235  Biso   1.000  C
  H331     1.0000 0.75162  0.76667  0.69658  Biso   1.000  H
  C412     1.0000 0.71501  0.78408  0.78170  Biso   1.000  C
  C413     1.0000 0.93613  0.11919  0.90738  Biso   1.000  C
  H332     1.0000 0.88869  0.05631  0.92110  Biso   1.000  H
  C414     1.0000 0.06387  0.11919  0.90738  Biso   1.000  C
  H333     1.0000 0.11131  0.05631  0.92110  Biso   1.000  H
  H334     1.0000 0.90058  0.83148  0.95067  Biso   1.000  H
  C415     1.0000 0.79447  0.82116  0.92457  Biso   1.000  C
  C416     1.0000 0.73564  0.88751  0.88498  Biso   1.000  C
  H335     1.0000 0.79801  0.94548  0.88067  Biso   1.000  H
  H336     1.0000 0.88831  0.19859  0.80409  Biso   1.000  H
  C417     1.0000 0.00000  0.19715  0.81447  Biso   1.000  C
  H337     1.0000 0.11169  0.19859  0.80409  Biso   1.000  H
  C418     1.0000 0.66215  0.80930  0.81484  Biso   1.000  C
  H338     1.0000 0.57058  0.84888  0.80409  Biso   1.000  H
  H339     1.0000 0.75162  0.76667  0.80339  Biso   1.000  H
  N35      1.0000 0.00000  0.14259  0.90167  Biso   1.000  N
  H340     1.0000 0.89079  0.13593  0.90496  Biso   1.000  H
  H341     1.0000 0.10921  0.13593  0.90496  Biso   1.000  H
  N36      1.0000 0.73459  0.84208  0.89968  Biso   1.000  N
  H342     1.0000 0.79242  0.78910  0.93640  Biso   1.000  H
  H343     1.0000 0.69212  0.90197  0.86950  Biso   1.000  H
  C419     1.0000 0.00000  0.19329  0.88429  Biso   1.000  C
  C420     1.0000 0.66746  0.81383  0.88457  Biso   1.000  C
  H344     1.0000 0.95560  0.20887  0.90149  Biso   1.000  H
  H345     1.0000 0.04440  0.20887  0.90149  Biso   1.000  H
  H346     1.0000 0.67122  0.78239  0.90381  Biso   1.000  H
  H347     1.0000 0.62267  0.82948  0.90098  Biso   1.000  H
  H348     1.0000 0.62273  0.82948  0.90098  Biso   1.000  H
  Ne1      1.0000 0.00008  0.05537  0.25000  Biso   1.000  Ne
  He1      1.0000 0.92460  0.10825  0.24999  Biso   1.000  He
  He2      1.0000 0.90425  0.05061  0.24999  Biso   1.000  He
  He3      1.0000 0.04166  0.98200  0.24999  Biso   1.000  He
  Ar1      1.0000 0.00009  0.05205  0.24991  Biso   1.000  Ar
  Ne2      1.0000 0.00008  0.05537  0.25000  Biso   1.000  Ne
  He4      1.0000 0.92460  0.10825  0.24999  Biso   1.000  He
  He5      1.0000 0.90425  0.05061  0.24999  Biso   1.000  He
  He6      1.0000 0.04166  0.98200  0.24999  Biso   1.000  He
  Ar2      1.0000 0.00009  0.05205  0.24991  Biso   1.000  Ar
  Ne3      1.0000 0.50001  0.55804  0.25000  Biso   1.000  Ne
  He7      1.0000 0.42463  0.60823  0.24999  Biso   1.000  He
  He8      1.0000 0.40427  0.55060  0.24999  Biso   1.000  He
  He9      1.0000 0.54163  0.48198  0.24999  Biso   1.000  He
  Ar3      1.0000 0.50000  0.55204  0.24999  Biso   1.000  Ar
  Ne4      1.0000 0.50001  0.44194  0.74999  Biso   1.000  Ne
  He10     1.0000 0.58988  0.44708  0.74999  Biso   1.000  He
  He11     1.0000 0.40398  0.44959  0.74999  Biso   1.000  He
  He12     1.0000 0.56766  0.38333  0.74999  Biso   1.000  He
  Ar4      1.0000 0.50000  0.44790  0.74999  Biso   1.000  Ar
  Ne5      1.0000 0.00008  0.94462  0.74999  Biso   1.000  Ne
  He13     1.0000 0.08991  0.94706  0.74999  Biso   1.000  He
  He14     1.0000 0.90396  0.94958  0.74999  Biso   1.000  He
  He15     1.0000 0.06769  0.88330  0.74999  Biso   1.000  He
  Ar5      1.0000 0.00009  0.94787  0.74995  Biso   1.000  Ar
  Ne6      1.0000 0.00008  0.94462  0.74999  Biso   1.000  Ne
  He16     1.0000 0.08991  0.94706  0.74999  Biso   1.000  He
  He17     1.0000 0.90396  0.94958  0.74999  Biso   1.000  He
  He18     1.0000 0.06769  0.88330  0.74999  Biso   1.000  He
  Ar6      1.0000 0.00009  0.94787  0.74995  Biso   1.000  Ar
