data_image0
_cell_length_a       18.042
_cell_length_b       28.495
_cell_length_c       21.53
_cell_angle_alpha    90
_cell_angle_beta     90
_cell_angle_gamma    90

_symmetry_space_group_name_H-M    "P 1"
_symmetry_int_tables_number       1

loop_
  _symmetry_equiv_pos_as_xyz
  'x, y, z'

loop_
  _atom_site_label
  _atom_site_occupancy
  _atom_site_fract_x
  _atom_site_fract_y
  _atom_site_fract_z
  _atom_site_thermal_displace_type
  _atom_site_B_iso_or_equiv
  _atom_site_type_symbol
  C1       1.0000 0.20264  0.41411  0.39178  Biso   1.000  C
  C2       1.0000 0.26510  0.38814  0.38453  Biso   1.000  C
  C3       1.0000 0.13757  0.39340  0.41491  Biso   1.000  C
  H1       1.0000 0.20292  0.44650  0.38110  Biso   1.000  H
  N1       1.0000 0.26560  0.34195  0.40005  Biso   1.000  N
  H2       1.0000 0.30872  0.40239  0.36851  Biso   1.000  H
  C4       1.0000 0.14184  0.34641  0.43251  Biso   1.000  C
  C5       1.0000 0.14189  0.34641  0.43251  Biso   1.000  C
  C6       1.0000 0.06668  0.41986  0.41825  Biso   1.000  C
  C7       1.0000 0.33300  0.31342  0.38481  Biso   1.000  C
  C8       1.0000 0.20663  0.32174  0.42383  Biso   1.000  C
  H3       1.0000 0.09999  0.33139  0.45049  Biso   1.000  H
  C9       1.0000 0.06607  0.46878  0.41979  Biso   1.000  C
  C10      1.0000 0.00000  0.39579  0.41705  Biso   1.000  C
  C11      1.0000 0.33810  0.30974  0.31449  Biso   1.000  C
  C12      1.0000 0.33816  0.30974  0.31449  Biso   1.000  C
  H4       1.0000 0.37790  0.32879  0.40158  Biso   1.000  H
  H5       1.0000 0.32879  0.28180  0.40339  Biso   1.000  H
  H6       1.0000 0.20868  0.28959  0.43530  Biso   1.000  H
  H7       1.0000 0.20874  0.28959  0.43530  Biso   1.000  H
  C13      1.0000 0.00000  0.49335  0.42011  Biso   1.000  C
  H8       1.0000 0.11163  0.48549  0.42062  Biso   1.000  H
  H9       1.0000 0.00000  0.36248  0.41542  Biso   1.000  H
  C14      1.0000 0.93332  0.41986  0.41825  Biso   1.000  C
  C15      1.0000 0.93338  0.41986  0.41825  Biso   1.000  C
  C16      1.0000 0.28605  0.28493  0.28216  Biso   1.000  C
  C17      1.0000 0.39358  0.33251  0.28193  Biso   1.000  C
  C18      1.0000 0.39364  0.33251  0.28193  Biso   1.000  C
  C19      1.0000 0.00000  0.54557  0.41765  Biso   1.000  C
  C20      1.0000 0.93393  0.46878  0.41979  Biso   1.000  C
  C21      1.0000 0.93399  0.46878  0.41979  Biso   1.000  C
  C22      1.0000 0.86243  0.39340  0.41491  Biso   1.000  C
  C23      1.0000 0.28605  0.28493  0.21784  Biso   1.000  C
  H10      1.0000 0.24953  0.26749  0.30399  Biso   1.000  H
  C24      1.0000 0.39358  0.33251  0.21807  Biso   1.000  C
  C25      1.0000 0.39364  0.33251  0.21807  Biso   1.000  C
  H11      1.0000 0.43188  0.34831  0.30381  Biso   1.000  H
  H12      1.0000 0.43194  0.34831  0.30381  Biso   1.000  H
  C26      1.0000 0.06540  0.57101  0.41630  Biso   1.000  C
  C27      1.0000 0.93460  0.57101  0.41630  Biso   1.000  C
  H13      1.0000 0.88837  0.48549  0.42062  Biso   1.000  H
  H14      1.0000 0.88843  0.48549  0.42062  Biso   1.000  H
  C28      1.0000 0.79736  0.41411  0.39178  Biso   1.000  C
  C29      1.0000 0.85816  0.34641  0.43251  Biso   1.000  C
  H15      1.0000 0.24953  0.26749  0.19601  Biso   1.000  H
  C30      1.0000 0.33810  0.30974  0.18551  Biso   1.000  C
  C31      1.0000 0.33816  0.30974  0.18551  Biso   1.000  C
  H16      1.0000 0.43188  0.34831  0.19619  Biso   1.000  H
  H17      1.0000 0.43194  0.34831  0.19619  Biso   1.000  H
  C32      1.0000 0.06402  0.61895  0.40790  Biso   1.000  C
  H18      1.0000 0.11152  0.55529  0.42118  Biso   1.000  H
  C33      1.0000 0.93598  0.61895  0.40790  Biso   1.000  C
  H19      1.0000 0.88848  0.55529  0.42118  Biso   1.000  H
  H20      1.0000 0.79708  0.44650  0.38110  Biso   1.000  H
  C34      1.0000 0.73490  0.38814  0.38453  Biso   1.000  C
  C35      1.0000 0.79337  0.32174  0.42383  Biso   1.000  C
  H21      1.0000 0.90001  0.33139  0.45049  Biso   1.000  H
  C36      1.0000 0.33300  0.31342  0.11519  Biso   1.000  C
  N2       1.0000 0.00000  0.64201  0.40200  Biso   1.000  N
  H22      1.0000 0.10930  0.63590  0.40632  Biso   1.000  H
  H23      1.0000 0.89070  0.63590  0.40632  Biso   1.000  H
  H24      1.0000 0.69128  0.40239  0.36851  Biso   1.000  H
  N3       1.0000 0.73440  0.34195  0.40005  Biso   1.000  N
  H25      1.0000 0.69133  0.40239  0.36851  Biso   1.000  H
  H26      1.0000 0.79132  0.28959  0.43530  Biso   1.000  H
  H27      1.0000 0.37790  0.32879  0.09842  Biso   1.000  H
  H28      1.0000 0.32879  0.28180  0.09661  Biso   1.000  H
  N4       1.0000 0.26560  0.34195  0.09995  Biso   1.000  N
  C37      1.0000 0.00000  0.69261  0.38500  Biso   1.000  C
  C38      1.0000 0.66700  0.31342  0.38481  Biso   1.000  C
  C39      1.0000 0.66705  0.31342  0.38481  Biso   1.000  C
  C40      1.0000 0.26510  0.38814  0.11551  Biso   1.000  C
  C41      1.0000 0.20663  0.32174  0.07617  Biso   1.000  C
  C42      1.0000 0.00000  0.69689  0.31431  Biso   1.000  C
  H29      1.0000 0.04451  0.70819  0.40232  Biso   1.000  H
  H30      1.0000 0.95549  0.70819  0.40232  Biso   1.000  H
  H31      1.0000 0.62210  0.32879  0.40158  Biso   1.000  H
  H32      1.0000 0.67121  0.28180  0.40339  Biso   1.000  H
  C43      1.0000 0.66190  0.30974  0.31449  Biso   1.000  C
  C44      1.0000 0.20264  0.41411  0.10822  Biso   1.000  C
  H33      1.0000 0.30872  0.40239  0.13149  Biso   1.000  H
  H34      1.0000 0.20868  0.28959  0.06470  Biso   1.000  H
  C45      1.0000 0.14184  0.34641  0.06749  Biso   1.000  C
  H35      1.0000 0.20874  0.28959  0.06470  Biso   1.000  H
  C46      1.0000 0.14189  0.34641  0.06749  Biso   1.000  C
  C47      1.0000 0.06601  0.69714  0.28184  Biso   1.000  C
  C48      1.0000 0.93399  0.69714  0.28184  Biso   1.000  C
  C49      1.0000 0.71395  0.28493  0.28216  Biso   1.000  C
  C50      1.0000 0.60642  0.33251  0.28193  Biso   1.000  C
  C51      1.0000 0.13757  0.39340  0.08509  Biso   1.000  C
  H36      1.0000 0.20292  0.44650  0.11890  Biso   1.000  H
  H37      1.0000 0.09999  0.33139  0.04951  Biso   1.000  H
  C52      1.0000 0.06601  0.69714  0.21816  Biso   1.000  C
  H38      1.0000 0.11168  0.69728  0.30381  Biso   1.000  H
  H39      1.0000 0.11174  0.69728  0.30381  Biso   1.000  H
  C53      1.0000 0.93399  0.69714  0.21816  Biso   1.000  C
  H40      1.0000 0.88832  0.69728  0.30381  Biso   1.000  H
  C54      1.0000 0.71395  0.28493  0.21784  Biso   1.000  C
  H41      1.0000 0.75047  0.26749  0.30399  Biso   1.000  H
  H42      1.0000 0.75053  0.26749  0.30399  Biso   1.000  H
  C55      1.0000 0.60642  0.33251  0.21807  Biso   1.000  C
  H43      1.0000 0.56812  0.34831  0.30381  Biso   1.000  H
  C56      1.0000 0.06668  0.41986  0.08175  Biso   1.000  C
  C57      1.0000 0.00000  0.69689  0.18569  Biso   1.000  C
  H44      1.0000 0.11168  0.69728  0.19619  Biso   1.000  H
  H45      1.0000 0.11174  0.69728  0.19619  Biso   1.000  H
  H46      1.0000 0.88832  0.69728  0.19619  Biso   1.000  H
  C58      1.0000 0.66190  0.30974  0.18551  Biso   1.000  C
  H47      1.0000 0.75047  0.26749  0.19601  Biso   1.000  H
  H48      1.0000 0.75053  0.26749  0.19601  Biso   1.000  H
  H49      1.0000 0.56812  0.34831  0.19619  Biso   1.000  H
  C59      1.0000 0.06607  0.46878  0.08021  Biso   1.000  C
  C60      1.0000 0.00000  0.39579  0.08295  Biso   1.000  C
  C61      1.0000 0.00000  0.69261  0.11500  Biso   1.000  C
  C62      1.0000 0.66700  0.31342  0.11519  Biso   1.000  C
  C63      1.0000 0.66705  0.31342  0.11519  Biso   1.000  C
  C64      1.0000 0.00000  0.49335  0.07989  Biso   1.000  C
  H50      1.0000 0.11163  0.48549  0.07938  Biso   1.000  H
  H51      1.0000 0.00000  0.36248  0.08458  Biso   1.000  H
  C65      1.0000 0.93332  0.41986  0.08175  Biso   1.000  C
  C66      1.0000 0.93338  0.41986  0.08175  Biso   1.000  C
  N5       1.0000 0.00000  0.64201  0.09800  Biso   1.000  N
  H52      1.0000 0.04451  0.70819  0.09768  Biso   1.000  H
  H53      1.0000 0.95549  0.70819  0.09768  Biso   1.000  H
  N6       1.0000 0.73440  0.34195  0.09995  Biso   1.000  N
  H54      1.0000 0.62210  0.32879  0.09842  Biso   1.000  H
  H55      1.0000 0.67121  0.28180  0.09661  Biso   1.000  H
  C67      1.0000 0.00000  0.54557  0.08235  Biso   1.000  C
  C68      1.0000 0.93393  0.46878  0.08021  Biso   1.000  C
  C69      1.0000 0.93399  0.46878  0.08021  Biso   1.000  C
  C70      1.0000 0.86243  0.39340  0.08509  Biso   1.000  C
  C71      1.0000 0.06402  0.61895  0.09210  Biso   1.000  C
  C72      1.0000 0.93598  0.61895  0.09210  Biso   1.000  C
  C73      1.0000 0.73490  0.38814  0.11551  Biso   1.000  C
  C74      1.0000 0.79337  0.32174  0.07617  Biso   1.000  C
  C75      1.0000 0.06540  0.57101  0.08370  Biso   1.000  C
  C76      1.0000 0.93460  0.57101  0.08370  Biso   1.000  C
  H56      1.0000 0.88837  0.48549  0.07938  Biso   1.000  H
  H57      1.0000 0.88843  0.48549  0.07938  Biso   1.000  H
  C77      1.0000 0.79736  0.41411  0.10822  Biso   1.000  C
  C78      1.0000 0.85816  0.34641  0.06749  Biso   1.000  C
  H58      1.0000 0.10930  0.63590  0.09368  Biso   1.000  H
  H59      1.0000 0.89070  0.63590  0.09368  Biso   1.000  H
  H60      1.0000 0.69128  0.40239  0.13149  Biso   1.000  H
  H61      1.0000 0.69133  0.40239  0.13149  Biso   1.000  H
  H62      1.0000 0.79132  0.28959  0.06470  Biso   1.000  H
  H63      1.0000 0.11152  0.55529  0.07882  Biso   1.000  H
  H64      1.0000 0.88848  0.55529  0.07882  Biso   1.000  H
  H65      1.0000 0.79708  0.44650  0.11890  Biso   1.000  H
  H66      1.0000 0.90001  0.33139  0.04951  Biso   1.000  H
  C79      1.0000 0.20264  0.41411  0.39178  Biso   1.000  C
  C80      1.0000 0.26510  0.38814  0.38453  Biso   1.000  C
  C81      1.0000 0.13757  0.39340  0.41491  Biso   1.000  C
  H67      1.0000 0.20292  0.44650  0.38110  Biso   1.000  H
  N7       1.0000 0.26560  0.34195  0.40005  Biso   1.000  N
  H68      1.0000 0.30872  0.40239  0.36851  Biso   1.000  H
  C82      1.0000 0.14184  0.34641  0.43251  Biso   1.000  C
  C83      1.0000 0.14189  0.34641  0.43251  Biso   1.000  C
  C84      1.0000 0.06668  0.41986  0.41825  Biso   1.000  C
  C85      1.0000 0.33300  0.31342  0.38481  Biso   1.000  C
  C86      1.0000 0.20663  0.32174  0.42383  Biso   1.000  C
  H69      1.0000 0.09999  0.33139  0.45049  Biso   1.000  H
  C87      1.0000 0.06607  0.46878  0.41979  Biso   1.000  C
  C88      1.0000 0.00000  0.39579  0.41705  Biso   1.000  C
  C89      1.0000 0.33810  0.30974  0.31449  Biso   1.000  C
  C90      1.0000 0.33816  0.30974  0.31449  Biso   1.000  C
  H70      1.0000 0.37790  0.32879  0.40158  Biso   1.000  H
  H71      1.0000 0.32879  0.28180  0.40339  Biso   1.000  H
  H72      1.0000 0.20868  0.28959  0.43530  Biso   1.000  H
  H73      1.0000 0.20874  0.28959  0.43530  Biso   1.000  H
  H74      1.0000 0.11163  0.48549  0.42062  Biso   1.000  H
  C91      1.0000 0.00000  0.49335  0.42011  Biso   1.000  C
  C92      1.0000 0.93332  0.41986  0.41825  Biso   1.000  C
  H75      1.0000 0.00000  0.36248  0.41542  Biso   1.000  H
  C93      1.0000 0.93338  0.41986  0.41825  Biso   1.000  C
  C94      1.0000 0.28605  0.28493  0.28216  Biso   1.000  C
  C95      1.0000 0.39358  0.33251  0.28193  Biso   1.000  C
  C96      1.0000 0.39364  0.33251  0.28193  Biso   1.000  C
  C97      1.0000 0.93393  0.46878  0.41979  Biso   1.000  C
  C98      1.0000 0.00000  0.54557  0.41765  Biso   1.000  C
  C99      1.0000 0.93399  0.46878  0.41979  Biso   1.000  C
  C100     1.0000 0.86243  0.39340  0.41491  Biso   1.000  C
  C101     1.0000 0.28605  0.28493  0.21784  Biso   1.000  C
  H76      1.0000 0.24953  0.26749  0.30399  Biso   1.000  H
  C102     1.0000 0.39358  0.33251  0.21807  Biso   1.000  C
  C103     1.0000 0.39364  0.33251  0.21807  Biso   1.000  C
  H77      1.0000 0.43188  0.34831  0.30381  Biso   1.000  H
  H78      1.0000 0.43194  0.34831  0.30381  Biso   1.000  H
  H79      1.0000 0.88837  0.48549  0.42062  Biso   1.000  H
  H80      1.0000 0.88843  0.48549  0.42062  Biso   1.000  H
  C104     1.0000 0.06540  0.57101  0.41630  Biso   1.000  C
  C105     1.0000 0.93460  0.57101  0.41630  Biso   1.000  C
  C106     1.0000 0.79736  0.41411  0.39178  Biso   1.000  C
  C107     1.0000 0.85816  0.34641  0.43251  Biso   1.000  C
  H81      1.0000 0.24953  0.26749  0.19601  Biso   1.000  H
  C108     1.0000 0.33810  0.30974  0.18551  Biso   1.000  C
  C109     1.0000 0.33816  0.30974  0.18551  Biso   1.000  C
  H82      1.0000 0.43188  0.34831  0.19619  Biso   1.000  H
  H83      1.0000 0.43194  0.34831  0.19619  Biso   1.000  H
  C110     1.0000 0.06402  0.61895  0.40790  Biso   1.000  C
  H84      1.0000 0.11152  0.55529  0.42118  Biso   1.000  H
  C111     1.0000 0.93598  0.61895  0.40790  Biso   1.000  C
  H85      1.0000 0.88848  0.55529  0.42118  Biso   1.000  H
  H86      1.0000 0.79708  0.44650  0.38110  Biso   1.000  H
  C112     1.0000 0.73490  0.38814  0.38453  Biso   1.000  C
  C113     1.0000 0.79337  0.32174  0.42383  Biso   1.000  C
  H87      1.0000 0.90001  0.33139  0.45049  Biso   1.000  H
  C114     1.0000 0.33300  0.31342  0.11519  Biso   1.000  C
  H88      1.0000 0.10930  0.63590  0.40632  Biso   1.000  H
  N8       1.0000 0.00000  0.64201  0.40200  Biso   1.000  N
  H89      1.0000 0.89070  0.63590  0.40632  Biso   1.000  H
  H90      1.0000 0.69128  0.40239  0.36851  Biso   1.000  H
  N9       1.0000 0.73440  0.34195  0.40005  Biso   1.000  N
  H91      1.0000 0.69133  0.40239  0.36851  Biso   1.000  H
  H92      1.0000 0.79132  0.28959  0.43530  Biso   1.000  H
  H93      1.0000 0.37790  0.32879  0.09842  Biso   1.000  H
  H94      1.0000 0.32879  0.28180  0.09661  Biso   1.000  H
  N10      1.0000 0.26560  0.34195  0.09995  Biso   1.000  N
  C115     1.0000 0.00000  0.69261  0.38500  Biso   1.000  C
  C116     1.0000 0.66700  0.31342  0.38481  Biso   1.000  C
  C117     1.0000 0.66705  0.31342  0.38481  Biso   1.000  C
  C118     1.0000 0.26510  0.38814  0.11551  Biso   1.000  C
  C119     1.0000 0.20663  0.32174  0.07617  Biso   1.000  C
  H95      1.0000 0.04451  0.70819  0.40232  Biso   1.000  H
  H96      1.0000 0.95549  0.70819  0.40232  Biso   1.000  H
  C120     1.0000 0.00000  0.69689  0.31431  Biso   1.000  C
  H97      1.0000 0.62210  0.32879  0.40158  Biso   1.000  H
  H98      1.0000 0.67121  0.28180  0.40339  Biso   1.000  H
  C121     1.0000 0.66190  0.30974  0.31449  Biso   1.000  C
  C122     1.0000 0.20264  0.41411  0.10822  Biso   1.000  C
  H99      1.0000 0.30872  0.40239  0.13149  Biso   1.000  H
  H100     1.0000 0.20868  0.28959  0.06470  Biso   1.000  H
  C123     1.0000 0.14184  0.34641  0.06749  Biso   1.000  C
  H101     1.0000 0.20874  0.28959  0.06470  Biso   1.000  H
  C124     1.0000 0.14189  0.34641  0.06749  Biso   1.000  C
  C125     1.0000 0.06601  0.69714  0.28184  Biso   1.000  C
  C126     1.0000 0.93399  0.69714  0.28184  Biso   1.000  C
  C127     1.0000 0.71395  0.28493  0.28216  Biso   1.000  C
  C128     1.0000 0.60642  0.33251  0.28193  Biso   1.000  C
  C129     1.0000 0.13757  0.39340  0.08509  Biso   1.000  C
  H102     1.0000 0.20292  0.44650  0.11890  Biso   1.000  H
  H103     1.0000 0.09999  0.33139  0.04951  Biso   1.000  H
  C130     1.0000 0.06601  0.69714  0.21816  Biso   1.000  C
  H104     1.0000 0.11168  0.69728  0.30381  Biso   1.000  H
  H105     1.0000 0.11174  0.69728  0.30381  Biso   1.000  H
  C131     1.0000 0.93399  0.69714  0.21816  Biso   1.000  C
  H106     1.0000 0.88832  0.69728  0.30381  Biso   1.000  H
  C132     1.0000 0.71395  0.28493  0.21784  Biso   1.000  C
  H107     1.0000 0.75047  0.26749  0.30399  Biso   1.000  H
  H108     1.0000 0.75053  0.26749  0.30399  Biso   1.000  H
  C133     1.0000 0.60642  0.33251  0.21807  Biso   1.000  C
  H109     1.0000 0.56812  0.34831  0.30381  Biso   1.000  H
  C134     1.0000 0.06668  0.41986  0.08175  Biso   1.000  C
  C135     1.0000 0.00000  0.69689  0.18569  Biso   1.000  C
  H110     1.0000 0.11168  0.69728  0.19619  Biso   1.000  H
  H111     1.0000 0.11174  0.69728  0.19619  Biso   1.000  H
  H112     1.0000 0.88832  0.69728  0.19619  Biso   1.000  H
  C136     1.0000 0.66190  0.30974  0.18551  Biso   1.000  C
  H113     1.0000 0.75047  0.26749  0.19601  Biso   1.000  H
  H114     1.0000 0.75053  0.26749  0.19601  Biso   1.000  H
  H115     1.0000 0.56812  0.34831  0.19619  Biso   1.000  H
  C137     1.0000 0.06607  0.46878  0.08021  Biso   1.000  C
  C138     1.0000 0.00000  0.39579  0.08295  Biso   1.000  C
  C139     1.0000 0.00000  0.69261  0.11500  Biso   1.000  C
  C140     1.0000 0.66700  0.31342  0.11519  Biso   1.000  C
  C141     1.0000 0.66705  0.31342  0.11519  Biso   1.000  C
  H116     1.0000 0.11163  0.48549  0.07938  Biso   1.000  H
  C142     1.0000 0.00000  0.49335  0.07989  Biso   1.000  C
  C143     1.0000 0.93332  0.41986  0.08175  Biso   1.000  C
  H117     1.0000 0.00000  0.36248  0.08458  Biso   1.000  H
  C144     1.0000 0.93338  0.41986  0.08175  Biso   1.000  C
  N11      1.0000 0.00000  0.64201  0.09800  Biso   1.000  N
  H118     1.0000 0.04451  0.70819  0.09768  Biso   1.000  H
  H119     1.0000 0.95549  0.70819  0.09768  Biso   1.000  H
  N12      1.0000 0.73440  0.34195  0.09995  Biso   1.000  N
  H120     1.0000 0.62210  0.32879  0.09842  Biso   1.000  H
  H121     1.0000 0.67121  0.28180  0.09661  Biso   1.000  H
  C145     1.0000 0.93393  0.46878  0.08021  Biso   1.000  C
  C146     1.0000 0.00000  0.54557  0.08235  Biso   1.000  C
  C147     1.0000 0.93399  0.46878  0.08021  Biso   1.000  C
  C148     1.0000 0.86243  0.39340  0.08509  Biso   1.000  C
  C149     1.0000 0.06402  0.61895  0.09210  Biso   1.000  C
  C150     1.0000 0.93598  0.61895  0.09210  Biso   1.000  C
  C151     1.0000 0.73490  0.38814  0.11551  Biso   1.000  C
  C152     1.0000 0.79337  0.32174  0.07617  Biso   1.000  C
  H122     1.0000 0.88837  0.48549  0.07938  Biso   1.000  H
  H123     1.0000 0.88843  0.48549  0.07938  Biso   1.000  H
  C153     1.0000 0.06540  0.57101  0.08370  Biso   1.000  C
  C154     1.0000 0.93460  0.57101  0.08370  Biso   1.000  C
  C155     1.0000 0.79736  0.41411  0.10822  Biso   1.000  C
  C156     1.0000 0.85816  0.34641  0.06749  Biso   1.000  C
  H124     1.0000 0.10930  0.63590  0.09368  Biso   1.000  H
  H125     1.0000 0.89070  0.63590  0.09368  Biso   1.000  H
  H126     1.0000 0.69128  0.40239  0.13149  Biso   1.000  H
  H127     1.0000 0.69133  0.40239  0.13149  Biso   1.000  H
  H128     1.0000 0.79132  0.28959  0.06470  Biso   1.000  H
  H129     1.0000 0.11152  0.55529  0.07882  Biso   1.000  H
  H130     1.0000 0.88848  0.55529  0.07882  Biso   1.000  H
  H131     1.0000 0.79708  0.44650  0.11890  Biso   1.000  H
  H132     1.0000 0.90001  0.33139  0.04951  Biso   1.000  H
  C157     1.0000 0.20264  0.58589  0.60822  Biso   1.000  C
  C158     1.0000 0.13757  0.60656  0.58509  Biso   1.000  C
  H133     1.0000 0.20292  0.55350  0.61890  Biso   1.000  H
  C159     1.0000 0.26510  0.61186  0.61551  Biso   1.000  C
  C160     1.0000 0.06668  0.58010  0.58175  Biso   1.000  C
  C161     1.0000 0.14184  0.65355  0.56749  Biso   1.000  C
  C162     1.0000 0.14189  0.65355  0.56749  Biso   1.000  C
  H134     1.0000 0.30872  0.59758  0.63149  Biso   1.000  H
  N13      1.0000 0.26560  0.65805  0.59995  Biso   1.000  N
  C163     1.0000 0.06607  0.53122  0.58021  Biso   1.000  C
  C164     1.0000 0.00000  0.60418  0.58295  Biso   1.000  C
  C165     1.0000 0.20663  0.67826  0.57617  Biso   1.000  C
  H135     1.0000 0.09999  0.66861  0.54951  Biso   1.000  H
  C166     1.0000 0.33300  0.68654  0.61519  Biso   1.000  C
  C167     1.0000 0.00000  0.50665  0.57989  Biso   1.000  C
  H136     1.0000 0.11163  0.51451  0.57942  Biso   1.000  H
  C168     1.0000 0.93332  0.58010  0.58175  Biso   1.000  C
  C169     1.0000 0.93338  0.58010  0.58175  Biso   1.000  C
  H137     1.0000 0.00000  0.63748  0.58458  Biso   1.000  H
  H138     1.0000 0.20868  0.71041  0.56470  Biso   1.000  H
  H139     1.0000 0.20874  0.71041  0.56470  Biso   1.000  H
  H140     1.0000 0.37790  0.67121  0.59842  Biso   1.000  H
  H141     1.0000 0.32879  0.71820  0.59661  Biso   1.000  H
  C170     1.0000 0.33810  0.69026  0.68551  Biso   1.000  C
  C171     1.0000 0.33816  0.69026  0.68551  Biso   1.000  C
  C172     1.0000 0.00000  0.45443  0.58235  Biso   1.000  C
  C173     1.0000 0.93393  0.53122  0.58021  Biso   1.000  C
  C174     1.0000 0.93399  0.53122  0.58021  Biso   1.000  C
  C175     1.0000 0.86243  0.60656  0.58509  Biso   1.000  C
  C176     1.0000 0.28605  0.71504  0.71784  Biso   1.000  C
  C177     1.0000 0.39358  0.66745  0.71811  Biso   1.000  C
  C178     1.0000 0.39364  0.66745  0.71811  Biso   1.000  C
  C179     1.0000 0.06540  0.42899  0.58370  Biso   1.000  C
  C180     1.0000 0.93460  0.42899  0.58370  Biso   1.000  C
  H142     1.0000 0.88837  0.51451  0.57942  Biso   1.000  H
  H143     1.0000 0.88843  0.51451  0.57942  Biso   1.000  H
  C181     1.0000 0.79736  0.58589  0.60822  Biso   1.000  C
  C182     1.0000 0.85816  0.65355  0.56749  Biso   1.000  C
  H144     1.0000 0.24953  0.73248  0.69601  Biso   1.000  H
  C183     1.0000 0.28605  0.71504  0.78216  Biso   1.000  C
  H145     1.0000 0.43188  0.65169  0.69619  Biso   1.000  H
  C184     1.0000 0.39358  0.66745  0.78193  Biso   1.000  C
  H146     1.0000 0.43194  0.65169  0.69619  Biso   1.000  H
  C185     1.0000 0.39364  0.66745  0.78193  Biso   1.000  C
  C186     1.0000 0.06402  0.38105  0.59210  Biso   1.000  C
  H147     1.0000 0.11152  0.44471  0.57882  Biso   1.000  H
  C187     1.0000 0.93598  0.38105  0.59210  Biso   1.000  C
  H148     1.0000 0.88848  0.44471  0.57882  Biso   1.000  H
  H149     1.0000 0.79708  0.55350  0.61890  Biso   1.000  H
  C188     1.0000 0.73490  0.61186  0.61551  Biso   1.000  C
  C189     1.0000 0.79337  0.67826  0.57617  Biso   1.000  C
  H150     1.0000 0.90001  0.66861  0.54951  Biso   1.000  H
  H151     1.0000 0.24953  0.73248  0.80399  Biso   1.000  H
  C190     1.0000 0.33810  0.69026  0.81449  Biso   1.000  C
  C191     1.0000 0.33816  0.69026  0.81449  Biso   1.000  C
  H152     1.0000 0.43188  0.65169  0.80381  Biso   1.000  H
  H153     1.0000 0.43194  0.65169  0.80381  Biso   1.000  H
  H154     1.0000 0.10930  0.36410  0.59368  Biso   1.000  H
  N14      1.0000 0.00000  0.35796  0.59800  Biso   1.000  N
  H155     1.0000 0.89070  0.36410  0.59368  Biso   1.000  H
  H156     1.0000 0.69128  0.59758  0.63149  Biso   1.000  H
  N15      1.0000 0.73440  0.65805  0.59995  Biso   1.000  N
  H157     1.0000 0.69133  0.59758  0.63149  Biso   1.000  H
  H158     1.0000 0.79132  0.71041  0.56470  Biso   1.000  H
  C192     1.0000 0.33300  0.68654  0.88481  Biso   1.000  C
  C193     1.0000 0.00000  0.30739  0.61500  Biso   1.000  C
  C194     1.0000 0.66700  0.68654  0.61519  Biso   1.000  C
  C195     1.0000 0.66705  0.68654  0.61519  Biso   1.000  C
  H159     1.0000 0.37790  0.67121  0.90163  Biso   1.000  H
  H160     1.0000 0.32879  0.71820  0.90339  Biso   1.000  H
  N16      1.0000 0.26560  0.65805  0.90005  Biso   1.000  N
  C196     1.0000 0.00000  0.30311  0.68569  Biso   1.000  C
  H161     1.0000 0.04451  0.29181  0.59772  Biso   1.000  H
  H162     1.0000 0.95549  0.29181  0.59772  Biso   1.000  H
  H163     1.0000 0.62210  0.67121  0.59842  Biso   1.000  H
  H164     1.0000 0.67121  0.71820  0.59661  Biso   1.000  H
  C197     1.0000 0.66190  0.69026  0.68551  Biso   1.000  C
  C198     1.0000 0.26510  0.61186  0.88453  Biso   1.000  C
  C199     1.0000 0.20663  0.67826  0.92383  Biso   1.000  C
  C200     1.0000 0.06601  0.30286  0.71816  Biso   1.000  C
  C201     1.0000 0.93399  0.30286  0.71816  Biso   1.000  C
  C202     1.0000 0.71395  0.71504  0.71784  Biso   1.000  C
  C203     1.0000 0.60642  0.66745  0.71811  Biso   1.000  C
  C204     1.0000 0.20264  0.58589  0.89178  Biso   1.000  C
  H165     1.0000 0.30872  0.59758  0.86851  Biso   1.000  H
  C205     1.0000 0.14184  0.65355  0.93251  Biso   1.000  C
  C206     1.0000 0.14189  0.65355  0.93251  Biso   1.000  C
  H166     1.0000 0.20868  0.71041  0.93530  Biso   1.000  H
  H167     1.0000 0.20874  0.71041  0.93530  Biso   1.000  H
  H168     1.0000 0.11168  0.30268  0.69619  Biso   1.000  H
  C207     1.0000 0.06601  0.30286  0.78184  Biso   1.000  C
  H169     1.0000 0.11174  0.30268  0.69619  Biso   1.000  H
  H170     1.0000 0.88832  0.30268  0.69619  Biso   1.000  H
  C208     1.0000 0.93399  0.30286  0.78184  Biso   1.000  C
  H171     1.0000 0.75047  0.73248  0.69601  Biso   1.000  H
  C209     1.0000 0.71395  0.71504  0.78216  Biso   1.000  C
  H172     1.0000 0.75053  0.73248  0.69601  Biso   1.000  H
  H173     1.0000 0.56812  0.65169  0.69619  Biso   1.000  H
  C210     1.0000 0.60642  0.66745  0.78193  Biso   1.000  C
  C211     1.0000 0.13757  0.60656  0.91491  Biso   1.000  C
  H174     1.0000 0.20292  0.55350  0.88110  Biso   1.000  H
  H175     1.0000 0.09999  0.66861  0.95049  Biso   1.000  H
  H176     1.0000 0.11168  0.30268  0.80381  Biso   1.000  H
  C212     1.0000 0.00000  0.30311  0.81431  Biso   1.000  C
  H177     1.0000 0.11174  0.30268  0.80381  Biso   1.000  H
  H178     1.0000 0.88832  0.30268  0.80381  Biso   1.000  H
  H179     1.0000 0.75047  0.73248  0.80399  Biso   1.000  H
  C213     1.0000 0.66190  0.69026  0.81449  Biso   1.000  C
  H180     1.0000 0.75053  0.73248  0.80399  Biso   1.000  H
  H181     1.0000 0.56812  0.65169  0.80381  Biso   1.000  H
  C214     1.0000 0.06668  0.58010  0.91825  Biso   1.000  C
  C215     1.0000 0.00000  0.30739  0.88500  Biso   1.000  C
  C216     1.0000 0.66700  0.68654  0.88481  Biso   1.000  C
  C217     1.0000 0.66705  0.68654  0.88481  Biso   1.000  C
  C218     1.0000 0.06607  0.53122  0.91979  Biso   1.000  C
  C219     1.0000 0.00000  0.60418  0.91705  Biso   1.000  C
  H182     1.0000 0.04451  0.29181  0.90232  Biso   1.000  H
  N17      1.0000 0.00000  0.35796  0.90200  Biso   1.000  N
  H183     1.0000 0.95549  0.29181  0.90232  Biso   1.000  H
  H184     1.0000 0.62210  0.67121  0.90163  Biso   1.000  H
  H185     1.0000 0.67121  0.71820  0.90339  Biso   1.000  H
  N18      1.0000 0.73440  0.65805  0.90005  Biso   1.000  N
  C220     1.0000 0.00000  0.50665  0.92011  Biso   1.000  C
  H186     1.0000 0.11163  0.51451  0.92062  Biso   1.000  H
  C221     1.0000 0.93332  0.58010  0.91825  Biso   1.000  C
  C222     1.0000 0.93338  0.58010  0.91825  Biso   1.000  C
  H187     1.0000 0.00000  0.63748  0.91542  Biso   1.000  H
  C223     1.0000 0.06402  0.38105  0.90790  Biso   1.000  C
  C224     1.0000 0.93598  0.38105  0.90790  Biso   1.000  C
  C225     1.0000 0.73490  0.61186  0.88453  Biso   1.000  C
  C226     1.0000 0.79337  0.67826  0.92383  Biso   1.000  C
  C227     1.0000 0.00000  0.45443  0.91765  Biso   1.000  C
  C228     1.0000 0.93393  0.53122  0.91979  Biso   1.000  C
  C229     1.0000 0.93399  0.53122  0.91979  Biso   1.000  C
  C230     1.0000 0.86243  0.60656  0.91491  Biso   1.000  C
  H188     1.0000 0.10930  0.36410  0.90632  Biso   1.000  H
  C231     1.0000 0.06540  0.42899  0.91630  Biso   1.000  C
  H189     1.0000 0.89070  0.36410  0.90632  Biso   1.000  H
  C232     1.0000 0.93460  0.42899  0.91630  Biso   1.000  C
  C233     1.0000 0.79736  0.58589  0.89178  Biso   1.000  C
  H190     1.0000 0.69128  0.59758  0.86851  Biso   1.000  H
  H191     1.0000 0.69133  0.59758  0.86851  Biso   1.000  H
  C234     1.0000 0.85816  0.65355  0.93251  Biso   1.000  C
  H192     1.0000 0.79132  0.71041  0.93530  Biso   1.000  H
  H193     1.0000 0.88837  0.51451  0.92062  Biso   1.000  H
  H194     1.0000 0.88843  0.51451  0.92062  Biso   1.000  H
  H195     1.0000 0.11152  0.44471  0.92123  Biso   1.000  H
  H196     1.0000 0.88848  0.44471  0.92123  Biso   1.000  H
  H197     1.0000 0.79708  0.55350  0.88110  Biso   1.000  H
  H198     1.0000 0.90001  0.66861  0.95049  Biso   1.000  H
  C235     1.0000 0.20264  0.58589  0.60822  Biso   1.000  C
  C236     1.0000 0.13757  0.60656  0.58509  Biso   1.000  C
  H199     1.0000 0.20292  0.55350  0.61890  Biso   1.000  H
  C237     1.0000 0.26510  0.61186  0.61551  Biso   1.000  C
  C238     1.0000 0.06668  0.58010  0.58175  Biso   1.000  C
  C239     1.0000 0.14184  0.65355  0.56749  Biso   1.000  C
  C240     1.0000 0.14189  0.65355  0.56749  Biso   1.000  C
  H200     1.0000 0.30872  0.59758  0.63149  Biso   1.000  H
  N19      1.0000 0.26560  0.65805  0.59995  Biso   1.000  N
  C241     1.0000 0.06607  0.53122  0.58021  Biso   1.000  C
  C242     1.0000 0.00000  0.60418  0.58295  Biso   1.000  C
  C243     1.0000 0.20663  0.67826  0.57617  Biso   1.000  C
  H201     1.0000 0.09999  0.66861  0.54951  Biso   1.000  H
  C244     1.0000 0.33300  0.68654  0.61519  Biso   1.000  C
  C245     1.0000 0.00000  0.50665  0.57989  Biso   1.000  C
  H202     1.0000 0.11163  0.51451  0.57942  Biso   1.000  H
  C246     1.0000 0.93332  0.58010  0.58175  Biso   1.000  C
  C247     1.0000 0.93338  0.58010  0.58175  Biso   1.000  C
  H203     1.0000 0.00000  0.63748  0.58458  Biso   1.000  H
  H204     1.0000 0.20868  0.71041  0.56470  Biso   1.000  H
  H205     1.0000 0.20874  0.71041  0.56470  Biso   1.000  H
  H206     1.0000 0.37790  0.67121  0.59842  Biso   1.000  H
  H207     1.0000 0.32879  0.71820  0.59661  Biso   1.000  H
  C248     1.0000 0.33810  0.69026  0.68551  Biso   1.000  C
  C249     1.0000 0.33816  0.69026  0.68551  Biso   1.000  C
  C250     1.0000 0.00000  0.45443  0.58235  Biso   1.000  C
  C251     1.0000 0.93393  0.53122  0.58021  Biso   1.000  C
  C252     1.0000 0.93399  0.53122  0.58021  Biso   1.000  C
  C253     1.0000 0.86243  0.60656  0.58509  Biso   1.000  C
  C254     1.0000 0.28605  0.71504  0.71784  Biso   1.000  C
  C255     1.0000 0.39358  0.66745  0.71811  Biso   1.000  C
  C256     1.0000 0.39364  0.66745  0.71811  Biso   1.000  C
  C257     1.0000 0.06540  0.42899  0.58370  Biso   1.000  C
  C258     1.0000 0.93460  0.42899  0.58370  Biso   1.000  C
  H208     1.0000 0.88837  0.51451  0.57942  Biso   1.000  H
  H209     1.0000 0.88843  0.51451  0.57942  Biso   1.000  H
  C259     1.0000 0.79736  0.58589  0.60822  Biso   1.000  C
  C260     1.0000 0.85816  0.65355  0.56749  Biso   1.000  C
  H210     1.0000 0.24953  0.73248  0.69601  Biso   1.000  H
  C261     1.0000 0.28605  0.71504  0.78216  Biso   1.000  C
  H211     1.0000 0.43188  0.65169  0.69619  Biso   1.000  H
  C262     1.0000 0.39358  0.66745  0.78193  Biso   1.000  C
  H212     1.0000 0.43194  0.65169  0.69619  Biso   1.000  H
  C263     1.0000 0.39364  0.66745  0.78193  Biso   1.000  C
  C264     1.0000 0.06402  0.38105  0.59210  Biso   1.000  C
  H213     1.0000 0.11152  0.44471  0.57882  Biso   1.000  H
  C265     1.0000 0.93598  0.38105  0.59210  Biso   1.000  C
  H214     1.0000 0.88848  0.44471  0.57882  Biso   1.000  H
  H215     1.0000 0.79708  0.55350  0.61890  Biso   1.000  H
  C266     1.0000 0.73490  0.61186  0.61551  Biso   1.000  C
  C267     1.0000 0.79337  0.67826  0.57617  Biso   1.000  C
  H216     1.0000 0.90001  0.66861  0.54951  Biso   1.000  H
  H217     1.0000 0.24953  0.73248  0.80399  Biso   1.000  H
  C268     1.0000 0.33810  0.69026  0.81449  Biso   1.000  C
  C269     1.0000 0.33816  0.69026  0.81449  Biso   1.000  C
  H218     1.0000 0.43188  0.65169  0.80381  Biso   1.000  H
  H219     1.0000 0.43194  0.65169  0.80381  Biso   1.000  H
  H220     1.0000 0.10930  0.36410  0.59368  Biso   1.000  H
  N20      1.0000 0.00000  0.35796  0.59800  Biso   1.000  N
  H221     1.0000 0.89070  0.36410  0.59368  Biso   1.000  H
  H222     1.0000 0.69128  0.59758  0.63149  Biso   1.000  H
  N21      1.0000 0.73440  0.65805  0.59995  Biso   1.000  N
  H223     1.0000 0.69133  0.59758  0.63149  Biso   1.000  H
  H224     1.0000 0.79132  0.71041  0.56470  Biso   1.000  H
  C270     1.0000 0.33300  0.68654  0.88481  Biso   1.000  C
  C271     1.0000 0.00000  0.30739  0.61500  Biso   1.000  C
  C272     1.0000 0.66700  0.68654  0.61519  Biso   1.000  C
  C273     1.0000 0.66705  0.68654  0.61519  Biso   1.000  C
  H225     1.0000 0.37790  0.67121  0.90163  Biso   1.000  H
  H226     1.0000 0.32879  0.71820  0.90339  Biso   1.000  H
  N22      1.0000 0.26560  0.65805  0.90005  Biso   1.000  N
  H227     1.0000 0.04451  0.29181  0.59772  Biso   1.000  H
  H228     1.0000 0.95549  0.29181  0.59772  Biso   1.000  H
  C274     1.0000 0.00000  0.30311  0.68569  Biso   1.000  C
  H229     1.0000 0.62210  0.67121  0.59842  Biso   1.000  H
  H230     1.0000 0.67121  0.71820  0.59661  Biso   1.000  H
  C275     1.0000 0.66190  0.69026  0.68551  Biso   1.000  C
  C276     1.0000 0.26510  0.61186  0.88453  Biso   1.000  C
  C277     1.0000 0.20663  0.67826  0.92383  Biso   1.000  C
  C278     1.0000 0.06601  0.30286  0.71816  Biso   1.000  C
  C279     1.0000 0.93399  0.30286  0.71816  Biso   1.000  C
  C280     1.0000 0.71395  0.71504  0.71784  Biso   1.000  C
  C281     1.0000 0.60642  0.66745  0.71811  Biso   1.000  C
  C282     1.0000 0.20264  0.58589  0.89178  Biso   1.000  C
  H231     1.0000 0.30872  0.59758  0.86851  Biso   1.000  H
  C283     1.0000 0.14184  0.65355  0.93251  Biso   1.000  C
  C284     1.0000 0.14189  0.65355  0.93251  Biso   1.000  C
  H232     1.0000 0.20868  0.71041  0.93530  Biso   1.000  H
  H233     1.0000 0.20874  0.71041  0.93530  Biso   1.000  H
  C285     1.0000 0.06601  0.30286  0.78184  Biso   1.000  C
  H234     1.0000 0.11168  0.30268  0.69619  Biso   1.000  H
  H235     1.0000 0.11174  0.30268  0.69619  Biso   1.000  H
  H236     1.0000 0.88832  0.30268  0.69619  Biso   1.000  H
  C286     1.0000 0.93399  0.30286  0.78184  Biso   1.000  C
  H237     1.0000 0.75047  0.73248  0.69601  Biso   1.000  H
  C287     1.0000 0.71395  0.71504  0.78216  Biso   1.000  C
  H238     1.0000 0.75053  0.73248  0.69601  Biso   1.000  H
  H239     1.0000 0.56812  0.65169  0.69619  Biso   1.000  H
  C288     1.0000 0.60642  0.66745  0.78193  Biso   1.000  C
  C289     1.0000 0.13757  0.60656  0.91491  Biso   1.000  C
  H240     1.0000 0.20292  0.55350  0.88110  Biso   1.000  H
  H241     1.0000 0.09999  0.66861  0.95049  Biso   1.000  H
  C290     1.0000 0.00000  0.30311  0.81431  Biso   1.000  C
  H242     1.0000 0.11168  0.30268  0.80381  Biso   1.000  H
  H243     1.0000 0.11174  0.30268  0.80381  Biso   1.000  H
  H244     1.0000 0.88832  0.30268  0.80381  Biso   1.000  H
  H245     1.0000 0.75047  0.73248  0.80399  Biso   1.000  H
  C291     1.0000 0.66190  0.69026  0.81449  Biso   1.000  C
  H246     1.0000 0.75053  0.73248  0.80399  Biso   1.000  H
  H247     1.0000 0.56812  0.65169  0.80381  Biso   1.000  H
  C292     1.0000 0.06668  0.58010  0.91825  Biso   1.000  C
  C293     1.0000 0.00000  0.30739  0.88500  Biso   1.000  C
  C294     1.0000 0.66700  0.68654  0.88481  Biso   1.000  C
  C295     1.0000 0.66705  0.68654  0.88481  Biso   1.000  C
  C296     1.0000 0.06607  0.53122  0.91979  Biso   1.000  C
  C297     1.0000 0.00000  0.60418  0.91705  Biso   1.000  C
  H248     1.0000 0.04451  0.29181  0.90232  Biso   1.000  H
  H249     1.0000 0.95549  0.29181  0.90232  Biso   1.000  H
  N23      1.0000 0.00000  0.35796  0.90200  Biso   1.000  N
  H250     1.0000 0.62210  0.67121  0.90163  Biso   1.000  H
  H251     1.0000 0.67121  0.71820  0.90339  Biso   1.000  H
  N24      1.0000 0.73440  0.65805  0.90005  Biso   1.000  N
  C298     1.0000 0.00000  0.50665  0.92011  Biso   1.000  C
  H252     1.0000 0.11163  0.51451  0.92062  Biso   1.000  H
  C299     1.0000 0.93332  0.58010  0.91825  Biso   1.000  C
  C300     1.0000 0.93338  0.58010  0.91825  Biso   1.000  C
  H253     1.0000 0.00000  0.63748  0.91542  Biso   1.000  H
  C301     1.0000 0.06402  0.38105  0.90790  Biso   1.000  C
  C302     1.0000 0.93598  0.38105  0.90790  Biso   1.000  C
  C303     1.0000 0.73490  0.61186  0.88453  Biso   1.000  C
  C304     1.0000 0.79337  0.67826  0.92383  Biso   1.000  C
  C305     1.0000 0.00000  0.45443  0.91765  Biso   1.000  C
  C306     1.0000 0.93393  0.53122  0.91979  Biso   1.000  C
  C307     1.0000 0.93399  0.53122  0.91979  Biso   1.000  C
  C308     1.0000 0.86243  0.60656  0.91491  Biso   1.000  C
  H254     1.0000 0.10930  0.36410  0.90632  Biso   1.000  H
  C309     1.0000 0.06540  0.42899  0.91630  Biso   1.000  C
  H255     1.0000 0.89070  0.36410  0.90632  Biso   1.000  H
  C310     1.0000 0.93460  0.42899  0.91630  Biso   1.000  C
  C311     1.0000 0.79736  0.58589  0.89178  Biso   1.000  C
  H256     1.0000 0.69128  0.59758  0.86851  Biso   1.000  H
  H257     1.0000 0.69133  0.59758  0.86851  Biso   1.000  H
  C312     1.0000 0.85816  0.65355  0.93251  Biso   1.000  C
  H258     1.0000 0.79132  0.71041  0.93530  Biso   1.000  H
  H259     1.0000 0.88837  0.51451  0.92062  Biso   1.000  H
  H260     1.0000 0.88843  0.51451  0.92062  Biso   1.000  H
  H261     1.0000 0.11152  0.44471  0.92123  Biso   1.000  H
  H262     1.0000 0.88848  0.44471  0.92123  Biso   1.000  H
  H263     1.0000 0.79708  0.55350  0.88110  Biso   1.000  H
  H264     1.0000 0.90001  0.66861  0.95049  Biso   1.000  H
  C313     1.0000 0.29337  0.17824  0.57617  Biso   1.000  C
  H265     1.0000 0.29132  0.21039  0.56470  Biso   1.000  H
  C314     1.0000 0.35816  0.15357  0.56749  Biso   1.000  C
  N25      1.0000 0.23440  0.15803  0.59995  Biso   1.000  N
  C315     1.0000 0.36243  0.10658  0.58509  Biso   1.000  C
  H266     1.0000 0.40001  0.16859  0.54951  Biso   1.000  H
  C316     1.0000 0.23490  0.11184  0.61551  Biso   1.000  C
  C317     1.0000 0.16705  0.18656  0.61519  Biso   1.000  C
  C318     1.0000 0.43332  0.08012  0.58175  Biso   1.000  C
  C319     1.0000 0.29736  0.08591  0.60822  Biso   1.000  C
  H267     1.0000 0.19128  0.09760  0.63149  Biso   1.000  H
  H268     1.0000 0.12210  0.17119  0.59842  Biso   1.000  H
  H269     1.0000 0.17121  0.21821  0.59661  Biso   1.000  H
  C320     1.0000 0.16190  0.19024  0.68551  Biso   1.000  C
  C321     1.0000 0.43399  0.03120  0.58021  Biso   1.000  C
  C322     1.0000 0.50000  0.10419  0.58295  Biso   1.000  C
  H270     1.0000 0.29708  0.05348  0.61890  Biso   1.000  H
  C323     1.0000 0.21395  0.21506  0.71784  Biso   1.000  C
  C324     1.0000 0.10642  0.16747  0.71811  Biso   1.000  C
  C325     1.0000 0.50000  0.00663  0.57989  Biso   1.000  C
  H271     1.0000 0.38843  0.01449  0.57942  Biso   1.000  H
  H272     1.0000 0.50000  0.13750  0.58458  Biso   1.000  H
  C326     1.0000 0.56668  0.08012  0.58175  Biso   1.000  C
  H273     1.0000 0.25053  0.23250  0.69601  Biso   1.000  H
  C327     1.0000 0.21395  0.21506  0.78216  Biso   1.000  C
  H274     1.0000 0.06812  0.15171  0.69619  Biso   1.000  H
  C328     1.0000 0.10642  0.16747  0.78193  Biso   1.000  C
  C329     1.0000 0.56607  0.03120  0.58021  Biso   1.000  C
  C330     1.0000 0.50000  0.95441  0.58235  Biso   1.000  C
  C331     1.0000 0.63757  0.10658  0.58509  Biso   1.000  C
  H275     1.0000 0.25053  0.23250  0.80399  Biso   1.000  H
  C332     1.0000 0.16190  0.19024  0.81449  Biso   1.000  C
  H276     1.0000 0.06812  0.15171  0.80381  Biso   1.000  H
  H277     1.0000 0.61163  0.01449  0.57942  Biso   1.000  H
  C333     1.0000 0.56540  0.92897  0.58370  Biso   1.000  C
  C334     1.0000 0.43460  0.92897  0.58370  Biso   1.000  C
  C335     1.0000 0.70264  0.08591  0.60822  Biso   1.000  C
  C336     1.0000 0.64189  0.15357  0.56749  Biso   1.000  C
  C337     1.0000 0.16705  0.18656  0.88481  Biso   1.000  C
  C338     1.0000 0.56402  0.88107  0.59210  Biso   1.000  C
  H278     1.0000 0.61152  0.94469  0.57882  Biso   1.000  H
  C339     1.0000 0.43598  0.88107  0.59210  Biso   1.000  C
  H279     1.0000 0.38848  0.94469  0.57882  Biso   1.000  H
  H280     1.0000 0.70292  0.05348  0.61890  Biso   1.000  H
  C340     1.0000 0.76510  0.11184  0.61551  Biso   1.000  C
  C341     1.0000 0.70663  0.17824  0.57617  Biso   1.000  C
  H281     1.0000 0.59999  0.16859  0.54951  Biso   1.000  H
  H282     1.0000 0.12210  0.17119  0.90163  Biso   1.000  H
  H283     1.0000 0.17121  0.21821  0.90339  Biso   1.000  H
  N26      1.0000 0.23440  0.15803  0.90005  Biso   1.000  N
  H284     1.0000 0.60930  0.86412  0.59368  Biso   1.000  H
  N27      1.0000 0.50000  0.85798  0.59800  Biso   1.000  N
  H285     1.0000 0.39070  0.86412  0.59368  Biso   1.000  H
  H286     1.0000 0.80872  0.09760  0.63149  Biso   1.000  H
  N28      1.0000 0.76560  0.15803  0.59995  Biso   1.000  N
  H287     1.0000 0.70874  0.21039  0.56470  Biso   1.000  H
  C342     1.0000 0.23490  0.11184  0.88453  Biso   1.000  C
  C343     1.0000 0.29337  0.17824  0.92383  Biso   1.000  C
  C344     1.0000 0.50000  0.80740  0.61500  Biso   1.000  C
  C345     1.0000 0.83300  0.18656  0.61519  Biso   1.000  C
  C346     1.0000 0.29736  0.08591  0.89178  Biso   1.000  C
  H288     1.0000 0.19128  0.09760  0.86851  Biso   1.000  H
  H289     1.0000 0.29132  0.21039  0.93530  Biso   1.000  H
  C347     1.0000 0.35816  0.15357  0.93251  Biso   1.000  C
  C348     1.0000 0.50000  0.80309  0.68569  Biso   1.000  C
  H290     1.0000 0.54451  0.79179  0.59772  Biso   1.000  H
  H291     1.0000 0.45549  0.79179  0.59772  Biso   1.000  H
  H292     1.0000 0.87790  0.17119  0.59842  Biso   1.000  H
  H293     1.0000 0.82879  0.21821  0.59661  Biso   1.000  H
  C349     1.0000 0.83816  0.19024  0.68551  Biso   1.000  C
  C350     1.0000 0.36243  0.10658  0.91491  Biso   1.000  C
  H294     1.0000 0.29708  0.05348  0.88110  Biso   1.000  H
  H295     1.0000 0.40001  0.16859  0.95049  Biso   1.000  H
  C351     1.0000 0.56601  0.80288  0.71816  Biso   1.000  C
  C352     1.0000 0.43399  0.80288  0.71816  Biso   1.000  C
  C353     1.0000 0.78605  0.21506  0.71784  Biso   1.000  C
  C354     1.0000 0.89364  0.16747  0.71811  Biso   1.000  C
  C355     1.0000 0.43332  0.08012  0.91825  Biso   1.000  C
  H296     1.0000 0.61168  0.80270  0.69619  Biso   1.000  H
  C356     1.0000 0.56601  0.80288  0.78184  Biso   1.000  C
  H297     1.0000 0.38832  0.80270  0.69619  Biso   1.000  H
  C357     1.0000 0.43399  0.80288  0.78184  Biso   1.000  C
  H298     1.0000 0.74953  0.23250  0.69601  Biso   1.000  H
  C358     1.0000 0.78605  0.21506  0.78216  Biso   1.000  C
  H299     1.0000 0.93194  0.15171  0.69619  Biso   1.000  H
  C359     1.0000 0.89364  0.16747  0.78193  Biso   1.000  C
  C360     1.0000 0.43399  0.03120  0.91979  Biso   1.000  C
  C361     1.0000 0.50000  0.10419  0.91705  Biso   1.000  C
  H300     1.0000 0.61168  0.80270  0.80381  Biso   1.000  H
  C362     1.0000 0.50000  0.80309  0.81431  Biso   1.000  C
  H301     1.0000 0.38832  0.80270  0.80381  Biso   1.000  H
  H302     1.0000 0.74953  0.23250  0.80399  Biso   1.000  H
  C363     1.0000 0.83816  0.19024  0.81449  Biso   1.000  C
  H303     1.0000 0.93194  0.15171  0.80381  Biso   1.000  H
  C364     1.0000 0.50000  0.00663  0.92011  Biso   1.000  C
  H304     1.0000 0.38843  0.01449  0.92062  Biso   1.000  H
  H305     1.0000 0.50000  0.13750  0.91542  Biso   1.000  H
  C365     1.0000 0.56668  0.08012  0.91825  Biso   1.000  C
  C366     1.0000 0.50000  0.80740  0.88500  Biso   1.000  C
  C367     1.0000 0.83300  0.18656  0.88481  Biso   1.000  C
  C368     1.0000 0.56607  0.03120  0.91979  Biso   1.000  C
  C369     1.0000 0.50000  0.95441  0.91765  Biso   1.000  C
  C370     1.0000 0.63757  0.10658  0.91491  Biso   1.000  C
  H306     1.0000 0.54451  0.79179  0.90232  Biso   1.000  H
  N29      1.0000 0.50000  0.85798  0.90200  Biso   1.000  N
  H307     1.0000 0.45549  0.79179  0.90232  Biso   1.000  H
  H308     1.0000 0.87790  0.17119  0.90163  Biso   1.000  H
  H309     1.0000 0.82879  0.21821  0.90339  Biso   1.000  H
  N30      1.0000 0.76560  0.15803  0.90005  Biso   1.000  N
  H310     1.0000 0.61163  0.01449  0.92062  Biso   1.000  H
  C371     1.0000 0.56540  0.92897  0.91630  Biso   1.000  C
  C372     1.0000 0.43460  0.92897  0.91630  Biso   1.000  C
  C373     1.0000 0.70264  0.08591  0.89178  Biso   1.000  C
  C374     1.0000 0.64189  0.15357  0.93251  Biso   1.000  C
  C375     1.0000 0.56402  0.88107  0.90790  Biso   1.000  C
  C376     1.0000 0.43598  0.88107  0.90790  Biso   1.000  C
  C377     1.0000 0.76510  0.11184  0.88453  Biso   1.000  C
  C378     1.0000 0.70663  0.17824  0.92383  Biso   1.000  C
  H311     1.0000 0.61152  0.94469  0.92123  Biso   1.000  H
  H312     1.0000 0.38848  0.94469  0.92123  Biso   1.000  H
  H313     1.0000 0.70292  0.05348  0.88110  Biso   1.000  H
  H314     1.0000 0.59999  0.16859  0.95049  Biso   1.000  H
  H315     1.0000 0.60930  0.86412  0.90632  Biso   1.000  H
  H316     1.0000 0.39070  0.86412  0.90632  Biso   1.000  H
  H317     1.0000 0.80872  0.09760  0.86851  Biso   1.000  H
  H318     1.0000 0.70874  0.21039  0.93530  Biso   1.000  H
  C379     1.0000 0.29337  0.82176  0.42383  Biso   1.000  C
  N31      1.0000 0.23440  0.84194  0.40005  Biso   1.000  N
  H319     1.0000 0.29132  0.78958  0.43530  Biso   1.000  H
  C380     1.0000 0.35816  0.84643  0.43251  Biso   1.000  C
  C381     1.0000 0.16705  0.81344  0.38481  Biso   1.000  C
  C382     1.0000 0.23490  0.88812  0.38453  Biso   1.000  C
  C383     1.0000 0.36243  0.89342  0.41491  Biso   1.000  C
  H320     1.0000 0.40001  0.83137  0.45049  Biso   1.000  H
  C384     1.0000 0.16190  0.80972  0.31449  Biso   1.000  C
  H321     1.0000 0.12210  0.82878  0.40158  Biso   1.000  H
  H322     1.0000 0.17121  0.78179  0.40339  Biso   1.000  H
  C385     1.0000 0.29736  0.91409  0.39178  Biso   1.000  C
  H323     1.0000 0.19128  0.90240  0.36851  Biso   1.000  H
  C386     1.0000 0.43332  0.91988  0.41825  Biso   1.000  C
  C387     1.0000 0.21395  0.78494  0.28216  Biso   1.000  C
  C388     1.0000 0.10642  0.83253  0.28193  Biso   1.000  C
  H324     1.0000 0.29708  0.94648  0.38110  Biso   1.000  H
  C389     1.0000 0.50000  0.89581  0.41705  Biso   1.000  C
  C390     1.0000 0.43399  0.96877  0.41979  Biso   1.000  C
  C391     1.0000 0.21395  0.78494  0.21784  Biso   1.000  C
  H325     1.0000 0.25053  0.76750  0.30399  Biso   1.000  H
  C392     1.0000 0.10642  0.83253  0.21807  Biso   1.000  C
  H326     1.0000 0.06812  0.84829  0.30381  Biso   1.000  H
  C393     1.0000 0.56668  0.91988  0.41825  Biso   1.000  C
  H327     1.0000 0.50000  0.86250  0.41542  Biso   1.000  H
  C394     1.0000 0.50000  0.99333  0.42011  Biso   1.000  C
  H328     1.0000 0.38843  0.98551  0.42062  Biso   1.000  H
  H329     1.0000 0.25053  0.76750  0.19601  Biso   1.000  H
  C395     1.0000 0.16190  0.80972  0.18551  Biso   1.000  C
  H330     1.0000 0.06812  0.84829  0.19619  Biso   1.000  H
  C396     1.0000 0.56607  0.96877  0.41979  Biso   1.000  C
  C397     1.0000 0.63757  0.89342  0.41491  Biso   1.000  C
  C398     1.0000 0.50000  0.04555  0.41765  Biso   1.000  C
  C399     1.0000 0.16705  0.81344  0.11519  Biso   1.000  C
  H331     1.0000 0.61163  0.98551  0.42062  Biso   1.000  H
  C400     1.0000 0.70264  0.91409  0.39178  Biso   1.000  C
  C401     1.0000 0.64189  0.84643  0.43251  Biso   1.000  C
  C402     1.0000 0.43460  0.07099  0.41630  Biso   1.000  C
  C403     1.0000 0.56540  0.07099  0.41630  Biso   1.000  C
  H332     1.0000 0.12210  0.82878  0.09842  Biso   1.000  H
  H333     1.0000 0.17121  0.78179  0.09661  Biso   1.000  H
  N32      1.0000 0.23440  0.84194  0.09995  Biso   1.000  N
  H334     1.0000 0.70292  0.94648  0.38110  Biso   1.000  H
  C404     1.0000 0.76510  0.88812  0.38453  Biso   1.000  C
  C405     1.0000 0.70663  0.82176  0.42383  Biso   1.000  C
  H335     1.0000 0.59999  0.83137  0.45049  Biso   1.000  H
  C406     1.0000 0.43598  0.11893  0.40790  Biso   1.000  C
  H336     1.0000 0.38848  0.05527  0.42118  Biso   1.000  H
  C407     1.0000 0.56402  0.11893  0.40790  Biso   1.000  C
  H337     1.0000 0.61152  0.05527  0.42118  Biso   1.000  H
  C408     1.0000 0.23490  0.88812  0.11551  Biso   1.000  C
  C409     1.0000 0.29337  0.82176  0.07617  Biso   1.000  C
  H338     1.0000 0.80872  0.90240  0.36851  Biso   1.000  H
  N33      1.0000 0.76560  0.84194  0.40005  Biso   1.000  N
  H339     1.0000 0.70874  0.78958  0.43530  Biso   1.000  H
  H340     1.0000 0.39070  0.13588  0.40632  Biso   1.000  H
  N34      1.0000 0.50000  0.14202  0.40200  Biso   1.000  N
  H341     1.0000 0.60930  0.13588  0.40632  Biso   1.000  H
  C410     1.0000 0.29736  0.91409  0.10822  Biso   1.000  C
  H342     1.0000 0.19128  0.90240  0.13149  Biso   1.000  H
  H343     1.0000 0.29132  0.78958  0.06470  Biso   1.000  H
  C411     1.0000 0.35816  0.84643  0.06749  Biso   1.000  C
  C412     1.0000 0.83300  0.81344  0.38481  Biso   1.000  C
  C413     1.0000 0.50000  0.19260  0.38500  Biso   1.000  C
  C414     1.0000 0.36243  0.89342  0.08509  Biso   1.000  C
  H344     1.0000 0.29708  0.94648  0.11890  Biso   1.000  H
  H345     1.0000 0.40001  0.83137  0.04951  Biso   1.000  H
  H346     1.0000 0.87790  0.82878  0.40158  Biso   1.000  H
  H347     1.0000 0.82879  0.78179  0.40339  Biso   1.000  H
  C415     1.0000 0.83816  0.80972  0.31449  Biso   1.000  C
  C416     1.0000 0.50000  0.19688  0.31431  Biso   1.000  C
  H348     1.0000 0.45549  0.20818  0.40232  Biso   1.000  H
  H349     1.0000 0.54451  0.20818  0.40232  Biso   1.000  H
  C417     1.0000 0.43332  0.91988  0.08175  Biso   1.000  C
  C418     1.0000 0.78605  0.78494  0.28216  Biso   1.000  C
  C419     1.0000 0.89364  0.83253  0.28193  Biso   1.000  C
  C420     1.0000 0.43399  0.19712  0.28184  Biso   1.000  C
  C421     1.0000 0.56601  0.19712  0.28184  Biso   1.000  C
  C422     1.0000 0.50000  0.89581  0.08295  Biso   1.000  C
  C423     1.0000 0.43399  0.96877  0.08021  Biso   1.000  C
  C424     1.0000 0.78605  0.78494  0.21784  Biso   1.000  C
  H350     1.0000 0.74953  0.76750  0.30399  Biso   1.000  H
  C425     1.0000 0.89364  0.83253  0.21807  Biso   1.000  C
  H351     1.0000 0.93194  0.84829  0.30381  Biso   1.000  H
  C426     1.0000 0.43399  0.19712  0.21816  Biso   1.000  C
  H352     1.0000 0.38832  0.19730  0.30381  Biso   1.000  H
  C427     1.0000 0.56601  0.19712  0.21816  Biso   1.000  C
  H353     1.0000 0.61168  0.19730  0.30381  Biso   1.000  H
  C428     1.0000 0.56668  0.91988  0.08175  Biso   1.000  C
  H354     1.0000 0.50000  0.86250  0.08458  Biso   1.000  H
  C429     1.0000 0.50000  0.99333  0.07989  Biso   1.000  C
  H355     1.0000 0.38843  0.98551  0.07938  Biso   1.000  H
  C430     1.0000 0.83816  0.80972  0.18551  Biso   1.000  C
  H356     1.0000 0.74953  0.76750  0.19601  Biso   1.000  H
  H357     1.0000 0.93194  0.84829  0.19619  Biso   1.000  H
  C431     1.0000 0.50000  0.19688  0.18569  Biso   1.000  C
  H358     1.0000 0.38832  0.19730  0.19619  Biso   1.000  H
  H359     1.0000 0.61168  0.19730  0.19619  Biso   1.000  H
  C432     1.0000 0.56607  0.96877  0.08021  Biso   1.000  C
  C433     1.0000 0.63757  0.89342  0.08509  Biso   1.000  C
  C434     1.0000 0.50000  0.04555  0.08235  Biso   1.000  C
  C435     1.0000 0.83300  0.81344  0.11519  Biso   1.000  C
  C436     1.0000 0.50000  0.19260  0.11500  Biso   1.000  C
  H360     1.0000 0.61163  0.98551  0.07938  Biso   1.000  H
  C437     1.0000 0.70264  0.91409  0.10822  Biso   1.000  C
  C438     1.0000 0.64189  0.84643  0.06749  Biso   1.000  C
  C439     1.0000 0.43460  0.07099  0.08370  Biso   1.000  C
  C440     1.0000 0.56540  0.07099  0.08370  Biso   1.000  C
  N35      1.0000 0.76560  0.84194  0.09995  Biso   1.000  N
  H361     1.0000 0.87790  0.82878  0.09842  Biso   1.000  H
  H362     1.0000 0.82879  0.78179  0.09661  Biso   1.000  H
  N36      1.0000 0.50000  0.14202  0.09800  Biso   1.000  N
  H363     1.0000 0.45549  0.20818  0.09768  Biso   1.000  H
  H364     1.0000 0.54451  0.20818  0.09768  Biso   1.000  H
  H365     1.0000 0.70292  0.94648  0.11890  Biso   1.000  H
  C441     1.0000 0.76510  0.88812  0.11551  Biso   1.000  C
  C442     1.0000 0.70663  0.82176  0.07617  Biso   1.000  C
  H366     1.0000 0.59999  0.83137  0.04951  Biso   1.000  H
  C443     1.0000 0.43598  0.11893  0.09210  Biso   1.000  C
  H367     1.0000 0.38848  0.05527  0.07882  Biso   1.000  H
  C444     1.0000 0.56402  0.11893  0.09210  Biso   1.000  C
  H368     1.0000 0.61152  0.05527  0.07882  Biso   1.000  H
  H369     1.0000 0.80872  0.90240  0.13149  Biso   1.000  H
  H370     1.0000 0.70874  0.78958  0.06470  Biso   1.000  H
  H371     1.0000 0.39070  0.13588  0.09368  Biso   1.000  H
  H372     1.0000 0.60930  0.13588  0.09368  Biso   1.000  H
  Ne1      1.0000 0.00917  0.43145  0.25000  Biso   1.000  Ne
  He1      1.0000 0.10735  0.51674  0.25000  Biso   1.000  He
  He2      1.0000 0.98423  0.43208  0.25000  Biso   1.000  He
  He3      1.0000 0.97262  0.44715  0.25000  Biso   1.000  He
  Ar1      1.0000 0.12229  0.50307  0.25000  Biso   1.000  Ar
  Ne2      1.0000 0.00917  0.43145  0.25000  Biso   1.000  Ne
  He4      1.0000 0.10735  0.51674  0.25000  Biso   1.000  He
  He5      1.0000 0.98423  0.43208  0.25000  Biso   1.000  He
  He6      1.0000 0.97262  0.44715  0.25000  Biso   1.000  He
  Ar2      1.0000 0.12229  0.50307  0.25000  Biso   1.000  Ar
  Ne3      1.0000 0.50001  0.05806  0.75000  Biso   1.000  Ne
  He7      1.0000 0.42282  0.10812  0.75000  Biso   1.000  He
  He8      1.0000 0.40383  0.05123  0.75000  Biso   1.000  He
  He9      1.0000 0.54351  0.98507  0.75000  Biso   1.000  He
  Ar3      1.0000 0.50004  0.05239  0.75000  Biso   1.000  Ar
  Ne4      1.0000 0.00917  0.56854  0.75000  Biso   1.000  Ne
  He10     1.0000 0.04469  0.50508  0.75000  Biso   1.000  He
  He11     1.0000 0.06726  0.61876  0.75000  Biso   1.000  He
  He12     1.0000 0.90444  0.55184  0.75000  Biso   1.000  He
  Ar4      1.0000 0.99924  0.55240  0.75056  Biso   1.000  Ar
  Ne5      1.0000 0.00917  0.56854  0.75000  Biso   1.000  Ne
  He13     1.0000 0.04469  0.50508  0.75000  Biso   1.000  He
  He14     1.0000 0.06726  0.61876  0.75000  Biso   1.000  He
  He15     1.0000 0.90444  0.55184  0.75000  Biso   1.000  He
  Ar5      1.0000 0.99924  0.55240  0.75056  Biso   1.000  Ar
  Ne6      1.0000 0.50001  0.94193  0.25000  Biso   1.000  Ne
  He16     1.0000 0.54308  0.99316  0.25000  Biso   1.000  He
  He17     1.0000 0.40361  0.94898  0.25000  Biso   1.000  He
  He18     1.0000 0.56894  0.88303  0.25000  Biso   1.000  He
  Ar6      1.0000 0.50081  0.94759  0.25000  Biso   1.000  Ar
