data_image0
_cell_length_a       14.129
_cell_length_b       13.659
_cell_length_c       23.409
_cell_angle_alpha    90
_cell_angle_beta     98.57
_cell_angle_gamma    90

_symmetry_space_group_name_H-M    "P 1"
_symmetry_int_tables_number       1

loop_
  _symmetry_equiv_pos_as_xyz
  'x, y, z'

loop_
  _atom_site_label
  _atom_site_occupancy
  _atom_site_fract_x
  _atom_site_fract_y
  _atom_site_fract_z
  _atom_site_thermal_displace_type
  _atom_site_B_iso_or_equiv
  _atom_site_type_symbol
  N1       1.0000 0.47460  0.28289  0.28914  Biso   1.000  N
  C1       1.0000 0.40442  0.23398  0.24884  Biso   1.000  C
  C2       1.0000 0.45856  0.37982  0.31217  Biso   1.000  C
  C3       1.0000 0.56950  0.25800  0.29770  Biso   1.000  C
  N2       1.0000 0.33000  0.18442  0.27567  Biso   1.000  N
  H1       1.0000 0.43622  0.18610  0.22771  Biso   1.000  H
  H2       1.0000 0.37409  0.28157  0.22119  Biso   1.000  H
  N3       1.0000 0.39811  0.37909  0.35658  Biso   1.000  N
  C4       1.0000 0.55682  0.40669  0.34466  Biso   1.000  C
  H3       1.0000 0.43640  0.42690  0.28150  Biso   1.000  H
  N4       1.0000 0.61955  0.32909  0.32984  Biso   1.000  N
  O1       1.0000 0.60426  0.18449  0.27908  Biso   1.000  O
  C5       1.0000 0.24272  0.23223  0.28564  Biso   1.000  C
  C6       1.0000 0.32033  0.08493  0.27376  Biso   1.000  C
  C7       1.0000 0.29542  0.38297  0.34543  Biso   1.000  C
  C8       1.0000 0.44775  0.39351  0.41002  Biso   1.000  C
  N5       1.0000 0.54254  0.40559  0.40466  Biso   1.000  N
  H4       1.0000 0.57782  0.47119  0.33312  Biso   1.000  H
  C9       1.0000 0.72210  0.33267  0.34245  Biso   1.000  C
  N6       1.0000 0.25009  0.28758  0.33844  Biso   1.000  N
  H5       1.0000 0.21545  0.27184  0.25229  Biso   1.000  H
  C10      1.0000 0.17579  0.14591  0.29575  Biso   1.000  C
  N7       1.0000 0.23394  0.06091  0.28962  Biso   1.000  N
  O2       1.0000 0.37940  0.02650  0.26072  Biso   1.000  O
  H6       1.0000 0.27614  0.42111  0.31061  Biso   1.000  H
  H7       1.0000 0.27240  0.41679  0.37719  Biso   1.000  H
  O3       1.0000 0.41321  0.39468  0.45473  Biso   1.000  O
  C11      1.0000 0.60754  0.45399  0.44946  Biso   1.000  C
  N8       1.0000 0.76042  0.30881  0.40160  Biso   1.000  N
  H8       1.0000 0.74323  0.39798  0.33399  Biso   1.000  H
  H9       1.0000 0.74866  0.28750  0.31701  Biso   1.000  H
  C12      1.0000 0.19592  0.24921  0.37645  Biso   1.000  C
  N9       1.0000 0.15654  0.16268  0.35425  Biso   1.000  N
  H10      1.0000 0.11691  0.14591  0.26772  Biso   1.000  H
  C13      1.0000 0.19129  0.96603  0.27744  Biso   1.000  C
  N10      1.0000 0.68692  0.39373  0.47456  Biso   1.000  N
  H11      1.0000 0.63252  0.51241  0.43339  Biso   1.000  H
  H12      1.0000 0.57213  0.47463  0.47979  Biso   1.000  H
  C14      1.0000 0.77107  0.37982  0.44735  Biso   1.000  C
  C15      1.0000 0.81351  0.22703  0.41654  Biso   1.000  C
  O4       1.0000 0.18457  0.28450  0.42276  Biso   1.000  O
  C16      1.0000 0.07993  0.11553  0.37822  Biso   1.000  C
  H13      1.0000 0.23394  0.92650  0.25808  Biso   1.000  H
  H14      1.0000 0.13192  0.97394  0.25108  Biso   1.000  H
  N11      1.0000 0.17162  0.91442  0.32846  Biso   1.000  N
  C17      1.0000 0.70274  0.37001  0.53237  Biso   1.000  C
  C18      1.0000 0.84332  0.33224  0.49573  Biso   1.000  C
  H15      1.0000 0.79513  0.44220  0.43469  Biso   1.000  H
  N12      1.0000 0.85588  0.23508  0.47262  Biso   1.000  N
  O5       1.0000 0.82255  0.15719  0.38466  Biso   1.000  O
  N13      1.0000 0.10046  0.01589  0.39572  Biso   1.000  N
  H16      1.0000 0.02264  0.11663  0.34971  Biso   1.000  H
  H17      1.0000 0.06684  0.15272  0.41149  Biso   1.000  H
  C19      1.0000 0.08694  0.93550  0.35528  Biso   1.000  C
  C20      1.0000 0.20241  0.82012  0.33852  Biso   1.000  C
  N14      1.0000 0.79223  0.33319  0.54507  Biso   1.000  N
  O6       1.0000 0.64502  0.38173  0.56572  Biso   1.000  O
  H18      1.0000 0.90368  0.36862  0.50312  Biso   1.000  H
  C21      1.0000 0.92773  0.16773  0.49876  Biso   1.000  C
  C22      1.0000 0.10543  0.98470  0.45197  Biso   1.000  C
  C23      1.0000 0.07935  0.84486  0.39391  Biso   1.000  C
  H19      1.0000 0.02965  0.94407  0.32651  Biso   1.000  H
  N15      1.0000 0.15220  0.78029  0.37822  Biso   1.000  N
  O7       1.0000 0.26475  0.77919  0.31610  Biso   1.000  O
  C24      1.0000 0.83943  0.32001  0.60408  Biso   1.000  C
  N16      1.0000 0.90063  0.11509  0.54839  Biso   1.000  N
  H20      1.0000 0.98643  0.20353  0.51120  Biso   1.000  H
  H21      1.0000 0.94051  0.12043  0.46998  Biso   1.000  H
  O8       1.0000 0.11426  0.03748  0.49461  Biso   1.000  O
  N17      1.0000 0.09947  0.88491  0.45162  Biso   1.000  N
  H22      1.0000 0.01556  0.81499  0.38639  Biso   1.000  H
  C25      1.0000 0.16066  0.67999  0.39589  Biso   1.000  C
  N18      1.0000 0.84783  0.21971  0.62179  Biso   1.000  N
  H23      1.0000 0.90298  0.34863  0.60779  Biso   1.000  H
  H24      1.0000 0.80383  0.35530  0.62991  Biso   1.000  H
  C26      1.0000 0.92075  0.15514  0.60611  Biso   1.000  C
  C27      1.0000 0.89467  0.01530  0.54805  Biso   1.000  C
  C28      1.0000 0.07236  0.83227  0.50122  Biso   1.000  C
  N19      1.0000 0.20787  0.66681  0.45495  Biso   1.000  N
  H25      1.0000 0.09712  0.65137  0.39222  Biso   1.000  H
  H26      1.0000 0.19627  0.64470  0.37010  Biso   1.000  H
  C29      1.0000 0.79769  0.17988  0.66149  Biso   1.000  C
  H27      1.0000 0.98453  0.18501  0.61358  Biso   1.000  H
  C30      1.0000 0.91316  0.06450  0.64473  Biso   1.000  C
  N20      1.0000 0.89964  0.98411  0.60430  Biso   1.000  N
  O9       1.0000 0.88584  0.96252  0.50541  Biso   1.000  O
  N21      1.0000 0.14422  0.76492  0.52740  Biso   1.000  N
  H28      1.0000 0.01367  0.79647  0.48882  Biso   1.000  H
  H29      1.0000 0.05951  0.87957  0.52999  Biso   1.000  H
  C31      1.0000 0.15671  0.66776  0.50428  Biso   1.000  C
  C32      1.0000 0.29736  0.62999  0.46765  Biso   1.000  C
  N22      1.0000 0.82848  0.08558  0.67156  Biso   1.000  N
  O10      1.0000 0.73535  0.22081  0.68391  Biso   1.000  O
  H30      1.0000 0.97044  0.05593  0.67350  Biso   1.000  H
  C33      1.0000 0.92017  0.88447  0.62179  Biso   1.000  C
  C34      1.0000 0.18652  0.77297  0.58347  Biso   1.000  C
  H31      1.0000 0.09642  0.63138  0.49690  Biso   1.000  H
  C35      1.0000 0.22903  0.62018  0.55267  Biso   1.000  C
  N23      1.0000 0.31318  0.60627  0.52545  Biso   1.000  N
  O11      1.0000 0.35500  0.61827  0.43426  Biso   1.000  O
  C36      1.0000 0.80872  0.03397  0.72254  Biso   1.000  C
  H32      1.0000 0.97746  0.88337  0.65030  Biso   1.000  H
  H33      1.0000 0.93325  0.84728  0.58848  Biso   1.000  H
  N24      1.0000 0.84356  0.83732  0.64577  Biso   1.000  N
  N25      1.0000 0.23967  0.69119  0.59838  Biso   1.000  N
  O12      1.0000 0.17755  0.84281  0.61535  Biso   1.000  O
  H34      1.0000 0.20496  0.55780  0.56528  Biso   1.000  H
  C37      1.0000 0.39255  0.54601  0.55051  Biso   1.000  C
  H35      1.0000 0.76615  0.07350  0.74189  Biso   1.000  H
  H36      1.0000 0.86817  0.02606  0.74889  Biso   1.000  H
  N26      1.0000 0.76616  0.93909  0.71040  Biso   1.000  N
  C38      1.0000 0.82423  0.85409  0.70422  Biso   1.000  C
  C39      1.0000 0.80418  0.75079  0.62356  Biso   1.000  C
  C40      1.0000 0.27799  0.66733  0.65752  Biso   1.000  C
  N27      1.0000 0.45754  0.59441  0.59531  Biso   1.000  N
  H37      1.0000 0.36758  0.48759  0.56662  Biso   1.000  H
  H38      1.0000 0.42796  0.52537  0.52018  Biso   1.000  H
  C41      1.0000 0.67977  0.91507  0.72625  Biso   1.000  C
  C42      1.0000 0.75737  0.76777  0.71433  Biso   1.000  C
  H39      1.0000 0.88318  0.85409  0.73230  Biso   1.000  H
  N28      1.0000 0.74992  0.71242  0.66154  Biso   1.000  N
  O13      1.0000 0.81552  0.71550  0.57721  Biso   1.000  O
  N29      1.0000 0.38055  0.67091  0.67018  Biso   1.000  N
  H40      1.0000 0.25686  0.60202  0.66599  Biso   1.000  H
  H41      1.0000 0.25144  0.71250  0.68301  Biso   1.000  H
  C43      1.0000 0.44328  0.59331  0.65536  Biso   1.000  C
  C44      1.0000 0.55235  0.60649  0.59000  Biso   1.000  C
  N30      1.0000 0.67010  0.81558  0.72435  Biso   1.000  N
  O14      1.0000 0.62063  0.97350  0.73930  Biso   1.000  O
  H42      1.0000 0.78465  0.72816  0.74772  Biso   1.000  H
  C45      1.0000 0.70468  0.61703  0.65458  Biso   1.000  C
  C46      1.0000 0.43053  0.74200  0.70232  Biso   1.000  C
  H43      1.0000 0.42228  0.52881  0.66689  Biso   1.000  H
  C47      1.0000 0.54154  0.62018  0.68785  Biso   1.000  C
  N31      1.0000 0.60199  0.62091  0.64344  Biso   1.000  N
  O15      1.0000 0.58682  0.60532  0.54528  Biso   1.000  O
  C48      1.0000 0.59568  0.76602  0.75118  Biso   1.000  C
  H44      1.0000 0.72396  0.57889  0.68940  Biso   1.000  H
  H45      1.0000 0.72762  0.58321  0.62279  Biso   1.000  H
  N32      1.0000 0.52550  0.71711  0.71087  Biso   1.000  N
  O16      1.0000 0.39584  0.81551  0.72094  Biso   1.000  O
  H46      1.0000 0.56369  0.57310  0.71852  Biso   1.000  H
  H47      1.0000 0.56388  0.81390  0.77230  Biso   1.000  H
  H48      1.0000 0.62600  0.71843  0.77883  Biso   1.000  H
  N33      1.0000 0.47460  0.28289  0.28914  Biso   1.000  N
  C49      1.0000 0.40442  0.23398  0.24884  Biso   1.000  C
  C50      1.0000 0.45856  0.37982  0.31217  Biso   1.000  C
  C51      1.0000 0.56950  0.25800  0.29770  Biso   1.000  C
  N34      1.0000 0.33000  0.18442  0.27567  Biso   1.000  N
  H49      1.0000 0.43622  0.18610  0.22771  Biso   1.000  H
  H50      1.0000 0.37409  0.28157  0.22119  Biso   1.000  H
  N35      1.0000 0.39811  0.37909  0.35658  Biso   1.000  N
  C52      1.0000 0.55682  0.40669  0.34466  Biso   1.000  C
  H51      1.0000 0.43640  0.42690  0.28150  Biso   1.000  H
  N36      1.0000 0.61955  0.32909  0.32984  Biso   1.000  N
  O17      1.0000 0.60426  0.18449  0.27908  Biso   1.000  O
  C53      1.0000 0.24272  0.23223  0.28564  Biso   1.000  C
  C54      1.0000 0.32033  0.08493  0.27376  Biso   1.000  C
  C55      1.0000 0.29542  0.38297  0.34543  Biso   1.000  C
  C56      1.0000 0.44775  0.39351  0.41002  Biso   1.000  C
  N37      1.0000 0.54254  0.40559  0.40466  Biso   1.000  N
  H52      1.0000 0.57782  0.47119  0.33312  Biso   1.000  H
  C57      1.0000 0.72210  0.33267  0.34245  Biso   1.000  C
  N38      1.0000 0.25009  0.28758  0.33844  Biso   1.000  N
  H53      1.0000 0.21545  0.27184  0.25229  Biso   1.000  H
  C58      1.0000 0.17579  0.14591  0.29575  Biso   1.000  C
  N39      1.0000 0.23394  0.06091  0.28962  Biso   1.000  N
  O18      1.0000 0.37940  0.02650  0.26072  Biso   1.000  O
  H54      1.0000 0.27614  0.42111  0.31061  Biso   1.000  H
  H55      1.0000 0.27240  0.41679  0.37719  Biso   1.000  H
  O19      1.0000 0.41321  0.39468  0.45473  Biso   1.000  O
  C59      1.0000 0.60754  0.45399  0.44946  Biso   1.000  C
  N40      1.0000 0.76042  0.30881  0.40160  Biso   1.000  N
  H56      1.0000 0.74323  0.39798  0.33399  Biso   1.000  H
  H57      1.0000 0.74866  0.28750  0.31701  Biso   1.000  H
  C60      1.0000 0.19592  0.24921  0.37645  Biso   1.000  C
  N41      1.0000 0.15654  0.16268  0.35425  Biso   1.000  N
  H58      1.0000 0.11691  0.14591  0.26772  Biso   1.000  H
  C61      1.0000 0.19129  0.96603  0.27744  Biso   1.000  C
  N42      1.0000 0.68692  0.39373  0.47456  Biso   1.000  N
  H59      1.0000 0.63252  0.51241  0.43339  Biso   1.000  H
  H60      1.0000 0.57213  0.47463  0.47979  Biso   1.000  H
  C62      1.0000 0.77107  0.37982  0.44735  Biso   1.000  C
  C63      1.0000 0.81351  0.22703  0.41654  Biso   1.000  C
  O20      1.0000 0.18457  0.28450  0.42276  Biso   1.000  O
  C64      1.0000 0.07993  0.11553  0.37822  Biso   1.000  C
  H61      1.0000 0.23394  0.92650  0.25808  Biso   1.000  H
  H62      1.0000 0.13192  0.97394  0.25108  Biso   1.000  H
  N43      1.0000 0.17162  0.91442  0.32846  Biso   1.000  N
  C65      1.0000 0.70274  0.37001  0.53237  Biso   1.000  C
  C66      1.0000 0.84332  0.33224  0.49573  Biso   1.000  C
  H63      1.0000 0.79513  0.44220  0.43469  Biso   1.000  H
  N44      1.0000 0.85588  0.23508  0.47262  Biso   1.000  N
  O21      1.0000 0.82255  0.15719  0.38466  Biso   1.000  O
  N45      1.0000 0.10046  0.01589  0.39572  Biso   1.000  N
  H64      1.0000 0.02264  0.11663  0.34971  Biso   1.000  H
  H65      1.0000 0.06684  0.15272  0.41149  Biso   1.000  H
  C67      1.0000 0.08694  0.93550  0.35528  Biso   1.000  C
  C68      1.0000 0.20241  0.82012  0.33852  Biso   1.000  C
  N46      1.0000 0.79223  0.33319  0.54507  Biso   1.000  N
  O22      1.0000 0.64502  0.38173  0.56572  Biso   1.000  O
  H66      1.0000 0.90368  0.36862  0.50312  Biso   1.000  H
  C69      1.0000 0.92773  0.16773  0.49876  Biso   1.000  C
  C70      1.0000 0.10543  0.98470  0.45197  Biso   1.000  C
  C71      1.0000 0.07935  0.84486  0.39391  Biso   1.000  C
  H67      1.0000 0.02965  0.94407  0.32651  Biso   1.000  H
  N47      1.0000 0.15220  0.78029  0.37822  Biso   1.000  N
  O23      1.0000 0.26475  0.77919  0.31610  Biso   1.000  O
  C72      1.0000 0.83943  0.32001  0.60408  Biso   1.000  C
  N48      1.0000 0.90063  0.11509  0.54839  Biso   1.000  N
  H68      1.0000 0.98643  0.20353  0.51120  Biso   1.000  H
  H69      1.0000 0.94051  0.12043  0.46998  Biso   1.000  H
  O24      1.0000 0.11426  0.03748  0.49461  Biso   1.000  O
  N49      1.0000 0.09947  0.88491  0.45162  Biso   1.000  N
  H70      1.0000 0.01556  0.81499  0.38639  Biso   1.000  H
  C73      1.0000 0.16066  0.67999  0.39589  Biso   1.000  C
  N50      1.0000 0.84783  0.21971  0.62179  Biso   1.000  N
  H71      1.0000 0.90298  0.34863  0.60779  Biso   1.000  H
  H72      1.0000 0.80383  0.35530  0.62991  Biso   1.000  H
  C74      1.0000 0.92075  0.15514  0.60611  Biso   1.000  C
  C75      1.0000 0.89467  0.01530  0.54805  Biso   1.000  C
  C76      1.0000 0.07236  0.83227  0.50122  Biso   1.000  C
  N51      1.0000 0.20787  0.66681  0.45495  Biso   1.000  N
  H73      1.0000 0.09712  0.65137  0.39222  Biso   1.000  H
  H74      1.0000 0.19627  0.64470  0.37010  Biso   1.000  H
  C77      1.0000 0.79769  0.17988  0.66149  Biso   1.000  C
  H75      1.0000 0.98453  0.18501  0.61358  Biso   1.000  H
  C78      1.0000 0.91316  0.06450  0.64473  Biso   1.000  C
  N52      1.0000 0.89964  0.98411  0.60430  Biso   1.000  N
  O25      1.0000 0.88584  0.96252  0.50541  Biso   1.000  O
  N53      1.0000 0.14422  0.76492  0.52740  Biso   1.000  N
  H76      1.0000 0.01367  0.79647  0.48882  Biso   1.000  H
  H77      1.0000 0.05951  0.87957  0.52999  Biso   1.000  H
  C79      1.0000 0.15671  0.66776  0.50428  Biso   1.000  C
  C80      1.0000 0.29736  0.62999  0.46765  Biso   1.000  C
  N54      1.0000 0.82848  0.08558  0.67156  Biso   1.000  N
  O26      1.0000 0.73535  0.22081  0.68391  Biso   1.000  O
  H78      1.0000 0.97044  0.05593  0.67350  Biso   1.000  H
  C81      1.0000 0.92017  0.88447  0.62179  Biso   1.000  C
  C82      1.0000 0.18652  0.77297  0.58347  Biso   1.000  C
  H79      1.0000 0.09642  0.63138  0.49690  Biso   1.000  H
  C83      1.0000 0.22903  0.62018  0.55267  Biso   1.000  C
  N55      1.0000 0.31318  0.60627  0.52545  Biso   1.000  N
  O27      1.0000 0.35500  0.61827  0.43426  Biso   1.000  O
  C84      1.0000 0.80872  0.03397  0.72254  Biso   1.000  C
  H80      1.0000 0.97746  0.88337  0.65030  Biso   1.000  H
  H81      1.0000 0.93325  0.84728  0.58848  Biso   1.000  H
  N56      1.0000 0.84356  0.83732  0.64577  Biso   1.000  N
  N57      1.0000 0.23967  0.69119  0.59838  Biso   1.000  N
  O28      1.0000 0.17755  0.84281  0.61535  Biso   1.000  O
  H82      1.0000 0.20496  0.55780  0.56528  Biso   1.000  H
  C85      1.0000 0.39255  0.54601  0.55051  Biso   1.000  C
  H83      1.0000 0.76615  0.07350  0.74189  Biso   1.000  H
  H84      1.0000 0.86817  0.02606  0.74889  Biso   1.000  H
  N58      1.0000 0.76616  0.93909  0.71040  Biso   1.000  N
  C86      1.0000 0.82423  0.85409  0.70422  Biso   1.000  C
  C87      1.0000 0.80418  0.75079  0.62356  Biso   1.000  C
  C88      1.0000 0.27799  0.66733  0.65752  Biso   1.000  C
  N59      1.0000 0.45754  0.59441  0.59531  Biso   1.000  N
  H85      1.0000 0.36758  0.48759  0.56662  Biso   1.000  H
  H86      1.0000 0.42796  0.52537  0.52018  Biso   1.000  H
  C89      1.0000 0.67977  0.91507  0.72625  Biso   1.000  C
  C90      1.0000 0.75737  0.76777  0.71433  Biso   1.000  C
  H87      1.0000 0.88318  0.85409  0.73230  Biso   1.000  H
  N60      1.0000 0.74992  0.71242  0.66154  Biso   1.000  N
  O29      1.0000 0.81552  0.71550  0.57721  Biso   1.000  O
  N61      1.0000 0.38055  0.67091  0.67018  Biso   1.000  N
  H88      1.0000 0.25686  0.60202  0.66599  Biso   1.000  H
  H89      1.0000 0.25144  0.71250  0.68301  Biso   1.000  H
  C91      1.0000 0.44328  0.59331  0.65536  Biso   1.000  C
  C92      1.0000 0.55235  0.60649  0.59000  Biso   1.000  C
  N62      1.0000 0.67010  0.81558  0.72435  Biso   1.000  N
  O30      1.0000 0.62063  0.97350  0.73930  Biso   1.000  O
  H90      1.0000 0.78465  0.72816  0.74772  Biso   1.000  H
  C93      1.0000 0.70468  0.61703  0.65458  Biso   1.000  C
  C94      1.0000 0.43053  0.74200  0.70232  Biso   1.000  C
  H91      1.0000 0.42228  0.52881  0.66689  Biso   1.000  H
  C95      1.0000 0.54154  0.62018  0.68785  Biso   1.000  C
  N63      1.0000 0.60199  0.62091  0.64344  Biso   1.000  N
  O31      1.0000 0.58682  0.60532  0.54528  Biso   1.000  O
  C96      1.0000 0.59568  0.76602  0.75118  Biso   1.000  C
  H92      1.0000 0.72396  0.57889  0.68940  Biso   1.000  H
  H93      1.0000 0.72762  0.58321  0.62279  Biso   1.000  H
  N64      1.0000 0.52550  0.71711  0.71087  Biso   1.000  N
  O32      1.0000 0.39584  0.81551  0.72094  Biso   1.000  O
  H94      1.0000 0.56369  0.57310  0.71852  Biso   1.000  H
  H95      1.0000 0.56388  0.81390  0.77230  Biso   1.000  H
  H96      1.0000 0.62600  0.71843  0.77883  Biso   1.000  H
  O33      1.0000 0.62062  0.52647  0.23929  Biso   1.000  O
  C97      1.0000 0.67975  0.58489  0.22624  Biso   1.000  C
  C98      1.0000 0.67968  0.58489  0.22624  Biso   1.000  C
  N65      1.0000 0.67001  0.68438  0.22434  Biso   1.000  N
  N66      1.0000 0.76615  0.56088  0.21039  Biso   1.000  N
  N67      1.0000 0.76607  0.56088  0.21035  Biso   1.000  N
  C99      1.0000 0.59560  0.73402  0.25117  Biso   1.000  C
  C100     1.0000 0.75729  0.73219  0.21436  Biso   1.000  C
  C101     1.0000 0.75728  0.73219  0.21432  Biso   1.000  C
  C102     1.0000 0.82422  0.64587  0.20421  Biso   1.000  C
  C103     1.0000 0.80872  0.46599  0.22257  Biso   1.000  C
  C104     1.0000 0.80871  0.46599  0.22253  Biso   1.000  C
  N68      1.0000 0.52541  0.78293  0.21086  Biso   1.000  N
  H97      1.0000 0.56380  0.68607  0.27230  Biso   1.000  H
  H98      1.0000 0.62592  0.78161  0.27882  Biso   1.000  H
  H99      1.0000 0.62591  0.78161  0.27878  Biso   1.000  H
  N69      1.0000 0.74992  0.78761  0.16157  Biso   1.000  N
  H100     1.0000 0.78464  0.77180  0.24771  Biso   1.000  H
  N70      1.0000 0.74991  0.78761  0.16153  Biso   1.000  N
  N71      1.0000 0.84355  0.66271  0.14576  Biso   1.000  N
  H101     1.0000 0.88310  0.64587  0.23229  Biso   1.000  H
  N72      1.0000 0.84348  0.66271  0.14576  Biso   1.000  N
  H102     1.0000 0.76614  0.42653  0.24188  Biso   1.000  H
  H103     1.0000 0.86809  0.47390  0.24888  Biso   1.000  H
  N73      1.0000 0.82840  0.41438  0.17155  Biso   1.000  N
  C105     1.0000 0.43051  0.75803  0.20231  Biso   1.000  C
  C106     1.0000 0.54153  0.87979  0.18784  Biso   1.000  C
  C107     1.0000 0.70459  0.88301  0.15457  Biso   1.000  C
  C108     1.0000 0.80409  0.74918  0.12355  Biso   1.000  C
  C109     1.0000 0.92008  0.61549  0.12178  Biso   1.000  C
  C110     1.0000 0.91315  0.43546  0.14472  Biso   1.000  C
  C111     1.0000 0.79760  0.32008  0.16149  Biso   1.000  C
  C112     1.0000 0.91308  0.43546  0.14472  Biso   1.000  C
  O34      1.0000 0.39583  0.68453  0.22093  Biso   1.000  O
  N74      1.0000 0.38054  0.82912  0.17017  Biso   1.000  N
  C113     1.0000 0.44320  0.90673  0.15535  Biso   1.000  C
  N75      1.0000 0.60191  0.87913  0.14343  Biso   1.000  N
  H104     1.0000 0.56361  0.92693  0.21851  Biso   1.000  H
  H105     1.0000 0.72395  0.92108  0.18939  Biso   1.000  H
  H106     1.0000 0.72761  0.91683  0.12282  Biso   1.000  H
  H107     1.0000 0.72388  0.92108  0.18939  Biso   1.000  H
  H108     1.0000 0.72760  0.91683  0.12278  Biso   1.000  H
  O35      1.0000 0.81551  0.78446  0.07720  Biso   1.000  O
  N76      1.0000 0.89962  0.51592  0.10429  Biso   1.000  N
  H109     1.0000 0.97744  0.61659  0.15030  Biso   1.000  H
  H110     1.0000 0.93324  0.65268  0.08852  Biso   1.000  H
  H111     1.0000 0.97737  0.61659  0.15030  Biso   1.000  H
  H112     1.0000 0.93316  0.65268  0.08848  Biso   1.000  H
  C114     1.0000 0.92074  0.34490  0.10610  Biso   1.000  C
  H113     1.0000 0.97043  0.44410  0.17350  Biso   1.000  H
  C115     1.0000 0.92067  0.34490  0.10610  Biso   1.000  C
  N77      1.0000 0.84782  0.28033  0.12178  Biso   1.000  N
  O36      1.0000 0.73533  0.27923  0.18391  Biso   1.000  O
  C116     1.0000 0.27790  0.83271  0.15751  Biso   1.000  C
  N78      1.0000 0.45753  0.90563  0.09530  Biso   1.000  N
  H114     1.0000 0.42219  0.97123  0.16689  Biso   1.000  H
  N79      1.0000 0.45746  0.90563  0.09530  Biso   1.000  N
  C117     1.0000 0.55233  0.89348  0.08999  Biso   1.000  C
  C118     1.0000 0.55226  0.89348  0.08999  Biso   1.000  C
  C119     1.0000 0.89458  0.48474  0.04804  Biso   1.000  C
  N80      1.0000 0.90061  0.38487  0.04839  Biso   1.000  N
  H115     1.0000 0.98452  0.31503  0.11362  Biso   1.000  H
  H116     1.0000 0.98451  0.31503  0.11358  Biso   1.000  H
  C120     1.0000 0.83941  0.18003  0.10407  Biso   1.000  C
  N81      1.0000 0.23960  0.80877  0.09841  Biso   1.000  N
  H117     1.0000 0.25679  0.89802  0.16602  Biso   1.000  H
  H118     1.0000 0.25142  0.78747  0.18300  Biso   1.000  H
  N82      1.0000 0.23959  0.80877  0.09837  Biso   1.000  N
  H119     1.0000 0.25678  0.89802  0.16598  Biso   1.000  H
  C121     1.0000 0.39247  0.95402  0.05050  Biso   1.000  C
  O37      1.0000 0.58680  0.89472  0.04527  Biso   1.000  O
  O38      1.0000 0.58679  0.89472  0.04523  Biso   1.000  O
  O39      1.0000 0.88583  0.53752  0.00540  Biso   1.000  O
  O40      1.0000 0.88576  0.53752  0.00540  Biso   1.000  O
  C122     1.0000 0.92779  0.33231  0.99879  Biso   1.000  C
  C123     1.0000 0.92778  0.33231  0.99875  Biso   1.000  C
  N83      1.0000 0.79221  0.16678  0.04506  Biso   1.000  N
  H120     1.0000 0.90289  0.15140  0.10779  Biso   1.000  H
  H121     1.0000 0.80382  0.14467  0.12991  Biso   1.000  H
  C124     1.0000 0.22901  0.87979  0.05266  Biso   1.000  C
  C125     1.0000 0.18651  0.72699  0.08346  Biso   1.000  C
  N84      1.0000 0.31310  0.89370  0.02545  Biso   1.000  N
  H122     1.0000 0.42788  0.97460  0.02022  Biso   1.000  H
  H123     1.0000 0.42787  0.97460  0.02017  Biso   1.000  H
  H124     1.0000 0.36750  0.01237  0.06662  Biso   1.000  H
  H125     1.0000 0.36749  0.01237  0.06657  Biso   1.000  H
  H126     1.0000 0.98641  0.29651  0.01119  Biso   1.000  H
  N85      1.0000 0.85586  0.26488  0.97261  Biso   1.000  N
  H127     1.0000 0.94058  0.37960  0.97002  Biso   1.000  H
  H128     1.0000 0.94057  0.37960  0.96998  Biso   1.000  H
  C126     1.0000 0.70273  0.13002  0.03236  Biso   1.000  C
  C127     1.0000 0.70272  0.13002  0.03231  Biso   1.000  C
  C128     1.0000 0.84338  0.16780  0.99572  Biso   1.000  C
  C129     1.0000 0.15669  0.83220  0.00428  Biso   1.000  C
  H129     1.0000 0.20489  0.94224  0.06532  Biso   1.000  H
  H130     1.0000 0.20488  0.94224  0.06528  Biso   1.000  H
  N86      1.0000 0.14421  0.73512  0.02739  Biso   1.000  N
  O41      1.0000 0.17753  0.65722  0.11535  Biso   1.000  O
  O42      1.0000 0.17746  0.65722  0.11535  Biso   1.000  O
  C130     1.0000 0.29734  0.86998  0.96764  Biso   1.000  C
  C131     1.0000 0.81356  0.27301  0.91654  Biso   1.000  C
  O43      1.0000 0.64501  0.11831  0.06575  Biso   1.000  O
  O44      1.0000 0.64500  0.11831  0.06571  Biso   1.000  O
  N87      1.0000 0.68697  0.10630  0.97455  Biso   1.000  N
  H131     1.0000 0.90359  0.13142  0.00311  Biso   1.000  H
  C132     1.0000 0.77106  0.12021  0.94734  Biso   1.000  C
  N88      1.0000 0.20786  0.83322  0.95494  Biso   1.000  N
  H132     1.0000 0.09648  0.86858  0.99689  Biso   1.000  H
  C133     1.0000 0.07228  0.66769  0.00121  Biso   1.000  C
  O45      1.0000 0.35506  0.88169  0.93425  Biso   1.000  O
  N89      1.0000 0.76047  0.19123  0.90159  Biso   1.000  N
  O46      1.0000 0.82254  0.34278  0.88465  Biso   1.000  O
  O47      1.0000 0.82253  0.34278  0.88461  Biso   1.000  O
  C134     1.0000 0.60760  0.04598  0.94950  Biso   1.000  C
  C135     1.0000 0.60752  0.04598  0.94945  Biso   1.000  C
  H133     1.0000 0.79518  0.05776  0.93468  Biso   1.000  H
  C136     1.0000 0.16066  0.81997  0.89593  Biso   1.000  C
  C137     1.0000 0.16065  0.81997  0.89589  Biso   1.000  C
  H134     1.0000 0.05949  0.62040  0.02998  Biso   1.000  H
  N90      1.0000 0.09946  0.61513  0.95161  Biso   1.000  N
  H135     1.0000 0.01366  0.70349  0.98881  Biso   1.000  H
  C138     1.0000 0.72217  0.16729  0.84249  Biso   1.000  C
  C139     1.0000 0.72216  0.16729  0.84245  Biso   1.000  C
  H136     1.0000 0.63257  0.98763  0.93338  Biso   1.000  H
  N91      1.0000 0.54254  0.09437  0.90470  Biso   1.000  N
  H137     1.0000 0.57219  0.02540  0.97978  Biso   1.000  H
  N92      1.0000 0.54253  0.09437  0.90466  Biso   1.000  N
  H138     1.0000 0.57212  0.02540  0.97978  Biso   1.000  H
  N93      1.0000 0.15225  0.71967  0.87822  Biso   1.000  N
  H139     1.0000 0.09718  0.84860  0.89221  Biso   1.000  H
  H140     1.0000 0.19625  0.85533  0.87009  Biso   1.000  H
  H141     1.0000 0.09717  0.84860  0.89217  Biso   1.000  H
  C140     1.0000 0.07933  0.65510  0.89390  Biso   1.000  C
  C141     1.0000 0.10549  0.51526  0.95196  Biso   1.000  C
  N94      1.0000 0.61953  0.17088  0.82983  Biso   1.000  N
  H142     1.0000 0.74328  0.10198  0.83398  Biso   1.000  H
  H143     1.0000 0.74865  0.21253  0.81700  Biso   1.000  H
  H144     1.0000 0.74321  0.10198  0.83398  Biso   1.000  H
  C142     1.0000 0.44774  0.10652  0.91001  Biso   1.000  C
  C143     1.0000 0.55687  0.09327  0.84465  Biso   1.000  C
  C144     1.0000 0.20247  0.67992  0.83851  Biso   1.000  C
  H145     1.0000 0.01555  0.68497  0.88638  Biso   1.000  H
  C145     1.0000 0.08692  0.56454  0.85528  Biso   1.000  C
  N95      1.0000 0.10045  0.48408  0.89571  Biso   1.000  N
  O48      1.0000 0.11424  0.46248  0.99460  Biso   1.000  O
  C146     1.0000 0.56956  0.24197  0.79769  Biso   1.000  C
  N96      1.0000 0.39817  0.12087  0.85657  Biso   1.000  N
  O49      1.0000 0.41327  0.10528  0.95473  Biso   1.000  O
  C147     1.0000 0.45854  0.12021  0.81216  Biso   1.000  C
  H146     1.0000 0.57788  0.02877  0.83311  Biso   1.000  H
  H147     1.0000 0.57787  0.02877  0.83307  Biso   1.000  H
  N97      1.0000 0.17167  0.58562  0.82845  Biso   1.000  N
  O50      1.0000 0.26474  0.72077  0.81609  Biso   1.000  O
  H148     1.0000 0.02964  0.55590  0.82650  Biso   1.000  H
  C148     1.0000 0.07999  0.38451  0.87822  Biso   1.000  C
  C149     1.0000 0.07991  0.38451  0.87817  Biso   1.000  C
  N98      1.0000 0.47466  0.21707  0.78914  Biso   1.000  N
  O51      1.0000 0.60424  0.31547  0.77907  Biso   1.000  O
  C150     1.0000 0.29548  0.11699  0.84543  Biso   1.000  C
  H149     1.0000 0.43646  0.07307  0.78149  Biso   1.000  H
  C151     1.0000 0.19135  0.53401  0.77743  Biso   1.000  C
  H150     1.0000 0.02263  0.38341  0.84970  Biso   1.000  H
  H151     1.0000 0.06683  0.34732  0.91148  Biso   1.000  H
  N99      1.0000 0.15652  0.33729  0.85424  Biso   1.000  N
  C152     1.0000 0.40448  0.26598  0.74883  Biso   1.000  C
  N100     1.0000 0.25015  0.21239  0.83843  Biso   1.000  N
  H152     1.0000 0.27612  0.07892  0.81061  Biso   1.000  H
  H153     1.0000 0.27246  0.08317  0.87718  Biso   1.000  H
  N101     1.0000 0.23392  0.43912  0.78961  Biso   1.000  N
  H154     1.0000 0.23393  0.57347  0.75812  Biso   1.000  H
  H155     1.0000 0.13198  0.52610  0.75112  Biso   1.000  H
  H156     1.0000 0.23392  0.57347  0.75807  Biso   1.000  H
  H157     1.0000 0.13190  0.52610  0.75108  Biso   1.000  H
  C153     1.0000 0.19598  0.25082  0.87645  Biso   1.000  C
  C154     1.0000 0.17585  0.35413  0.79579  Biso   1.000  C
  C155     1.0000 0.17584  0.35413  0.79575  Biso   1.000  C
  N102     1.0000 0.33006  0.31562  0.77566  Biso   1.000  N
  H158     1.0000 0.43628  0.31393  0.72770  Biso   1.000  H
  H159     1.0000 0.37415  0.21839  0.72118  Biso   1.000  H
  H160     1.0000 0.43620  0.31393  0.72770  Biso   1.000  H
  C156     1.0000 0.24278  0.26781  0.78564  Biso   1.000  C
  C157     1.0000 0.24271  0.26781  0.78564  Biso   1.000  C
  C158     1.0000 0.32032  0.41511  0.77376  Biso   1.000  C
  O52      1.0000 0.18456  0.21554  0.92280  Biso   1.000  O
  O53      1.0000 0.18455  0.21554  0.92276  Biso   1.000  O
  H161     1.0000 0.11697  0.35413  0.76771  Biso   1.000  H
  H162     1.0000 0.21544  0.22820  0.75229  Biso   1.000  H
  O54      1.0000 0.37945  0.47353  0.76071  Biso   1.000  O
  O55      1.0000 0.62062  0.52647  0.23929  Biso   1.000  O
  C159     1.0000 0.67975  0.58489  0.22624  Biso   1.000  C
  C160     1.0000 0.67968  0.58489  0.22624  Biso   1.000  C
  N103     1.0000 0.67001  0.68438  0.22434  Biso   1.000  N
  N104     1.0000 0.76615  0.56088  0.21039  Biso   1.000  N
  N105     1.0000 0.76607  0.56088  0.21035  Biso   1.000  N
  C161     1.0000 0.59560  0.73402  0.25117  Biso   1.000  C
  C162     1.0000 0.75729  0.73219  0.21436  Biso   1.000  C
  C163     1.0000 0.75728  0.73219  0.21432  Biso   1.000  C
  C164     1.0000 0.82422  0.64587  0.20421  Biso   1.000  C
  C165     1.0000 0.80872  0.46599  0.22257  Biso   1.000  C
  C166     1.0000 0.80871  0.46599  0.22253  Biso   1.000  C
  N106     1.0000 0.52541  0.78293  0.21086  Biso   1.000  N
  H163     1.0000 0.56380  0.68607  0.27230  Biso   1.000  H
  H164     1.0000 0.62592  0.78161  0.27882  Biso   1.000  H
  H165     1.0000 0.62591  0.78161  0.27878  Biso   1.000  H
  H166     1.0000 0.78464  0.77180  0.24771  Biso   1.000  H
  N107     1.0000 0.74992  0.78761  0.16157  Biso   1.000  N
  N108     1.0000 0.74991  0.78761  0.16153  Biso   1.000  N
  H167     1.0000 0.88310  0.64587  0.23229  Biso   1.000  H
  N109     1.0000 0.84355  0.66271  0.14576  Biso   1.000  N
  N110     1.0000 0.84348  0.66271  0.14576  Biso   1.000  N
  H168     1.0000 0.76614  0.42653  0.24188  Biso   1.000  H
  H169     1.0000 0.86809  0.47390  0.24888  Biso   1.000  H
  N111     1.0000 0.82840  0.41438  0.17155  Biso   1.000  N
  C167     1.0000 0.43051  0.75803  0.20231  Biso   1.000  C
  C168     1.0000 0.54153  0.87979  0.18784  Biso   1.000  C
  C169     1.0000 0.70459  0.88301  0.15457  Biso   1.000  C
  C170     1.0000 0.80409  0.74918  0.12355  Biso   1.000  C
  C171     1.0000 0.92008  0.61549  0.12178  Biso   1.000  C
  C172     1.0000 0.79760  0.32008  0.16149  Biso   1.000  C
  C173     1.0000 0.91315  0.43546  0.14472  Biso   1.000  C
  C174     1.0000 0.91308  0.43546  0.14472  Biso   1.000  C
  O56      1.0000 0.39583  0.68453  0.22093  Biso   1.000  O
  N112     1.0000 0.38054  0.82912  0.17017  Biso   1.000  N
  C175     1.0000 0.44320  0.90673  0.15535  Biso   1.000  C
  N113     1.0000 0.60191  0.87913  0.14343  Biso   1.000  N
  H170     1.0000 0.56361  0.92693  0.21851  Biso   1.000  H
  H171     1.0000 0.72395  0.92108  0.18939  Biso   1.000  H
  H172     1.0000 0.72761  0.91683  0.12282  Biso   1.000  H
  H173     1.0000 0.72388  0.92108  0.18939  Biso   1.000  H
  H174     1.0000 0.72760  0.91683  0.12278  Biso   1.000  H
  O57      1.0000 0.81551  0.78446  0.07720  Biso   1.000  O
  N114     1.0000 0.89962  0.51592  0.10429  Biso   1.000  N
  H175     1.0000 0.97744  0.61659  0.15030  Biso   1.000  H
  H176     1.0000 0.93324  0.65268  0.08852  Biso   1.000  H
  H177     1.0000 0.97737  0.61659  0.15030  Biso   1.000  H
  H178     1.0000 0.93316  0.65268  0.08848  Biso   1.000  H
  N115     1.0000 0.84782  0.28033  0.12178  Biso   1.000  N
  O58      1.0000 0.73533  0.27923  0.18391  Biso   1.000  O
  H179     1.0000 0.97043  0.44410  0.17350  Biso   1.000  H
  C176     1.0000 0.92074  0.34490  0.10610  Biso   1.000  C
  C177     1.0000 0.92067  0.34490  0.10610  Biso   1.000  C
  C178     1.0000 0.27790  0.83271  0.15751  Biso   1.000  C
  H180     1.0000 0.42219  0.97123  0.16689  Biso   1.000  H
  N116     1.0000 0.45753  0.90563  0.09530  Biso   1.000  N
  N117     1.0000 0.45746  0.90563  0.09530  Biso   1.000  N
  C179     1.0000 0.55233  0.89348  0.08999  Biso   1.000  C
  C180     1.0000 0.55226  0.89348  0.08999  Biso   1.000  C
  C181     1.0000 0.89458  0.48474  0.04804  Biso   1.000  C
  C182     1.0000 0.83941  0.18003  0.10407  Biso   1.000  C
  N118     1.0000 0.90061  0.38487  0.04839  Biso   1.000  N
  H181     1.0000 0.98452  0.31503  0.11362  Biso   1.000  H
  H182     1.0000 0.98451  0.31503  0.11358  Biso   1.000  H
  H183     1.0000 0.25142  0.78747  0.18300  Biso   1.000  H
  N119     1.0000 0.23960  0.80877  0.09841  Biso   1.000  N
  H184     1.0000 0.25679  0.89802  0.16602  Biso   1.000  H
  N120     1.0000 0.23959  0.80877  0.09837  Biso   1.000  N
  H185     1.0000 0.25678  0.89802  0.16598  Biso   1.000  H
  C183     1.0000 0.39247  0.95402  0.05050  Biso   1.000  C
  O59      1.0000 0.58680  0.89472  0.04527  Biso   1.000  O
  O60      1.0000 0.58679  0.89472  0.04523  Biso   1.000  O
  O61      1.0000 0.88583  0.53752  0.00540  Biso   1.000  O
  O62      1.0000 0.88576  0.53752  0.00540  Biso   1.000  O
  N121     1.0000 0.79221  0.16678  0.04506  Biso   1.000  N
  H186     1.0000 0.90289  0.15140  0.10779  Biso   1.000  H
  H187     1.0000 0.80382  0.14467  0.12991  Biso   1.000  H
  C184     1.0000 0.92779  0.33231  0.99879  Biso   1.000  C
  C185     1.0000 0.92778  0.33231  0.99875  Biso   1.000  C
  C186     1.0000 0.22901  0.87979  0.05266  Biso   1.000  C
  C187     1.0000 0.18651  0.72699  0.08346  Biso   1.000  C
  N122     1.0000 0.31310  0.89370  0.02545  Biso   1.000  N
  H188     1.0000 0.42788  0.97460  0.02022  Biso   1.000  H
  H189     1.0000 0.42787  0.97460  0.02017  Biso   1.000  H
  H190     1.0000 0.36750  0.01237  0.06662  Biso   1.000  H
  H191     1.0000 0.36749  0.01237  0.06657  Biso   1.000  H
  C188     1.0000 0.84338  0.16780  0.99572  Biso   1.000  C
  C189     1.0000 0.70273  0.13002  0.03236  Biso   1.000  C
  C190     1.0000 0.70272  0.13002  0.03231  Biso   1.000  C
  H192     1.0000 0.98641  0.29651  0.01119  Biso   1.000  H
  N123     1.0000 0.85586  0.26488  0.97261  Biso   1.000  N
  H193     1.0000 0.94058  0.37960  0.97002  Biso   1.000  H
  H194     1.0000 0.94057  0.37960  0.96998  Biso   1.000  H
  C191     1.0000 0.15669  0.83220  0.00428  Biso   1.000  C
  H195     1.0000 0.20489  0.94224  0.06532  Biso   1.000  H
  H196     1.0000 0.20488  0.94224  0.06528  Biso   1.000  H
  N124     1.0000 0.14421  0.73512  0.02739  Biso   1.000  N
  O63      1.0000 0.17753  0.65722  0.11535  Biso   1.000  O
  O64      1.0000 0.17746  0.65722  0.11535  Biso   1.000  O
  C192     1.0000 0.29734  0.86998  0.96764  Biso   1.000  C
  H197     1.0000 0.90359  0.13142  0.00311  Biso   1.000  H
  C193     1.0000 0.77106  0.12021  0.94734  Biso   1.000  C
  N125     1.0000 0.68697  0.10630  0.97455  Biso   1.000  N
  O65      1.0000 0.64501  0.11831  0.06575  Biso   1.000  O
  O66      1.0000 0.64500  0.11831  0.06571  Biso   1.000  O
  C194     1.0000 0.81356  0.27301  0.91654  Biso   1.000  C
  N126     1.0000 0.20786  0.83322  0.95494  Biso   1.000  N
  H198     1.0000 0.09648  0.86858  0.99689  Biso   1.000  H
  C195     1.0000 0.07228  0.66769  0.00121  Biso   1.000  C
  O67      1.0000 0.35506  0.88169  0.93425  Biso   1.000  O
  N127     1.0000 0.76047  0.19123  0.90159  Biso   1.000  N
  H199     1.0000 0.79518  0.05776  0.93468  Biso   1.000  H
  C196     1.0000 0.60760  0.04598  0.94950  Biso   1.000  C
  C197     1.0000 0.60752  0.04598  0.94945  Biso   1.000  C
  O68      1.0000 0.82254  0.34278  0.88465  Biso   1.000  O
  O69      1.0000 0.82253  0.34278  0.88461  Biso   1.000  O
  C198     1.0000 0.16066  0.81997  0.89593  Biso   1.000  C
  C199     1.0000 0.16065  0.81997  0.89589  Biso   1.000  C
  H200     1.0000 0.05949  0.62040  0.02998  Biso   1.000  H
  N128     1.0000 0.09946  0.61513  0.95161  Biso   1.000  N
  H201     1.0000 0.01366  0.70349  0.98881  Biso   1.000  H
  C200     1.0000 0.72217  0.16729  0.84249  Biso   1.000  C
  C201     1.0000 0.72216  0.16729  0.84245  Biso   1.000  C
  H202     1.0000 0.63257  0.98763  0.93338  Biso   1.000  H
  N129     1.0000 0.54254  0.09437  0.90470  Biso   1.000  N
  H203     1.0000 0.57219  0.02540  0.97978  Biso   1.000  H
  N130     1.0000 0.54253  0.09437  0.90466  Biso   1.000  N
  H204     1.0000 0.57212  0.02540  0.97978  Biso   1.000  H
  N131     1.0000 0.15225  0.71967  0.87822  Biso   1.000  N
  H205     1.0000 0.09718  0.84860  0.89221  Biso   1.000  H
  H206     1.0000 0.19625  0.85533  0.87009  Biso   1.000  H
  H207     1.0000 0.09717  0.84860  0.89217  Biso   1.000  H
  C202     1.0000 0.07933  0.65510  0.89390  Biso   1.000  C
  C203     1.0000 0.10549  0.51526  0.95196  Biso   1.000  C
  N132     1.0000 0.61953  0.17088  0.82983  Biso   1.000  N
  H208     1.0000 0.74328  0.10198  0.83398  Biso   1.000  H
  H209     1.0000 0.74865  0.21253  0.81700  Biso   1.000  H
  H210     1.0000 0.74321  0.10198  0.83398  Biso   1.000  H
  C204     1.0000 0.44774  0.10652  0.91001  Biso   1.000  C
  C205     1.0000 0.55687  0.09327  0.84465  Biso   1.000  C
  C206     1.0000 0.20247  0.67992  0.83851  Biso   1.000  C
  H211     1.0000 0.01555  0.68497  0.88638  Biso   1.000  H
  C207     1.0000 0.08692  0.56454  0.85528  Biso   1.000  C
  N133     1.0000 0.10045  0.48408  0.89571  Biso   1.000  N
  O70      1.0000 0.11424  0.46248  0.99460  Biso   1.000  O
  C208     1.0000 0.56956  0.24197  0.79769  Biso   1.000  C
  N134     1.0000 0.39817  0.12087  0.85657  Biso   1.000  N
  O71      1.0000 0.41327  0.10528  0.95473  Biso   1.000  O
  C209     1.0000 0.45854  0.12021  0.81216  Biso   1.000  C
  H212     1.0000 0.57788  0.02877  0.83311  Biso   1.000  H
  H213     1.0000 0.57787  0.02877  0.83307  Biso   1.000  H
  N135     1.0000 0.17167  0.58562  0.82845  Biso   1.000  N
  O72      1.0000 0.26474  0.72077  0.81609  Biso   1.000  O
  H214     1.0000 0.02964  0.55590  0.82650  Biso   1.000  H
  C210     1.0000 0.07999  0.38451  0.87822  Biso   1.000  C
  C211     1.0000 0.07991  0.38451  0.87817  Biso   1.000  C
  N136     1.0000 0.47466  0.21707  0.78914  Biso   1.000  N
  O73      1.0000 0.60424  0.31547  0.77907  Biso   1.000  O
  C212     1.0000 0.29548  0.11699  0.84543  Biso   1.000  C
  H215     1.0000 0.43646  0.07307  0.78149  Biso   1.000  H
  C213     1.0000 0.19135  0.53401  0.77743  Biso   1.000  C
  H216     1.0000 0.02263  0.38341  0.84970  Biso   1.000  H
  H217     1.0000 0.06683  0.34732  0.91148  Biso   1.000  H
  N137     1.0000 0.15652  0.33729  0.85424  Biso   1.000  N
  C214     1.0000 0.40448  0.26598  0.74883  Biso   1.000  C
  N138     1.0000 0.25015  0.21239  0.83843  Biso   1.000  N
  H218     1.0000 0.27612  0.07892  0.81061  Biso   1.000  H
  H219     1.0000 0.27246  0.08317  0.87718  Biso   1.000  H
  N139     1.0000 0.23392  0.43912  0.78961  Biso   1.000  N
  H220     1.0000 0.23393  0.57347  0.75812  Biso   1.000  H
  H221     1.0000 0.13198  0.52610  0.75112  Biso   1.000  H
  H222     1.0000 0.23392  0.57347  0.75807  Biso   1.000  H
  H223     1.0000 0.13190  0.52610  0.75108  Biso   1.000  H
  C215     1.0000 0.19598  0.25082  0.87645  Biso   1.000  C
  C216     1.0000 0.17585  0.35413  0.79579  Biso   1.000  C
  C217     1.0000 0.17584  0.35413  0.79575  Biso   1.000  C
  N140     1.0000 0.33006  0.31562  0.77566  Biso   1.000  N
  H224     1.0000 0.43628  0.31393  0.72770  Biso   1.000  H
  H225     1.0000 0.37415  0.21839  0.72118  Biso   1.000  H
  H226     1.0000 0.43620  0.31393  0.72770  Biso   1.000  H
  C218     1.0000 0.24278  0.26781  0.78564  Biso   1.000  C
  C219     1.0000 0.24271  0.26781  0.78564  Biso   1.000  C
  C220     1.0000 0.32032  0.41511  0.77376  Biso   1.000  C
  O74      1.0000 0.18456  0.21554  0.92280  Biso   1.000  O
  O75      1.0000 0.18455  0.21554  0.92276  Biso   1.000  O
  H227     1.0000 0.11697  0.35413  0.76771  Biso   1.000  H
  H228     1.0000 0.21544  0.22820  0.75229  Biso   1.000  H
  O76      1.0000 0.37945  0.47353  0.76071  Biso   1.000  O
