data_image0
_cell_length_a       28.304
_cell_length_b       28.304
_cell_length_c       22.126
_cell_angle_alpha    90
_cell_angle_beta     90
_cell_angle_gamma    90

_symmetry_space_group_name_H-M    "P 1"
_symmetry_int_tables_number       1

loop_
  _symmetry_equiv_pos_as_xyz
  'x, y, z'

loop_
  _atom_site_label
  _atom_site_occupancy
  _atom_site_fract_x
  _atom_site_fract_y
  _atom_site_fract_z
  _atom_site_thermal_displace_type
  _atom_site_B_iso_or_equiv
  _atom_site_type_symbol
  C1       1.0000 0.37942  0.34734  0.53941  Biso   1.000  C
  N1       1.0000 0.33204  0.36355  0.54922  Biso   1.000  N
  N2       1.0000 0.38479  0.29632  0.54709  Biso   1.000  N
  H1       1.0000 0.38910  0.35589  0.49878  Biso   1.000  H
  H2       1.0000 0.40040  0.36341  0.56739  Biso   1.000  H
  C2       1.0000 0.29618  0.36285  0.50321  Biso   1.000  C
  C3       1.0000 0.32084  0.39528  0.59423  Biso   1.000  C
  C4       1.0000 0.37235  0.26251  0.50131  Biso   1.000  C
  C5       1.0000 0.41238  0.27667  0.59238  Biso   1.000  C
  N3       1.0000 0.27046  0.31766  0.50036  Biso   1.000  N
  H3       1.0000 0.30868  0.37210  0.46362  Biso   1.000  H
  C6       1.0000 0.25798  0.39729  0.52567  Biso   1.000  C
  N4       1.0000 0.27713  0.41298  0.58379  Biso   1.000  N
  O1       1.0000 0.34677  0.40521  0.63550  Biso   1.000  O
  N5       1.0000 0.32282  0.25060  0.49846  Biso   1.000  N
  H4       1.0000 0.38450  0.27191  0.46158  Biso   1.000  H
  C7       1.0000 0.39570  0.21562  0.52368  Biso   1.000  C
  N6       1.0000 0.41722  0.23106  0.58153  Biso   1.000  N
  O2       1.0000 0.42997  0.29858  0.63482  Biso   1.000  O
  C8       1.0000 0.28908  0.27816  0.46719  Biso   1.000  C
  C9       1.0000 0.22361  0.32352  0.51315  Biso   1.000  C
  N7       1.0000 0.21608  0.36892  0.53096  Biso   1.000  N
  H5       1.0000 0.25350  0.42379  0.49770  Biso   1.000  H
  C10      1.0000 0.25897  0.45432  0.61412  Biso   1.000  C
  C11      1.0000 0.31473  0.20396  0.51293  Biso   1.000  C
  N8       1.0000 0.35620  0.18443  0.53042  Biso   1.000  N
  H6       1.0000 0.41920  0.20340  0.49521  Biso   1.000  H
  C12      1.0000 0.45057  0.20124  0.61272  Biso   1.000  C
  H7       1.0000 0.30349  0.28989  0.43031  Biso   1.000  H
  H8       1.0000 0.26300  0.25791  0.45562  Biso   1.000  H
  O3       1.0000 0.19379  0.29233  0.50922  Biso   1.000  O
  C13      1.0000 0.16835  0.38793  0.53448  Biso   1.000  C
  H9       1.0000 0.28332  0.46690  0.64038  Biso   1.000  H
  H10      1.0000 0.25159  0.47820  0.58420  Biso   1.000  H
  N9       1.0000 0.21704  0.44464  0.64960  Biso   1.000  N
  O4       1.0000 0.27682  0.18457  0.51003  Biso   1.000  O
  C14      1.0000 0.36253  0.13369  0.53304  Biso   1.000  C
  H11      1.0000 0.46962  0.22060  0.63952  Biso   1.000  H
  H12      1.0000 0.47159  0.18679  0.58330  Biso   1.000  H
  N10      1.0000 0.42761  0.16386  0.64815  Biso   1.000  N
  H13      1.0000 0.14620  0.36419  0.52052  Biso   1.000  H
  H14      1.0000 0.16581  0.41510  0.50791  Biso   1.000  H
  N11      1.0000 0.15577  0.40199  0.59568  Biso   1.000  N
  C15      1.0000 0.17033  0.44577  0.62244  Biso   1.000  C
  C16      1.0000 0.21580  0.45025  0.71102  Biso   1.000  C
  H15      1.0000 0.38899  0.12521  0.50732  Biso   1.000  H
  H16      1.0000 0.33451  0.11871  0.51659  Biso   1.000  H
  N12      1.0000 0.37104  0.11493  0.59315  Biso   1.000  N
  C17      1.0000 0.41687  0.11839  0.62153  Biso   1.000  C
  C18      1.0000 0.43344  0.16121  0.70930  Biso   1.000  C
  C19      1.0000 0.11938  0.38101  0.62578  Biso   1.000  C
  H17      1.0000 0.16669  0.47241  0.59450  Biso   1.000  H
  C20      1.0000 0.13737  0.45033  0.67807  Biso   1.000  C
  N13      1.0000 0.17026  0.45195  0.72874  Biso   1.000  N
  O5       1.0000 0.25039  0.45308  0.74360  Biso   1.000  O
  C21      1.0000 0.34168  0.08607  0.62262  Biso   1.000  C
  C22      1.0000 0.41118  0.08607  0.67803  Biso   1.000  C
  H18      1.0000 0.44220  0.10741  0.59482  Biso   1.000  H
  N14      1.0000 0.42146  0.11638  0.72788  Biso   1.000  N
  O6       1.0000 0.44838  0.19312  0.74220  Biso   1.000  O
  N15      1.0000 0.10900  0.40768  0.67522  Biso   1.000  N
  O7       1.0000 0.09963  0.34476  0.61091  Biso   1.000  O
  H19      1.0000 0.11779  0.47880  0.67599  Biso   1.000  H
  C23      1.0000 0.15676  0.46700  0.78930  Biso   1.000  C
  N16      1.0000 0.36225  0.07119  0.67382  Biso   1.000  N
  O8       1.0000 0.30187  0.07398  0.60449  Biso   1.000  O
  H20      1.0000 0.43280  0.05900  0.67658  Biso   1.000  H
  C24      1.0000 0.43238  0.09910  0.78785  Biso   1.000  C
  C25      1.0000 0.06762  0.40090  0.71215  Biso   1.000  C
  H21      1.0000 0.13320  0.49180  0.78609  Biso   1.000  H
  H22      1.0000 0.18421  0.48021  0.80941  Biso   1.000  H
  N17      1.0000 0.13775  0.42881  0.82618  Biso   1.000  N
  C26      1.0000 0.34324  0.03300  0.71070  Biso   1.000  C
  H23      1.0000 0.44909  0.06928  0.78442  Biso   1.000  H
  H24      1.0000 0.45319  0.12140  0.80769  Biso   1.000  H
  N18      1.0000 0.39100  0.09232  0.82478  Biso   1.000  N
  H25      1.0000 0.05091  0.43072  0.71558  Biso   1.000  H
  H26      1.0000 0.04681  0.37860  0.69231  Biso   1.000  H
  N19      1.0000 0.07854  0.38362  0.77212  Biso   1.000  N
  C27      1.0000 0.08882  0.41393  0.82197  Biso   1.000  C
  C28      1.0000 0.15832  0.41393  0.87738  Biso   1.000  C
  H27      1.0000 0.36680  0.00820  0.71391  Biso   1.000  H
  H28      1.0000 0.31579  0.01979  0.69059  Biso   1.000  H
  N20      1.0000 0.32974  0.04805  0.77126  Biso   1.000  N
  C29      1.0000 0.36263  0.04967  0.82193  Biso   1.000  C
  C30      1.0000 0.38062  0.11899  0.87422  Biso   1.000  C
  C31      1.0000 0.06656  0.33879  0.79070  Biso   1.000  C
  H29      1.0000 0.06720  0.44100  0.82342  Biso   1.000  H
  C32      1.0000 0.08313  0.38161  0.87847  Biso   1.000  C
  N21      1.0000 0.12896  0.38507  0.90685  Biso   1.000  N
  O9       1.0000 0.19813  0.42602  0.89551  Biso   1.000  O
  C33      1.0000 0.28420  0.04975  0.78898  Biso   1.000  C
  C34      1.0000 0.32967  0.05423  0.87756  Biso   1.000  C
  H30      1.0000 0.38221  0.02120  0.82401  Biso   1.000  H
  N22      1.0000 0.34423  0.09801  0.90432  Biso   1.000  N
  O10      1.0000 0.40037  0.15524  0.88909  Biso   1.000  O
  N23      1.0000 0.07239  0.33614  0.85185  Biso   1.000  N
  O11      1.0000 0.05162  0.30688  0.75780  Biso   1.000  O
  H31      1.0000 0.05780  0.39259  0.90518  Biso   1.000  H
  C35      1.0000 0.13747  0.36631  0.96696  Biso   1.000  C
  N24      1.0000 0.28296  0.05536  0.85040  Biso   1.000  N
  O12      1.0000 0.24961  0.04692  0.75640  Biso   1.000  O
  H32      1.0000 0.33331  0.02759  0.90550  Biso   1.000  H
  C36      1.0000 0.33165  0.11207  0.96552  Biso   1.000  C
  C37      1.0000 0.04943  0.29876  0.88728  Biso   1.000  C
  H33      1.0000 0.11101  0.37479  0.99268  Biso   1.000  H
  H34      1.0000 0.16549  0.38129  0.98341  Biso   1.000  H
  N25      1.0000 0.14380  0.31557  0.96958  Biso   1.000  N
  C38      1.0000 0.24103  0.04568  0.88588  Biso   1.000  C
  H35      1.0000 0.35380  0.13581  0.97948  Biso   1.000  H
  H36      1.0000 0.33419  0.08490  0.99209  Biso   1.000  H
  N26      1.0000 0.28392  0.13108  0.96904  Biso   1.000  N
  H37      1.0000 0.03038  0.27940  0.86048  Biso   1.000  H
  H38      1.0000 0.02841  0.31321  0.91670  Biso   1.000  H
  N27      1.0000 0.08278  0.26894  0.91847  Biso   1.000  N
  C39      1.0000 0.10430  0.28438  0.97632  Biso   1.000  C
  C40      1.0000 0.18527  0.29604  0.98707  Biso   1.000  C
  H39      1.0000 0.21668  0.03310  0.85962  Biso   1.000  H
  H40      1.0000 0.24841  0.02180  0.91580  Biso   1.000  H
  N28      1.0000 0.22287  0.08702  0.91621  Biso   1.000  N
  C41      1.0000 0.24202  0.10271  0.97433  Biso   1.000  C
  C42      1.0000 0.27639  0.17648  0.98685  Biso   1.000  C
  C43      1.0000 0.08762  0.22333  0.90762  Biso   1.000  C
  C44      1.0000 0.12765  0.23749  0.99869  Biso   1.000  C
  H41      1.0000 0.08080  0.29660  0.00479  Biso   1.000  H
  O13      1.0000 0.22318  0.31543  0.98997  Biso   1.000  O
  N29      1.0000 0.17718  0.24940  0.00154  Biso   1.000  N
  C45      1.0000 0.17916  0.10472  0.90577  Biso   1.000  C
  C46      1.0000 0.20382  0.13715  0.99679  Biso   1.000  C
  H42      1.0000 0.24650  0.07621  0.00230  Biso   1.000  H
  N30      1.0000 0.22954  0.18234  0.99964  Biso   1.000  N
  O14      1.0000 0.30621  0.20767  0.99078  Biso   1.000  O
  N31      1.0000 0.11521  0.20368  0.95291  Biso   1.000  N
  O15      1.0000 0.07003  0.20142  0.86518  Biso   1.000  O
  H43      1.0000 0.11550  0.22809  0.03842  Biso   1.000  H
  C47      1.0000 0.21092  0.22184  0.03281  Biso   1.000  C
  N32      1.0000 0.16796  0.13645  0.95078  Biso   1.000  N
  O16      1.0000 0.15323  0.09479  0.86450  Biso   1.000  O
  H44      1.0000 0.19132  0.12790  0.03638  Biso   1.000  H
  C48      1.0000 0.12058  0.15266  0.96059  Biso   1.000  C
  H45      1.0000 0.19651  0.21011  0.06969  Biso   1.000  H
  H46      1.0000 0.23700  0.24209  0.04438  Biso   1.000  H
  H47      1.0000 0.09960  0.13659  0.93261  Biso   1.000  H
  H48      1.0000 0.11090  0.14411  0.00122  Biso   1.000  H
  C49      1.0000 0.45396  0.43527  0.23705  Biso   1.000  C
  N33      1.0000 0.43443  0.39380  0.21961  Biso   1.000  N
  N34      1.0000 0.50060  0.42718  0.25151  Biso   1.000  N
  O17      1.0000 0.43457  0.47318  0.23994  Biso   1.000  O
  C50      1.0000 0.38369  0.38747  0.21694  Biso   1.000  C
  C51      1.0000 0.46562  0.35430  0.22629  Biso   1.000  C
  C52      1.0000 0.51251  0.37765  0.24871  Biso   1.000  C
  C53      1.0000 0.52816  0.46092  0.28279  Biso   1.000  C
  N35      1.0000 0.36493  0.37896  0.15683  Biso   1.000  N
  H49      1.0000 0.37521  0.36101  0.24270  Biso   1.000  H
  H50      1.0000 0.36871  0.41549  0.23339  Biso   1.000  H
  N36      1.0000 0.48106  0.33278  0.16849  Biso   1.000  N
  H51      1.0000 0.45340  0.33080  0.25481  Biso   1.000  H
  N37      1.0000 0.54632  0.36521  0.20293  Biso   1.000  N
  H52      1.0000 0.52191  0.36550  0.28839  Biso   1.000  H
  H53      1.0000 0.53989  0.44651  0.31971  Biso   1.000  H
  H54      1.0000 0.50791  0.48700  0.29440  Biso   1.000  H
  N38      1.0000 0.56766  0.47954  0.24966  Biso   1.000  N
  C54      1.0000 0.36839  0.33313  0.12845  Biso   1.000  C
  C55      1.0000 0.33607  0.40832  0.12736  Biso   1.000  C
  C56      1.0000 0.45124  0.29943  0.13730  Biso   1.000  C
  C57      1.0000 0.52667  0.33762  0.15760  Biso   1.000  C
  C58      1.0000 0.59734  0.37058  0.21061  Biso   1.000  C
  C59      1.0000 0.61285  0.45382  0.24681  Biso   1.000  C
  C60      1.0000 0.57352  0.52639  0.23687  Biso   1.000  C
  C61      1.0000 0.33607  0.33882  0.07195  Biso   1.000  C
  H55      1.0000 0.35741  0.30780  0.15520  Biso   1.000  H
  N39      1.0000 0.41386  0.32239  0.10187  Biso   1.000  N
  N40      1.0000 0.32119  0.38775  0.07620  Biso   1.000  N
  O18      1.0000 0.32398  0.44813  0.14548  Biso   1.000  O
  H56      1.0000 0.47060  0.28038  0.11050  Biso   1.000  H
  H57      1.0000 0.43679  0.27841  0.16668  Biso   1.000  H
  O19      1.0000 0.54858  0.32003  0.11516  Biso   1.000  O
  H58      1.0000 0.60589  0.36090  0.25120  Biso   1.000  H
  H59      1.0000 0.61341  0.34960  0.18259  Biso   1.000  H
  N41      1.0000 0.61355  0.41796  0.20076  Biso   1.000  N
  H60      1.0000 0.62210  0.44132  0.28641  Biso   1.000  H
  C62      1.0000 0.64729  0.49202  0.22431  Biso   1.000  C
  N42      1.0000 0.61892  0.53392  0.21906  Biso   1.000  N
  O20      1.0000 0.54233  0.55621  0.24080  Biso   1.000  O
  H61      1.0000 0.30900  0.31720  0.07340  Biso   1.000  H
  N43      1.0000 0.36638  0.32854  0.02210  Biso   1.000  N
  C63      1.0000 0.41121  0.31656  0.04072  Biso   1.000  C
  C64      1.0000 0.28300  0.40676  0.03932  Biso   1.000  C
  C65      1.0000 0.64528  0.42916  0.15579  Biso   1.000  C
  N44      1.0000 0.66298  0.47287  0.16623  Biso   1.000  N
  H62      1.0000 0.67379  0.49650  0.25228  Biso   1.000  H
  C66      1.0000 0.63793  0.58165  0.21549  Biso   1.000  C
  C67      1.0000 0.34910  0.31762  0.96217  Biso   1.000  C
  O21      1.0000 0.44312  0.30162  0.00782  Biso   1.000  O
  H63      1.0000 0.25820  0.38320  0.03611  Biso   1.000  H
  H64      1.0000 0.26979  0.43421  0.05939  Biso   1.000  H
  N45      1.0000 0.29805  0.42026  0.97876  Biso   1.000  N
  O22      1.0000 0.65521  0.40323  0.11448  Biso   1.000  O
  C68      1.0000 0.70432  0.49103  0.13590  Biso   1.000  C
  H65      1.0000 0.61419  0.60380  0.22950  Biso   1.000  H
  H66      1.0000 0.66510  0.58419  0.24211  Biso   1.000  H
  N46      1.0000 0.65199  0.59423  0.15430  Biso   1.000  N
  H67      1.0000 0.31928  0.30091  0.96561  Biso   1.000  H
  H68      1.0000 0.37140  0.29681  0.94229  Biso   1.000  H
  N47      1.0000 0.34232  0.35900  0.92525  Biso   1.000  N
  C69      1.0000 0.29967  0.38737  0.92809  Biso   1.000  C
  C70      1.0000 0.29975  0.46580  0.96104  Biso   1.000  C
  H69      1.0000 0.71690  0.46668  0.10960  Biso   1.000  H
  H70      1.0000 0.72820  0.49841  0.16578  Biso   1.000  H
  N48      1.0000 0.69464  0.53296  0.10042  Biso   1.000  N
  C71      1.0000 0.69577  0.57967  0.12759  Biso   1.000  C
  C72      1.0000 0.63101  0.63062  0.12420  Biso   1.000  C
  C73      1.0000 0.36899  0.36938  0.87580  Biso   1.000  C
  C74      1.0000 0.30423  0.42033  0.87241  Biso   1.000  C
  H71      1.0000 0.27120  0.36779  0.92601  Biso   1.000  H
  N49      1.0000 0.30536  0.46704  0.89958  Biso   1.000  N
  O23      1.0000 0.29692  0.50039  0.99358  Biso   1.000  O
  C75      1.0000 0.70025  0.53420  0.03896  Biso   1.000  C
  H72      1.0000 0.72241  0.58331  0.15552  Biso   1.000  H
  C76      1.0000 0.70033  0.61263  0.07191  Biso   1.000  C
  N50      1.0000 0.65768  0.64100  0.07475  Biso   1.000  N
  O24      1.0000 0.59476  0.65037  0.13911  Biso   1.000  O
  N51      1.0000 0.34801  0.40577  0.84570  Biso   1.000  N
  O25      1.0000 0.40524  0.34963  0.86089  Biso   1.000  O
  H73      1.0000 0.27759  0.41669  0.84448  Biso   1.000  H
  C77      1.0000 0.29568  0.50897  0.86410  Biso   1.000  C
  N52      1.0000 0.70195  0.57974  0.02124  Biso   1.000  N
  O26      1.0000 0.70308  0.49961  0.00642  Biso   1.000  O
  H74      1.0000 0.72880  0.63221  0.07399  Biso   1.000  H
  C78      1.0000 0.65090  0.68238  0.03783  Biso   1.000  C
  C79      1.0000 0.36207  0.41835  0.78451  Biso   1.000  C
  H75      1.0000 0.28310  0.53332  0.89040  Biso   1.000  H
  H76      1.0000 0.27180  0.50159  0.83422  Biso   1.000  H
  N53      1.0000 0.33702  0.52713  0.83377  Biso   1.000  N
  C80      1.0000 0.71700  0.59324  0.96068  Biso   1.000  C
  H77      1.0000 0.68072  0.69909  0.03439  Biso   1.000  H
  H78      1.0000 0.62860  0.70319  0.05771  Biso   1.000  H
  N54      1.0000 0.63362  0.67146  0.97790  Biso   1.000  N
  H79      1.0000 0.38581  0.39620  0.77050  Biso   1.000  H
  H80      1.0000 0.33490  0.41581  0.75789  Biso   1.000  H
  N55      1.0000 0.38108  0.46608  0.78094  Biso   1.000  N
  C81      1.0000 0.35271  0.50798  0.77569  Biso   1.000  C
  C82      1.0000 0.35472  0.57084  0.84421  Biso   1.000  C
  H81      1.0000 0.74180  0.61680  0.96389  Biso   1.000  H
  H82      1.0000 0.73021  0.56579  0.94061  Biso   1.000  H
  N56      1.0000 0.67881  0.61225  0.92380  Biso   1.000  N
  C83      1.0000 0.66393  0.66118  0.92805  Biso   1.000  C
  C84      1.0000 0.58879  0.68344  0.95928  Biso   1.000  C
  C85      1.0000 0.42648  0.47361  0.76313  Biso   1.000  C
  C86      1.0000 0.38715  0.54618  0.75319  Biso   1.000  C
  H83      1.0000 0.32621  0.50350  0.74772  Biso   1.000  H
  N57      1.0000 0.38645  0.58204  0.79924  Biso   1.000  N
  O27      1.0000 0.34479  0.59677  0.88552  Biso   1.000  O
  C87      1.0000 0.66393  0.59168  0.87264  Biso   1.000  C
  C88      1.0000 0.63161  0.66687  0.87155  Biso   1.000  C
  H84      1.0000 0.69100  0.68280  0.92660  Biso   1.000  H
  N58      1.0000 0.58614  0.67761  0.89813  Biso   1.000  N
  O28      1.0000 0.55688  0.69838  0.99218  Biso   1.000  O
  N59      1.0000 0.43234  0.52046  0.75034  Biso   1.000  N
  O29      1.0000 0.45767  0.44379  0.75920  Biso   1.000  O
  H85      1.0000 0.37790  0.55868  0.71359  Biso   1.000  H
  C89      1.0000 0.40266  0.62942  0.78939  Biso   1.000  C
  N60      1.0000 0.63507  0.62104  0.84317  Biso   1.000  N
  O30      1.0000 0.67602  0.55187  0.85452  Biso   1.000  O
  H86      1.0000 0.64259  0.69220  0.84480  Biso   1.000  H
  C90      1.0000 0.54876  0.70057  0.86270  Biso   1.000  C
  C91      1.0000 0.47184  0.53908  0.71721  Biso   1.000  C
  H87      1.0000 0.39411  0.63910  0.74880  Biso   1.000  H
  H88      1.0000 0.38659  0.65040  0.81741  Biso   1.000  H
  N61      1.0000 0.45368  0.63479  0.79707  Biso   1.000  N
  C92      1.0000 0.61631  0.61253  0.78306  Biso   1.000  C
  N62      1.0000 0.51894  0.66722  0.83151  Biso   1.000  N
  H89      1.0000 0.52940  0.71962  0.88950  Biso   1.000  H
  H90      1.0000 0.56321  0.72159  0.83332  Biso   1.000  H
  H91      1.0000 0.46011  0.55349  0.68029  Biso   1.000  H
  H92      1.0000 0.49209  0.51300  0.70560  Biso   1.000  H
  N63      1.0000 0.49940  0.57282  0.74849  Biso   1.000  N
  C93      1.0000 0.48749  0.62235  0.75129  Biso   1.000  C
  C94      1.0000 0.47333  0.66238  0.84240  Biso   1.000  C
  N64      1.0000 0.56557  0.60620  0.78039  Biso   1.000  N
  H93      1.0000 0.62479  0.63899  0.75730  Biso   1.000  H
  H94      1.0000 0.63129  0.58451  0.76661  Biso   1.000  H
  C95      1.0000 0.53438  0.64570  0.77371  Biso   1.000  C
  C96      1.0000 0.54604  0.56473  0.76295  Biso   1.000  C
  H95      1.0000 0.47809  0.63450  0.71161  Biso   1.000  H
  O31      1.0000 0.45142  0.67997  0.88484  Biso   1.000  O
  H96      1.0000 0.54660  0.66920  0.74519  Biso   1.000  H
  O32      1.0000 0.56543  0.52682  0.76006  Biso   1.000  O
  C97      1.0000 0.34324  0.53300  0.28930  Biso   1.000  C
  H97      1.0000 0.36680  0.50820  0.28609  Biso   1.000  H
  H98      1.0000 0.31579  0.51979  0.30941  Biso   1.000  H
  N65      1.0000 0.32974  0.54805  0.22874  Biso   1.000  N
  N66      1.0000 0.36225  0.57119  0.32618  Biso   1.000  N
  C98      1.0000 0.36263  0.54967  0.17807  Biso   1.000  C
  C99      1.0000 0.28420  0.54975  0.21102  Biso   1.000  C
  C100     1.0000 0.41118  0.58607  0.32197  Biso   1.000  C
  C101     1.0000 0.34168  0.58607  0.37738  Biso   1.000  C
  C102     1.0000 0.32967  0.55423  0.12244  Biso   1.000  C
  H99      1.0000 0.38221  0.52120  0.17599  Biso   1.000  H
  N67      1.0000 0.39100  0.59232  0.17522  Biso   1.000  N
  N68      1.0000 0.28296  0.55536  0.14960  Biso   1.000  N
  O33      1.0000 0.24961  0.54692  0.24360  Biso   1.000  O
  H100     1.0000 0.43280  0.55900  0.32342  Biso   1.000  H
  C103     1.0000 0.41687  0.61839  0.37847  Biso   1.000  C
  N69      1.0000 0.42146  0.61638  0.27212  Biso   1.000  N
  N70      1.0000 0.37104  0.61493  0.40685  Biso   1.000  N
  O34      1.0000 0.30187  0.57398  0.39551  Biso   1.000  O
  H101     1.0000 0.33331  0.52759  0.09450  Biso   1.000  H
  N71      1.0000 0.34423  0.59801  0.09568  Biso   1.000  N
  C104     1.0000 0.38062  0.61899  0.12578  Biso   1.000  C
  C105     1.0000 0.43238  0.59910  0.21215  Biso   1.000  C
  C106     1.0000 0.24103  0.54568  0.11412  Biso   1.000  C
  H102     1.0000 0.44220  0.60741  0.40518  Biso   1.000  H
  N72      1.0000 0.42761  0.66386  0.35185  Biso   1.000  N
  C107     1.0000 0.43344  0.66121  0.29070  Biso   1.000  C
  C108     1.0000 0.36253  0.63369  0.46696  Biso   1.000  C
  C109     1.0000 0.33165  0.61207  0.03448  Biso   1.000  C
  O35      1.0000 0.40037  0.65524  0.11091  Biso   1.000  O
  H103     1.0000 0.44909  0.56928  0.21558  Biso   1.000  H
  H104     1.0000 0.45319  0.62140  0.19231  Biso   1.000  H
  H105     1.0000 0.21668  0.53310  0.14038  Biso   1.000  H
  H106     1.0000 0.24841  0.52180  0.08420  Biso   1.000  H
  N73      1.0000 0.22287  0.58702  0.08379  Biso   1.000  N
  C110     1.0000 0.45057  0.70124  0.38728  Biso   1.000  C
  O36      1.0000 0.44838  0.69312  0.25780  Biso   1.000  O
  H107     1.0000 0.38899  0.62521  0.49268  Biso   1.000  H
  H108     1.0000 0.33451  0.61871  0.48341  Biso   1.000  H
  N74      1.0000 0.35620  0.68443  0.46958  Biso   1.000  N
  H109     1.0000 0.35380  0.63581  0.02052  Biso   1.000  H
  H110     1.0000 0.33419  0.58490  0.00791  Biso   1.000  H
  N75      1.0000 0.28392  0.63108  0.03096  Biso   1.000  N
  C111     1.0000 0.24202  0.60271  0.02567  Biso   1.000  C
  C112     1.0000 0.17916  0.60472  0.09423  Biso   1.000  C
  H111     1.0000 0.46962  0.72060  0.36048  Biso   1.000  H
  H112     1.0000 0.47159  0.68679  0.41670  Biso   1.000  H
  N76      1.0000 0.41722  0.73106  0.41847  Biso   1.000  N
  C113     1.0000 0.39570  0.71562  0.47632  Biso   1.000  C
  C114     1.0000 0.31473  0.70396  0.48707  Biso   1.000  C
  C115     1.0000 0.27639  0.67648  0.01315  Biso   1.000  C
  C116     1.0000 0.20382  0.63715  0.00321  Biso   1.000  C
  H113     1.0000 0.24650  0.57621  0.99770  Biso   1.000  H
  N77      1.0000 0.16796  0.63645  0.04922  Biso   1.000  N
  O37      1.0000 0.15323  0.59479  0.13550  Biso   1.000  O
  C117     1.0000 0.41238  0.77667  0.40762  Biso   1.000  C
  C118     1.0000 0.37235  0.76251  0.49869  Biso   1.000  C
  H114     1.0000 0.41920  0.70340  0.50479  Biso   1.000  H
  N78      1.0000 0.32282  0.75060  0.50154  Biso   1.000  N
  O38      1.0000 0.27682  0.68457  0.48997  Biso   1.000  O
  N79      1.0000 0.22954  0.68234  0.00036  Biso   1.000  N
  O39      1.0000 0.30621  0.70767  0.00922  Biso   1.000  O
  H115     1.0000 0.19132  0.62790  0.96362  Biso   1.000  H
  C119     1.0000 0.12058  0.65266  0.03941  Biso   1.000  C
  N80      1.0000 0.38479  0.79632  0.45291  Biso   1.000  N
  O40      1.0000 0.42997  0.79858  0.36518  Biso   1.000  O
  H116     1.0000 0.38450  0.77191  0.53842  Biso   1.000  H
  C120     1.0000 0.28908  0.77816  0.53281  Biso   1.000  C
  C121     1.0000 0.21092  0.72184  0.96719  Biso   1.000  C
  H117     1.0000 0.09960  0.63659  0.06739  Biso   1.000  H
  N81      1.0000 0.11521  0.70368  0.04709  Biso   1.000  N
  H118     1.0000 0.11090  0.64411  0.99878  Biso   1.000  H
  C122     1.0000 0.37942  0.84734  0.46059  Biso   1.000  C
  H119     1.0000 0.30349  0.78989  0.56969  Biso   1.000  H
  H120     1.0000 0.26300  0.75791  0.54438  Biso   1.000  H
  N82      1.0000 0.27046  0.81766  0.49964  Biso   1.000  N
  H121     1.0000 0.19651  0.71011  0.93031  Biso   1.000  H
  H122     1.0000 0.23700  0.74209  0.95562  Biso   1.000  H
  N83      1.0000 0.17718  0.74940  0.99846  Biso   1.000  N
  C123     1.0000 0.12765  0.73749  0.00131  Biso   1.000  C
  C124     1.0000 0.08762  0.72333  0.09238  Biso   1.000  C
  H123     1.0000 0.38910  0.85589  0.50122  Biso   1.000  H
  H124     1.0000 0.40040  0.86341  0.43261  Biso   1.000  H
  N84      1.0000 0.33204  0.86355  0.45078  Biso   1.000  N
  C125     1.0000 0.29618  0.86285  0.49679  Biso   1.000  C
  C126     1.0000 0.22361  0.82352  0.48685  Biso   1.000  C
  C127     1.0000 0.18527  0.79604  0.01293  Biso   1.000  C
  C128     1.0000 0.10430  0.78438  0.02368  Biso   1.000  C
  H125     1.0000 0.11550  0.72809  0.96158  Biso   1.000  H
  N85      1.0000 0.08278  0.76894  0.08153  Biso   1.000  N
  O41      1.0000 0.07003  0.70142  0.13482  Biso   1.000  O
  C129     1.0000 0.32084  0.89528  0.40577  Biso   1.000  C
  H126     1.0000 0.30868  0.87210  0.53638  Biso   1.000  H
  C130     1.0000 0.25798  0.89729  0.47433  Biso   1.000  C
  N86      1.0000 0.21608  0.86892  0.46904  Biso   1.000  N
  O42      1.0000 0.19379  0.79233  0.49078  Biso   1.000  O
  N87      1.0000 0.14380  0.81557  0.03042  Biso   1.000  N
  O43      1.0000 0.22318  0.81543  0.01003  Biso   1.000  O
  H127     1.0000 0.08080  0.79660  0.99521  Biso   1.000  H
  C131     1.0000 0.04943  0.79876  0.11272  Biso   1.000  C
  N88      1.0000 0.27713  0.91298  0.41621  Biso   1.000  N
  O44      1.0000 0.34677  0.90521  0.36450  Biso   1.000  O
  H128     1.0000 0.25350  0.92379  0.50230  Biso   1.000  H
  C132     1.0000 0.16835  0.88793  0.46552  Biso   1.000  C
  C133     1.0000 0.13747  0.86631  0.03304  Biso   1.000  C
  H129     1.0000 0.03038  0.77940  0.13952  Biso   1.000  H
  H130     1.0000 0.02841  0.81321  0.08330  Biso   1.000  H
  N89      1.0000 0.07239  0.83614  0.14815  Biso   1.000  N
  C134     1.0000 0.25897  0.95432  0.38588  Biso   1.000  C
  H131     1.0000 0.14620  0.86419  0.47948  Biso   1.000  H
  H132     1.0000 0.16581  0.91510  0.49209  Biso   1.000  H
  N90      1.0000 0.15577  0.90199  0.40432  Biso   1.000  N
  H133     1.0000 0.11101  0.87479  0.00732  Biso   1.000  H
  H134     1.0000 0.16549  0.88129  0.01659  Biso   1.000  H
  N91      1.0000 0.12896  0.88507  0.09315  Biso   1.000  N
  C135     1.0000 0.08313  0.88161  0.12153  Biso   1.000  C
  C136     1.0000 0.06656  0.83879  0.20930  Biso   1.000  C
  H135     1.0000 0.28332  0.96690  0.35962  Biso   1.000  H
  H136     1.0000 0.25159  0.97820  0.41580  Biso   1.000  H
  N92      1.0000 0.21704  0.94464  0.35040  Biso   1.000  N
  C137     1.0000 0.17033  0.94577  0.37756  Biso   1.000  C
  C138     1.0000 0.11938  0.88101  0.37422  Biso   1.000  C
  C139     1.0000 0.15832  0.91393  0.12262  Biso   1.000  C
  C140     1.0000 0.08882  0.91393  0.17803  Biso   1.000  C
  H137     1.0000 0.05780  0.89259  0.09482  Biso   1.000  H
  N93      1.0000 0.07854  0.88362  0.22788  Biso   1.000  N
  O45      1.0000 0.05162  0.80688  0.24220  Biso   1.000  O
  C141     1.0000 0.21580  0.95025  0.28898  Biso   1.000  C
  H138     1.0000 0.16669  0.97241  0.40550  Biso   1.000  H
  C142     1.0000 0.13737  0.95033  0.32193  Biso   1.000  C
  N94      1.0000 0.10900  0.90768  0.32478  Biso   1.000  N
  O46      1.0000 0.09963  0.84476  0.38909  Biso   1.000  O
  N95      1.0000 0.13775  0.92881  0.17382  Biso   1.000  N
  O47      1.0000 0.19813  0.92602  0.10449  Biso   1.000  O
  H139     1.0000 0.06720  0.94100  0.17658  Biso   1.000  H
  C143     1.0000 0.06762  0.90090  0.28785  Biso   1.000  C
  N96      1.0000 0.17026  0.95195  0.27126  Biso   1.000  N
  O48      1.0000 0.25039  0.95308  0.25640  Biso   1.000  O
  H140     1.0000 0.11779  0.97880  0.32401  Biso   1.000  H
  C144     1.0000 0.15676  0.96700  0.21070  Biso   1.000  C
  H141     1.0000 0.05091  0.93072  0.28442  Biso   1.000  H
  H142     1.0000 0.04681  0.87860  0.30769  Biso   1.000  H
  H143     1.0000 0.13320  0.99180  0.21391  Biso   1.000  H
  H144     1.0000 0.18421  0.98021  0.19059  Biso   1.000  H
  C145     1.0000 0.20432  0.49103  0.36410  Biso   1.000  C
  N97      1.0000 0.16298  0.47287  0.33377  Biso   1.000  N
  H145     1.0000 0.21690  0.46668  0.39040  Biso   1.000  H
  H146     1.0000 0.22820  0.49841  0.33422  Biso   1.000  H
  N98      1.0000 0.19464  0.53296  0.39958  Biso   1.000  N
  C146     1.0000 0.14528  0.42916  0.34421  Biso   1.000  C
  C147     1.0000 0.14729  0.49202  0.27569  Biso   1.000  C
  C148     1.0000 0.19577  0.57967  0.37241  Biso   1.000  C
  C149     1.0000 0.20025  0.53420  0.46104  Biso   1.000  C
  N99      1.0000 0.11355  0.41796  0.29924  Biso   1.000  N
  O49      1.0000 0.15521  0.40323  0.38552  Biso   1.000  O
  C150     1.0000 0.11285  0.45382  0.25319  Biso   1.000  C
  H147     1.0000 0.17379  0.49650  0.24772  Biso   1.000  H
  N100     1.0000 0.11892  0.53392  0.28094  Biso   1.000  N
  N101     1.0000 0.15199  0.59423  0.34570  Biso   1.000  N
  H148     1.0000 0.22241  0.58331  0.34448  Biso   1.000  H
  C151     1.0000 0.20033  0.61263  0.42809  Biso   1.000  C
  N102     1.0000 0.20195  0.57974  0.47876  Biso   1.000  N
  O50      1.0000 0.20308  0.49961  0.49358  Biso   1.000  O
  C152     1.0000 0.09734  0.37058  0.28939  Biso   1.000  C
  H149     1.0000 0.12210  0.44132  0.21359  Biso   1.000  H
  N103     1.0000 0.06766  0.47954  0.25034  Biso   1.000  N
  C153     1.0000 0.07352  0.52639  0.26313  Biso   1.000  C
  C154     1.0000 0.13793  0.58165  0.28451  Biso   1.000  C
  C155     1.0000 0.13101  0.63062  0.37580  Biso   1.000  C
  N104     1.0000 0.15768  0.64100  0.42525  Biso   1.000  N
  H150     1.0000 0.22880  0.63221  0.42601  Biso   1.000  H
  C156     1.0000 0.21700  0.59324  0.53932  Biso   1.000  C
  H151     1.0000 0.10589  0.36090  0.24880  Biso   1.000  H
  H152     1.0000 0.11341  0.34960  0.31741  Biso   1.000  H
  N105     1.0000 0.04632  0.36521  0.29707  Biso   1.000  N
  C157     1.0000 0.02816  0.46092  0.21721  Biso   1.000  C
  O51      1.0000 0.04233  0.55621  0.25920  Biso   1.000  O
  H153     1.0000 0.11419  0.60380  0.27050  Biso   1.000  H
  H154     1.0000 0.16510  0.58419  0.25789  Biso   1.000  H
  O52      1.0000 0.09476  0.65037  0.36089  Biso   1.000  O
  C158     1.0000 0.15090  0.68238  0.46217  Biso   1.000  C
  H155     1.0000 0.24180  0.61680  0.53611  Biso   1.000  H
  H156     1.0000 0.23021  0.56579  0.55939  Biso   1.000  H
  N106     1.0000 0.17881  0.61225  0.57620  Biso   1.000  N
  C159     1.0000 0.01251  0.37765  0.25129  Biso   1.000  C
  C160     1.0000 0.02667  0.33762  0.34240  Biso   1.000  C
  N107     1.0000 0.00060  0.42718  0.24849  Biso   1.000  N
  H157     1.0000 0.03989  0.44651  0.18029  Biso   1.000  H
  H158     1.0000 0.00791  0.48700  0.20560  Biso   1.000  H
  H159     1.0000 0.18072  0.69909  0.46561  Biso   1.000  H
  H160     1.0000 0.12860  0.70319  0.44229  Biso   1.000  H
  N108     1.0000 0.13362  0.67146  0.52210  Biso   1.000  N
  C161     1.0000 0.16393  0.66118  0.57195  Biso   1.000  C
  C162     1.0000 0.16393  0.59168  0.62736  Biso   1.000  C
  H161     1.0000 0.02191  0.36550  0.21161  Biso   1.000  H
  C163     1.0000 0.96562  0.35430  0.27371  Biso   1.000  C
  O53      1.0000 0.04858  0.32003  0.38484  Biso   1.000  O
  N109     1.0000 0.98106  0.33278  0.33151  Biso   1.000  N
  C164     1.0000 0.95396  0.43527  0.26295  Biso   1.000  C
  C165     1.0000 0.08879  0.68344  0.54072  Biso   1.000  C
  H162     1.0000 0.19100  0.68280  0.57340  Biso   1.000  H
  C166     1.0000 0.13161  0.66687  0.62845  Biso   1.000  C
  N110     1.0000 0.13507  0.62104  0.65683  Biso   1.000  N
  O54      1.0000 0.17602  0.55187  0.64548  Biso   1.000  O
  H163     1.0000 0.95340  0.33080  0.24519  Biso   1.000  H
  N111     1.0000 0.93443  0.39380  0.28039  Biso   1.000  N
  C167     1.0000 0.95124  0.29943  0.36270  Biso   1.000  C
  O55      1.0000 0.93457  0.47318  0.26006  Biso   1.000  O
  N112     1.0000 0.08614  0.67761  0.60187  Biso   1.000  N
  O56      1.0000 0.05688  0.69838  0.50782  Biso   1.000  O
  H164     1.0000 0.14259  0.69220  0.65520  Biso   1.000  H
  C168     1.0000 0.11631  0.61253  0.71694  Biso   1.000  C
  C169     1.0000 0.88369  0.38747  0.28306  Biso   1.000  C
  H165     1.0000 0.97060  0.28038  0.38950  Biso   1.000  H
  H166     1.0000 0.93679  0.27841  0.33332  Biso   1.000  H
  N113     1.0000 0.91386  0.32239  0.39813  Biso   1.000  N
  C170     1.0000 0.04876  0.70057  0.63730  Biso   1.000  C
  H167     1.0000 0.12479  0.63899  0.74270  Biso   1.000  H
  H168     1.0000 0.13129  0.58451  0.73339  Biso   1.000  H
  N114     1.0000 0.06557  0.60620  0.71961  Biso   1.000  N
  H169     1.0000 0.87521  0.36101  0.25730  Biso   1.000  H
  H170     1.0000 0.86871  0.41549  0.26661  Biso   1.000  H
  N115     1.0000 0.86493  0.37896  0.34317  Biso   1.000  N
  C171     1.0000 0.86839  0.33313  0.37155  Biso   1.000  C
  C172     1.0000 0.91121  0.31656  0.45928  Biso   1.000  C
  H171     1.0000 0.02940  0.71962  0.61050  Biso   1.000  H
  H172     1.0000 0.06321  0.72159  0.66668  Biso   1.000  H
  N116     1.0000 0.01894  0.66722  0.66849  Biso   1.000  N
  C173     1.0000 0.03438  0.64570  0.72629  Biso   1.000  C
  C174     1.0000 0.04604  0.56473  0.73705  Biso   1.000  C
  C175     1.0000 0.83607  0.40832  0.37264  Biso   1.000  C
  C176     1.0000 0.83607  0.33882  0.42805  Biso   1.000  C
  H173     1.0000 0.85741  0.30780  0.34480  Biso   1.000  H
  N117     1.0000 0.86638  0.32854  0.47790  Biso   1.000  N
  O57      1.0000 0.94312  0.30162  0.49218  Biso   1.000  O
  C177     1.0000 0.97333  0.66238  0.65760  Biso   1.000  C
  H174     1.0000 0.04660  0.66920  0.75481  Biso   1.000  H
  C178     1.0000 0.98749  0.62235  0.74871  Biso   1.000  C
  O58      1.0000 0.06543  0.52682  0.73994  Biso   1.000  O
  N118     1.0000 0.99940  0.57282  0.75151  Biso   1.000  N
  N119     1.0000 0.82119  0.38775  0.42380  Biso   1.000  N
  O59      1.0000 0.82398  0.44813  0.35452  Biso   1.000  O
  H175     1.0000 0.80900  0.31720  0.42660  Biso   1.000  H
  C179     1.0000 0.84910  0.31762  0.53783  Biso   1.000  C
  N120     1.0000 0.95368  0.63479  0.70293  Biso   1.000  N
  O60      1.0000 0.95142  0.67997  0.61516  Biso   1.000  O
  H176     1.0000 0.97809  0.63450  0.78839  Biso   1.000  H
  C180     1.0000 0.97184  0.53908  0.78279  Biso   1.000  C
  C181     1.0000 0.78300  0.40676  0.46068  Biso   1.000  C
  H177     1.0000 0.81928  0.30091  0.53439  Biso   1.000  H
  H178     1.0000 0.87140  0.29681  0.55771  Biso   1.000  H
  N121     1.0000 0.84232  0.35900  0.57475  Biso   1.000  N
  C182     1.0000 0.90266  0.62942  0.71061  Biso   1.000  C
  N122     1.0000 0.93234  0.52046  0.74966  Biso   1.000  N
  H179     1.0000 0.96011  0.55349  0.81971  Biso   1.000  H
  H180     1.0000 0.99209  0.51300  0.79440  Biso   1.000  H
  H181     1.0000 0.75820  0.38320  0.46389  Biso   1.000  H
  H182     1.0000 0.76979  0.43421  0.44061  Biso   1.000  H
  N123     1.0000 0.79805  0.42026  0.52124  Biso   1.000  N
  C183     1.0000 0.79967  0.38737  0.57191  Biso   1.000  C
  C184     1.0000 0.86899  0.36938  0.62420  Biso   1.000  C
  N124     1.0000 0.88645  0.58204  0.70076  Biso   1.000  N
  H183     1.0000 0.89411  0.63910  0.75120  Biso   1.000  H
  H184     1.0000 0.88659  0.65040  0.68259  Biso   1.000  H
  C185     1.0000 0.92648  0.47361  0.73687  Biso   1.000  C
  C186     1.0000 0.88715  0.54618  0.74681  Biso   1.000  C
  C187     1.0000 0.79975  0.46580  0.53896  Biso   1.000  C
  C188     1.0000 0.80423  0.42033  0.62759  Biso   1.000  C
  H185     1.0000 0.77120  0.36779  0.57399  Biso   1.000  H
  N125     1.0000 0.84801  0.40577  0.65430  Biso   1.000  N
  O61      1.0000 0.90524  0.34963  0.63911  Biso   1.000  O
  C189     1.0000 0.85472  0.57084  0.65579  Biso   1.000  C
  N126     1.0000 0.88108  0.46608  0.71906  Biso   1.000  N
  O62      1.0000 0.95767  0.44379  0.74080  Biso   1.000  O
  C190     1.0000 0.85271  0.50798  0.72431  Biso   1.000  C
  H186     1.0000 0.87790  0.55868  0.78641  Biso   1.000  H
  N127     1.0000 0.80536  0.46704  0.60042  Biso   1.000  N
  O63      1.0000 0.79692  0.50039  0.50642  Biso   1.000  O
  H187     1.0000 0.77759  0.41669  0.65552  Biso   1.000  H
  C191     1.0000 0.86207  0.41835  0.71549  Biso   1.000  C
  N128     1.0000 0.83702  0.52713  0.66623  Biso   1.000  N
  O64      1.0000 0.84479  0.59677  0.61448  Biso   1.000  O
  H188     1.0000 0.82621  0.50350  0.75228  Biso   1.000  H
  C192     1.0000 0.79568  0.50897  0.63590  Biso   1.000  C
  H189     1.0000 0.88581  0.39620  0.72950  Biso   1.000  H
  H190     1.0000 0.83490  0.41581  0.74211  Biso   1.000  H
  H191     1.0000 0.78310  0.53332  0.60960  Biso   1.000  H
  H192     1.0000 0.77180  0.50159  0.66578  Biso   1.000  H
  C193     1.0000 0.54943  0.29876  0.61272  Biso   1.000  C
  N129     1.0000 0.58278  0.26894  0.58153  Biso   1.000  N
  H193     1.0000 0.53038  0.27940  0.63952  Biso   1.000  H
  H194     1.0000 0.52841  0.31321  0.58330  Biso   1.000  H
  N130     1.0000 0.57239  0.33614  0.64815  Biso   1.000  N
  C194     1.0000 0.60430  0.28438  0.52368  Biso   1.000  C
  C195     1.0000 0.58762  0.22333  0.59238  Biso   1.000  C
  C196     1.0000 0.58313  0.38161  0.62153  Biso   1.000  C
  C197     1.0000 0.56656  0.33879  0.70930  Biso   1.000  C
  C198     1.0000 0.62765  0.23749  0.50131  Biso   1.000  C
  H195     1.0000 0.58080  0.29660  0.49521  Biso   1.000  H
  N131     1.0000 0.64380  0.31557  0.53042  Biso   1.000  N
  N132     1.0000 0.61521  0.20368  0.54709  Biso   1.000  N
  O65      1.0000 0.57003  0.20142  0.63482  Biso   1.000  O
  N133     1.0000 0.62896  0.38507  0.59315  Biso   1.000  N
  C199     1.0000 0.58882  0.41393  0.67803  Biso   1.000  C
  H196     1.0000 0.55780  0.39259  0.59482  Biso   1.000  H
  N134     1.0000 0.57854  0.38362  0.72788  Biso   1.000  N
  O66      1.0000 0.55162  0.30688  0.74220  Biso   1.000  O
  H197     1.0000 0.61550  0.22809  0.46158  Biso   1.000  H
  N135     1.0000 0.67718  0.24940  0.49846  Biso   1.000  N
  C200     1.0000 0.68527  0.29604  0.51293  Biso   1.000  C
  C201     1.0000 0.63747  0.36631  0.53304  Biso   1.000  C
  C202     1.0000 0.62058  0.15266  0.53941  Biso   1.000  C
  C203     1.0000 0.65832  0.41393  0.62262  Biso   1.000  C
  N136     1.0000 0.63775  0.42881  0.67382  Biso   1.000  N
  H198     1.0000 0.56720  0.44100  0.67658  Biso   1.000  H
  C204     1.0000 0.56762  0.40090  0.78785  Biso   1.000  C
  C205     1.0000 0.71092  0.22184  0.46719  Biso   1.000  C
  O67      1.0000 0.72318  0.31543  0.51003  Biso   1.000  O
  H199     1.0000 0.61101  0.37479  0.50732  Biso   1.000  H
  H200     1.0000 0.66549  0.38129  0.51659  Biso   1.000  H
  H201     1.0000 0.61090  0.14411  0.49878  Biso   1.000  H
  H202     1.0000 0.59960  0.13659  0.56739  Biso   1.000  H
  N137     1.0000 0.66796  0.13645  0.54922  Biso   1.000  N
  O68      1.0000 0.69813  0.42602  0.60449  Biso   1.000  O
  C206     1.0000 0.65676  0.46700  0.71070  Biso   1.000  C
  H203     1.0000 0.55091  0.43072  0.78442  Biso   1.000  H
  H204     1.0000 0.54681  0.37860  0.80769  Biso   1.000  H
  N138     1.0000 0.60900  0.40768  0.82478  Biso   1.000  N
  H205     1.0000 0.69651  0.21011  0.43031  Biso   1.000  H
  H206     1.0000 0.73700  0.24209  0.45562  Biso   1.000  H
  N139     1.0000 0.72954  0.18234  0.50036  Biso   1.000  N
  C207     1.0000 0.70382  0.13715  0.50321  Biso   1.000  C
  C208     1.0000 0.67916  0.10472  0.59423  Biso   1.000  C
  H207     1.0000 0.63320  0.49180  0.71391  Biso   1.000  H
  H208     1.0000 0.68421  0.48021  0.69059  Biso   1.000  H
  N140     1.0000 0.67026  0.45195  0.77126  Biso   1.000  N
  C209     1.0000 0.63737  0.45033  0.82193  Biso   1.000  C
  C210     1.0000 0.61938  0.38101  0.87422  Biso   1.000  C
  C211     1.0000 0.77639  0.17648  0.51315  Biso   1.000  C
  H209     1.0000 0.69132  0.12790  0.46362  Biso   1.000  H
  C212     1.0000 0.74202  0.10271  0.52567  Biso   1.000  C
  N141     1.0000 0.72287  0.08702  0.58379  Biso   1.000  N
  O69      1.0000 0.65323  0.09479  0.63550  Biso   1.000  O
  C213     1.0000 0.71580  0.45025  0.78898  Biso   1.000  C
  C214     1.0000 0.67033  0.44577  0.87756  Biso   1.000  C
  H210     1.0000 0.61779  0.47880  0.82401  Biso   1.000  H
  N142     1.0000 0.65577  0.40199  0.90432  Biso   1.000  N
  O70      1.0000 0.59963  0.34476  0.88909  Biso   1.000  O
  N143     1.0000 0.78392  0.13108  0.53096  Biso   1.000  N
  O71      1.0000 0.80621  0.20767  0.50922  Biso   1.000  O
  H211     1.0000 0.74650  0.07621  0.49770  Biso   1.000  H
  C215     1.0000 0.74103  0.04568  0.61412  Biso   1.000  C
  N144     1.0000 0.71704  0.44464  0.85040  Biso   1.000  N
  O72      1.0000 0.75039  0.45308  0.75640  Biso   1.000  O
  H212     1.0000 0.66669  0.47241  0.90550  Biso   1.000  H
  C216     1.0000 0.66835  0.38793  0.96552  Biso   1.000  C
  C217     1.0000 0.83165  0.11207  0.53448  Biso   1.000  C
  H213     1.0000 0.71668  0.03310  0.64038  Biso   1.000  H
  H214     1.0000 0.74841  0.02180  0.58420  Biso   1.000  H
  N145     1.0000 0.78296  0.05536  0.64960  Biso   1.000  N
  C218     1.0000 0.75897  0.45432  0.88588  Biso   1.000  C
  H215     1.0000 0.64620  0.36419  0.97948  Biso   1.000  H
  H216     1.0000 0.66581  0.41510  0.99209  Biso   1.000  H
  N146     1.0000 0.71608  0.36892  0.96904  Biso   1.000  N
  H217     1.0000 0.85380  0.13581  0.52052  Biso   1.000  H
  H218     1.0000 0.83419  0.08490  0.50791  Biso   1.000  H
  N147     1.0000 0.84423  0.09801  0.59568  Biso   1.000  N
  C219     1.0000 0.82967  0.05423  0.62244  Biso   1.000  C
  C220     1.0000 0.78420  0.04975  0.71102  Biso   1.000  C
  H219     1.0000 0.78332  0.46690  0.85962  Biso   1.000  H
  H220     1.0000 0.75159  0.47820  0.91580  Biso   1.000  H
  N148     1.0000 0.77713  0.41298  0.91621  Biso   1.000  N
  C221     1.0000 0.75798  0.39729  0.97433  Biso   1.000  C
  C222     1.0000 0.72361  0.32352  0.98685  Biso   1.000  C
  C223     1.0000 0.88062  0.11899  0.62578  Biso   1.000  C
  H221     1.0000 0.83331  0.02759  0.59450  Biso   1.000  H
  C224     1.0000 0.86263  0.04967  0.67807  Biso   1.000  C
  N149     1.0000 0.82974  0.04805  0.72874  Biso   1.000  N
  O73      1.0000 0.74961  0.04692  0.74360  Biso   1.000  O
  C225     1.0000 0.82084  0.39528  0.90577  Biso   1.000  C
  C226     1.0000 0.79618  0.36285  0.99679  Biso   1.000  C
  H222     1.0000 0.75350  0.42379  0.00230  Biso   1.000  H
  N150     1.0000 0.77046  0.31766  0.99964  Biso   1.000  N
  O74      1.0000 0.69379  0.29233  0.99078  Biso   1.000  O
  N151     1.0000 0.89100  0.09232  0.67522  Biso   1.000  N
  O75      1.0000 0.90037  0.15524  0.61091  Biso   1.000  O
  H223     1.0000 0.88221  0.02120  0.67599  Biso   1.000  H
  C227     1.0000 0.84324  0.03300  0.78930  Biso   1.000  C
  N152     1.0000 0.83204  0.36355  0.95078  Biso   1.000  N
  O76      1.0000 0.84677  0.40521  0.86450  Biso   1.000  O
  H224     1.0000 0.80868  0.37210  0.03638  Biso   1.000  H
  C228     1.0000 0.78908  0.27816  0.03281  Biso   1.000  C
  C229     1.0000 0.93238  0.09910  0.71215  Biso   1.000  C
  H225     1.0000 0.86680  0.00820  0.78609  Biso   1.000  H
  H226     1.0000 0.81579  0.01979  0.80941  Biso   1.000  H
  N153     1.0000 0.86225  0.07119  0.82618  Biso   1.000  N
  C230     1.0000 0.87942  0.34734  0.96059  Biso   1.000  C
  H227     1.0000 0.80349  0.28989  0.06969  Biso   1.000  H
  H228     1.0000 0.76300  0.25791  0.04438  Biso   1.000  H
  N154     1.0000 0.82282  0.25060  0.00154  Biso   1.000  N
  H229     1.0000 0.94909  0.06928  0.71558  Biso   1.000  H
  H230     1.0000 0.95319  0.12140  0.69231  Biso   1.000  H
  N155     1.0000 0.92146  0.11638  0.77212  Biso   1.000  N
  C231     1.0000 0.91118  0.08607  0.82197  Biso   1.000  C
  C232     1.0000 0.84168  0.08607  0.87738  Biso   1.000  C
  H231     1.0000 0.90040  0.36341  0.93261  Biso   1.000  H
  N156     1.0000 0.88479  0.29632  0.95291  Biso   1.000  N
  H232     1.0000 0.88910  0.35589  0.00122  Biso   1.000  H
  C233     1.0000 0.87235  0.26251  0.99869  Biso   1.000  C
  C234     1.0000 0.81473  0.20396  0.98707  Biso   1.000  C
  C235     1.0000 0.93344  0.16121  0.79070  Biso   1.000  C
  H233     1.0000 0.93280  0.05900  0.82342  Biso   1.000  H
  C236     1.0000 0.91687  0.11839  0.87847  Biso   1.000  C
  N157     1.0000 0.87104  0.11493  0.90685  Biso   1.000  N
  O77      1.0000 0.80187  0.07398  0.89551  Biso   1.000  O
  C237     1.0000 0.91238  0.27667  0.90762  Biso   1.000  C
  C238     1.0000 0.89570  0.21562  0.97632  Biso   1.000  C
  H234     1.0000 0.88450  0.27191  0.03842  Biso   1.000  H
  N158     1.0000 0.85620  0.18443  0.96958  Biso   1.000  N
  O78      1.0000 0.77682  0.18457  0.98997  Biso   1.000  O
  N159     1.0000 0.92761  0.16386  0.85185  Biso   1.000  N
  O79      1.0000 0.94838  0.19312  0.75780  Biso   1.000  O
  H235     1.0000 0.94220  0.10741  0.90518  Biso   1.000  H
  C239     1.0000 0.86253  0.13369  0.96696  Biso   1.000  C
  N160     1.0000 0.91722  0.23106  0.91847  Biso   1.000  N
  O80      1.0000 0.92997  0.29858  0.86518  Biso   1.000  O
  H236     1.0000 0.91920  0.20340  0.00479  Biso   1.000  H
  C240     1.0000 0.95057  0.20124  0.88728  Biso   1.000  C
  H237     1.0000 0.88899  0.12521  0.99268  Biso   1.000  H
  H238     1.0000 0.83451  0.11871  0.98341  Biso   1.000  H
  H239     1.0000 0.96962  0.22060  0.86048  Biso   1.000  H
  H240     1.0000 0.97159  0.18679  0.91670  Biso   1.000  H
  C241     1.0000 0.40266  0.12942  0.21061  Biso   1.000  C
  H241     1.0000 0.39411  0.13910  0.25120  Biso   1.000  H
  H242     1.0000 0.38659  0.15040  0.18259  Biso   1.000  H
  N161     1.0000 0.38645  0.08204  0.20076  Biso   1.000  N
  N162     1.0000 0.45368  0.13479  0.20293  Biso   1.000  N
  C242     1.0000 0.38715  0.04618  0.24681  Biso   1.000  C
  C243     1.0000 0.35472  0.07084  0.15579  Biso   1.000  C
  C244     1.0000 0.48749  0.12235  0.24871  Biso   1.000  C
  C245     1.0000 0.47333  0.16238  0.15760  Biso   1.000  C
  H243     1.0000 0.37790  0.05868  0.28641  Biso   1.000  H
  C246     1.0000 0.35271  0.00798  0.22431  Biso   1.000  C
  N163     1.0000 0.43234  0.02046  0.24966  Biso   1.000  N
  N164     1.0000 0.33702  0.02713  0.16623  Biso   1.000  N
  O81      1.0000 0.34479  0.09677  0.11448  Biso   1.000  O
  H244     1.0000 0.47809  0.13450  0.28839  Biso   1.000  H
  C247     1.0000 0.53438  0.14570  0.22629  Biso   1.000  C
  N165     1.0000 0.49940  0.07282  0.25151  Biso   1.000  N
  N166     1.0000 0.51894  0.16722  0.16849  Biso   1.000  N
  O82      1.0000 0.45142  0.17997  0.11516  Biso   1.000  O
  H245     1.0000 0.32621  0.00350  0.25228  Biso   1.000  H
  N167     1.0000 0.38108  0.96608  0.21906  Biso   1.000  N
  C248     1.0000 0.47184  0.03908  0.28279  Biso   1.000  C
  C249     1.0000 0.42648  0.97361  0.23687  Biso   1.000  C
  C250     1.0000 0.29568  0.00897  0.13590  Biso   1.000  C
  H246     1.0000 0.54660  0.16920  0.25481  Biso   1.000  H
  N168     1.0000 0.56557  0.10620  0.21961  Biso   1.000  N
  C251     1.0000 0.54604  0.06473  0.23705  Biso   1.000  C
  C252     1.0000 0.54876  0.20057  0.13730  Biso   1.000  C
  C253     1.0000 0.36207  0.91835  0.21549  Biso   1.000  C
  H247     1.0000 0.46011  0.05349  0.31971  Biso   1.000  H
  H248     1.0000 0.49209  0.01300  0.29440  Biso   1.000  H
  O83      1.0000 0.45767  0.94379  0.24080  Biso   1.000  O
  H249     1.0000 0.28310  0.03332  0.10960  Biso   1.000  H
  H250     1.0000 0.27180  0.00159  0.16578  Biso   1.000  H
  N169     1.0000 0.30536  0.96704  0.10042  Biso   1.000  N
  C254     1.0000 0.61631  0.11253  0.21694  Biso   1.000  C
  O84      1.0000 0.56543  0.02682  0.23994  Biso   1.000  O
  H251     1.0000 0.52940  0.21962  0.11050  Biso   1.000  H
  H252     1.0000 0.56321  0.22159  0.16668  Biso   1.000  H
  N170     1.0000 0.58614  0.17761  0.10187  Biso   1.000  N
  H253     1.0000 0.38581  0.89620  0.22950  Biso   1.000  H
  H254     1.0000 0.33490  0.91581  0.24211  Biso   1.000  H
  N171     1.0000 0.34801  0.90577  0.15430  Biso   1.000  N
  C255     1.0000 0.30423  0.92033  0.12759  Biso   1.000  C
  C256     1.0000 0.29975  0.96580  0.03896  Biso   1.000  C
  H255     1.0000 0.62479  0.13899  0.24270  Biso   1.000  H
  H256     1.0000 0.63129  0.08451  0.23339  Biso   1.000  H
  N172     1.0000 0.63507  0.12104  0.15683  Biso   1.000  N
  C257     1.0000 0.63161  0.16687  0.12845  Biso   1.000  C
  C258     1.0000 0.58879  0.18344  0.04072  Biso   1.000  C
  C259     1.0000 0.36899  0.86938  0.12420  Biso   1.000  C
  H257     1.0000 0.27759  0.91669  0.15552  Biso   1.000  H
  C260     1.0000 0.29967  0.88737  0.07191  Biso   1.000  C
  O85      1.0000 0.29692  0.00039  0.00642  Biso   1.000  O
  N173     1.0000 0.29805  0.92026  0.02124  Biso   1.000  N
  C261     1.0000 0.66393  0.09168  0.12736  Biso   1.000  C
  C262     1.0000 0.66393  0.16118  0.07195  Biso   1.000  C
  H258     1.0000 0.64259  0.19220  0.15520  Biso   1.000  H
  N174     1.0000 0.63362  0.17146  0.02210  Biso   1.000  N
  O86      1.0000 0.55688  0.19838  0.00782  Biso   1.000  O
  N175     1.0000 0.34232  0.85900  0.07475  Biso   1.000  N
  O87      1.0000 0.40524  0.84963  0.13911  Biso   1.000  O
  H259     1.0000 0.27120  0.86779  0.07399  Biso   1.000  H
  C263     1.0000 0.28300  0.90676  0.96068  Biso   1.000  C
  N176     1.0000 0.67881  0.11225  0.07620  Biso   1.000  N
  O88      1.0000 0.67602  0.05187  0.14548  Biso   1.000  O
  H260     1.0000 0.69100  0.18280  0.07340  Biso   1.000  H
  C264     1.0000 0.65090  0.18238  0.96217  Biso   1.000  C
  C265     1.0000 0.34910  0.81762  0.03783  Biso   1.000  C
  H261     1.0000 0.25820  0.88320  0.96389  Biso   1.000  H
  H262     1.0000 0.26979  0.93421  0.94061  Biso   1.000  H
  N177     1.0000 0.32119  0.88775  0.92380  Biso   1.000  N
  C266     1.0000 0.71700  0.09324  0.03932  Biso   1.000  C
  H263     1.0000 0.68072  0.19909  0.96561  Biso   1.000  H
  H264     1.0000 0.62860  0.20319  0.94229  Biso   1.000  H
  N178     1.0000 0.65768  0.14100  0.92525  Biso   1.000  N
  N179     1.0000 0.36638  0.82854  0.97790  Biso   1.000  N
  H265     1.0000 0.31928  0.80091  0.03439  Biso   1.000  H
  H266     1.0000 0.37140  0.79681  0.05771  Biso   1.000  H
  C267     1.0000 0.33607  0.83882  0.92805  Biso   1.000  C
  C268     1.0000 0.33607  0.90832  0.87264  Biso   1.000  C
  H267     1.0000 0.74180  0.11680  0.03611  Biso   1.000  H
  H268     1.0000 0.73021  0.06579  0.05939  Biso   1.000  H
  N180     1.0000 0.70195  0.07974  0.97876  Biso   1.000  N
  C269     1.0000 0.70033  0.11263  0.92809  Biso   1.000  C
  C270     1.0000 0.63101  0.13062  0.87580  Biso   1.000  C
  C271     1.0000 0.41121  0.81656  0.95928  Biso   1.000  C
  H269     1.0000 0.30900  0.81720  0.92660  Biso   1.000  H
  C272     1.0000 0.36839  0.83313  0.87155  Biso   1.000  C
  N181     1.0000 0.36493  0.87896  0.84317  Biso   1.000  N
  O89      1.0000 0.32398  0.94813  0.85452  Biso   1.000  O
  C273     1.0000 0.70025  0.03420  0.96104  Biso   1.000  C
  C274     1.0000 0.69577  0.07967  0.87241  Biso   1.000  C
  H270     1.0000 0.72880  0.13221  0.92601  Biso   1.000  H
  N182     1.0000 0.65199  0.09423  0.84570  Biso   1.000  N
  O90      1.0000 0.59476  0.15037  0.86089  Biso   1.000  O
  N183     1.0000 0.41386  0.82239  0.89813  Biso   1.000  N
  O91      1.0000 0.44312  0.80162  0.99218  Biso   1.000  O
  H271     1.0000 0.35741  0.80780  0.84480  Biso   1.000  H
  C275     1.0000 0.38369  0.88747  0.78306  Biso   1.000  C
  O92      1.0000 0.70308  0.99961  0.99358  Biso   1.000  O
  N184     1.0000 0.69464  0.03296  0.89958  Biso   1.000  N
  H272     1.0000 0.72241  0.08331  0.84448  Biso   1.000  H
  C276     1.0000 0.63793  0.08165  0.78451  Biso   1.000  C
  C277     1.0000 0.45124  0.79943  0.86270  Biso   1.000  C
  H273     1.0000 0.37521  0.86101  0.75730  Biso   1.000  H
  H274     1.0000 0.36871  0.91549  0.76661  Biso   1.000  H
  N185     1.0000 0.43443  0.89380  0.78039  Biso   1.000  N
  C278     1.0000 0.70432  0.99103  0.86410  Biso   1.000  C
  H275     1.0000 0.61419  0.10380  0.77050  Biso   1.000  H
  H276     1.0000 0.66510  0.08419  0.75789  Biso   1.000  H
  N186     1.0000 0.61892  0.03392  0.78094  Biso   1.000  N
  H277     1.0000 0.47060  0.78038  0.88950  Biso   1.000  H
  H278     1.0000 0.43679  0.77841  0.83332  Biso   1.000  H
  N187     1.0000 0.48106  0.83278  0.83151  Biso   1.000  N
  C279     1.0000 0.46562  0.85430  0.77371  Biso   1.000  C
  C280     1.0000 0.45396  0.93527  0.76295  Biso   1.000  C
  H279     1.0000 0.71690  0.96668  0.89040  Biso   1.000  H
  H280     1.0000 0.72820  0.99841  0.83422  Biso   1.000  H
  N188     1.0000 0.66298  0.97287  0.83377  Biso   1.000  N
  C281     1.0000 0.64729  0.99202  0.77569  Biso   1.000  C
  C282     1.0000 0.57352  0.02639  0.76313  Biso   1.000  C
  C283     1.0000 0.52667  0.83762  0.84240  Biso   1.000  C
  C284     1.0000 0.51251  0.87765  0.75129  Biso   1.000  C
  H281     1.0000 0.45340  0.83080  0.74519  Biso   1.000  H
  N189     1.0000 0.50060  0.92718  0.74849  Biso   1.000  N
  O93      1.0000 0.43457  0.97318  0.76006  Biso   1.000  O
  C285     1.0000 0.64528  0.92916  0.84421  Biso   1.000  C
  C286     1.0000 0.61285  0.95382  0.75319  Biso   1.000  C
  H282     1.0000 0.67379  0.99650  0.74772  Biso   1.000  H
  N190     1.0000 0.56766  0.97954  0.75034  Biso   1.000  N
  O94      1.0000 0.54233  0.05621  0.75920  Biso   1.000  O
  N191     1.0000 0.54632  0.86521  0.79707  Biso   1.000  N
  O95      1.0000 0.54858  0.82003  0.88484  Biso   1.000  O
  H283     1.0000 0.52191  0.86550  0.71161  Biso   1.000  H
  C287     1.0000 0.52816  0.96092  0.71721  Biso   1.000  C
  N192     1.0000 0.61355  0.91796  0.79924  Biso   1.000  N
  O96      1.0000 0.65521  0.90323  0.88552  Biso   1.000  O
  H284     1.0000 0.62210  0.94132  0.71359  Biso   1.000  H
  C288     1.0000 0.59734  0.87058  0.78939  Biso   1.000  C
  H285     1.0000 0.53989  0.94651  0.68029  Biso   1.000  H
  H286     1.0000 0.50791  0.98700  0.70560  Biso   1.000  H
  H287     1.0000 0.60589  0.86090  0.74880  Biso   1.000  H
  H288     1.0000 0.61341  0.84960  0.81741  Biso   1.000  H
  O97      1.0000 0.65323  0.59479  0.36450  Biso   1.000  O
  C289     1.0000 0.67916  0.60472  0.40577  Biso   1.000  C
  N193     1.0000 0.66796  0.63645  0.45078  Biso   1.000  N
  N194     1.0000 0.72287  0.58702  0.41621  Biso   1.000  N
  C290     1.0000 0.70382  0.63715  0.49679  Biso   1.000  C
  C291     1.0000 0.62058  0.65266  0.46059  Biso   1.000  C
  C292     1.0000 0.74202  0.60271  0.47433  Biso   1.000  C
  C293     1.0000 0.74103  0.54568  0.38588  Biso   1.000  C
  H289     1.0000 0.69132  0.62790  0.53638  Biso   1.000  H
  N195     1.0000 0.72954  0.68234  0.49964  Biso   1.000  N
  H290     1.0000 0.61090  0.64411  0.50122  Biso   1.000  H
  H291     1.0000 0.59960  0.63659  0.43261  Biso   1.000  H
  N196     1.0000 0.61521  0.70368  0.45291  Biso   1.000  N
  H292     1.0000 0.74650  0.57621  0.50230  Biso   1.000  H
  N197     1.0000 0.78392  0.63108  0.46904  Biso   1.000  N
  H293     1.0000 0.71668  0.53310  0.35962  Biso   1.000  H
  H294     1.0000 0.74841  0.52180  0.41580  Biso   1.000  H
  N198     1.0000 0.78296  0.55536  0.35040  Biso   1.000  N
  C294     1.0000 0.71092  0.72184  0.53281  Biso   1.000  C
  C295     1.0000 0.77639  0.67648  0.48685  Biso   1.000  C
  C296     1.0000 0.62765  0.73749  0.49869  Biso   1.000  C
  C297     1.0000 0.58762  0.72333  0.40762  Biso   1.000  C
  C298     1.0000 0.83165  0.61207  0.46552  Biso   1.000  C
  C299     1.0000 0.82967  0.55423  0.37756  Biso   1.000  C
  C300     1.0000 0.78420  0.54975  0.28898  Biso   1.000  C
  H295     1.0000 0.69651  0.71011  0.56969  Biso   1.000  H
  H296     1.0000 0.73700  0.74209  0.54438  Biso   1.000  H
  N199     1.0000 0.67718  0.74940  0.50154  Biso   1.000  N
  O98      1.0000 0.80621  0.70767  0.49078  Biso   1.000  O
  H297     1.0000 0.61550  0.72809  0.53842  Biso   1.000  H
  C301     1.0000 0.60430  0.78438  0.47632  Biso   1.000  C
  N200     1.0000 0.58278  0.76894  0.41847  Biso   1.000  N
  O99      1.0000 0.57003  0.70142  0.36518  Biso   1.000  O
  H298     1.0000 0.85380  0.63581  0.47948  Biso   1.000  H
  H299     1.0000 0.83419  0.58490  0.49209  Biso   1.000  H
  N201     1.0000 0.84423  0.59801  0.40432  Biso   1.000  N
  H300     1.0000 0.83331  0.52759  0.40550  Biso   1.000  H
  C302     1.0000 0.86263  0.54967  0.32193  Biso   1.000  C
  N202     1.0000 0.82974  0.54805  0.27126  Biso   1.000  N
  O100     1.0000 0.74961  0.54692  0.25640  Biso   1.000  O
  C303     1.0000 0.68527  0.79604  0.48707  Biso   1.000  C
  H301     1.0000 0.58080  0.79660  0.50479  Biso   1.000  H
  N203     1.0000 0.64380  0.81557  0.46958  Biso   1.000  N
  C304     1.0000 0.54943  0.79876  0.38728  Biso   1.000  C
  C305     1.0000 0.88062  0.61899  0.37422  Biso   1.000  C
  H302     1.0000 0.88221  0.52120  0.32401  Biso   1.000  H
  N204     1.0000 0.89100  0.59232  0.32478  Biso   1.000  N
  C306     1.0000 0.84324  0.53300  0.21070  Biso   1.000  C
  O101     1.0000 0.72318  0.81543  0.48997  Biso   1.000  O
  C307     1.0000 0.63747  0.86631  0.46696  Biso   1.000  C
  H303     1.0000 0.53038  0.77940  0.36048  Biso   1.000  H
  H304     1.0000 0.52841  0.81321  0.41670  Biso   1.000  H
  N205     1.0000 0.57239  0.83614  0.35185  Biso   1.000  N
  O102     1.0000 0.90037  0.65524  0.38909  Biso   1.000  O
  C308     1.0000 0.93238  0.59910  0.28785  Biso   1.000  C
  H305     1.0000 0.86680  0.50820  0.21391  Biso   1.000  H
  H306     1.0000 0.81579  0.51979  0.19059  Biso   1.000  H
  N206     1.0000 0.86225  0.57119  0.17382  Biso   1.000  N
  H307     1.0000 0.61101  0.87479  0.49268  Biso   1.000  H
  H308     1.0000 0.66549  0.88129  0.48341  Biso   1.000  H
  N207     1.0000 0.62896  0.88507  0.40685  Biso   1.000  N
  C309     1.0000 0.58313  0.88161  0.37847  Biso   1.000  C
  C310     1.0000 0.56656  0.83879  0.29070  Biso   1.000  C
  H309     1.0000 0.94909  0.56928  0.28442  Biso   1.000  H
  H310     1.0000 0.95319  0.62140  0.30769  Biso   1.000  H
  N208     1.0000 0.92146  0.61638  0.22788  Biso   1.000  N
  C311     1.0000 0.91118  0.58607  0.17803  Biso   1.000  C
  C312     1.0000 0.84168  0.58607  0.12262  Biso   1.000  C
  C313     1.0000 0.65832  0.91393  0.37738  Biso   1.000  C
  C314     1.0000 0.58882  0.91393  0.32197  Biso   1.000  C
  H311     1.0000 0.55780  0.89259  0.40518  Biso   1.000  H
  N209     1.0000 0.57854  0.88362  0.27212  Biso   1.000  N
  O103     1.0000 0.55162  0.80688  0.25780  Biso   1.000  O
  C315     1.0000 0.93344  0.66121  0.20930  Biso   1.000  C
  H312     1.0000 0.93280  0.55900  0.17658  Biso   1.000  H
  C316     1.0000 0.91687  0.61839  0.12153  Biso   1.000  C
  N210     1.0000 0.87104  0.61493  0.09315  Biso   1.000  N
  O104     1.0000 0.80187  0.57398  0.10449  Biso   1.000  O
  N211     1.0000 0.63775  0.92881  0.32618  Biso   1.000  N
  O105     1.0000 0.69813  0.92602  0.39551  Biso   1.000  O
  H313     1.0000 0.56720  0.94100  0.32342  Biso   1.000  H
  C317     1.0000 0.56762  0.90090  0.21215  Biso   1.000  C
  N212     1.0000 0.92761  0.66386  0.14815  Biso   1.000  N
  O106     1.0000 0.94838  0.69312  0.24220  Biso   1.000  O
  H314     1.0000 0.94220  0.60741  0.09482  Biso   1.000  H
  C318     1.0000 0.86253  0.63369  0.03304  Biso   1.000  C
  C319     1.0000 0.65676  0.96700  0.28930  Biso   1.000  C
  H315     1.0000 0.55091  0.93072  0.21558  Biso   1.000  H
  H316     1.0000 0.54681  0.87860  0.19231  Biso   1.000  H
  N213     1.0000 0.60900  0.90768  0.17522  Biso   1.000  N
  C320     1.0000 0.95057  0.70124  0.11272  Biso   1.000  C
  H317     1.0000 0.88899  0.62521  0.00732  Biso   1.000  H
  H318     1.0000 0.83451  0.61871  0.01659  Biso   1.000  H
  N214     1.0000 0.85620  0.68443  0.03042  Biso   1.000  N
  H319     1.0000 0.63320  0.99180  0.28609  Biso   1.000  H
  H320     1.0000 0.68421  0.98021  0.30941  Biso   1.000  H
  N215     1.0000 0.67026  0.95195  0.22874  Biso   1.000  N
  C321     1.0000 0.63737  0.95033  0.17807  Biso   1.000  C
  C322     1.0000 0.61938  0.88101  0.12578  Biso   1.000  C
  H321     1.0000 0.96962  0.72060  0.13952  Biso   1.000  H
  H322     1.0000 0.97159  0.68679  0.08330  Biso   1.000  H
  N216     1.0000 0.91722  0.73106  0.08153  Biso   1.000  N
  C323     1.0000 0.89570  0.71562  0.02368  Biso   1.000  C
  C324     1.0000 0.81473  0.70396  0.01293  Biso   1.000  C
  C325     1.0000 0.71580  0.95025  0.21102  Biso   1.000  C
  C326     1.0000 0.67033  0.94577  0.12244  Biso   1.000  C
  H323     1.0000 0.61779  0.97880  0.17599  Biso   1.000  H
  N217     1.0000 0.65577  0.90199  0.09568  Biso   1.000  N
  O107     1.0000 0.59963  0.84476  0.11091  Biso   1.000  O
  C327     1.0000 0.91238  0.77667  0.09238  Biso   1.000  C
  C328     1.0000 0.87235  0.76251  0.00131  Biso   1.000  C
  H324     1.0000 0.91920  0.70340  0.99521  Biso   1.000  H
  O108     1.0000 0.77682  0.68457  0.01003  Biso   1.000  O
  N218     1.0000 0.82282  0.75060  0.99846  Biso   1.000  N
  N219     1.0000 0.71704  0.94464  0.14960  Biso   1.000  N
  O109     1.0000 0.75039  0.95308  0.24360  Biso   1.000  O
  H325     1.0000 0.66669  0.97241  0.09450  Biso   1.000  H
  C329     1.0000 0.66835  0.88793  0.03448  Biso   1.000  C
  N220     1.0000 0.88479  0.79632  0.04709  Biso   1.000  N
  O110     1.0000 0.92997  0.79858  0.13482  Biso   1.000  O
  H326     1.0000 0.88450  0.77191  0.96158  Biso   1.000  H
  C330     1.0000 0.78908  0.77816  0.96719  Biso   1.000  C
  C331     1.0000 0.75897  0.95432  0.11412  Biso   1.000  C
  H327     1.0000 0.64620  0.86419  0.02052  Biso   1.000  H
  H328     1.0000 0.66581  0.91510  0.00791  Biso   1.000  H
  N221     1.0000 0.71608  0.86892  0.03096  Biso   1.000  N
  C332     1.0000 0.87942  0.84734  0.03941  Biso   1.000  C
  N222     1.0000 0.77046  0.81766  0.00036  Biso   1.000  N
  H329     1.0000 0.80349  0.78989  0.93031  Biso   1.000  H
  H330     1.0000 0.76300  0.75791  0.95562  Biso   1.000  H
  H331     1.0000 0.78332  0.96690  0.14038  Biso   1.000  H
  H332     1.0000 0.75159  0.97820  0.08420  Biso   1.000  H
  N223     1.0000 0.77713  0.91298  0.08379  Biso   1.000  N
  C333     1.0000 0.75798  0.89729  0.02567  Biso   1.000  C
  C334     1.0000 0.72361  0.82352  0.01315  Biso   1.000  C
  H333     1.0000 0.90040  0.86341  0.06739  Biso   1.000  H
  N224     1.0000 0.83204  0.86355  0.04922  Biso   1.000  N
  H334     1.0000 0.88910  0.85589  0.99878  Biso   1.000  H
  C335     1.0000 0.79618  0.86285  0.00321  Biso   1.000  C
  C336     1.0000 0.82084  0.89528  0.09423  Biso   1.000  C
  H335     1.0000 0.75350  0.92379  0.99770  Biso   1.000  H
  O111     1.0000 0.69379  0.79233  0.00922  Biso   1.000  O
  H336     1.0000 0.80868  0.87210  0.96362  Biso   1.000  H
  O112     1.0000 0.84677  0.90521  0.13550  Biso   1.000  O
  C337     1.0000 0.16393  0.16118  0.42805  Biso   1.000  C
  C338     1.0000 0.13161  0.16687  0.37155  Biso   1.000  C
  H337     1.0000 0.19100  0.18280  0.42660  Biso   1.000  H
  N225     1.0000 0.13362  0.17146  0.47790  Biso   1.000  N
  N226     1.0000 0.17881  0.11225  0.42380  Biso   1.000  N
  H338     1.0000 0.14259  0.19220  0.34480  Biso   1.000  H
  N227     1.0000 0.08614  0.17761  0.39813  Biso   1.000  N
  N228     1.0000 0.13507  0.12104  0.34317  Biso   1.000  N
  C339     1.0000 0.08879  0.18344  0.45928  Biso   1.000  C
  C340     1.0000 0.15090  0.18238  0.53783  Biso   1.000  C
  C341     1.0000 0.16393  0.09168  0.37264  Biso   1.000  C
  C342     1.0000 0.21700  0.09324  0.46068  Biso   1.000  C
  C343     1.0000 0.04876  0.20057  0.36270  Biso   1.000  C
  C344     1.0000 0.11631  0.11253  0.28306  Biso   1.000  C
  O113     1.0000 0.05688  0.19838  0.49218  Biso   1.000  O
  H339     1.0000 0.18072  0.19909  0.53439  Biso   1.000  H
  H340     1.0000 0.12860  0.20319  0.55771  Biso   1.000  H
  N229     1.0000 0.15768  0.14100  0.57475  Biso   1.000  N
  O114     1.0000 0.17602  0.05187  0.35452  Biso   1.000  O
  H341     1.0000 0.24180  0.11680  0.46389  Biso   1.000  H
  H342     1.0000 0.23021  0.06579  0.44061  Biso   1.000  H
  N230     1.0000 0.20195  0.07974  0.52124  Biso   1.000  N
  H343     1.0000 0.02940  0.21962  0.38950  Biso   1.000  H
  H344     1.0000 0.06321  0.22159  0.33332  Biso   1.000  H
  N231     1.0000 0.01894  0.16722  0.33151  Biso   1.000  N
  H345     1.0000 0.12479  0.13899  0.25730  Biso   1.000  H
  H346     1.0000 0.13129  0.08451  0.26661  Biso   1.000  H
  N232     1.0000 0.06557  0.10620  0.28039  Biso   1.000  N
  C345     1.0000 0.20033  0.11263  0.57191  Biso   1.000  C
  C346     1.0000 0.13101  0.13062  0.62420  Biso   1.000  C
  C347     1.0000 0.20025  0.03420  0.53896  Biso   1.000  C
  C348     1.0000 0.03438  0.14570  0.27371  Biso   1.000  C
  C349     1.0000 0.97333  0.16238  0.34240  Biso   1.000  C
  C350     1.0000 0.04604  0.06473  0.26295  Biso   1.000  C
  C351     1.0000 0.19577  0.07967  0.62759  Biso   1.000  C
  H347     1.0000 0.22880  0.13221  0.57399  Biso   1.000  H
  N233     1.0000 0.15199  0.09423  0.65430  Biso   1.000  N
  O115     1.0000 0.09476  0.15037  0.63911  Biso   1.000  O
  N234     1.0000 0.19464  0.03296  0.60042  Biso   1.000  N
  O116     1.0000 0.20308  0.99961  0.50642  Biso   1.000  O
  H348     1.0000 0.04660  0.16920  0.24519  Biso   1.000  H
  C352     1.0000 0.98749  0.12235  0.25129  Biso   1.000  C
  N235     1.0000 0.95368  0.13479  0.29707  Biso   1.000  N
  O117     1.0000 0.95142  0.17997  0.38484  Biso   1.000  O
  O118     1.0000 0.06543  0.02682  0.26006  Biso   1.000  O
  N236     1.0000 0.99940  0.07282  0.24849  Biso   1.000  N
  H349     1.0000 0.22241  0.08331  0.65552  Biso   1.000  H
  C353     1.0000 0.13793  0.08165  0.71549  Biso   1.000  C
  C354     1.0000 0.20432  0.99103  0.63590  Biso   1.000  C
  H350     1.0000 0.97809  0.13450  0.21161  Biso   1.000  H
  C355     1.0000 0.90266  0.12942  0.28939  Biso   1.000  C
  C356     1.0000 0.97184  0.03908  0.21721  Biso   1.000  C
  H351     1.0000 0.11419  0.10380  0.72950  Biso   1.000  H
  H352     1.0000 0.16510  0.08419  0.74211  Biso   1.000  H
  N237     1.0000 0.11892  0.03392  0.71906  Biso   1.000  N
  H353     1.0000 0.21690  0.96668  0.60960  Biso   1.000  H
  H354     1.0000 0.22820  0.99841  0.66578  Biso   1.000  H
  N238     1.0000 0.16298  0.97287  0.66623  Biso   1.000  N
  H355     1.0000 0.89411  0.13910  0.24880  Biso   1.000  H
  H356     1.0000 0.88659  0.15040  0.31741  Biso   1.000  H
  N239     1.0000 0.88645  0.08204  0.29924  Biso   1.000  N
  H357     1.0000 0.96011  0.05349  0.18029  Biso   1.000  H
  H358     1.0000 0.99209  0.01300  0.20560  Biso   1.000  H
  N240     1.0000 0.93234  0.02046  0.25034  Biso   1.000  N
  C357     1.0000 0.07352  0.02639  0.73687  Biso   1.000  C
  C358     1.0000 0.14729  0.99202  0.72431  Biso   1.000  C
  C359     1.0000 0.14528  0.92916  0.65579  Biso   1.000  C
  C360     1.0000 0.88715  0.04618  0.25319  Biso   1.000  C
  C361     1.0000 0.85472  0.07084  0.34421  Biso   1.000  C
  C362     1.0000 0.92648  0.97361  0.26313  Biso   1.000  C
  O119     1.0000 0.04233  0.05621  0.74080  Biso   1.000  O
  N241     1.0000 0.06766  0.97954  0.74966  Biso   1.000  N
  C363     1.0000 0.11285  0.95382  0.74681  Biso   1.000  C
  H359     1.0000 0.17379  0.99650  0.75228  Biso   1.000  H
  N242     1.0000 0.11355  0.91796  0.70076  Biso   1.000  N
  O120     1.0000 0.15521  0.90323  0.61448  Biso   1.000  O
  H360     1.0000 0.87790  0.05868  0.21359  Biso   1.000  H
  C364     1.0000 0.85271  0.00798  0.27569  Biso   1.000  C
  N243     1.0000 0.83702  0.02713  0.33377  Biso   1.000  N
  O121     1.0000 0.84479  0.09677  0.38552  Biso   1.000  O
  N244     1.0000 0.88108  0.96608  0.28094  Biso   1.000  N
  O122     1.0000 0.95767  0.94379  0.25920  Biso   1.000  O
  C365     1.0000 0.02816  0.96092  0.78279  Biso   1.000  C
  H361     1.0000 0.12210  0.94132  0.78641  Biso   1.000  H
  C366     1.0000 0.09734  0.87058  0.71061  Biso   1.000  C
  H362     1.0000 0.82621  0.00350  0.24772  Biso   1.000  H
  C367     1.0000 0.79568  0.00897  0.36410  Biso   1.000  C
  C368     1.0000 0.86207  0.91835  0.28451  Biso   1.000  C
  H363     1.0000 0.03989  0.94651  0.81971  Biso   1.000  H
  H364     1.0000 0.00791  0.98700  0.79440  Biso   1.000  H
  N245     1.0000 0.00060  0.92718  0.75151  Biso   1.000  N
  H365     1.0000 0.10589  0.86090  0.75120  Biso   1.000  H
  H366     1.0000 0.11341  0.84960  0.68259  Biso   1.000  H
  N246     1.0000 0.04632  0.86521  0.70293  Biso   1.000  N
  N247     1.0000 0.80536  0.96704  0.39958  Biso   1.000  N
  H367     1.0000 0.78310  0.03332  0.39040  Biso   1.000  H
  H368     1.0000 0.77180  0.00159  0.33422  Biso   1.000  H
  H369     1.0000 0.88581  0.89620  0.27050  Biso   1.000  H
  H370     1.0000 0.83490  0.91581  0.25789  Biso   1.000  H
  N248     1.0000 0.84801  0.90577  0.34570  Biso   1.000  N
  C369     1.0000 0.95396  0.93527  0.73705  Biso   1.000  C
  C370     1.0000 0.01251  0.87765  0.74871  Biso   1.000  C
  C371     1.0000 0.02667  0.83762  0.65760  Biso   1.000  C
  C372     1.0000 0.80423  0.92033  0.37241  Biso   1.000  C
  C373     1.0000 0.79975  0.96580  0.46104  Biso   1.000  C
  C374     1.0000 0.86899  0.86938  0.37580  Biso   1.000  C
  N249     1.0000 0.93443  0.89380  0.71961  Biso   1.000  N
  O123     1.0000 0.93457  0.97318  0.73994  Biso   1.000  O
  C375     1.0000 0.96562  0.85430  0.72629  Biso   1.000  C
  H371     1.0000 0.02191  0.86550  0.78839  Biso   1.000  H
  N250     1.0000 0.98106  0.83278  0.66849  Biso   1.000  N
  O124     1.0000 0.04858  0.82003  0.61516  Biso   1.000  O
  H372     1.0000 0.77759  0.91669  0.34448  Biso   1.000  H
  C376     1.0000 0.79967  0.88737  0.42809  Biso   1.000  C
  N251     1.0000 0.79805  0.92026  0.47876  Biso   1.000  N
  O125     1.0000 0.79692  0.00039  0.49358  Biso   1.000  O
  N252     1.0000 0.84232  0.85900  0.42525  Biso   1.000  N
  O126     1.0000 0.90524  0.84963  0.36089  Biso   1.000  O
  C377     1.0000 0.88369  0.88747  0.71694  Biso   1.000  C
  H373     1.0000 0.95340  0.83080  0.75481  Biso   1.000  H
  C378     1.0000 0.95124  0.79943  0.63730  Biso   1.000  C
  H374     1.0000 0.77120  0.86779  0.42601  Biso   1.000  H
  C379     1.0000 0.78300  0.90676  0.53932  Biso   1.000  C
  C380     1.0000 0.84910  0.81762  0.46217  Biso   1.000  C
  H375     1.0000 0.87521  0.86101  0.74270  Biso   1.000  H
  H376     1.0000 0.86871  0.91549  0.73339  Biso   1.000  H
  N253     1.0000 0.86493  0.87896  0.65683  Biso   1.000  N
  H377     1.0000 0.97060  0.78038  0.61050  Biso   1.000  H
  H378     1.0000 0.93679  0.77841  0.66668  Biso   1.000  H
  N254     1.0000 0.91386  0.82239  0.60187  Biso   1.000  N
  H379     1.0000 0.75820  0.88320  0.53611  Biso   1.000  H
  H380     1.0000 0.76979  0.93421  0.55939  Biso   1.000  H
  N255     1.0000 0.82119  0.88775  0.57620  Biso   1.000  N
  H381     1.0000 0.81928  0.80091  0.46561  Biso   1.000  H
  H382     1.0000 0.87140  0.79681  0.44229  Biso   1.000  H
  N256     1.0000 0.86638  0.82854  0.52210  Biso   1.000  N
  C381     1.0000 0.83607  0.90832  0.62736  Biso   1.000  C
  C382     1.0000 0.86839  0.83313  0.62845  Biso   1.000  C
  C383     1.0000 0.91121  0.81656  0.54072  Biso   1.000  C
  C384     1.0000 0.83607  0.83882  0.57195  Biso   1.000  C
  O127     1.0000 0.82398  0.94813  0.64548  Biso   1.000  O
  H383     1.0000 0.85741  0.80780  0.65520  Biso   1.000  H
  O128     1.0000 0.94312  0.80162  0.50782  Biso   1.000  O
  H384     1.0000 0.80900  0.81720  0.57340  Biso   1.000  H
  Ne1      1.0000 0.50000  0.50000  0.00000  Biso   1.000  Ne
  He1      1.0000 0.44188  0.58316  0.06593  Biso   1.000  He
  He2      1.0000 0.55947  0.42201  0.93381  Biso   1.000  He
  Ar1      1.0000 0.50000  0.50000  0.00000  Biso   1.000  Ar
  Ne2      1.0000 0.25000  0.25000  0.75000  Biso   1.000  Ne
  He3      1.0000 0.32888  0.30479  0.81208  Biso   1.000  He
  He4      1.0000 0.16942  0.19389  0.68640  Biso   1.000  He
  Ar2      1.0000 0.25000  0.25000  0.75000  Biso   1.000  Ar
  Ne3      1.0000 0.00000  0.00000  0.50000  Biso   1.000  Ne
  He5      1.0000 0.94189  0.08317  0.56593  Biso   1.000  He
  He6      1.0000 0.05947  0.92201  0.43381  Biso   1.000  He
  Ar3      1.0000 0.00000  0.00000  0.50000  Biso   1.000  Ar
  Ne4      1.0000 0.50000  0.00000  0.00000  Biso   1.000  Ne
  He7      1.0000 0.55992  0.91451  0.06801  Biso   1.000  He
  He8      1.0000 0.43885  0.08016  0.93186  Biso   1.000  He
  Ar4      1.0000 0.50000  0.00000  0.00000  Biso   1.000  Ar
  Ne5      1.0000 0.00000  0.50000  0.50000  Biso   1.000  Ne
  He9      1.0000 0.05992  0.41451  0.56801  Biso   1.000  He
  He10     1.0000 0.93885  0.58016  0.43186  Biso   1.000  He
  Ar5      1.0000 0.00000  0.50000  0.50000  Biso   1.000  Ar
  Ne6      1.0000 0.25000  0.75000  0.25000  Biso   1.000  Ne
  He11     1.0000 0.16555  0.68548  0.32197  Biso   1.000  He
  He12     1.0000 0.34109  0.81427  0.17701  Biso   1.000  He
  Ar6      1.0000 0.25000  0.75000  0.25000  Biso   1.000  Ar
  Ne7      1.0000 0.75000  0.25000  0.75000  Biso   1.000  Ne
  He13     1.0000 0.66555  0.18548  0.82197  Biso   1.000  He
  He14     1.0000 0.84109  0.31427  0.67701  Biso   1.000  He
  Ar7      1.0000 0.75000  0.25000  0.75000  Biso   1.000  Ar
  Ne8      1.0000 0.75000  0.75000  0.25000  Biso   1.000  Ne
  He15     1.0000 0.82888  0.80479  0.31208  Biso   1.000  He
  He16     1.0000 0.66942  0.69389  0.18640  Biso   1.000  He
  Ar8      1.0000 0.75000  0.75000  0.25000  Biso   1.000  Ar
