data_image0
_cell_length_a       17.269
_cell_length_b       17.269
_cell_length_c       50.312
_cell_angle_alpha    90
_cell_angle_beta     90
_cell_angle_gamma    120

_symmetry_space_group_name_H-M    "P 1"
_symmetry_int_tables_number       1

loop_
  _symmetry_equiv_pos_as_xyz
  'x, y, z'

loop_
  _atom_site_label
  _atom_site_occupancy
  _atom_site_fract_x
  _atom_site_fract_y
  _atom_site_fract_z
  _atom_site_thermal_displace_type
  _atom_site_B_iso_or_equiv
  _atom_site_type_symbol
  C1       1.0000 0.73955  0.69527  0.50471  Biso   1.000  C
  C2       1.0000 0.73200  0.63696  0.52518  Biso   1.000  C
  C3       1.0000 0.75203  0.77825  0.51038  Biso   1.000  C
  H1       1.0000 0.73596  0.67708  0.48666  Biso   1.000  H
  N1       1.0000 0.71673  0.55304  0.52007  Biso   1.000  N
  C4       1.0000 0.73909  0.66772  0.55124  Biso   1.000  C
  C5       1.0000 0.75905  0.80827  0.53580  Biso   1.000  C
  H2       1.0000 0.75593  0.81616  0.49616  Biso   1.000  H
  C6       1.0000 0.70987  0.51881  0.49294  Biso   1.000  C
  H3       1.0000 0.71059  0.51794  0.53357  Biso   1.000  H
  C7       1.0000 0.75215  0.75197  0.55639  Biso   1.000  C
  S1       1.0000 0.73282  0.59831  0.57807  Biso   1.000  S
  H4       1.0000 0.76841  0.86638  0.53926  Biso   1.000  H
  C8       1.0000 0.68765  0.42272  0.49330  Biso   1.000  C
  H5       1.0000 0.66271  0.52376  0.48317  Biso   1.000  H
  H6       1.0000 0.76722  0.55545  0.48356  Biso   1.000  H
  H7       1.0000 0.75638  0.77143  0.57426  Biso   1.000  H
  S2       1.0000 0.60047  0.53212  0.58859  Biso   1.000  S
  C9       1.0000 0.59763  0.35445  0.49352  Biso   1.000  C
  C10      1.0000 0.75678  0.40233  0.49352  Biso   1.000  C
  C11      1.0000 0.59419  0.59530  0.61542  Biso   1.000  C
  C12      1.0000 0.52386  0.37739  0.49414  Biso   1.000  C
  C13      1.0000 0.57725  0.26492  0.49330  Biso   1.000  C
  C14      1.0000 0.73506  0.31233  0.49330  Biso   1.000  C
  C15      1.0000 0.85348  0.47608  0.49414  Biso   1.000  C
  C16      1.0000 0.58122  0.66652  0.61027  Biso   1.000  C
  C17      1.0000 0.60126  0.57157  0.64146  Biso   1.000  C
  C18      1.0000 0.49471  0.38615  0.46639  Biso   1.000  C
  H8       1.0000 0.47183  0.33018  0.50386  Biso   1.000  H
  H9       1.0000 0.54503  0.43443  0.50376  Biso   1.000  H
  C19      1.0000 0.48112  0.19103  0.49294  Biso   1.000  C
  C20      1.0000 0.64554  0.24319  0.49352  Biso   1.000  C
  C21      1.0000 0.80897  0.29013  0.49294  Biso   1.000  C
  H10      1.0000 0.85833  0.52817  0.50386  Biso   1.000  H
  H11      1.0000 0.88941  0.45495  0.50376  Biso   1.000  H
  C22      1.0000 0.89139  0.50524  0.46639  Biso   1.000  C
  H12      1.0000 0.57688  0.68169  0.59240  Biso   1.000  H
  C23      1.0000 0.57427  0.71586  0.63086  Biso   1.000  C
  C24      1.0000 0.59378  0.62238  0.66195  Biso   1.000  C
  N2       1.0000 0.61659  0.50296  0.64659  Biso   1.000  N
  H13      1.0000 0.44653  0.40039  0.46756  Biso   1.000  H
  H14      1.0000 0.54564  0.43416  0.45687  Biso   1.000  H
  H15      1.0000 0.47324  0.32965  0.45677  Biso   1.000  H
  H16      1.0000 0.47621  0.13895  0.48317  Biso   1.000  H
  H17      1.0000 0.44452  0.21176  0.48356  Biso   1.000  H
  N3       1.0000 0.44695  0.16369  0.52007  Biso   1.000  N
  C25      1.0000 0.62262  0.14650  0.49414  Biso   1.000  C
  H18      1.0000 0.86103  0.33727  0.48317  Biso   1.000  H
  H19      1.0000 0.78822  0.23276  0.48356  Biso   1.000  H
  N4       1.0000 0.83628  0.28324  0.52007  Biso   1.000  N
  H20      1.0000 0.95383  0.55345  0.46756  Biso   1.000  H
  H21      1.0000 0.88853  0.45435  0.45687  Biso   1.000  H
  H22      1.0000 0.85641  0.52677  0.45677  Biso   1.000  H
  H23      1.0000 0.56489  0.76461  0.62739  Biso   1.000  H
  C26      1.0000 0.58130  0.69286  0.65626  Biso   1.000  C
  H24      1.0000 0.59738  0.60781  0.68000  Biso   1.000  H
  C27      1.0000 0.62341  0.47561  0.67370  Biso   1.000  C
  H25      1.0000 0.62267  0.47401  0.63309  Biso   1.000  H
  C28      1.0000 0.36302  0.09508  0.52518  Biso   1.000  C
  H26      1.0000 0.48198  0.19264  0.53357  Biso   1.000  H
  H27      1.0000 0.66984  0.14169  0.50386  Biso   1.000  H
  H28      1.0000 0.56552  0.11060  0.50376  Biso   1.000  H
  C29      1.0000 0.61385  0.10859  0.46639  Biso   1.000  C
  C30      1.0000 0.90492  0.26800  0.52518  Biso   1.000  C
  H29      1.0000 0.80730  0.28933  0.53357  Biso   1.000  H
  H30      1.0000 0.57741  0.72689  0.67050  Biso   1.000  H
  H31      1.0000 0.67059  0.52770  0.68349  Biso   1.000  H
  H32      1.0000 0.56608  0.45489  0.68310  Biso   1.000  H
  C31      1.0000 0.64565  0.40173  0.67336  Biso   1.000  C
  C32      1.0000 0.33222  0.07135  0.55124  Biso   1.000  C
  C33      1.0000 0.30472  0.04426  0.50471  Biso   1.000  C
  H33      1.0000 0.59959  0.04614  0.46756  Biso   1.000  H
  H34      1.0000 0.56584  0.11146  0.45687  Biso   1.000  H
  H35      1.0000 0.67031  0.14356  0.45677  Biso   1.000  H
  C34      1.0000 0.92861  0.26084  0.55124  Biso   1.000  C
  C35      1.0000 0.95569  0.26044  0.50471  Biso   1.000  C
  C36      1.0000 0.57650  0.31220  0.67314  Biso   1.000  C
  C37      1.0000 0.73567  0.42346  0.67314  Biso   1.000  C
  C38      1.0000 0.24803  0.00013  0.55639  Biso   1.000  C
  S3       1.0000 0.40168  0.13453  0.57807  Biso   1.000  S
  H36      1.0000 0.32289  0.05884  0.48666  Biso   1.000  H
  C39      1.0000 0.22177  0.97379  0.51038  Biso   1.000  C
  C40      1.0000 0.99984  0.24787  0.55639  Biso   1.000  C
  S4       1.0000 0.86545  0.26713  0.57807  Biso   1.000  S
  H37      1.0000 0.94111  0.26405  0.48666  Biso   1.000  H
  C41      1.0000 0.02622  0.24794  0.51038  Biso   1.000  C
  C42      1.0000 0.59825  0.24393  0.67336  Biso   1.000  C
  C43      1.0000 0.47980  0.28926  0.67252  Biso   1.000  C
  C44      1.0000 0.75606  0.35432  0.67336  Biso   1.000  C
  C45      1.0000 0.80944  0.52015  0.67252  Biso   1.000  C
  H38      1.0000 0.22857  0.98496  0.57426  Biso   1.000  H
  C46      1.0000 0.19173  0.95079  0.53580  Biso   1.000  C
  S5       1.0000 0.46784  0.06834  0.58859  Biso   1.000  S
  H39      1.0000 0.18384  0.93975  0.49616  Biso   1.000  H
  H40      1.0000 0.01507  0.24359  0.57426  Biso   1.000  H
  C47      1.0000 0.04927  0.24098  0.53580  Biso   1.000  C
  S6       1.0000 0.93165  0.39952  0.58859  Biso   1.000  S
  H41      1.0000 0.06024  0.24406  0.49616  Biso   1.000  H
  C48      1.0000 0.52438  0.14784  0.67370  Biso   1.000  C
  C49      1.0000 0.68778  0.26432  0.67314  Biso   1.000  C
  H42      1.0000 0.47497  0.33647  0.66280  Biso   1.000  H
  H43      1.0000 0.44392  0.23222  0.66290  Biso   1.000  H
  C50      1.0000 0.44189  0.28050  0.70027  Biso   1.000  C
  C51      1.0000 0.85217  0.37652  0.67370  Biso   1.000  C
  H44      1.0000 0.86147  0.52496  0.66280  Biso   1.000  H
  H45      1.0000 0.78828  0.55612  0.66290  Biso   1.000  H
  C52      1.0000 0.83859  0.55806  0.70027  Biso   1.000  C
  H46      1.0000 0.13366  0.90204  0.53926  Biso   1.000  H
  C53      1.0000 0.40470  0.99893  0.61542  Biso   1.000  C
  H47      1.0000 0.09794  0.23156  0.53926  Biso   1.000  H
  C54      1.0000 0.00110  0.40581  0.61542  Biso   1.000  C
  N5       1.0000 0.49701  0.11360  0.64659  Biso   1.000  N
  H48      1.0000 0.47228  0.14289  0.68349  Biso   1.000  H
  H49      1.0000 0.54509  0.11120  0.68310  Biso   1.000  H
  C55      1.0000 0.71072  0.19057  0.67252  Biso   1.000  C
  H50      1.0000 0.37950  0.26633  0.69910  Biso   1.000  H
  H51      1.0000 0.44481  0.23249  0.70979  Biso   1.000  H
  H52      1.0000 0.47692  0.33700  0.70989  Biso   1.000  H
  N6       1.0000 0.88636  0.38341  0.64659  Biso   1.000  N
  H53      1.0000 0.85709  0.32938  0.68349  Biso   1.000  H
  H54      1.0000 0.88878  0.43389  0.68310  Biso   1.000  H
  H55      1.0000 0.88678  0.62051  0.69910  Biso   1.000  H
  H56      1.0000 0.78770  0.55518  0.70979  Biso   1.000  H
  H57      1.0000 0.86007  0.52309  0.70989  Biso   1.000  H
  C56      1.0000 0.42836  0.02969  0.64146  Biso   1.000  C
  C57      1.0000 0.33345  0.91468  0.61027  Biso   1.000  C
  C58      1.0000 0.97025  0.39865  0.64146  Biso   1.000  C
  C59      1.0000 0.08529  0.41878  0.61027  Biso   1.000  C
  H58      1.0000 0.52597  0.14871  0.63309  Biso   1.000  H
  H59      1.0000 0.66348  0.13848  0.66280  Biso   1.000  H
  H60      1.0000 0.76779  0.21170  0.66290  Biso   1.000  H
  C60      1.0000 0.71948  0.16141  0.70027  Biso   1.000  C
  H61      1.0000 0.85129  0.37732  0.63309  Biso   1.000  H
  C61      1.0000 0.37761  0.97138  0.66195  Biso   1.000  C
  H62      1.0000 0.31833  0.89522  0.59240  Biso   1.000  H
  C62      1.0000 0.28404  0.85838  0.63086  Biso   1.000  C
  C63      1.0000 0.02863  0.40621  0.66195  Biso   1.000  C
  H63      1.0000 0.10481  0.42306  0.59240  Biso   1.000  H
  C64      1.0000 0.14161  0.42567  0.63086  Biso   1.000  C
  H64      1.0000 0.73371  0.11320  0.69910  Biso   1.000  H
  H65      1.0000 0.76751  0.21230  0.70979  Biso   1.000  H
  H66      1.0000 0.66297  0.13988  0.70989  Biso   1.000  H
  C65      1.0000 0.30705  0.88840  0.65626  Biso   1.000  C
  H67      1.0000 0.39218  0.98964  0.68000  Biso   1.000  H
  H68      1.0000 0.23545  0.80034  0.62739  Biso   1.000  H
  C66      1.0000 0.11161  0.41871  0.65626  Biso   1.000  C
  H69      1.0000 0.01038  0.40260  0.68000  Biso   1.000  H
  H70      1.0000 0.19971  0.43509  0.62739  Biso   1.000  H
  H71      1.0000 0.27315  0.85049  0.67050  Biso   1.000  H
  H72      1.0000 0.14951  0.42259  0.67050  Biso   1.000  H
  C67      1.0000 0.50524  0.61383  0.53359  Biso   1.000  C
  C68      1.0000 0.47613  0.62265  0.50586  Biso   1.000  C
  H73      1.0000 0.55346  0.59965  0.53244  Biso   1.000  H
  H74      1.0000 0.45437  0.56582  0.54313  Biso   1.000  H
  H75      1.0000 0.52678  0.67033  0.54323  Biso   1.000  H
  C69      1.0000 0.40232  0.64552  0.50646  Biso   1.000  C
  H76      1.0000 0.52813  0.66979  0.49612  Biso   1.000  H
  H77      1.0000 0.45499  0.56555  0.49622  Biso   1.000  H
  C70      1.0000 0.31231  0.57725  0.50670  Biso   1.000  C
  C71      1.0000 0.42277  0.73505  0.50670  Biso   1.000  C
  C72      1.0000 0.29009  0.48116  0.50704  Biso   1.000  C
  C73      1.0000 0.24323  0.59764  0.50646  Biso   1.000  C
  C74      1.0000 0.35442  0.75678  0.50646  Biso   1.000  C
  C75      1.0000 0.51884  0.80894  0.50704  Biso   1.000  C
  N7       1.0000 0.28322  0.44693  0.47993  Biso   1.000  N
  H78      1.0000 0.33725  0.47622  0.51683  Biso   1.000  H
  H79      1.0000 0.23274  0.44452  0.51644  Biso   1.000  H
  C76      1.0000 0.26489  0.68764  0.50670  Biso   1.000  C
  C77      1.0000 0.14654  0.52389  0.50586  Biso   1.000  C
  C78      1.0000 0.37734  0.85347  0.50586  Biso   1.000  C
  H80      1.0000 0.52374  0.86103  0.51683  Biso   1.000  H
  H81      1.0000 0.55543  0.78821  0.51644  Biso   1.000  H
  N8       1.0000 0.55307  0.83629  0.47993  Biso   1.000  N
  C79      1.0000 0.26796  0.36301  0.47480  Biso   1.000  C
  H82      1.0000 0.28937  0.48203  0.46643  Biso   1.000  H
  C80      1.0000 0.19104  0.70984  0.50704  Biso   1.000  C
  H83      1.0000 0.14163  0.47180  0.49612  Biso   1.000  H
  H84      1.0000 0.11054  0.54502  0.49622  Biso   1.000  H
  C81      1.0000 0.10857  0.49474  0.53359  Biso   1.000  C
  H85      1.0000 0.33012  0.85829  0.49612  Biso   1.000  H
  H86      1.0000 0.43447  0.88945  0.49622  Biso   1.000  H
  C82      1.0000 0.38616  0.89138  0.53359  Biso   1.000  C
  C83      1.0000 0.63694  0.90489  0.47480  Biso   1.000  C
  H87      1.0000 0.51798  0.80733  0.46643  Biso   1.000  H
  C84      1.0000 0.26086  0.33225  0.44876  Biso   1.000  C
  C85      1.0000 0.26047  0.30471  0.49527  Biso   1.000  C
  H88      1.0000 0.13898  0.66270  0.51683  Biso   1.000  H
  H89      1.0000 0.21174  0.76721  0.51644  Biso   1.000  H
  N9       1.0000 0.16368  0.71673  0.47993  Biso   1.000  N
  H90      1.0000 0.04618  0.44653  0.53244  Biso   1.000  H
  H91      1.0000 0.11148  0.54562  0.54313  Biso   1.000  H
  H92      1.0000 0.14355  0.47321  0.54323  Biso   1.000  H
  H93      1.0000 0.40036  0.95384  0.53244  Biso   1.000  H
  H94      1.0000 0.43418  0.88851  0.54313  Biso   1.000  H
  H95      1.0000 0.32965  0.85641  0.54323  Biso   1.000  H
  C86      1.0000 0.66774  0.92863  0.44876  Biso   1.000  C
  C87      1.0000 0.69524  0.95571  0.49527  Biso   1.000  C
  S7       1.0000 0.26713  0.40166  0.42193  Biso   1.000  S
  C88      1.0000 0.24787  0.24800  0.44361  Biso   1.000  C
  C89      1.0000 0.24799  0.22173  0.48960  Biso   1.000  C
  H96      1.0000 0.26406  0.32289  0.51334  Biso   1.000  H
  C90      1.0000 0.09504  0.73198  0.47480  Biso   1.000  C
  H97      1.0000 0.19266  0.71065  0.46643  Biso   1.000  H
  S8       1.0000 0.59828  0.86544  0.42193  Biso   1.000  S
  C91      1.0000 0.75199  0.99984  0.44361  Biso   1.000  C
  H98      1.0000 0.67706  0.94113  0.51334  Biso   1.000  H
  C92      1.0000 0.77825  0.02619  0.48960  Biso   1.000  C
  S9       1.0000 0.39949  0.46786  0.41139  Biso   1.000  S
  H99      1.0000 0.24358  0.22855  0.42572  Biso   1.000  H
  C93      1.0000 0.24097  0.19170  0.46420  Biso   1.000  C
  H100     1.0000 0.24403  0.18381  0.50384  Biso   1.000  H
  C94      1.0000 0.07140  0.73913  0.44876  Biso   1.000  C
  C95      1.0000 0.04427  0.73953  0.49527  Biso   1.000  C
  S10      1.0000 0.53212  0.93164  0.41139  Biso   1.000  S
  H101     1.0000 0.77145  0.01502  0.42572  Biso   1.000  H
  C96      1.0000 0.80828  0.04919  0.46420  Biso   1.000  C
  H102     1.0000 0.81611  0.06022  0.50384  Biso   1.000  H
  C97      1.0000 0.40576  0.40467  0.38456  Biso   1.000  C
  H103     1.0000 0.23154  0.13360  0.46073  Biso   1.000  H
  S11      1.0000 0.13450  0.73285  0.42193  Biso   1.000  S
  C98      1.0000 0.00018  0.75210  0.44361  Biso   1.000  C
  H104     1.0000 0.05885  0.73592  0.51334  Biso   1.000  H
  C99      1.0000 0.97374  0.75204  0.48960  Biso   1.000  C
  C100     1.0000 0.59520  0.00104  0.38456  Biso   1.000  C
  H105     1.0000 0.86636  0.09793  0.46073  Biso   1.000  H
  C101     1.0000 0.39870  0.42841  0.35852  Biso   1.000  C
  C102     1.0000 0.41883  0.33353  0.38971  Biso   1.000  C
  S12      1.0000 0.06834  0.60052  0.41139  Biso   1.000  S
  H106     1.0000 0.98494  0.75638  0.42572  Biso   1.000  H
  C103     1.0000 0.95075  0.75899  0.46420  Biso   1.000  C
  H107     1.0000 0.93972  0.75591  0.50384  Biso   1.000  H
  C104     1.0000 0.57160  0.97029  0.35852  Biso   1.000  C
  C105     1.0000 0.66651  0.08529  0.38971  Biso   1.000  C
  C106     1.0000 0.40618  0.37759  0.33805  Biso   1.000  C
  N10      1.0000 0.38343  0.49701  0.35341  Biso   1.000  N
  C107     1.0000 0.42569  0.28411  0.36914  Biso   1.000  C
  H108     1.0000 0.42308  0.31828  0.40760  Biso   1.000  H
  C108     1.0000 0.99886  0.59417  0.38456  Biso   1.000  C
  H109     1.0000 0.90207  0.76842  0.46073  Biso   1.000  H
  N11      1.0000 0.50294  0.88637  0.35341  Biso   1.000  N
  C109     1.0000 0.62241  0.02859  0.33805  Biso   1.000  C
  H110     1.0000 0.68162  0.10475  0.40760  Biso   1.000  H
  C110     1.0000 0.71591  0.14159  0.36914  Biso   1.000  C
  C111     1.0000 0.41871  0.30711  0.34372  Biso   1.000  C
  H111     1.0000 0.40258  0.39217  0.32000  Biso   1.000  H
  C112     1.0000 0.37655  0.52436  0.32628  Biso   1.000  C
  H112     1.0000 0.37729  0.52596  0.36689  Biso   1.000  H
  H113     1.0000 0.43507  0.23537  0.37260  Biso   1.000  H
  C113     1.0000 0.02971  0.60132  0.35852  Biso   1.000  C
  C114     1.0000 0.91466  0.58120  0.38971  Biso   1.000  C
  C115     1.0000 0.47558  0.85213  0.32628  Biso   1.000  C
  H114     1.0000 0.47398  0.85126  0.36689  Biso   1.000  H
  C116     1.0000 0.69291  0.11157  0.34372  Biso   1.000  C
  H115     1.0000 0.60781  0.01040  0.32000  Biso   1.000  H
  H116     1.0000 0.76460  0.19970  0.37260  Biso   1.000  H
  H117     1.0000 0.42260  0.27308  0.32950  Biso   1.000  H
  H118     1.0000 0.32937  0.47227  0.31651  Biso   1.000  H
  H119     1.0000 0.43387  0.54509  0.31690  Biso   1.000  H
  C117     1.0000 0.35437  0.59825  0.32664  Biso   1.000  C
  N12      1.0000 0.11360  0.61657  0.35341  Biso   1.000  N
  C118     1.0000 0.97139  0.59377  0.33805  Biso   1.000  C
  H120     1.0000 0.89521  0.57692  0.40760  Biso   1.000  H
  C119     1.0000 0.85841  0.57431  0.36914  Biso   1.000  C
  C120     1.0000 0.40174  0.75612  0.32664  Biso   1.000  C
  H121     1.0000 0.52768  0.85708  0.31651  Biso   1.000  H
  H122     1.0000 0.45487  0.88878  0.31690  Biso   1.000  H
  H123     1.0000 0.72686  0.14949  0.32950  Biso   1.000  H
  C121     1.0000 0.42345  0.68778  0.32686  Biso   1.000  C
  C122     1.0000 0.26428  0.57651  0.32686  Biso   1.000  C
  C123     1.0000 0.14785  0.62345  0.32628  Biso   1.000  C
  H124     1.0000 0.14870  0.62272  0.36689  Biso   1.000  H
  C124     1.0000 0.88835  0.58126  0.34372  Biso   1.000  C
  H125     1.0000 0.98958  0.59738  0.32000  Biso   1.000  H
  H126     1.0000 0.80030  0.56488  0.37260  Biso   1.000  H
  C125     1.0000 0.31224  0.73565  0.32686  Biso   1.000  C
  C126     1.0000 0.52016  0.71071  0.32748  Biso   1.000  C
  C127     1.0000 0.24390  0.64565  0.32664  Biso   1.000  C
  C128     1.0000 0.19052  0.47983  0.32748  Biso   1.000  C
  H127     1.0000 0.14293  0.67059  0.31651  Biso   1.000  H
  H128     1.0000 0.11117  0.56608  0.31690  Biso   1.000  H
  H129     1.0000 0.85045  0.57738  0.32950  Biso   1.000  H
  C129     1.0000 0.28933  0.80947  0.32748  Biso   1.000  C
  H130     1.0000 0.52499  0.66351  0.33720  Biso   1.000  H
  H131     1.0000 0.55609  0.76775  0.33710  Biso   1.000  H
  C130     1.0000 0.55807  0.71947  0.29973  Biso   1.000  C
  H132     1.0000 0.13848  0.47501  0.33720  Biso   1.000  H
  H133     1.0000 0.21171  0.44392  0.33710  Biso   1.000  H
  C131     1.0000 0.16143  0.44191  0.29973  Biso   1.000  C
  H134     1.0000 0.33647  0.86150  0.33720  Biso   1.000  H
  H135     1.0000 0.23217  0.78828  0.33710  Biso   1.000  H
  C132     1.0000 0.28048  0.83856  0.29973  Biso   1.000  C
  H136     1.0000 0.62049  0.73372  0.30090  Biso   1.000  H
  H137     1.0000 0.55520  0.76748  0.29019  Biso   1.000  H
  H138     1.0000 0.52310  0.66297  0.29009  Biso   1.000  H
  H139     1.0000 0.11318  0.37946  0.30090  Biso   1.000  H
  H140     1.0000 0.21232  0.44479  0.29019  Biso   1.000  H
  H141     1.0000 0.13988  0.47688  0.29009  Biso   1.000  H
  H142     1.0000 0.26630  0.88677  0.30090  Biso   1.000  H
  H143     1.0000 0.23251  0.78768  0.29019  Biso   1.000  H
  H144     1.0000 0.33699  0.86009  0.29009  Biso   1.000  H
  C133     1.0000 0.82806  0.77524  0.63305  Biso   1.000  C
  C134     1.0000 0.85721  0.81315  0.66080  Biso   1.000  C
  H145     1.0000 0.77981  0.71279  0.63422  Biso   1.000  H
  H146     1.0000 0.87895  0.77811  0.62353  Biso   1.000  H
  H147     1.0000 0.80652  0.81021  0.62343  Biso   1.000  H
  C135     1.0000 0.93097  0.90984  0.66018  Biso   1.000  C
  H148     1.0000 0.80518  0.80834  0.67054  Biso   1.000  H
  H149     1.0000 0.87834  0.77724  0.67044  Biso   1.000  H
  C136     1.0000 0.91053  0.97898  0.65996  Biso   1.000  C
  C137     1.0000 0.02100  0.93157  0.65996  Biso   1.000  C
  C138     1.0000 0.81448  0.95678  0.65962  Biso   1.000  C
  C139     1.0000 0.97881  0.06898  0.66018  Biso   1.000  C
  C140     1.0000 0.04324  0.85768  0.65962  Biso   1.000  C
  C141     1.0000 0.09009  0.02110  0.66018  Biso   1.000  C
  H150     1.0000 0.77786  0.89941  0.65022  Biso   1.000  H
  N13      1.0000 0.78023  0.94989  0.68673  Biso   1.000  N
  H151     1.0000 0.80950  0.00392  0.64983  Biso   1.000  H
  C142     1.0000 0.95593  0.14273  0.66080  Biso   1.000  C
  C143     1.0000 0.06834  0.08937  0.65996  Biso   1.000  C
  H152     1.0000 0.99606  0.80560  0.64983  Biso   1.000  H
  H153     1.0000 0.10056  0.87841  0.65022  Biso   1.000  H
  N14      1.0000 0.05006  0.83034  0.68673  Biso   1.000  N
  C144     1.0000 0.18679  0.04404  0.66080  Biso   1.000  C
  C145     1.0000 0.69635  0.93465  0.69186  Biso   1.000  C
  H154     1.0000 0.81539  0.95604  0.70023  Biso   1.000  H
  H155     1.0000 0.89886  0.12160  0.67044  Biso   1.000  H
  C146     1.0000 0.94711  0.17188  0.63305  Biso   1.000  C
  H156     1.0000 0.00311  0.19482  0.67054  Biso   1.000  H
  C147     1.0000 0.14221  0.18546  0.65962  Biso   1.000  C
  C148     1.0000 0.06539  0.76173  0.69186  Biso   1.000  C
  H157     1.0000 0.04398  0.85929  0.70023  Biso   1.000  H
  H158     1.0000 0.19168  0.99683  0.67054  Biso   1.000  H
  H159     1.0000 0.22272  0.10107  0.67044  Biso   1.000  H
  C149     1.0000 0.22470  0.05280  0.63305  Biso   1.000  C
  C150     1.0000 0.66555  0.92749  0.71790  Biso   1.000  C
  C151     1.0000 0.63802  0.92709  0.67137  Biso   1.000  C
  H160     1.0000 0.93288  0.22010  0.63422  Biso   1.000  H
  H161     1.0000 0.89914  0.12100  0.62353  Biso   1.000  H
  H162     1.0000 0.00362  0.19342  0.62343  Biso   1.000  H
  H163     1.0000 0.19437  0.19041  0.64983  Biso   1.000  H
  H164     1.0000 0.12156  0.22210  0.65022  Biso   1.000  H
  N15      1.0000 0.16958  0.21969  0.68673  Biso   1.000  N
  C152     1.0000 0.07245  0.73799  0.71790  Biso   1.000  C
  C153     1.0000 0.07287  0.71091  0.67137  Biso   1.000  C
  H165     1.0000 0.18973  0.99630  0.62343  Biso   1.000  H
  H166     1.0000 0.28709  0.06697  0.63422  Biso   1.000  H
  H167     1.0000 0.22184  0.10081  0.62353  Biso   1.000  H
  C154     1.0000 0.58136  0.91452  0.72305  Biso   1.000  C
  S13      1.0000 0.73503  0.93384  0.74473  Biso   1.000  S
  C155     1.0000 0.55504  0.91459  0.67706  Biso   1.000  C
  H168     1.0000 0.65627  0.93070  0.65332  Biso   1.000  H
  C156     1.0000 0.23823  0.30361  0.69186  Biso   1.000  C
  H169     1.0000 0.14068  0.18459  0.70023  Biso   1.000  H
  C157     1.0000 0.08547  0.66685  0.72305  Biso   1.000  C
  S14      1.0000 0.06618  0.80118  0.74473  Biso   1.000  S
  C158     1.0000 0.08535  0.64044  0.67706  Biso   1.000  C
  H170     1.0000 0.06927  0.72549  0.65332  Biso   1.000  H
  H171     1.0000 0.56184  0.91024  0.74094  Biso   1.000  H
  C159     1.0000 0.52504  0.90763  0.70246  Biso   1.000  C
  S15      1.0000 0.80120  0.06617  0.75527  Biso   1.000  S
  H172     1.0000 0.51714  0.91071  0.66282  Biso   1.000  H
  C160     1.0000 0.26195  0.33437  0.71790  Biso   1.000  C
  C161     1.0000 0.28910  0.36192  0.67137  Biso   1.000  C
  H173     1.0000 0.08977  0.65160  0.74094  Biso   1.000  H
  C162     1.0000 0.09238  0.61744  0.70246  Biso   1.000  C
  S16      1.0000 0.93383  0.73499  0.75527  Biso   1.000  S
  H174     1.0000 0.08923  0.60640  0.66282  Biso   1.000  H
  H175     1.0000 0.46694  0.89820  0.70593  Biso   1.000  H
  C163     1.0000 0.73803  0.07246  0.78210  Biso   1.000  C
  C164     1.0000 0.33320  0.41862  0.72305  Biso   1.000  C
  S17      1.0000 0.19881  0.26496  0.74473  Biso   1.000  S
  C165     1.0000 0.35954  0.44490  0.67706  Biso   1.000  C
  H176     1.0000 0.27445  0.34373  0.65332  Biso   1.000  H
  H177     1.0000 0.10176  0.56869  0.70593  Biso   1.000  H
  C166     1.0000 0.92750  0.66558  0.78210  Biso   1.000  C
  C167     1.0000 0.66681  0.08543  0.77693  Biso   1.000  C
  C168     1.0000 0.76167  0.06530  0.80814  Biso   1.000  C
  H178     1.0000 0.34832  0.43808  0.74094  Biso   1.000  H
  C169     1.0000 0.38255  0.47492  0.70246  Biso   1.000  C
  S18      1.0000 0.26491  0.19876  0.75527  Biso   1.000  S
  H179     1.0000 0.39350  0.48281  0.66282  Biso   1.000  H
  C170     1.0000 0.91450  0.58133  0.77693  Biso   1.000  C
  C171     1.0000 0.93460  0.69634  0.80814  Biso   1.000  C
  H180     1.0000 0.65158  0.08971  0.75906  Biso   1.000  H
  C172     1.0000 0.61738  0.09232  0.79752  Biso   1.000  C
  C173     1.0000 0.71096  0.07286  0.82861  Biso   1.000  C
  N16      1.0000 0.83031  0.05006  0.81325  Biso   1.000  N
  H181     1.0000 0.43123  0.53303  0.70593  Biso   1.000  H
  C174     1.0000 0.33443  0.26195  0.78210  Biso   1.000  C
  H182     1.0000 0.91021  0.56187  0.75906  Biso   1.000  H
  C175     1.0000 0.90760  0.52503  0.79752  Biso   1.000  C
  C176     1.0000 0.92710  0.63803  0.82861  Biso   1.000  C
  N17      1.0000 0.94992  0.78025  0.81325  Biso   1.000  N
  H183     1.0000 0.56871  0.10174  0.79407  Biso   1.000  H
  C177     1.0000 0.64043  0.08536  0.82294  Biso   1.000  C
  H184     1.0000 0.72549  0.06925  0.84666  Biso   1.000  H
  C178     1.0000 0.85762  0.04317  0.84038  Biso   1.000  C
  H185     1.0000 0.85930  0.04397  0.79977  Biso   1.000  H
  C179     1.0000 0.41868  0.33316  0.77693  Biso   1.000  C
  C180     1.0000 0.30357  0.23822  0.80814  Biso   1.000  C
  H186     1.0000 0.89821  0.46699  0.79407  Biso   1.000  H
  C181     1.0000 0.91462  0.55505  0.82294  Biso   1.000  C
  H187     1.0000 0.93069  0.65622  0.84666  Biso   1.000  H
  C182     1.0000 0.95678  0.81449  0.84038  Biso   1.000  C
  H188     1.0000 0.95600  0.81536  0.79977  Biso   1.000  H
  H189     1.0000 0.60641  0.08924  0.83716  Biso   1.000  H
  H190     1.0000 0.80562  0.99603  0.85016  Biso   1.000  H
  H191     1.0000 0.87843  0.10054  0.84976  Biso   1.000  H
  C183     1.0000 0.93153  0.02097  0.84002  Biso   1.000  C
  H192     1.0000 0.43814  0.34834  0.75906  Biso   1.000  H
  C184     1.0000 0.47491  0.38251  0.79752  Biso   1.000  C
  C185     1.0000 0.36193  0.28903  0.82861  Biso   1.000  C
  N18      1.0000 0.21970  0.16961  0.81325  Biso   1.000  N
  H193     1.0000 0.91072  0.51714  0.83716  Biso   1.000  H
  H194     1.0000 0.89943  0.77785  0.84976  Biso   1.000  H
  C186     1.0000 0.97894  0.91057  0.84002  Biso   1.000  C
  H195     1.0000 0.00394  0.80954  0.85016  Biso   1.000  H
  C187     1.0000 0.90986  0.93097  0.83980  Biso   1.000  C
  C188     1.0000 0.02105  0.09011  0.83980  Biso   1.000  C
  H196     1.0000 0.53305  0.43126  0.79407  Biso   1.000  H
  C189     1.0000 0.44488  0.35951  0.82294  Biso   1.000  C
  H197     1.0000 0.34370  0.27446  0.84666  Biso   1.000  H
  C190     1.0000 0.18553  0.14226  0.84038  Biso   1.000  C
  H198     1.0000 0.18461  0.14066  0.79977  Biso   1.000  H
  C191     1.0000 0.06902  0.97884  0.83980  Biso   1.000  C
  C192     1.0000 0.81317  0.85722  0.83918  Biso   1.000  C
  C193     1.0000 0.08940  0.06838  0.84002  Biso   1.000  C
  C194     1.0000 0.04403  0.18680  0.83918  Biso   1.000  C
  H199     1.0000 0.48286  0.39354  0.83716  Biso   1.000  H
  H200     1.0000 0.19044  0.19435  0.85016  Biso   1.000  H
  H201     1.0000 0.22213  0.12154  0.84976  Biso   1.000  H
  C195     1.0000 0.14282  0.95598  0.83918  Biso   1.000  C
  H202     1.0000 0.80832  0.80513  0.82946  Biso   1.000  H
  H203     1.0000 0.77724  0.87835  0.82956  Biso   1.000  H
  C196     1.0000 0.77520  0.82806  0.86693  Biso   1.000  C
  H204     1.0000 0.99681  0.19161  0.82946  Biso   1.000  H
  H205     1.0000 0.10107  0.22270  0.82956  Biso   1.000  H
  C197     1.0000 0.05280  0.22471  0.86693  Biso   1.000  C
  H206     1.0000 0.12162  0.89887  0.82956  Biso   1.000  H
  C198     1.0000 0.17194  0.94715  0.86693  Biso   1.000  C
  H207     1.0000 0.19482  0.00312  0.82946  Biso   1.000  H
  H208     1.0000 0.71282  0.77985  0.86576  Biso   1.000  H
  H209     1.0000 0.77812  0.87895  0.87645  Biso   1.000  H
  H210     1.0000 0.81018  0.80653  0.87655  Biso   1.000  H
  H211     1.0000 0.99634  0.18974  0.87655  Biso   1.000  H
  H212     1.0000 0.06700  0.28716  0.86576  Biso   1.000  H
  H213     1.0000 0.10081  0.22183  0.87645  Biso   1.000  H
  H214     1.0000 0.22015  0.93297  0.86576  Biso   1.000  H
  H215     1.0000 0.12100  0.89914  0.87645  Biso   1.000  H
  H216     1.0000 0.19347  0.00365  0.87655  Biso   1.000  H
  C199     1.0000 0.77521  0.94715  0.36693  Biso   1.000  C
  C200     1.0000 0.81316  0.95598  0.33920  Biso   1.000  C
  H217     1.0000 0.71282  0.93297  0.36576  Biso   1.000  H
  H218     1.0000 0.77814  0.89914  0.37647  Biso   1.000  H
  H219     1.0000 0.81018  0.00365  0.37657  Biso   1.000  H
  C201     1.0000 0.90983  0.97884  0.33980  Biso   1.000  C
  H220     1.0000 0.77725  0.89887  0.32956  Biso   1.000  H
  H221     1.0000 0.80823  0.00312  0.32946  Biso   1.000  H
  C202     1.0000 0.93157  0.91057  0.34002  Biso   1.000  C
  C203     1.0000 0.97897  0.06838  0.34002  Biso   1.000  C
  C204     1.0000 0.85770  0.81449  0.34038  Biso   1.000  C
  C205     1.0000 0.02110  0.93097  0.33980  Biso   1.000  C
  C206     1.0000 0.95679  0.14226  0.34038  Biso   1.000  C
  C207     1.0000 0.06906  0.09011  0.33980  Biso   1.000  C
  N19      1.0000 0.83034  0.78025  0.31325  Biso   1.000  N
  H222     1.0000 0.80560  0.80954  0.35016  Biso   1.000  H
  H223     1.0000 0.87841  0.77785  0.34976  Biso   1.000  H
  C208     1.0000 0.04405  0.85722  0.33920  Biso   1.000  C
  C209     1.0000 0.08944  0.02097  0.34002  Biso   1.000  C
  H224     1.0000 0.89941  0.12154  0.34976  Biso   1.000  H
  N20      1.0000 0.94985  0.16961  0.31325  Biso   1.000  N
  H225     1.0000 0.00392  0.19435  0.35016  Biso   1.000  H
  C210     1.0000 0.14282  0.18680  0.33920  Biso   1.000  C
  C211     1.0000 0.76168  0.69634  0.30814  Biso   1.000  C
  H226     1.0000 0.85930  0.81536  0.29977  Biso   1.000  H
  H227     1.0000 0.99681  0.80513  0.32946  Biso   1.000  H
  H228     1.0000 0.10111  0.87835  0.32956  Biso   1.000  H
  C212     1.0000 0.05286  0.82806  0.36693  Biso   1.000  C
  C213     1.0000 0.18543  0.04317  0.34038  Biso   1.000  C
  C214     1.0000 0.93464  0.23822  0.30814  Biso   1.000  C
  H229     1.0000 0.95599  0.14066  0.29977  Biso   1.000  H
  H230     1.0000 0.19486  0.19161  0.32946  Biso   1.000  H
  H231     1.0000 0.12163  0.22270  0.32956  Biso   1.000  H
  C215     1.0000 0.17185  0.22471  0.36693  Biso   1.000  C
  C216     1.0000 0.73802  0.66558  0.28210  Biso   1.000  C
  C217     1.0000 0.71093  0.63803  0.32861  Biso   1.000  C
  H232     1.0000 0.99629  0.80653  0.37657  Biso   1.000  H
  H233     1.0000 0.06704  0.77985  0.36576  Biso   1.000  H
  H234     1.0000 0.10083  0.87895  0.37647  Biso   1.000  H
  H235     1.0000 0.19041  0.99603  0.35016  Biso   1.000  H
  H236     1.0000 0.22211  0.10054  0.34976  Biso   1.000  H
  N21      1.0000 0.21968  0.05006  0.31325  Biso   1.000  N
  C218     1.0000 0.92746  0.26195  0.28210  Biso   1.000  C
  C219     1.0000 0.92710  0.28903  0.32861  Biso   1.000  C
  H237     1.0000 0.22016  0.28716  0.36576  Biso   1.000  H
  H238     1.0000 0.12102  0.22183  0.37647  Biso   1.000  H
  H239     1.0000 0.19340  0.18974  0.37657  Biso   1.000  H
  C220     1.0000 0.66683  0.58133  0.27695  Biso   1.000  C
  S19      1.0000 0.80116  0.73499  0.25527  Biso   1.000  S
  C221     1.0000 0.64043  0.55505  0.32294  Biso   1.000  C
  H240     1.0000 0.72553  0.65622  0.34666  Biso   1.000  H
  C222     1.0000 0.30357  0.06530  0.30814  Biso   1.000  C
  H241     1.0000 0.18468  0.04397  0.29977  Biso   1.000  H
  C223     1.0000 0.91454  0.33316  0.27695  Biso   1.000  C
  S20      1.0000 0.93374  0.19876  0.25527  Biso   1.000  S
  C224     1.0000 0.91463  0.35951  0.32294  Biso   1.000  C
  H242     1.0000 0.93076  0.27446  0.34666  Biso   1.000  H
  C225     1.0000 0.61743  0.52503  0.29754  Biso   1.000  C
  H243     1.0000 0.65160  0.56187  0.25906  Biso   1.000  H
  S21      1.0000 0.73501  0.80118  0.24473  Biso   1.000  S
  H244     1.0000 0.60642  0.51714  0.33716  Biso   1.000  H
  C226     1.0000 0.33442  0.07246  0.28210  Biso   1.000  C
  C227     1.0000 0.36190  0.07286  0.32861  Biso   1.000  C
  H245     1.0000 0.91026  0.34834  0.25906  Biso   1.000  H
  C228     1.0000 0.90760  0.38251  0.29754  Biso   1.000  C
  S22      1.0000 0.06615  0.26496  0.24473  Biso   1.000  S
  H246     1.0000 0.91074  0.39354  0.33716  Biso   1.000  H
  H247     1.0000 0.56872  0.46699  0.29407  Biso   1.000  H
  C229     1.0000 0.66554  0.73799  0.21790  Biso   1.000  C
  C230     1.0000 0.41862  0.08543  0.27695  Biso   1.000  C
  S23      1.0000 0.26497  0.06617  0.25527  Biso   1.000  S
  C231     1.0000 0.44493  0.08536  0.32294  Biso   1.000  C
  H248     1.0000 0.34376  0.06925  0.34666  Biso   1.000  H
  H249     1.0000 0.89827  0.43126  0.29407  Biso   1.000  H
  C232     1.0000 0.07242  0.33437  0.21790  Biso   1.000  C
  C233     1.0000 0.58138  0.66685  0.22305  Biso   1.000  C
  C234     1.0000 0.69634  0.76173  0.19186  Biso   1.000  C
  H250     1.0000 0.43807  0.08971  0.25906  Biso   1.000  H
  C235     1.0000 0.47487  0.09232  0.29754  Biso   1.000  C
  S24      1.0000 0.19881  0.93384  0.24473  Biso   1.000  S
  H251     1.0000 0.48277  0.08924  0.33716  Biso   1.000  H
  C236     1.0000 0.06532  0.30361  0.19186  Biso   1.000  C
  C237     1.0000 0.08542  0.41862  0.22305  Biso   1.000  C
  H252     1.0000 0.56183  0.65160  0.24094  Biso   1.000  H
  C238     1.0000 0.52506  0.61744  0.20246  Biso   1.000  C
  C239     1.0000 0.63804  0.71091  0.17139  Biso   1.000  C
  N22      1.0000 0.78027  0.83034  0.18673  Biso   1.000  N
  H253     1.0000 0.53298  0.10174  0.29407  Biso   1.000  H
  C240     1.0000 0.26194  0.92749  0.21790  Biso   1.000  C
  N23      1.0000 0.05012  0.21969  0.18673  Biso   1.000  N
  C241     1.0000 0.07287  0.36192  0.17139  Biso   1.000  C
  H254     1.0000 0.08976  0.43808  0.24094  Biso   1.000  H
  C242     1.0000 0.09232  0.47492  0.20246  Biso   1.000  C
  H255     1.0000 0.46693  0.56869  0.20593  Biso   1.000  H
  C243     1.0000 0.55509  0.64044  0.17706  Biso   1.000  C
  H256     1.0000 0.65622  0.72549  0.15332  Biso   1.000  H
  C244     1.0000 0.81445  0.85768  0.15962  Biso   1.000  C
  H257     1.0000 0.81531  0.85929  0.20023  Biso   1.000  H
  C245     1.0000 0.23830  0.93465  0.19186  Biso   1.000  C
  C246     1.0000 0.33316  0.91452  0.22305  Biso   1.000  C
  C247     1.0000 0.04319  0.18546  0.15962  Biso   1.000  C
  H258     1.0000 0.04397  0.18459  0.20023  Biso   1.000  H
  C248     1.0000 0.08530  0.44490  0.17706  Biso   1.000  C
  H259     1.0000 0.06922  0.34373  0.15332  Biso   1.000  H
  H260     1.0000 0.10180  0.53303  0.20593  Biso   1.000  H
  H261     1.0000 0.51717  0.60640  0.16282  Biso   1.000  H
  H262     1.0000 0.80954  0.80560  0.14983  Biso   1.000  H
  H263     1.0000 0.77785  0.87841  0.15022  Biso   1.000  H
  C249     1.0000 0.91057  0.93157  0.15998  Biso   1.000  C
  N24      1.0000 0.16966  0.94989  0.18673  Biso   1.000  N
  C250     1.0000 0.28907  0.92709  0.17139  Biso   1.000  C
  H264     1.0000 0.34840  0.91024  0.24094  Biso   1.000  H
  C251     1.0000 0.38259  0.90763  0.20246  Biso   1.000  C
  C252     1.0000 0.02103  0.08937  0.15998  Biso   1.000  C
  H265     1.0000 0.99598  0.19041  0.14983  Biso   1.000  H
  H266     1.0000 0.10060  0.22210  0.15022  Biso   1.000  H
  H267     1.0000 0.08931  0.48281  0.16282  Biso   1.000  H
  C253     1.0000 0.97886  0.90984  0.16020  Biso   1.000  C
  C254     1.0000 0.93102  0.02110  0.16020  Biso   1.000  C
  C255     1.0000 0.14230  0.95678  0.15962  Biso   1.000  C
  H268     1.0000 0.14065  0.95604  0.20023  Biso   1.000  H
  C256     1.0000 0.35955  0.91459  0.17706  Biso   1.000  C
  H269     1.0000 0.27443  0.93070  0.15332  Biso   1.000  H
  H270     1.0000 0.43127  0.89820  0.20593  Biso   1.000  H
  C257     1.0000 0.09011  0.06898  0.16020  Biso   1.000  C
  C258     1.0000 0.95594  0.81315  0.16080  Biso   1.000  C
  C259     1.0000 0.06845  0.97898  0.15998  Biso   1.000  C
  C260     1.0000 0.85719  0.04404  0.16080  Biso   1.000  C
  H271     1.0000 0.12154  0.89941  0.15022  Biso   1.000  H
  H272     1.0000 0.19436  0.00392  0.14983  Biso   1.000  H
  H273     1.0000 0.39357  0.91071  0.16282  Biso   1.000  H
  C261     1.0000 0.18675  0.14273  0.16080  Biso   1.000  C
  H274     1.0000 0.89884  0.77724  0.17044  Biso   1.000  H
  C262     1.0000 0.94718  0.77524  0.13307  Biso   1.000  C
  H275     1.0000 0.00316  0.80834  0.17054  Biso   1.000  H
  H276     1.0000 0.80515  0.99683  0.17054  Biso   1.000  H
  H277     1.0000 0.87829  0.10107  0.17044  Biso   1.000  H
  C263     1.0000 0.82798  0.05280  0.13307  Biso   1.000  C
  H278     1.0000 0.19165  0.19482  0.17054  Biso   1.000  H
  H279     1.0000 0.22274  0.12160  0.17044  Biso   1.000  H
  C264     1.0000 0.22472  0.17188  0.13307  Biso   1.000  C
  H280     1.0000 0.93292  0.71279  0.13422  Biso   1.000  H
  H281     1.0000 0.89916  0.77811  0.12353  Biso   1.000  H
  H282     1.0000 0.00369  0.81021  0.12343  Biso   1.000  H
  H283     1.0000 0.80656  0.99630  0.12343  Biso   1.000  H
  H284     1.0000 0.77977  0.06697  0.13422  Biso   1.000  H
  H285     1.0000 0.87891  0.10081  0.12353  Biso   1.000  H
  H286     1.0000 0.28716  0.22010  0.13422  Biso   1.000  H
  H287     1.0000 0.22186  0.12100  0.12353  Biso   1.000  H
  H288     1.0000 0.18979  0.19342  0.12343  Biso   1.000  H
  C265     1.0000 0.71947  0.55806  0.20027  Biso   1.000  C
  C266     1.0000 0.71071  0.52015  0.17252  Biso   1.000  C
  H289     1.0000 0.73367  0.62051  0.19910  Biso   1.000  H
  H290     1.0000 0.76749  0.55518  0.20979  Biso   1.000  H
  H291     1.0000 0.66296  0.52309  0.20989  Biso   1.000  H
  C267     1.0000 0.68779  0.42346  0.17314  Biso   1.000  C
  H292     1.0000 0.66349  0.52496  0.16280  Biso   1.000  H
  H293     1.0000 0.76778  0.55612  0.16290  Biso   1.000  H
  C268     1.0000 0.59820  0.35432  0.17336  Biso   1.000  C
  C269     1.0000 0.75608  0.40173  0.17336  Biso   1.000  C
  C270     1.0000 0.57654  0.26432  0.17314  Biso   1.000  C
  C271     1.0000 0.52435  0.37652  0.17372  Biso   1.000  C
  C272     1.0000 0.73563  0.31220  0.17314  Biso   1.000  C
  C273     1.0000 0.85215  0.47561  0.17372  Biso   1.000  C
  C274     1.0000 0.47985  0.19057  0.17252  Biso   1.000  C
  C275     1.0000 0.64562  0.24393  0.17336  Biso   1.000  C
  H294     1.0000 0.47229  0.32938  0.18349  Biso   1.000  H
  H295     1.0000 0.54511  0.43389  0.18310  Biso   1.000  H
  N25      1.0000 0.49699  0.38341  0.14659  Biso   1.000  N
  C276     1.0000 0.80941  0.28926  0.17252  Biso   1.000  C
  H296     1.0000 0.85711  0.52770  0.18349  Biso   1.000  H
  H297     1.0000 0.88880  0.45489  0.18310  Biso   1.000  H
  N26      1.0000 0.88638  0.50296  0.14659  Biso   1.000  N
  C277     1.0000 0.44187  0.16141  0.20027  Biso   1.000  C
  H298     1.0000 0.47500  0.13848  0.16280  Biso   1.000  H
  H299     1.0000 0.44391  0.21170  0.16290  Biso   1.000  H
  C278     1.0000 0.62346  0.14784  0.17372  Biso   1.000  C
  C279     1.0000 0.42835  0.39865  0.14148  Biso   1.000  C
  H300     1.0000 0.52603  0.37732  0.13309  Biso   1.000  H
  H301     1.0000 0.86144  0.33647  0.16280  Biso   1.000  H
  H302     1.0000 0.78830  0.23222  0.16290  Biso   1.000  H
  C280     1.0000 0.83861  0.28050  0.20027  Biso   1.000  C
  C281     1.0000 0.97025  0.57157  0.14148  Biso   1.000  C
  H303     1.0000 0.85128  0.47401  0.13309  Biso   1.000  H
  H304     1.0000 0.37949  0.11320  0.19910  Biso   1.000  H
  H305     1.0000 0.44479  0.21230  0.20979  Biso   1.000  H
  H306     1.0000 0.47686  0.13988  0.20989  Biso   1.000  H
  H307     1.0000 0.67055  0.14289  0.18349  Biso   1.000  H
  H308     1.0000 0.56611  0.11120  0.18310  Biso   1.000  H
  N27      1.0000 0.61659  0.11360  0.14659  Biso   1.000  N
  C282     1.0000 0.40471  0.40581  0.11542  Biso   1.000  C
  C283     1.0000 0.37758  0.40621  0.16195  Biso   1.000  C
  H309     1.0000 0.88677  0.26633  0.19910  Biso   1.000  H
  H310     1.0000 0.78768  0.23249  0.20979  Biso   1.000  H
  H311     1.0000 0.86009  0.33700  0.20989  Biso   1.000  H
  C284     1.0000 0.00111  0.59530  0.11542  Biso   1.000  C
  C285     1.0000 0.02860  0.62238  0.16195  Biso   1.000  C
  C286     1.0000 0.60127  0.02969  0.14148  Biso   1.000  C
  H312     1.0000 0.62268  0.14871  0.13309  Biso   1.000  H
  C287     1.0000 0.33348  0.41878  0.11027  Biso   1.000  C
  S25      1.0000 0.46787  0.39952  0.08859  Biso   1.000  S
  C288     1.0000 0.30710  0.41871  0.15628  Biso   1.000  C
  H313     1.0000 0.39222  0.40260  0.18000  Biso   1.000  H
  S26      1.0000 0.93164  0.53212  0.08859  Biso   1.000  S
  C289     1.0000 0.08530  0.66652  0.11027  Biso   1.000  C
  C290     1.0000 0.11156  0.69286  0.15628  Biso   1.000  C
  H314     1.0000 0.01043  0.60781  0.18000  Biso   1.000  H
  C291     1.0000 0.59423  0.99893  0.11542  Biso   1.000  C
  C292     1.0000 0.59383  0.97138  0.16195  Biso   1.000  C
  H315     1.0000 0.31825  0.42306  0.09240  Biso   1.000  H
  C293     1.0000 0.28406  0.42567  0.13086  Biso   1.000  C
  S27      1.0000 0.40167  0.26713  0.07807  Biso   1.000  S
  H316     1.0000 0.27308  0.42259  0.17050  Biso   1.000  H
  S28      1.0000 0.86549  0.59831  0.07807  Biso   1.000  S
  H317     1.0000 0.10482  0.68169  0.09240  Biso   1.000  H
  C294     1.0000 0.14159  0.71586  0.13086  Biso   1.000  C
  H318     1.0000 0.14948  0.72689  0.17050  Biso   1.000  H
  S29      1.0000 0.60050  0.06834  0.08859  Biso   1.000  S
  C295     1.0000 0.58123  0.91468  0.11027  Biso   1.000  C
  C296     1.0000 0.58130  0.88840  0.15628  Biso   1.000  C
  H319     1.0000 0.59740  0.98964  0.18000  Biso   1.000  H
  H320     1.0000 0.23538  0.43509  0.12740  Biso   1.000  H
  C297     1.0000 0.33223  0.26084  0.05124  Biso   1.000  C
  C298     1.0000 0.92857  0.66772  0.05124  Biso   1.000  C
  H321     1.0000 0.19972  0.76461  0.12740  Biso   1.000  H
  S30      1.0000 0.73285  0.13453  0.07807  Biso   1.000  S
  H322     1.0000 0.57689  0.89522  0.09240  Biso   1.000  H
  C299     1.0000 0.57428  0.85838  0.13086  Biso   1.000  C
  H323     1.0000 0.57734  0.85049  0.17050  Biso   1.000  H
  C300     1.0000 0.24803  0.24787  0.05639  Biso   1.000  C
  C301     1.0000 0.36302  0.26800  0.02520  Biso   1.000  C
  C302     1.0000 0.99982  0.75197  0.05639  Biso   1.000  C
  C303     1.0000 0.90491  0.63696  0.02520  Biso   1.000  C
  C304     1.0000 0.73913  0.07135  0.05124  Biso   1.000  C
  H324     1.0000 0.56489  0.80034  0.12740  Biso   1.000  H
  H325     1.0000 0.22852  0.24359  0.07426  Biso   1.000  H
  C305     1.0000 0.19172  0.24098  0.03580  Biso   1.000  C
  C306     1.0000 0.30470  0.26044  0.00471  Biso   1.000  C
  N28      1.0000 0.44691  0.28324  0.02007  Biso   1.000  N
  H326     1.0000 0.01505  0.77143  0.07426  Biso   1.000  H
  C307     1.0000 0.04922  0.80827  0.03580  Biso   1.000  C
  C308     1.0000 0.95572  0.69527  0.00471  Biso   1.000  C
  N29      1.0000 0.83631  0.55304  0.02007  Biso   1.000  N
  C309     1.0000 0.75211  0.00013  0.05639  Biso   1.000  C
  C310     1.0000 0.73200  0.09508  0.02520  Biso   1.000  C
  H327     1.0000 0.13361  0.23156  0.03927  Biso   1.000  H
  C311     1.0000 0.22172  0.24794  0.01040  Biso   1.000  C
  H328     1.0000 0.32295  0.26405  0.98666  Biso   1.000  H
  H329     1.0000 0.48203  0.28933  0.03357  Biso   1.000  H
  C312     1.0000 0.48116  0.29013  0.99294  Biso   1.000  C
  H330     1.0000 0.09796  0.86638  0.03927  Biso   1.000  H
  C313     1.0000 0.02622  0.77825  0.01040  Biso   1.000  C
  H331     1.0000 0.94112  0.67708  0.98666  Biso   1.000  H
  H332     1.0000 0.80729  0.51794  0.03357  Biso   1.000  H
  C314     1.0000 0.80894  0.51881  0.99294  Biso   1.000  C
  H333     1.0000 0.75645  0.98496  0.07426  Biso   1.000  H
  C315     1.0000 0.75905  0.95079  0.03580  Biso   1.000  C
  C316     1.0000 0.73949  0.04426  0.00471  Biso   1.000  C
  N30      1.0000 0.71674  0.16369  0.02007  Biso   1.000  N
  H334     1.0000 0.18382  0.24406  0.99616  Biso   1.000  H
  H335     1.0000 0.47624  0.33727  0.98317  Biso   1.000  H
  H336     1.0000 0.44454  0.23276  0.98356  Biso   1.000  H
  C317     1.0000 0.57721  0.31233  0.99330  Biso   1.000  C
  H337     1.0000 0.06023  0.81616  0.99616  Biso   1.000  H
  C318     1.0000 0.73502  0.42272  0.99330  Biso   1.000  C
  H338     1.0000 0.86099  0.52376  0.98317  Biso   1.000  H
  H339     1.0000 0.78824  0.55545  0.98356  Biso   1.000  H
  H340     1.0000 0.76844  0.90204  0.03927  Biso   1.000  H
  C319     1.0000 0.75202  0.97379  0.01040  Biso   1.000  C
  H341     1.0000 0.73589  0.05884  0.98666  Biso   1.000  H
  H342     1.0000 0.71060  0.19264  0.03357  Biso   1.000  H
  C320     1.0000 0.70986  0.19103  0.99294  Biso   1.000  C
  C321     1.0000 0.59765  0.24319  0.99352  Biso   1.000  C
  C322     1.0000 0.64554  0.40233  0.99352  Biso   1.000  C
  C323     1.0000 0.75676  0.35445  0.99352  Biso   1.000  C
  H343     1.0000 0.75597  0.93975  0.99616  Biso   1.000  H
  H344     1.0000 0.66273  0.13895  0.98317  Biso   1.000  H
  H345     1.0000 0.76724  0.21176  0.98356  Biso   1.000  H
  C324     1.0000 0.68768  0.26492  0.99330  Biso   1.000  C
  C325     1.0000 0.52389  0.14650  0.99414  Biso   1.000  C
  C326     1.0000 0.62260  0.47608  0.99414  Biso   1.000  C
  C327     1.0000 0.85347  0.37739  0.99414  Biso   1.000  C
  H346     1.0000 0.47185  0.14169  0.00388  Biso   1.000  H
  H347     1.0000 0.54502  0.11060  0.00378  Biso   1.000  H
  C328     1.0000 0.49474  0.10859  0.96639  Biso   1.000  C
  H348     1.0000 0.66984  0.52817  0.00388  Biso   1.000  H
  H349     1.0000 0.56554  0.45495  0.00378  Biso   1.000  H
  C329     1.0000 0.61379  0.50524  0.96639  Biso   1.000  C
  H350     1.0000 0.85830  0.33018  0.00388  Biso   1.000  H
  H351     1.0000 0.88940  0.43443  0.00378  Biso   1.000  H
  C330     1.0000 0.89144  0.38615  0.96639  Biso   1.000  C
  H352     1.0000 0.44649  0.04614  0.96756  Biso   1.000  H
  H353     1.0000 0.54563  0.11146  0.95685  Biso   1.000  H
  H354     1.0000 0.47319  0.14356  0.95675  Biso   1.000  H
  H355     1.0000 0.59961  0.55345  0.96756  Biso   1.000  H
  H356     1.0000 0.56582  0.45435  0.95685  Biso   1.000  H
  H357     1.0000 0.67030  0.52677  0.95675  Biso   1.000  H
  H358     1.0000 0.95380  0.40039  0.96756  Biso   1.000  H
  H359     1.0000 0.88851  0.43416  0.95685  Biso   1.000  H
  H360     1.0000 0.85641  0.32965  0.95675  Biso   1.000  H
  C331     1.0000 0.55808  0.83856  0.79973  Biso   1.000  C
  C332     1.0000 0.52015  0.80947  0.82746  Biso   1.000  C
  H361     1.0000 0.62047  0.88677  0.80090  Biso   1.000  H
  H362     1.0000 0.55517  0.78768  0.79019  Biso   1.000  H
  H363     1.0000 0.52310  0.86009  0.79009  Biso   1.000  H
  C333     1.0000 0.42342  0.73565  0.82686  Biso   1.000  C
  H364     1.0000 0.52502  0.86150  0.83720  Biso   1.000  H
  H365     1.0000 0.55611  0.78828  0.83710  Biso   1.000  H
  C334     1.0000 0.40175  0.64565  0.82664  Biso   1.000  C
  C335     1.0000 0.35437  0.75612  0.82664  Biso   1.000  C
  C336     1.0000 0.31223  0.57651  0.82686  Biso   1.000  C
  C337     1.0000 0.47560  0.62345  0.82628  Biso   1.000  C
  C338     1.0000 0.26432  0.68778  0.82686  Biso   1.000  C
  C339     1.0000 0.37656  0.85213  0.82628  Biso   1.000  C
  C340     1.0000 0.28931  0.47983  0.82746  Biso   1.000  C
  C341     1.0000 0.24388  0.59825  0.82664  Biso   1.000  C
  H366     1.0000 0.52766  0.67059  0.81649  Biso   1.000  H
  H367     1.0000 0.45491  0.56608  0.81690  Biso   1.000  H
  N31      1.0000 0.50297  0.61657  0.85339  Biso   1.000  N
  C342     1.0000 0.19055  0.71071  0.82746  Biso   1.000  C
  H368     1.0000 0.32940  0.85708  0.81649  Biso   1.000  H
  H369     1.0000 0.43391  0.88878  0.81690  Biso   1.000  H
  N32      1.0000 0.38342  0.88637  0.85339  Biso   1.000  N
  C343     1.0000 0.28049  0.44191  0.79973  Biso   1.000  C
  H370     1.0000 0.33653  0.47501  0.83720  Biso   1.000  H
  H371     1.0000 0.23221  0.44392  0.83710  Biso   1.000  H
  C344     1.0000 0.14781  0.52436  0.82628  Biso   1.000  C
  C345     1.0000 0.57161  0.60132  0.85852  Biso   1.000  C
  H372     1.0000 0.47402  0.62272  0.86689  Biso   1.000  H
  H373     1.0000 0.13852  0.66351  0.83720  Biso   1.000  H
  H374     1.0000 0.21166  0.76775  0.83710  Biso   1.000  H
  C346     1.0000 0.16140  0.71947  0.79973  Biso   1.000  C
  C347     1.0000 0.39869  0.97029  0.85852  Biso   1.000  C
  H375     1.0000 0.37728  0.85126  0.86689  Biso   1.000  H
  H376     1.0000 0.26628  0.37946  0.80090  Biso   1.000  H
  H377     1.0000 0.23247  0.44479  0.79019  Biso   1.000  H
  H378     1.0000 0.33700  0.47688  0.79009  Biso   1.000  H
  H379     1.0000 0.14290  0.47227  0.81649  Biso   1.000  H
  H380     1.0000 0.11121  0.54509  0.81690  Biso   1.000  H
  N33      1.0000 0.11358  0.49701  0.85339  Biso   1.000  N
  C348     1.0000 0.59525  0.59417  0.88456  Biso   1.000  C
  C349     1.0000 0.62238  0.59377  0.83805  Biso   1.000  C
  H381     1.0000 0.11322  0.73372  0.80090  Biso   1.000  H
  H382     1.0000 0.21228  0.76748  0.79019  Biso   1.000  H
  H383     1.0000 0.13987  0.66297  0.79009  Biso   1.000  H
  C350     1.0000 0.40573  0.00104  0.88456  Biso   1.000  C
  C351     1.0000 0.40618  0.02859  0.83805  Biso   1.000  C
  C352     1.0000 0.02971  0.42841  0.85852  Biso   1.000  C
  H384     1.0000 0.14867  0.52596  0.86689  Biso   1.000  H
  C353     1.0000 0.66647  0.58120  0.88971  Biso   1.000  C
  S31      1.0000 0.53218  0.60052  0.91139  Biso   1.000  S
  C354     1.0000 0.69285  0.58126  0.84372  Biso   1.000  C
  H385     1.0000 0.60780  0.59738  0.82000  Biso   1.000  H
  S32      1.0000 0.39951  0.93164  0.91139  Biso   1.000  S
  C355     1.0000 0.41878  0.08529  0.88971  Biso   1.000  C
  C356     1.0000 0.41866  0.11157  0.84372  Biso   1.000  C
  H386     1.0000 0.40259  0.01040  0.82000  Biso   1.000  H
  C357     1.0000 0.99885  0.40467  0.88456  Biso   1.000  C
  C358     1.0000 0.97135  0.37759  0.83805  Biso   1.000  C
  H387     1.0000 0.68171  0.57692  0.90760  Biso   1.000  H
  C359     1.0000 0.71590  0.57431  0.86912  Biso   1.000  C
  S33      1.0000 0.59834  0.73285  0.92193  Biso   1.000  S
  H388     1.0000 0.72688  0.57738  0.82948  Biso   1.000  H
  S34      1.0000 0.26716  0.86544  0.92193  Biso   1.000  S
  H389     1.0000 0.42307  0.10475  0.90760  Biso   1.000  H
  C360     1.0000 0.42568  0.14159  0.86912  Biso   1.000  C
  H390     1.0000 0.42262  0.14949  0.82948  Biso   1.000  H
  S35      1.0000 0.06837  0.46786  0.91139  Biso   1.000  S
  C361     1.0000 0.91469  0.33353  0.88971  Biso   1.000  C
  C362     1.0000 0.88840  0.30711  0.84372  Biso   1.000  C
  H391     1.0000 0.98959  0.39217  0.82000  Biso   1.000  H
  H392     1.0000 0.76458  0.56488  0.87260  Biso   1.000  H
  C363     1.0000 0.66773  0.73913  0.94876  Biso   1.000  C
  C364     1.0000 0.26089  0.92863  0.94876  Biso   1.000  C
  H393     1.0000 0.43510  0.19970  0.87260  Biso   1.000  H
  S36      1.0000 0.13453  0.40166  0.92193  Biso   1.000  S
  H394     1.0000 0.89520  0.31828  0.90760  Biso   1.000  H
  C365     1.0000 0.85837  0.28411  0.86912  Biso   1.000  C
  H395     1.0000 0.85048  0.27308  0.82948  Biso   1.000  H
  C366     1.0000 0.75193  0.75210  0.94361  Biso   1.000  C
  C367     1.0000 0.63694  0.73198  0.97480  Biso   1.000  C
  C368     1.0000 0.24785  0.99984  0.94361  Biso   1.000  C
  C369     1.0000 0.26795  0.90489  0.97480  Biso   1.000  C
  C370     1.0000 0.07139  0.33225  0.94876  Biso   1.000  C
  H396     1.0000 0.80029  0.23537  0.87260  Biso   1.000  H
  H397     1.0000 0.77144  0.75638  0.92572  Biso   1.000  H
  C371     1.0000 0.80824  0.75899  0.96420  Biso   1.000  C
  C372     1.0000 0.69526  0.73953  0.99527  Biso   1.000  C
  N34      1.0000 0.55305  0.71673  0.97993  Biso   1.000  N
  H398     1.0000 0.24351  0.01502  0.92572  Biso   1.000  H
  C373     1.0000 0.24091  0.04919  0.96420  Biso   1.000  C
  C374     1.0000 0.26047  0.95571  0.99527  Biso   1.000  C
  N35      1.0000 0.28322  0.83629  0.97993  Biso   1.000  N
  C375     1.0000 0.00014  0.24800  0.94361  Biso   1.000  C
  C376     1.0000 0.09505  0.36301  0.97480  Biso   1.000  C
  H399     1.0000 0.86634  0.76842  0.96073  Biso   1.000  H
  C377     1.0000 0.77824  0.75204  0.98960  Biso   1.000  C
  H400     1.0000 0.67707  0.73592  0.01334  Biso   1.000  H
  H401     1.0000 0.51798  0.71065  0.96643  Biso   1.000  H
  C378     1.0000 0.51880  0.70984  0.00704  Biso   1.000  C
  H402     1.0000 0.23158  0.09793  0.96073  Biso   1.000  H
  C379     1.0000 0.24794  0.02619  0.98960  Biso   1.000  C
  H403     1.0000 0.26407  0.94113  0.01334  Biso   1.000  H
  H404     1.0000 0.28936  0.80733  0.96643  Biso   1.000  H
  C380     1.0000 0.29010  0.80894  0.00704  Biso   1.000  C
  H405     1.0000 0.98497  0.22855  0.92572  Biso   1.000  H
  C381     1.0000 0.95074  0.19170  0.96420  Biso   1.000  C
  C382     1.0000 0.04424  0.30471  0.99527  Biso   1.000  C
  N36      1.0000 0.16370  0.44693  0.97993  Biso   1.000  N
  H406     1.0000 0.81614  0.75591  0.00384  Biso   1.000  H
  H407     1.0000 0.52372  0.66270  0.01683  Biso   1.000  H
  H408     1.0000 0.55548  0.76721  0.01644  Biso   1.000  H
  C383     1.0000 0.42275  0.68764  0.00670  Biso   1.000  C
  H409     1.0000 0.24411  0.06022  0.00384  Biso   1.000  H
  C384     1.0000 0.31228  0.73505  0.00670  Biso   1.000  C
  H410     1.0000 0.33728  0.86103  0.01683  Biso   1.000  H
  H411     1.0000 0.23278  0.78821  0.01644  Biso   1.000  H
  H412     1.0000 0.90205  0.13360  0.96073  Biso   1.000  H
  C385     1.0000 0.97374  0.22173  0.98960  Biso   1.000  C
  H413     1.0000 0.05884  0.32289  0.01334  Biso   1.000  H
  H414     1.0000 0.19266  0.48203  0.96643  Biso   1.000  H
  C386     1.0000 0.19107  0.48116  0.00704  Biso   1.000  C
  C387     1.0000 0.35441  0.59764  0.00648  Biso   1.000  C
  C388     1.0000 0.40237  0.75678  0.00648  Biso   1.000  C
  C389     1.0000 0.24320  0.64552  0.00648  Biso   1.000  C
  H415     1.0000 0.93973  0.18381  0.00384  Biso   1.000  H
  H416     1.0000 0.13897  0.47622  0.01683  Biso   1.000  H
  H417     1.0000 0.21178  0.44452  0.01644  Biso   1.000  H
  C390     1.0000 0.26494  0.57725  0.00670  Biso   1.000  C
  C391     1.0000 0.37735  0.52389  0.00586  Biso   1.000  C
  C392     1.0000 0.47613  0.85347  0.00586  Biso   1.000  C
  C393     1.0000 0.14652  0.62265  0.00586  Biso   1.000  C
  H418     1.0000 0.33017  0.47180  0.99612  Biso   1.000  H
  H419     1.0000 0.43448  0.54502  0.99622  Biso   1.000  H
  C394     1.0000 0.38617  0.49474  0.03361  Biso   1.000  C
  H420     1.0000 0.52816  0.85829  0.99612  Biso   1.000  H
  H421     1.0000 0.45497  0.88945  0.99622  Biso   1.000  H
  C395     1.0000 0.50522  0.89138  0.03361  Biso   1.000  C
  H422     1.0000 0.14166  0.66979  0.99612  Biso   1.000  H
  H423     1.0000 0.11056  0.56555  0.99622  Biso   1.000  H
  C396     1.0000 0.10858  0.61383  0.03361  Biso   1.000  C
  H424     1.0000 0.40034  0.44653  0.03244  Biso   1.000  H
  H425     1.0000 0.43414  0.54562  0.04313  Biso   1.000  H
  H426     1.0000 0.32966  0.47321  0.04323  Biso   1.000  H
  H427     1.0000 0.55347  0.95384  0.03244  Biso   1.000  H
  H428     1.0000 0.45433  0.88851  0.04313  Biso   1.000  H
  H429     1.0000 0.52676  0.85641  0.04323  Biso   1.000  H
  H430     1.0000 0.04619  0.59965  0.03244  Biso   1.000  H
  H431     1.0000 0.11144  0.56582  0.04313  Biso   1.000  H
  H432     1.0000 0.14355  0.67033  0.04323  Biso   1.000  H
  Ne1      1.0000 0.66665  0.33332  0.08333  Biso   1.000  Ne
  He1      1.0000 0.67448  0.59958  0.10924  Biso   1.000  He
  He2      1.0000 0.80803  0.34556  0.05585  Biso   1.000  He
  He3      1.0000 0.53034  0.18936  0.05784  Biso   1.000  He
  Ar1      1.0000 0.66666  0.33332  0.08333  Biso   1.000  Ar
  Ne2      1.0000 0.33332  0.66665  0.41666  Biso   1.000  Ne
  He4      1.0000 0.34106  0.93288  0.44256  Biso   1.000  He
  He5      1.0000 0.47467  0.67885  0.38919  Biso   1.000  He
  He6      1.0000 0.19701  0.52271  0.39115  Biso   1.000  He
  Ar2      1.0000 0.33330  0.66665  0.41666  Biso   1.000  Ar
  Ne3      1.0000 0.99998  0.99998  0.25000  Biso   1.000  Ne
  He7      1.0000 0.99222  0.73698  0.22407  Biso   1.000  He
  He8      1.0000 0.74061  0.00772  0.22412  Biso   1.000  He
  He9      1.0000 0.14782  0.14002  0.22400  Biso   1.000  He
  Ar3      1.0000 0.99998  0.99999  0.25000  Biso   1.000  Ar
  Ne4      1.0000 0.66665  0.33332  0.58333  Biso   1.000  Ne
  He10     1.0000 0.67425  0.01346  0.60876  Biso   1.000  He
  He11     1.0000 0.40728  0.34107  0.55745  Biso   1.000  He
  He12     1.0000 0.81450  0.47290  0.55708  Biso   1.000  He
  Ar4      1.0000 0.66667  0.33332  0.58333  Biso   1.000  Ar
  Ne5      1.0000 0.99998  0.99998  0.74999  Biso   1.000  Ne
  He13     1.0000 0.00777  0.26623  0.77589  Biso   1.000  He
  He14     1.0000 0.14135  0.01220  0.72251  Biso   1.000  He
  He15     1.0000 0.86370  0.85603  0.72450  Biso   1.000  He
  Ar5      1.0000 0.99997  0.99994  0.74999  Biso   1.000  Ar
  Ne6      1.0000 0.33332  0.66665  0.91666  Biso   1.000  Ne
  He16     1.0000 0.32559  0.40366  0.89073  Biso   1.000  He
  He17     1.0000 0.07398  0.67441  0.89078  Biso   1.000  He
  He18     1.0000 0.48117  0.80668  0.89064  Biso   1.000  He
  Ar6      1.0000 0.33335  0.66665  0.91666  Biso   1.000  Ar
