data_image0
_cell_length_a       17.269
_cell_length_b       17.269
_cell_length_c       50.312
_cell_angle_alpha    90
_cell_angle_beta     90
_cell_angle_gamma    120

_symmetry_space_group_name_H-M    "P 1"
_symmetry_int_tables_number       1

loop_
  _symmetry_equiv_pos_as_xyz
  'x, y, z'

loop_
  _atom_site_label
  _atom_site_occupancy
  _atom_site_fract_x
  _atom_site_fract_y
  _atom_site_fract_z
  _atom_site_thermal_displace_type
  _atom_site_B_iso_or_equiv
  _atom_site_type_symbol
  C1       1.0000 0.24799  0.22173  0.48960  Biso   1.000  C
  C2       1.0000 0.24097  0.19170  0.46420  Biso   1.000  C
  C3       1.0000 0.26047  0.30471  0.49527  Biso   1.000  C
  H1       1.0000 0.24403  0.18381  0.50384  Biso   1.000  H
  C4       1.0000 0.24787  0.24800  0.44361  Biso   1.000  C
  H2       1.0000 0.23154  0.13360  0.46073  Biso   1.000  H
  C5       1.0000 0.26796  0.36301  0.47480  Biso   1.000  C
  H3       1.0000 0.26406  0.32289  0.51334  Biso   1.000  H
  C6       1.0000 0.26086  0.33225  0.44876  Biso   1.000  C
  H4       1.0000 0.24358  0.22855  0.42572  Biso   1.000  H
  N1       1.0000 0.28322  0.44693  0.47993  Biso   1.000  N
  S1       1.0000 0.26713  0.40166  0.42193  Biso   1.000  S
  C7       1.0000 0.29009  0.48116  0.50704  Biso   1.000  C
  H5       1.0000 0.28937  0.48203  0.46643  Biso   1.000  H
  S2       1.0000 0.39949  0.46786  0.41139  Biso   1.000  S
  H6       1.0000 0.33725  0.47622  0.51683  Biso   1.000  H
  H7       1.0000 0.23274  0.44452  0.51644  Biso   1.000  H
  C8       1.0000 0.31231  0.57725  0.50670  Biso   1.000  C
  C9       1.0000 0.40576  0.40467  0.38456  Biso   1.000  C
  C10      1.0000 0.40232  0.64552  0.50646  Biso   1.000  C
  C11      1.0000 0.24323  0.59764  0.50646  Biso   1.000  C
  C12      1.0000 0.39870  0.42841  0.35852  Biso   1.000  C
  C13      1.0000 0.41883  0.33353  0.38971  Biso   1.000  C
  C14      1.0000 0.42277  0.73505  0.50670  Biso   1.000  C
  C15      1.0000 0.47613  0.62265  0.50586  Biso   1.000  C
  C16      1.0000 0.26489  0.68764  0.50670  Biso   1.000  C
  C17      1.0000 0.14654  0.52389  0.50586  Biso   1.000  C
  C18      1.0000 0.40618  0.37759  0.33805  Biso   1.000  C
  N2       1.0000 0.38343  0.49701  0.35341  Biso   1.000  N
  C19      1.0000 0.42569  0.28411  0.36914  Biso   1.000  C
  H8       1.0000 0.42308  0.31828  0.40760  Biso   1.000  H
  C20      1.0000 0.51884  0.80894  0.50704  Biso   1.000  C
  C21      1.0000 0.35442  0.75678  0.50646  Biso   1.000  C
  H9       1.0000 0.52813  0.66979  0.49612  Biso   1.000  H
  H10      1.0000 0.45499  0.56555  0.49622  Biso   1.000  H
  C22      1.0000 0.50524  0.61383  0.53359  Biso   1.000  C
  C23      1.0000 0.19104  0.70984  0.50704  Biso   1.000  C
  H11      1.0000 0.14163  0.47180  0.49612  Biso   1.000  H
  H12      1.0000 0.11054  0.54502  0.49622  Biso   1.000  H
  C24      1.0000 0.10857  0.49474  0.53359  Biso   1.000  C
  C25      1.0000 0.41871  0.30711  0.34372  Biso   1.000  C
  H13      1.0000 0.40258  0.39217  0.32000  Biso   1.000  H
  C26      1.0000 0.37655  0.52436  0.32628  Biso   1.000  C
  H14      1.0000 0.37729  0.52596  0.36689  Biso   1.000  H
  H15      1.0000 0.43507  0.23537  0.37260  Biso   1.000  H
  H16      1.0000 0.52374  0.86103  0.51683  Biso   1.000  H
  H17      1.0000 0.55543  0.78821  0.51644  Biso   1.000  H
  N3       1.0000 0.55307  0.83629  0.47993  Biso   1.000  N
  C27      1.0000 0.37734  0.85347  0.50586  Biso   1.000  C
  H18      1.0000 0.55346  0.59965  0.53244  Biso   1.000  H
  H19      1.0000 0.45437  0.56582  0.54313  Biso   1.000  H
  H20      1.0000 0.52678  0.67033  0.54323  Biso   1.000  H
  H21      1.0000 0.13898  0.66270  0.51683  Biso   1.000  H
  H22      1.0000 0.21174  0.76721  0.51644  Biso   1.000  H
  N4       1.0000 0.16368  0.71673  0.47993  Biso   1.000  N
  H23      1.0000 0.04618  0.44653  0.53244  Biso   1.000  H
  H24      1.0000 0.11148  0.54562  0.54313  Biso   1.000  H
  H25      1.0000 0.14355  0.47321  0.54323  Biso   1.000  H
  H26      1.0000 0.42260  0.27308  0.32950  Biso   1.000  H
  H27      1.0000 0.32937  0.47227  0.31651  Biso   1.000  H
  H28      1.0000 0.43387  0.54509  0.31690  Biso   1.000  H
  C28      1.0000 0.35437  0.59825  0.32664  Biso   1.000  C
  C29      1.0000 0.63694  0.90489  0.47480  Biso   1.000  C
  H29      1.0000 0.51798  0.80733  0.46643  Biso   1.000  H
  H30      1.0000 0.33012  0.85829  0.49612  Biso   1.000  H
  H31      1.0000 0.43447  0.88945  0.49622  Biso   1.000  H
  C30      1.0000 0.38616  0.89138  0.53359  Biso   1.000  C
  C31      1.0000 0.09504  0.73198  0.47480  Biso   1.000  C
  H32      1.0000 0.19266  0.71065  0.46643  Biso   1.000  H
  C32      1.0000 0.42345  0.68778  0.32686  Biso   1.000  C
  C33      1.0000 0.26428  0.57651  0.32686  Biso   1.000  C
  C34      1.0000 0.66774  0.92863  0.44876  Biso   1.000  C
  C35      1.0000 0.69524  0.95571  0.49527  Biso   1.000  C
  H33      1.0000 0.40036  0.95384  0.53244  Biso   1.000  H
  H34      1.0000 0.43418  0.88851  0.54313  Biso   1.000  H
  H35      1.0000 0.32965  0.85641  0.54323  Biso   1.000  H
  C36      1.0000 0.07140  0.73913  0.44876  Biso   1.000  C
  C37      1.0000 0.04427  0.73953  0.49527  Biso   1.000  C
  C38      1.0000 0.40174  0.75612  0.32664  Biso   1.000  C
  C39      1.0000 0.52016  0.71071  0.32748  Biso   1.000  C
  C40      1.0000 0.24390  0.64565  0.32664  Biso   1.000  C
  C41      1.0000 0.19052  0.47983  0.32748  Biso   1.000  C
  S3       1.0000 0.59828  0.86544  0.42193  Biso   1.000  S
  C42      1.0000 0.75199  0.99984  0.44361  Biso   1.000  C
  H36      1.0000 0.67706  0.94113  0.51334  Biso   1.000  H
  C43      1.0000 0.77825  0.02619  0.48960  Biso   1.000  C
  S4       1.0000 0.13450  0.73285  0.42193  Biso   1.000  S
  C44      1.0000 0.00018  0.75210  0.44361  Biso   1.000  C
  H37      1.0000 0.05885  0.73592  0.51334  Biso   1.000  H
  C45      1.0000 0.97379  0.75204  0.48960  Biso   1.000  C
  C46      1.0000 0.47558  0.85213  0.32628  Biso   1.000  C
  C47      1.0000 0.31224  0.73565  0.32686  Biso   1.000  C
  H38      1.0000 0.52499  0.66351  0.33720  Biso   1.000  H
  H39      1.0000 0.55609  0.76775  0.33710  Biso   1.000  H
  C48      1.0000 0.55807  0.71947  0.29973  Biso   1.000  C
  C49      1.0000 0.14785  0.62345  0.32628  Biso   1.000  C
  H40      1.0000 0.13848  0.47501  0.33720  Biso   1.000  H
  H41      1.0000 0.21171  0.44392  0.33710  Biso   1.000  H
  C50      1.0000 0.16143  0.44191  0.29973  Biso   1.000  C
  S5       1.0000 0.53212  0.93164  0.41139  Biso   1.000  S
  H42      1.0000 0.77145  0.01502  0.42572  Biso   1.000  H
  C51      1.0000 0.80817  0.04919  0.46420  Biso   1.000  C
  H43      1.0000 0.81611  0.06022  0.50384  Biso   1.000  H
  S6       1.0000 0.06834  0.60052  0.41139  Biso   1.000  S
  H44      1.0000 0.98494  0.75638  0.42572  Biso   1.000  H
  C52      1.0000 0.95075  0.75899  0.46420  Biso   1.000  C
  H45      1.0000 0.93977  0.75591  0.50384  Biso   1.000  H
  H46      1.0000 0.52768  0.85708  0.31651  Biso   1.000  H
  H47      1.0000 0.45487  0.88878  0.31690  Biso   1.000  H
  N5       1.0000 0.50294  0.88637  0.35341  Biso   1.000  N
  C53      1.0000 0.28933  0.80947  0.32748  Biso   1.000  C
  H48      1.0000 0.62049  0.73372  0.30090  Biso   1.000  H
  H49      1.0000 0.55520  0.76748  0.29019  Biso   1.000  H
  H50      1.0000 0.52310  0.66297  0.29009  Biso   1.000  H
  H51      1.0000 0.14293  0.67059  0.31651  Biso   1.000  H
  H52      1.0000 0.11117  0.56608  0.31690  Biso   1.000  H
  N6       1.0000 0.11360  0.61657  0.35341  Biso   1.000  N
  H53      1.0000 0.11318  0.37946  0.30090  Biso   1.000  H
  H54      1.0000 0.21232  0.44479  0.29019  Biso   1.000  H
  H55      1.0000 0.13988  0.47688  0.29009  Biso   1.000  H
  C54      1.0000 0.59520  0.00104  0.38456  Biso   1.000  C
  H56      1.0000 0.86636  0.09793  0.46073  Biso   1.000  H
  C55      1.0000 0.99892  0.59417  0.38456  Biso   1.000  C
  H57      1.0000 0.90207  0.76842  0.46073  Biso   1.000  H
  C56      1.0000 0.57160  0.97029  0.35852  Biso   1.000  C
  H58      1.0000 0.47398  0.85126  0.36689  Biso   1.000  H
  H59      1.0000 0.33647  0.86150  0.33720  Biso   1.000  H
  H60      1.0000 0.23217  0.78828  0.33710  Biso   1.000  H
  C57      1.0000 0.28048  0.83856  0.29973  Biso   1.000  C
  C58      1.0000 0.02971  0.60132  0.35852  Biso   1.000  C
  H61      1.0000 0.14870  0.62272  0.36689  Biso   1.000  H
  C59      1.0000 0.66651  0.08529  0.38971  Biso   1.000  C
  C60      1.0000 0.91472  0.58120  0.38971  Biso   1.000  C
  C61      1.0000 0.62241  0.02859  0.33805  Biso   1.000  C
  H62      1.0000 0.26630  0.88677  0.30090  Biso   1.000  H
  H63      1.0000 0.23251  0.78768  0.29019  Biso   1.000  H
  H64      1.0000 0.33699  0.86009  0.29009  Biso   1.000  H
  C62      1.0000 0.97139  0.59377  0.33805  Biso   1.000  C
  H65      1.0000 0.68162  0.10475  0.40760  Biso   1.000  H
  C63      1.0000 0.71591  0.14159  0.36914  Biso   1.000  C
  H66      1.0000 0.89521  0.57692  0.40760  Biso   1.000  H
  C64      1.0000 0.85841  0.57431  0.36914  Biso   1.000  C
  C65      1.0000 0.69291  0.11157  0.34372  Biso   1.000  C
  H67      1.0000 0.60781  0.01040  0.32000  Biso   1.000  H
  C66      1.0000 0.88841  0.58126  0.34372  Biso   1.000  C
  H68      1.0000 0.98958  0.59738  0.32000  Biso   1.000  H
  H69      1.0000 0.76460  0.19970  0.37260  Biso   1.000  H
  H70      1.0000 0.80030  0.56488  0.37260  Biso   1.000  H
  H71      1.0000 0.72686  0.14949  0.32950  Biso   1.000  H
  H72      1.0000 0.85051  0.57738  0.32950  Biso   1.000  H
  C67      1.0000 0.30472  0.04426  0.50471  Biso   1.000  C
  C68      1.0000 0.36302  0.09508  0.52518  Biso   1.000  C
  H73      1.0000 0.32289  0.05884  0.48666  Biso   1.000  H
  C69      1.0000 0.22177  0.97379  0.51038  Biso   1.000  C
  N7       1.0000 0.44695  0.16369  0.52007  Biso   1.000  N
  C70      1.0000 0.33222  0.07135  0.55124  Biso   1.000  C
  C71      1.0000 0.19173  0.95079  0.53580  Biso   1.000  C
  H74      1.0000 0.18390  0.93975  0.49616  Biso   1.000  H
  C72      1.0000 0.48112  0.19103  0.49294  Biso   1.000  C
  H75      1.0000 0.48198  0.19264  0.53357  Biso   1.000  H
  C73      1.0000 0.24803  0.00013  0.55639  Biso   1.000  C
  S7       1.0000 0.40168  0.13453  0.57807  Biso   1.000  S
  H76      1.0000 0.13366  0.90204  0.53926  Biso   1.000  H
  C74      1.0000 0.57725  0.26492  0.49330  Biso   1.000  C
  H77      1.0000 0.47621  0.13895  0.48317  Biso   1.000  H
  H78      1.0000 0.44452  0.21176  0.48356  Biso   1.000  H
  H79      1.0000 0.22857  0.98496  0.57426  Biso   1.000  H
  S8       1.0000 0.46784  0.06834  0.58859  Biso   1.000  S
  C75      1.0000 0.59763  0.35445  0.49352  Biso   1.000  C
  C76      1.0000 0.64554  0.24319  0.49352  Biso   1.000  C
  C77      1.0000 0.40470  0.99893  0.61542  Biso   1.000  C
  C78      1.0000 0.52386  0.37739  0.49414  Biso   1.000  C
  C79      1.0000 0.68765  0.42272  0.49330  Biso   1.000  C
  C80      1.0000 0.73506  0.31233  0.49330  Biso   1.000  C
  C81      1.0000 0.62262  0.14650  0.49414  Biso   1.000  C
  C82      1.0000 0.42836  0.02969  0.64146  Biso   1.000  C
  C83      1.0000 0.33356  0.91468  0.61027  Biso   1.000  C
  C84      1.0000 0.49471  0.38615  0.46639  Biso   1.000  C
  H80      1.0000 0.47183  0.33018  0.50386  Biso   1.000  H
  H81      1.0000 0.54503  0.43443  0.50376  Biso   1.000  H
  C85      1.0000 0.70987  0.51881  0.49294  Biso   1.000  C
  C86      1.0000 0.75678  0.40233  0.49352  Biso   1.000  C
  C87      1.0000 0.80897  0.29013  0.49294  Biso   1.000  C
  H82      1.0000 0.66984  0.14169  0.50386  Biso   1.000  H
  H83      1.0000 0.56552  0.11060  0.50376  Biso   1.000  H
  C88      1.0000 0.61385  0.10859  0.46639  Biso   1.000  C
  N8       1.0000 0.49701  0.11360  0.64659  Biso   1.000  N
  C89      1.0000 0.37766  0.97138  0.66195  Biso   1.000  C
  H84      1.0000 0.31833  0.89522  0.59240  Biso   1.000  H
  C90      1.0000 0.28416  0.85838  0.63086  Biso   1.000  C
  H85      1.0000 0.44653  0.40039  0.46756  Biso   1.000  H
  H86      1.0000 0.54564  0.43416  0.45687  Biso   1.000  H
  H87      1.0000 0.47324  0.32965  0.45677  Biso   1.000  H
  H88      1.0000 0.66271  0.52376  0.48317  Biso   1.000  H
  H89      1.0000 0.76722  0.55545  0.48356  Biso   1.000  H
  N9       1.0000 0.71673  0.55304  0.52007  Biso   1.000  N
  C91      1.0000 0.85348  0.47608  0.49414  Biso   1.000  C
  H90      1.0000 0.86103  0.33727  0.48317  Biso   1.000  H
  H91      1.0000 0.78822  0.23276  0.48356  Biso   1.000  H
  N10      1.0000 0.83628  0.28324  0.52007  Biso   1.000  N
  H92      1.0000 0.59959  0.04614  0.46756  Biso   1.000  H
  H93      1.0000 0.56584  0.11146  0.45687  Biso   1.000  H
  H94      1.0000 0.67031  0.14356  0.45677  Biso   1.000  H
  C92      1.0000 0.52438  0.14784  0.67370  Biso   1.000  C
  H95      1.0000 0.52597  0.14871  0.63309  Biso   1.000  H
  C93      1.0000 0.30716  0.88840  0.65626  Biso   1.000  C
  H96      1.0000 0.39226  0.98957  0.68000  Biso   1.000  H
  H97      1.0000 0.23542  0.80027  0.62739  Biso   1.000  H
  C94      1.0000 0.73200  0.63696  0.52518  Biso   1.000  C
  H98      1.0000 0.71059  0.51794  0.53357  Biso   1.000  H
  H99      1.0000 0.85833  0.52817  0.50386  Biso   1.000  H
  H100     1.0000 0.88941  0.45495  0.50376  Biso   1.000  H
  C95      1.0000 0.89139  0.50524  0.46639  Biso   1.000  C
  C96      1.0000 0.90492  0.26800  0.52518  Biso   1.000  C
  H101     1.0000 0.80730  0.28933  0.53357  Biso   1.000  H
  H102     1.0000 0.47228  0.14289  0.68349  Biso   1.000  H
  H103     1.0000 0.54509  0.11120  0.68310  Biso   1.000  H
  C97      1.0000 0.59825  0.24393  0.67336  Biso   1.000  C
  H104     1.0000 0.27315  0.85049  0.67050  Biso   1.000  H
  C98      1.0000 0.73909  0.66772  0.55124  Biso   1.000  C
  C99      1.0000 0.73955  0.69527  0.50471  Biso   1.000  C
  H105     1.0000 0.95383  0.55345  0.46756  Biso   1.000  H
  H106     1.0000 0.88853  0.45435  0.45687  Biso   1.000  H
  H107     1.0000 0.85641  0.52677  0.45677  Biso   1.000  H
  C100     1.0000 0.92861  0.26084  0.55124  Biso   1.000  C
  C101     1.0000 0.95569  0.26044  0.50471  Biso   1.000  C
  C102     1.0000 0.57650  0.31220  0.67314  Biso   1.000  C
  C103     1.0000 0.68778  0.26432  0.67314  Biso   1.000  C
  C104     1.0000 0.75215  0.75197  0.55639  Biso   1.000  C
  S9       1.0000 0.73282  0.59831  0.57807  Biso   1.000  S
  C105     1.0000 0.75203  0.77825  0.51038  Biso   1.000  C
  H108     1.0000 0.73596  0.67708  0.48666  Biso   1.000  H
  C106     1.0000 0.99984  0.24787  0.55639  Biso   1.000  C
  S10      1.0000 0.86545  0.26713  0.57807  Biso   1.000  S
  H109     1.0000 0.94111  0.26405  0.48666  Biso   1.000  H
  C107     1.0000 0.02622  0.24794  0.51038  Biso   1.000  C
  C108     1.0000 0.64565  0.40173  0.67336  Biso   1.000  C
  C109     1.0000 0.47980  0.28926  0.67252  Biso   1.000  C
  C110     1.0000 0.75606  0.35432  0.67336  Biso   1.000  C
  C111     1.0000 0.71072  0.19057  0.67252  Biso   1.000  C
  H110     1.0000 0.75638  0.77143  0.57426  Biso   1.000  H
  C112     1.0000 0.75905  0.80827  0.53580  Biso   1.000  C
  S11      1.0000 0.60047  0.53212  0.58859  Biso   1.000  S
  H111     1.0000 0.75593  0.81616  0.49616  Biso   1.000  H
  H112     1.0000 0.01501  0.24359  0.57426  Biso   1.000  H
  C113     1.0000 0.04921  0.24098  0.53580  Biso   1.000  C
  S12      1.0000 0.93165  0.39952  0.58859  Biso   1.000  S
  H113     1.0000 0.06018  0.24406  0.49616  Biso   1.000  H
  C114     1.0000 0.62341  0.47561  0.67370  Biso   1.000  C
  C115     1.0000 0.73567  0.42346  0.67314  Biso   1.000  C
  H114     1.0000 0.47497  0.33647  0.66280  Biso   1.000  H
  H115     1.0000 0.44392  0.23222  0.66290  Biso   1.000  H
  C116     1.0000 0.44189  0.28050  0.70027  Biso   1.000  C
  C117     1.0000 0.85217  0.37652  0.67370  Biso   1.000  C
  H116     1.0000 0.66348  0.13848  0.66280  Biso   1.000  H
  H117     1.0000 0.76779  0.21170  0.66290  Biso   1.000  H
  C118     1.0000 0.71948  0.16141  0.70027  Biso   1.000  C
  H118     1.0000 0.76841  0.86638  0.53926  Biso   1.000  H
  C119     1.0000 0.59419  0.59530  0.61542  Biso   1.000  C
  H119     1.0000 0.09788  0.23156  0.53926  Biso   1.000  H
  C120     1.0000 0.00110  0.40581  0.61542  Biso   1.000  C
  N11      1.0000 0.61659  0.50296  0.64659  Biso   1.000  N
  H120     1.0000 0.67059  0.52770  0.68349  Biso   1.000  H
  H121     1.0000 0.56608  0.45489  0.68310  Biso   1.000  H
  C121     1.0000 0.80944  0.52015  0.67252  Biso   1.000  C
  H122     1.0000 0.37950  0.26633  0.69910  Biso   1.000  H
  H123     1.0000 0.44481  0.23249  0.70979  Biso   1.000  H
  H124     1.0000 0.47692  0.33700  0.70989  Biso   1.000  H
  N12      1.0000 0.88636  0.38341  0.64659  Biso   1.000  N
  H125     1.0000 0.85709  0.32938  0.68349  Biso   1.000  H
  H126     1.0000 0.88878  0.43389  0.68310  Biso   1.000  H
  H127     1.0000 0.73371  0.11320  0.69910  Biso   1.000  H
  H128     1.0000 0.76751  0.21230  0.70979  Biso   1.000  H
  H129     1.0000 0.66297  0.13988  0.70989  Biso   1.000  H
  C122     1.0000 0.58122  0.66652  0.61027  Biso   1.000  C
  C123     1.0000 0.60126  0.57157  0.64146  Biso   1.000  C
  C124     1.0000 0.97025  0.39865  0.64146  Biso   1.000  C
  C125     1.0000 0.08529  0.41878  0.61027  Biso   1.000  C
  H130     1.0000 0.62267  0.47401  0.63309  Biso   1.000  H
  H131     1.0000 0.86147  0.52496  0.66280  Biso   1.000  H
  H132     1.0000 0.78828  0.55612  0.66290  Biso   1.000  H
  C126     1.0000 0.83859  0.55806  0.70027  Biso   1.000  C
  H133     1.0000 0.85129  0.37732  0.63309  Biso   1.000  H
  H134     1.0000 0.57688  0.68169  0.59240  Biso   1.000  H
  C127     1.0000 0.57427  0.71586  0.63086  Biso   1.000  C
  C128     1.0000 0.59378  0.62238  0.66195  Biso   1.000  C
  C129     1.0000 0.02857  0.40621  0.66195  Biso   1.000  C
  H135     1.0000 0.10475  0.42306  0.59240  Biso   1.000  H
  C130     1.0000 0.14155  0.42567  0.63086  Biso   1.000  C
  H136     1.0000 0.88678  0.62051  0.69910  Biso   1.000  H
  H137     1.0000 0.78770  0.55518  0.70979  Biso   1.000  H
  H138     1.0000 0.86007  0.52309  0.70989  Biso   1.000  H
  H139     1.0000 0.56489  0.76461  0.62739  Biso   1.000  H
  C131     1.0000 0.58130  0.69286  0.65626  Biso   1.000  C
  H140     1.0000 0.59738  0.60781  0.68000  Biso   1.000  H
  C132     1.0000 0.11161  0.41871  0.65626  Biso   1.000  C
  H141     1.0000 0.01038  0.40260  0.68000  Biso   1.000  H
  H142     1.0000 0.19965  0.43509  0.62739  Biso   1.000  H
  H143     1.0000 0.57741  0.72689  0.67050  Biso   1.000  H
  H144     1.0000 0.14945  0.42259  0.67050  Biso   1.000  H
  C133     1.0000 0.14281  0.18682  0.33920  Biso   1.000  C
  C134     1.0000 0.14275  0.18682  0.33920  Biso   1.000  C
  H145     1.0000 0.22015  0.28719  0.36576  Biso   1.000  H
  H146     1.0000 0.12101  0.22186  0.37647  Biso   1.000  H
  H147     1.0000 0.19338  0.18976  0.37657  Biso   1.000  H
  H148     1.0000 0.12106  0.22186  0.37647  Biso   1.000  H
  C135     1.0000 0.06904  0.09013  0.33980  Biso   1.000  C
  C136     1.0000 0.06898  0.09013  0.33980  Biso   1.000  C
  C137     1.0000 0.17190  0.22473  0.36693  Biso   1.000  C
  H149     1.0000 0.19478  0.19164  0.32946  Biso   1.000  H
  H150     1.0000 0.12165  0.22280  0.32956  Biso   1.000  H
  C138     1.0000 0.08946  0.02106  0.34002  Biso   1.000  C
  C139     1.0000 0.08937  0.02100  0.34002  Biso   1.000  C
  C140     1.0000 0.97896  0.06840  0.34002  Biso   1.000  C
  C141     1.0000 0.18548  0.04320  0.34038  Biso   1.000  C
  C142     1.0000 0.18557  0.04326  0.34038  Biso   1.000  C
  C143     1.0000 0.02115  0.93099  0.33980  Biso   1.000  C
  C144     1.0000 0.90981  0.97887  0.33980  Biso   1.000  C
  C145     1.0000 0.90993  0.97887  0.33980  Biso   1.000  C
  C146     1.0000 0.95672  0.14229  0.34038  Biso   1.000  C
  N13      1.0000 0.21973  0.05008  0.31325  Biso   1.000  N
  H151     1.0000 0.19040  0.99605  0.35016  Biso   1.000  H
  H152     1.0000 0.22209  0.10057  0.34976  Biso   1.000  H
  C147     1.0000 0.93162  0.91060  0.34002  Biso   1.000  C
  C148     1.0000 0.93167  0.91060  0.34002  Biso   1.000  C
  C149     1.0000 0.04409  0.85724  0.33920  Biso   1.000  C
  C150     1.0000 0.81322  0.95594  0.33920  Biso   1.000  C
  C151     1.0000 0.81320  0.95600  0.33920  Biso   1.000  C
  N14      1.0000 0.94990  0.16964  0.31325  Biso   1.000  N
  H153     1.0000 0.89939  0.12156  0.34976  Biso   1.000  H
  H154     1.0000 0.00390  0.19438  0.35016  Biso   1.000  H
  C152     1.0000 0.30361  0.06533  0.30814  Biso   1.000  C
  H155     1.0000 0.18466  0.04400  0.29977  Biso   1.000  H
  H156     1.0000 0.18460  0.04400  0.29977  Biso   1.000  H
  C153     1.0000 0.85769  0.81452  0.34038  Biso   1.000  C
  C154     1.0000 0.05285  0.82809  0.36693  Biso   1.000  C
  H157     1.0000 0.99679  0.80515  0.32946  Biso   1.000  H
  H158     1.0000 0.10115  0.87837  0.32956  Biso   1.000  H
  H159     1.0000 0.10109  0.87837  0.32956  Biso   1.000  H
  H160     1.0000 0.77723  0.89890  0.32956  Biso   1.000  H
  C155     1.0000 0.77526  0.94718  0.36693  Biso   1.000  C
  H161     1.0000 0.80828  0.00314  0.32946  Biso   1.000  H
  H162     1.0000 0.95603  0.14069  0.29977  Biso   1.000  H
  C156     1.0000 0.93457  0.23824  0.30814  Biso   1.000  C
  H163     1.0000 0.95598  0.14069  0.29977  Biso   1.000  H
  C157     1.0000 0.36194  0.07288  0.32861  Biso   1.000  C
  C158     1.0000 0.33441  0.07248  0.28210  Biso   1.000  C
  C159     1.0000 0.33446  0.07248  0.28210  Biso   1.000  C
  H164     1.0000 0.80565  0.80957  0.35016  Biso   1.000  H
  H165     1.0000 0.87846  0.77787  0.34976  Biso   1.000  H
  N15      1.0000 0.83038  0.78028  0.31325  Biso   1.000  N
  H166     1.0000 0.99634  0.80656  0.37657  Biso   1.000  H
  H167     1.0000 0.06702  0.77988  0.36576  Biso   1.000  H
  H168     1.0000 0.10087  0.87897  0.37647  Biso   1.000  H
  H169     1.0000 0.71287  0.93300  0.36576  Biso   1.000  H
  H170     1.0000 0.77806  0.89917  0.37647  Biso   1.000  H
  H171     1.0000 0.77812  0.89917  0.37647  Biso   1.000  H
  H172     1.0000 0.81022  0.00368  0.37657  Biso   1.000  H
  C160     1.0000 0.92750  0.26198  0.28210  Biso   1.000  C
  C161     1.0000 0.92709  0.28906  0.32861  Biso   1.000  C
  C162     1.0000 0.44492  0.08539  0.32294  Biso   1.000  C
  H173     1.0000 0.34375  0.06927  0.34666  Biso   1.000  H
  H174     1.0000 0.34369  0.06927  0.34666  Biso   1.000  H
  C163     1.0000 0.44498  0.08539  0.32294  Biso   1.000  C
  C164     1.0000 0.41860  0.08545  0.27695  Biso   1.000  C
  S13      1.0000 0.26502  0.06620  0.25527  Biso   1.000  S
  S14      1.0000 0.26496  0.06620  0.25527  Biso   1.000  S
  C165     1.0000 0.41866  0.08545  0.27695  Biso   1.000  C
  C166     1.0000 0.76167  0.69636  0.30814  Biso   1.000  C
  H175     1.0000 0.85928  0.81538  0.29977  Biso   1.000  H
  C167     1.0000 0.76178  0.69636  0.30814  Biso   1.000  C
  H176     1.0000 0.85934  0.81538  0.29977  Biso   1.000  H
  C168     1.0000 0.91453  0.33319  0.27695  Biso   1.000  C
  S15      1.0000 0.93378  0.19879  0.25527  Biso   1.000  S
  C169     1.0000 0.91461  0.35954  0.32294  Biso   1.000  C
  H177     1.0000 0.93074  0.27448  0.34666  Biso   1.000  H
  H178     1.0000 0.93069  0.27448  0.34666  Biso   1.000  H
  C170     1.0000 0.47492  0.09234  0.29754  Biso   1.000  C
  H179     1.0000 0.48282  0.08927  0.33716  Biso   1.000  H
  H180     1.0000 0.43815  0.08980  0.25906  Biso   1.000  H
  H181     1.0000 0.43806  0.08973  0.25906  Biso   1.000  H
  S16      1.0000 0.19882  0.93380  0.24473  Biso   1.000  S
  S17      1.0000 0.19885  0.93387  0.24473  Biso   1.000  S
  C171     1.0000 0.71092  0.63806  0.32861  Biso   1.000  C
  C172     1.0000 0.73801  0.66561  0.28210  Biso   1.000  C
  C173     1.0000 0.73812  0.66561  0.28210  Biso   1.000  C
  H182     1.0000 0.91024  0.34837  0.25906  Biso   1.000  H
  C174     1.0000 0.90764  0.38254  0.29754  Biso   1.000  C
  C175     1.0000 0.90758  0.38254  0.29754  Biso   1.000  C
  H183     1.0000 0.91019  0.34837  0.25906  Biso   1.000  H
  S18      1.0000 0.06613  0.26499  0.24473  Biso   1.000  S
  H184     1.0000 0.91072  0.39357  0.33716  Biso   1.000  H
  H185     1.0000 0.53302  0.10177  0.29407  Biso   1.000  H
  C176     1.0000 0.26192  0.92752  0.21790  Biso   1.000  C
  H186     1.0000 0.72551  0.65624  0.34666  Biso   1.000  H
  C177     1.0000 0.64036  0.55508  0.32294  Biso   1.000  C
  C178     1.0000 0.64041  0.55508  0.32294  Biso   1.000  C
  C179     1.0000 0.66681  0.58136  0.27695  Biso   1.000  C
  S19      1.0000 0.80120  0.73501  0.25527  Biso   1.000  S
  H187     1.0000 0.89825  0.43128  0.29407  Biso   1.000  H
  H188     1.0000 0.89819  0.43128  0.29407  Biso   1.000  H
  C180     1.0000 0.07249  0.33446  0.21790  Biso   1.000  C
  C181     1.0000 0.07240  0.33439  0.21790  Biso   1.000  C
  C182     1.0000 0.33321  0.91455  0.22305  Biso   1.000  C
  C183     1.0000 0.23828  0.93467  0.19186  Biso   1.000  C
  C184     1.0000 0.23823  0.93467  0.19186  Biso   1.000  C
  C185     1.0000 0.61741  0.52505  0.29754  Biso   1.000  C
  H189     1.0000 0.60646  0.51716  0.33716  Biso   1.000  H
  H190     1.0000 0.65170  0.56190  0.25906  Biso   1.000  H
  S20      1.0000 0.73499  0.80121  0.24473  Biso   1.000  S
  C186     1.0000 0.06536  0.30364  0.19186  Biso   1.000  C
  C187     1.0000 0.08552  0.41864  0.22305  Biso   1.000  C
  C188     1.0000 0.38257  0.90766  0.20246  Biso   1.000  C
  H191     1.0000 0.34844  0.91027  0.24094  Biso   1.000  H
  H192     1.0000 0.34832  0.91027  0.24094  Biso   1.000  H
  C189     1.0000 0.28911  0.92712  0.17139  Biso   1.000  C
  C190     1.0000 0.28900  0.92712  0.17139  Biso   1.000  C
  N16      1.0000 0.16959  0.94992  0.18673  Biso   1.000  N
  H193     1.0000 0.56873  0.46695  0.29407  Biso   1.000  H
  H194     1.0000 0.56876  0.46701  0.29407  Biso   1.000  H
  C191     1.0000 0.66552  0.73802  0.21790  Biso   1.000  C
  N17      1.0000 0.05004  0.21972  0.18673  Biso   1.000  N
  C192     1.0000 0.07292  0.36194  0.17139  Biso   1.000  C
  H195     1.0000 0.08974  0.43810  0.24094  Biso   1.000  H
  C193     1.0000 0.09242  0.47495  0.20246  Biso   1.000  C
  H196     1.0000 0.43125  0.89823  0.20593  Biso   1.000  H
  C194     1.0000 0.35959  0.91461  0.17706  Biso   1.000  C
  H197     1.0000 0.43119  0.89823  0.20593  Biso   1.000  H
  H198     1.0000 0.27447  0.93073  0.15332  Biso   1.000  H
  C195     1.0000 0.14228  0.95680  0.15962  Biso   1.000  C
  H199     1.0000 0.14066  0.95600  0.20023  Biso   1.000  H
  H200     1.0000 0.14064  0.95607  0.20023  Biso   1.000  H
  H201     1.0000 0.14060  0.95600  0.20023  Biso   1.000  H
  C196     1.0000 0.58128  0.66681  0.22305  Biso   1.000  C
  C197     1.0000 0.69639  0.76176  0.19186  Biso   1.000  C
  C198     1.0000 0.58133  0.66681  0.22305  Biso   1.000  C
  C199     1.0000 0.04323  0.18548  0.15962  Biso   1.000  C
  C200     1.0000 0.04317  0.18548  0.15962  Biso   1.000  C
  H202     1.0000 0.04396  0.18462  0.20023  Biso   1.000  H
  H203     1.0000 0.06927  0.34376  0.15332  Biso   1.000  H
  C201     1.0000 0.08540  0.44492  0.17706  Biso   1.000  C
  H204     1.0000 0.06932  0.34376  0.15332  Biso   1.000  H
  H205     1.0000 0.10178  0.53305  0.20593  Biso   1.000  H
  H206     1.0000 0.39355  0.91073  0.16282  Biso   1.000  H
  H207     1.0000 0.39349  0.91073  0.16282  Biso   1.000  H
  C202     1.0000 0.06843  0.97900  0.15998  Biso   1.000  C
  H208     1.0000 0.12164  0.89943  0.15022  Biso   1.000  H
  H209     1.0000 0.12153  0.89943  0.15022  Biso   1.000  H
  H210     1.0000 0.19440  0.00395  0.14983  Biso   1.000  H
  H211     1.0000 0.56182  0.65163  0.24094  Biso   1.000  H
  C203     1.0000 0.52504  0.61746  0.20246  Biso   1.000  C
  H212     1.0000 0.56187  0.65163  0.24094  Biso   1.000  H
  N18      1.0000 0.78032  0.83036  0.18673  Biso   1.000  N
  C204     1.0000 0.63803  0.71094  0.17139  Biso   1.000  C
  C205     1.0000 0.63814  0.71094  0.17139  Biso   1.000  C
  C206     1.0000 0.02102  0.08940  0.15998  Biso   1.000  C
  C207     1.0000 0.02105  0.08947  0.15998  Biso   1.000  C
  H213     1.0000 0.99608  0.19043  0.14983  Biso   1.000  H
  H214     1.0000 0.99602  0.19043  0.14983  Biso   1.000  H
  H215     1.0000 0.10058  0.22213  0.15022  Biso   1.000  H
  H216     1.0000 0.10052  0.22213  0.15022  Biso   1.000  H
  H217     1.0000 0.08930  0.48284  0.16282  Biso   1.000  H
  H218     1.0000 0.08924  0.48284  0.16282  Biso   1.000  H
  C208     1.0000 0.97885  0.90987  0.16020  Biso   1.000  C
  C209     1.0000 0.09009  0.06901  0.16020  Biso   1.000  C
  C210     1.0000 0.09015  0.06901  0.16020  Biso   1.000  C
  H219     1.0000 0.46697  0.56872  0.20593  Biso   1.000  H
  C211     1.0000 0.55502  0.64046  0.17706  Biso   1.000  C
  C212     1.0000 0.55507  0.64046  0.17706  Biso   1.000  C
  H220     1.0000 0.81535  0.85931  0.20023  Biso   1.000  H
  C213     1.0000 0.81443  0.85771  0.15962  Biso   1.000  C
  C214     1.0000 0.81455  0.85771  0.15962  Biso   1.000  C
  H221     1.0000 0.65620  0.72552  0.15332  Biso   1.000  H
  H222     1.0000 0.65626  0.72552  0.15332  Biso   1.000  H
  C215     1.0000 0.93094  0.02113  0.16020  Biso   1.000  C
  C216     1.0000 0.91050  0.93160  0.15998  Biso   1.000  C
  C217     1.0000 0.95598  0.81318  0.16080  Biso   1.000  C
  C218     1.0000 0.91055  0.93160  0.15998  Biso   1.000  C
  C219     1.0000 0.18679  0.14276  0.16080  Biso   1.000  C
  C220     1.0000 0.18688  0.14282  0.16080  Biso   1.000  C
  H223     1.0000 0.51710  0.60643  0.16282  Biso   1.000  H
  H224     1.0000 0.51721  0.60643  0.16282  Biso   1.000  H
  H225     1.0000 0.80952  0.80562  0.14983  Biso   1.000  H
  H226     1.0000 0.77783  0.87844  0.15022  Biso   1.000  H
  C221     1.0000 0.85717  0.04406  0.16080  Biso   1.000  C
  C222     1.0000 0.94716  0.77527  0.13307  Biso   1.000  C
  H227     1.0000 0.00320  0.80836  0.17054  Biso   1.000  H
  H228     1.0000 0.89883  0.77727  0.17044  Biso   1.000  H
  H229     1.0000 0.89889  0.77727  0.17044  Biso   1.000  H
  H230     1.0000 0.22278  0.12163  0.17044  Biso   1.000  H
  H231     1.0000 0.19164  0.19485  0.17054  Biso   1.000  H
  H232     1.0000 0.22272  0.12163  0.17044  Biso   1.000  H
  C223     1.0000 0.22470  0.17191  0.13307  Biso   1.000  C
  H233     1.0000 0.80519  0.99686  0.17054  Biso   1.000  H
  H234     1.0000 0.87833  0.10110  0.17044  Biso   1.000  H
  C224     1.0000 0.82808  0.05282  0.13307  Biso   1.000  C
  C225     1.0000 0.82802  0.05282  0.13307  Biso   1.000  C
  H235     1.0000 0.00368  0.81024  0.12343  Biso   1.000  H
  H236     1.0000 0.93290  0.71281  0.13422  Biso   1.000  H
  H237     1.0000 0.89909  0.77814  0.12353  Biso   1.000  H
  H238     1.0000 0.93302  0.71281  0.13422  Biso   1.000  H
  H239     1.0000 0.89915  0.77814  0.12353  Biso   1.000  H
  H240     1.0000 0.28714  0.22012  0.13422  Biso   1.000  H
  H241     1.0000 0.18972  0.19344  0.12343  Biso   1.000  H
  H242     1.0000 0.28720  0.22012  0.13422  Biso   1.000  H
  H243     1.0000 0.22190  0.12103  0.12353  Biso   1.000  H
  H244     1.0000 0.80655  0.99632  0.12343  Biso   1.000  H
  H245     1.0000 0.80660  0.99632  0.12343  Biso   1.000  H
  H246     1.0000 0.87895  0.10083  0.12353  Biso   1.000  H
  H247     1.0000 0.77990  0.06707  0.13422  Biso   1.000  H
  H248     1.0000 0.77984  0.06707  0.13422  Biso   1.000  H
  C226     1.0000 0.22474  0.05282  0.63305  Biso   1.000  C
  C227     1.0000 0.18684  0.04406  0.66080  Biso   1.000  C
  H249     1.0000 0.18978  0.99632  0.62343  Biso   1.000  H
  H250     1.0000 0.18972  0.99632  0.62343  Biso   1.000  H
  H251     1.0000 0.28717  0.06707  0.63422  Biso   1.000  H
  H252     1.0000 0.22182  0.10083  0.62353  Biso   1.000  H
  H253     1.0000 0.19167  0.99686  0.67054  Biso   1.000  H
  C228     1.0000 0.09013  0.02113  0.66018  Biso   1.000  C
  H254     1.0000 0.22277  0.10110  0.67044  Biso   1.000  H
  H255     1.0000 0.22271  0.10110  0.67044  Biso   1.000  H
  C229     1.0000 0.09007  0.02113  0.66018  Biso   1.000  C
  C230     1.0000 0.22480  0.05282  0.63305  Biso   1.000  C
  C231     1.0000 0.02110  0.93160  0.65996  Biso   1.000  C
  C232     1.0000 0.02104  0.93160  0.65996  Biso   1.000  C
  C233     1.0000 0.06838  0.08940  0.65996  Biso   1.000  C
  C234     1.0000 0.06842  0.08947  0.65996  Biso   1.000  C
  C235     1.0000 0.93096  0.90987  0.66018  Biso   1.000  C
  C236     1.0000 0.93102  0.90987  0.66018  Biso   1.000  C
  C237     1.0000 0.04328  0.85771  0.65962  Biso   1.000  C
  C238     1.0000 0.04316  0.85771  0.65962  Biso   1.000  C
  C239     1.0000 0.97891  0.06901  0.66018  Biso   1.000  C
  C240     1.0000 0.97885  0.06901  0.66018  Biso   1.000  C
  C241     1.0000 0.14225  0.18548  0.65962  Biso   1.000  C
  C242     1.0000 0.14231  0.18548  0.65962  Biso   1.000  C
  C243     1.0000 0.91057  0.97900  0.65996  Biso   1.000  C
  C244     1.0000 0.85714  0.81318  0.66080  Biso   1.000  C
  C245     1.0000 0.85719  0.81318  0.66080  Biso   1.000  C
  H256     1.0000 0.99598  0.80562  0.64983  Biso   1.000  H
  H257     1.0000 0.99610  0.80562  0.64983  Biso   1.000  H
  H258     1.0000 0.10061  0.87844  0.65022  Biso   1.000  H
  N19      1.0000 0.05005  0.83036  0.68673  Biso   1.000  N
  C246     1.0000 0.95595  0.14282  0.66080  Biso   1.000  C
  C247     1.0000 0.95591  0.14276  0.66080  Biso   1.000  C
  H259     1.0000 0.19435  0.19043  0.64983  Biso   1.000  H
  H260     1.0000 0.12154  0.22213  0.65022  Biso   1.000  H
  H261     1.0000 0.12160  0.22213  0.65022  Biso   1.000  H
  N20      1.0000 0.16968  0.21972  0.68673  Biso   1.000  N
  C248     1.0000 0.81452  0.95680  0.65962  Biso   1.000  C
  H262     1.0000 0.80516  0.80836  0.67054  Biso   1.000  H
  H263     1.0000 0.87839  0.77727  0.67044  Biso   1.000  H
  C249     1.0000 0.82810  0.77527  0.63305  Biso   1.000  C
  H264     1.0000 0.87844  0.77727  0.67044  Biso   1.000  H
  H265     1.0000 0.04397  0.85931  0.70023  Biso   1.000  H
  C250     1.0000 0.06537  0.76176  0.69186  Biso   1.000  C
  H266     1.0000 0.89885  0.12163  0.67044  Biso   1.000  H
  C251     1.0000 0.94715  0.17191  0.63305  Biso   1.000  C
  C252     1.0000 0.94709  0.17191  0.63305  Biso   1.000  C
  H267     1.0000 0.00321  0.19485  0.67054  Biso   1.000  H
  C253     1.0000 0.23827  0.30364  0.69186  Biso   1.000  C
  H268     1.0000 0.14066  0.18462  0.70023  Biso   1.000  H
  H269     1.0000 0.77779  0.89943  0.65022  Biso   1.000  H
  H270     1.0000 0.77791  0.89943  0.65022  Biso   1.000  H
  N21      1.0000 0.78033  0.94992  0.68673  Biso   1.000  N
  H271     1.0000 0.80955  0.00395  0.64983  Biso   1.000  H
  H272     1.0000 0.80656  0.81024  0.62343  Biso   1.000  H
  H273     1.0000 0.77980  0.71281  0.63422  Biso   1.000  H
  H274     1.0000 0.87899  0.77814  0.62353  Biso   1.000  H
  H275     1.0000 0.77991  0.71281  0.63422  Biso   1.000  H
  C254     1.0000 0.07250  0.73802  0.71790  Biso   1.000  C
  C255     1.0000 0.07291  0.71094  0.67137  Biso   1.000  C
  C256     1.0000 0.07280  0.71094  0.67137  Biso   1.000  C
  H276     1.0000 0.00366  0.19344  0.62343  Biso   1.000  H
  H277     1.0000 0.93298  0.22012  0.63422  Biso   1.000  H
  H278     1.0000 0.93292  0.22012  0.63422  Biso   1.000  H
  H279     1.0000 0.89913  0.12103  0.62353  Biso   1.000  H
  C257     1.0000 0.26197  0.33446  0.71790  Biso   1.000  C
  C258     1.0000 0.28903  0.36194  0.67137  Biso   1.000  C
  C259     1.0000 0.69639  0.93467  0.69186  Biso   1.000  C
  H280     1.0000 0.81534  0.95600  0.70023  Biso   1.000  H
  C260     1.0000 0.69645  0.93467  0.69186  Biso   1.000  C
  H281     1.0000 0.81543  0.95607  0.70023  Biso   1.000  H
  H282     1.0000 0.81540  0.95600  0.70023  Biso   1.000  H
  C261     1.0000 0.08553  0.66681  0.72305  Biso   1.000  C
  S21      1.0000 0.06622  0.80121  0.74473  Biso   1.000  S
  C262     1.0000 0.08547  0.66681  0.72305  Biso   1.000  C
  C263     1.0000 0.08545  0.64046  0.67706  Biso   1.000  C
  H283     1.0000 0.06931  0.72552  0.65332  Biso   1.000  H
  C264     1.0000 0.08539  0.64046  0.67706  Biso   1.000  C
  H284     1.0000 0.06926  0.72552  0.65332  Biso   1.000  H
  C265     1.0000 0.33313  0.41864  0.72305  Biso   1.000  C
  S22      1.0000 0.19886  0.26499  0.74473  Biso   1.000  S
  H285     1.0000 0.27449  0.34376  0.65332  Biso   1.000  H
  C266     1.0000 0.35953  0.44492  0.67706  Biso   1.000  C
  H286     1.0000 0.27443  0.34376  0.65332  Biso   1.000  H
  C267     1.0000 0.66559  0.92752  0.71790  Biso   1.000  C
  C268     1.0000 0.63800  0.92712  0.67137  Biso   1.000  C
  C269     1.0000 0.63812  0.92712  0.67137  Biso   1.000  C
  H287     1.0000 0.08981  0.65163  0.74094  Biso   1.000  H
  C270     1.0000 0.09242  0.61746  0.70246  Biso   1.000  C
  H288     1.0000 0.08976  0.65163  0.74094  Biso   1.000  H
  S23      1.0000 0.93381  0.73501  0.75527  Biso   1.000  S
  H289     1.0000 0.08933  0.60643  0.66282  Biso   1.000  H
  H290     1.0000 0.08922  0.60643  0.66282  Biso   1.000  H
  C271     1.0000 0.38253  0.47495  0.70246  Biso   1.000  C
  H291     1.0000 0.34830  0.43810  0.74094  Biso   1.000  H
  S24      1.0000 0.26501  0.19879  0.75527  Biso   1.000  S
  H292     1.0000 0.39354  0.48284  0.66282  Biso   1.000  H
  H293     1.0000 0.39360  0.48284  0.66282  Biso   1.000  H
  S25      1.0000 0.73498  0.93380  0.74473  Biso   1.000  S
  C272     1.0000 0.58134  0.91455  0.72305  Biso   1.000  C
  S26      1.0000 0.73502  0.93387  0.74473  Biso   1.000  S
  H294     1.0000 0.65625  0.93073  0.65332  Biso   1.000  H
  C273     1.0000 0.55502  0.91461  0.67706  Biso   1.000  C
  H295     1.0000 0.10175  0.56872  0.70593  Biso   1.000  H
  C274     1.0000 0.92748  0.66561  0.78210  Biso   1.000  C
  C275     1.0000 0.92760  0.66561  0.78210  Biso   1.000  C
  H296     1.0000 0.43127  0.53305  0.70593  Biso   1.000  H
  C276     1.0000 0.33448  0.26198  0.78210  Biso   1.000  C
  S27      1.0000 0.80118  0.06620  0.75527  Biso   1.000  S
  C277     1.0000 0.52508  0.90766  0.70246  Biso   1.000  C
  H297     1.0000 0.56183  0.91027  0.74094  Biso   1.000  H
  H298     1.0000 0.56194  0.91027  0.74094  Biso   1.000  H
  H299     1.0000 0.51718  0.91073  0.66282  Biso   1.000  H
  H300     1.0000 0.51724  0.91073  0.66282  Biso   1.000  H
  C278     1.0000 0.91454  0.58136  0.77693  Biso   1.000  C
  C279     1.0000 0.93458  0.69636  0.80814  Biso   1.000  C
  C280     1.0000 0.93470  0.69636  0.80814  Biso   1.000  C
  C281     1.0000 0.30361  0.23824  0.80814  Biso   1.000  C
  C282     1.0000 0.41861  0.33319  0.77693  Biso   1.000  C
  C283     1.0000 0.73808  0.07248  0.78210  Biso   1.000  C
  C284     1.0000 0.73802  0.07248  0.78210  Biso   1.000  C
  H301     1.0000 0.46698  0.89823  0.70593  Biso   1.000  H
  H302     1.0000 0.46704  0.89823  0.70593  Biso   1.000  H
  C285     1.0000 0.90764  0.52505  0.79752  Biso   1.000  C
  H303     1.0000 0.91026  0.56190  0.75906  Biso   1.000  H
  N22      1.0000 0.94990  0.78028  0.81325  Biso   1.000  N
  C286     1.0000 0.92714  0.63806  0.82861  Biso   1.000  C
  C287     1.0000 0.36191  0.28906  0.82861  Biso   1.000  C
  N23      1.0000 0.21968  0.16964  0.81325  Biso   1.000  N
  H304     1.0000 0.43813  0.34837  0.75906  Biso   1.000  H
  C288     1.0000 0.47490  0.38254  0.79752  Biso   1.000  C
  C289     1.0000 0.47496  0.38254  0.79752  Biso   1.000  C
  C290     1.0000 0.66685  0.08545  0.77693  Biso   1.000  C
  C291     1.0000 0.66679  0.08545  0.77693  Biso   1.000  C
  C292     1.0000 0.76166  0.06533  0.80814  Biso   1.000  C
  H305     1.0000 0.89822  0.46695  0.79407  Biso   1.000  H
  H306     1.0000 0.89825  0.46701  0.79407  Biso   1.000  H
  C293     1.0000 0.91466  0.55508  0.82294  Biso   1.000  C
  C294     1.0000 0.95677  0.81452  0.84038  Biso   1.000  C
  H307     1.0000 0.95604  0.81538  0.79977  Biso   1.000  H
  C295     1.0000 0.95683  0.81452  0.84038  Biso   1.000  C
  H308     1.0000 0.95610  0.81538  0.79977  Biso   1.000  H
  H309     1.0000 0.93073  0.65624  0.84666  Biso   1.000  H
  H310     1.0000 0.34374  0.27448  0.84666  Biso   1.000  H
  C296     1.0000 0.44487  0.35954  0.82294  Biso   1.000  C
  C297     1.0000 0.18551  0.14229  0.84038  Biso   1.000  C
  H311     1.0000 0.18459  0.14069  0.79977  Biso   1.000  H
  H312     1.0000 0.53303  0.43128  0.79407  Biso   1.000  H
  C298     1.0000 0.61743  0.09234  0.79752  Biso   1.000  C
  H313     1.0000 0.65159  0.08980  0.75906  Biso   1.000  H
  C299     1.0000 0.61737  0.09234  0.79752  Biso   1.000  C
  C300     1.0000 0.71089  0.07288  0.82861  Biso   1.000  C
  N24      1.0000 0.83030  0.05008  0.81325  Biso   1.000  N
  H314     1.0000 0.91070  0.51716  0.83716  Biso   1.000  H
  H315     1.0000 0.00392  0.80957  0.85016  Biso   1.000  H
  H316     1.0000 0.89936  0.77787  0.84976  Biso   1.000  H
  C301     1.0000 0.97893  0.91060  0.84002  Biso   1.000  C
  H317     1.0000 0.89942  0.77787  0.84976  Biso   1.000  H
  C302     1.0000 0.97898  0.91060  0.84002  Biso   1.000  C
  H318     1.0000 0.48285  0.39357  0.83716  Biso   1.000  H
  H319     1.0000 0.48279  0.39357  0.83716  Biso   1.000  H
  C303     1.0000 0.08945  0.06840  0.84002  Biso   1.000  C
  C304     1.0000 0.08939  0.06840  0.84002  Biso   1.000  C
  H320     1.0000 0.19048  0.19438  0.85016  Biso   1.000  H
  H321     1.0000 0.22217  0.12156  0.84976  Biso   1.000  H
  C305     1.0000 0.64047  0.08539  0.82294  Biso   1.000  C
  C306     1.0000 0.64041  0.08539  0.82294  Biso   1.000  C
  H322     1.0000 0.56869  0.10177  0.79407  Biso   1.000  H
  H323     1.0000 0.72553  0.06927  0.84666  Biso   1.000  H
  H324     1.0000 0.85934  0.04400  0.79977  Biso   1.000  H
  C307     1.0000 0.85770  0.04326  0.84038  Biso   1.000  C
  C308     1.0000 0.85766  0.04320  0.84038  Biso   1.000  C
  C309     1.0000 0.90985  0.93099  0.83980  Biso   1.000  C
  C310     1.0000 0.06906  0.97887  0.83980  Biso   1.000  C
  C311     1.0000 0.06894  0.97887  0.83980  Biso   1.000  C
  C312     1.0000 0.02109  0.09013  0.83980  Biso   1.000  C
  C313     1.0000 0.02115  0.09013  0.83980  Biso   1.000  C
  H325     1.0000 0.60639  0.08927  0.83716  Biso   1.000  H
  H326     1.0000 0.80566  0.99605  0.85016  Biso   1.000  H
  H327     1.0000 0.87841  0.10057  0.84976  Biso   1.000  H
  C314     1.0000 0.93157  0.02100  0.84002  Biso   1.000  C
  C315     1.0000 0.93160  0.02106  0.84002  Biso   1.000  C
  C316     1.0000 0.93155  0.02106  0.84002  Biso   1.000  C
  C317     1.0000 0.81315  0.85724  0.83918  Biso   1.000  C
  C318     1.0000 0.14277  0.95594  0.83918  Biso   1.000  C
  C319     1.0000 0.14275  0.95600  0.83918  Biso   1.000  C
  C320     1.0000 0.04402  0.18682  0.83918  Biso   1.000  C
  C321     1.0000 0.04407  0.18682  0.83918  Biso   1.000  C
  C322     1.0000 0.77524  0.82809  0.86693  Biso   1.000  C
  H328     1.0000 0.80825  0.80515  0.82946  Biso   1.000  H
  H329     1.0000 0.77722  0.87837  0.82956  Biso   1.000  H
  H330     1.0000 0.80836  0.80515  0.82946  Biso   1.000  H
  H331     1.0000 0.77728  0.87837  0.82956  Biso   1.000  H
  H332     1.0000 0.12167  0.89890  0.82956  Biso   1.000  H
  H333     1.0000 0.19481  0.00314  0.82946  Biso   1.000  H
  C323     1.0000 0.17192  0.94718  0.86693  Biso   1.000  C
  H334     1.0000 0.99680  0.19164  0.82946  Biso   1.000  H
  H335     1.0000 0.10115  0.22280  0.82956  Biso   1.000  H
  C324     1.0000 0.05278  0.22473  0.86693  Biso   1.000  C
  H336     1.0000 0.81022  0.80656  0.87655  Biso   1.000  H
  H337     1.0000 0.71286  0.77988  0.86576  Biso   1.000  H
  H338     1.0000 0.77810  0.87897  0.87645  Biso   1.000  H
  H339     1.0000 0.22013  0.93300  0.86576  Biso   1.000  H
  H340     1.0000 0.12110  0.89917  0.87645  Biso   1.000  H
  H341     1.0000 0.12105  0.89917  0.87645  Biso   1.000  H
  H342     1.0000 0.19345  0.00368  0.87655  Biso   1.000  H
  H343     1.0000 0.19340  0.00368  0.87655  Biso   1.000  H
  H344     1.0000 0.06704  0.28719  0.86576  Biso   1.000  H
  H345     1.0000 0.99632  0.18976  0.87655  Biso   1.000  H
  H346     1.0000 0.99627  0.18976  0.87655  Biso   1.000  H
  H347     1.0000 0.10085  0.22186  0.87645  Biso   1.000  H
  H348     1.0000 0.10080  0.22186  0.87645  Biso   1.000  H
  C325     1.0000 0.28049  0.44191  0.79973  Biso   1.000  C
  C326     1.0000 0.28931  0.47983  0.82746  Biso   1.000  C
  H349     1.0000 0.26628  0.37946  0.80090  Biso   1.000  H
  H350     1.0000 0.23247  0.44479  0.79019  Biso   1.000  H
  H351     1.0000 0.33700  0.47688  0.79009  Biso   1.000  H
  C327     1.0000 0.31223  0.57651  0.82686  Biso   1.000  C
  H352     1.0000 0.33653  0.47501  0.83720  Biso   1.000  H
  H353     1.0000 0.23221  0.44392  0.83710  Biso   1.000  H
  C328     1.0000 0.24388  0.59825  0.82664  Biso   1.000  C
  C329     1.0000 0.40175  0.64565  0.82664  Biso   1.000  C
  C330     1.0000 0.14781  0.52436  0.82628  Biso   1.000  C
  C331     1.0000 0.26432  0.68778  0.82686  Biso   1.000  C
  C332     1.0000 0.47560  0.62345  0.82628  Biso   1.000  C
  C333     1.0000 0.42342  0.73565  0.82686  Biso   1.000  C
  H354     1.0000 0.14290  0.47227  0.81649  Biso   1.000  H
  H355     1.0000 0.11121  0.54509  0.81690  Biso   1.000  H
  N25      1.0000 0.11358  0.49701  0.85339  Biso   1.000  N
  C334     1.0000 0.35437  0.75612  0.82664  Biso   1.000  C
  C335     1.0000 0.19055  0.71071  0.82746  Biso   1.000  C
  H356     1.0000 0.52766  0.67059  0.81649  Biso   1.000  H
  H357     1.0000 0.45491  0.56608  0.81690  Biso   1.000  H
  N26      1.0000 0.50297  0.61657  0.85339  Biso   1.000  N
  C336     1.0000 0.52015  0.80947  0.82746  Biso   1.000  C
  C337     1.0000 0.02971  0.42841  0.85852  Biso   1.000  C
  H358     1.0000 0.14867  0.52596  0.86689  Biso   1.000  H
  C338     1.0000 0.37656  0.85213  0.82628  Biso   1.000  C
  H359     1.0000 0.13852  0.66351  0.83720  Biso   1.000  H
  H360     1.0000 0.21166  0.76775  0.83710  Biso   1.000  H
  C339     1.0000 0.16140  0.71947  0.79973  Biso   1.000  C
  C340     1.0000 0.57161  0.60132  0.85852  Biso   1.000  C
  H361     1.0000 0.47402  0.62272  0.86689  Biso   1.000  H
  H362     1.0000 0.52502  0.86150  0.83720  Biso   1.000  H
  H363     1.0000 0.55611  0.78828  0.83710  Biso   1.000  H
  C341     1.0000 0.55808  0.83856  0.79973  Biso   1.000  C
  C342     1.0000 0.99891  0.40467  0.88456  Biso   1.000  C
  C343     1.0000 0.97141  0.37759  0.83805  Biso   1.000  C
  H364     1.0000 0.32940  0.85708  0.81649  Biso   1.000  H
  H365     1.0000 0.43391  0.88878  0.81690  Biso   1.000  H
  N27      1.0000 0.38342  0.88637  0.85339  Biso   1.000  N
  H366     1.0000 0.11322  0.73372  0.80090  Biso   1.000  H
  H367     1.0000 0.21228  0.76748  0.79019  Biso   1.000  H
  H368     1.0000 0.13987  0.66297  0.79009  Biso   1.000  H
  C344     1.0000 0.59525  0.59417  0.88456  Biso   1.000  C
  C345     1.0000 0.62238  0.59377  0.83805  Biso   1.000  C
  H369     1.0000 0.62047  0.88677  0.80090  Biso   1.000  H
  H370     1.0000 0.55517  0.78768  0.79019  Biso   1.000  H
  H371     1.0000 0.52310  0.86009  0.79009  Biso   1.000  H
  S28      1.0000 0.06837  0.46786  0.91139  Biso   1.000  S
  C346     1.0000 0.91469  0.33353  0.88971  Biso   1.000  C
  C347     1.0000 0.88840  0.30711  0.84372  Biso   1.000  C
  H372     1.0000 0.98959  0.39217  0.82000  Biso   1.000  H
  C348     1.0000 0.39869  0.97029  0.85852  Biso   1.000  C
  H373     1.0000 0.37728  0.85126  0.86689  Biso   1.000  H
  C349     1.0000 0.66647  0.58120  0.88971  Biso   1.000  C
  S29      1.0000 0.53218  0.60052  0.91139  Biso   1.000  S
  C350     1.0000 0.69285  0.58126  0.84372  Biso   1.000  C
  H374     1.0000 0.60780  0.59738  0.82000  Biso   1.000  H
  S30      1.0000 0.13453  0.40166  0.92193  Biso   1.000  S
  H375     1.0000 0.89520  0.31828  0.90760  Biso   1.000  H
  C351     1.0000 0.85843  0.28411  0.86912  Biso   1.000  C
  H376     1.0000 0.85048  0.27308  0.82948  Biso   1.000  H
  C352     1.0000 0.40573  0.00104  0.88456  Biso   1.000  C
  C353     1.0000 0.40618  0.02859  0.83805  Biso   1.000  C
  H377     1.0000 0.68171  0.57692  0.90760  Biso   1.000  H
  C354     1.0000 0.71590  0.57431  0.86912  Biso   1.000  C
  S31      1.0000 0.59834  0.73285  0.92193  Biso   1.000  S
  H378     1.0000 0.72688  0.57738  0.82948  Biso   1.000  H
  C355     1.0000 0.07139  0.33225  0.94876  Biso   1.000  C
  H379     1.0000 0.80029  0.23537  0.87260  Biso   1.000  H
  S32      1.0000 0.39951  0.93164  0.91139  Biso   1.000  S
  C356     1.0000 0.41878  0.08529  0.88971  Biso   1.000  C
  C357     1.0000 0.41860  0.11157  0.84372  Biso   1.000  C
  H380     1.0000 0.40259  0.01040  0.82000  Biso   1.000  H
  H381     1.0000 0.76458  0.56488  0.87260  Biso   1.000  H
  C358     1.0000 0.66773  0.73913  0.94876  Biso   1.000  C
  C359     1.0000 0.00014  0.24800  0.94361  Biso   1.000  C
  C360     1.0000 0.09505  0.36301  0.97480  Biso   1.000  C
  S33      1.0000 0.26716  0.86544  0.92193  Biso   1.000  S
  H382     1.0000 0.42307  0.10475  0.90760  Biso   1.000  H
  C361     1.0000 0.42568  0.14159  0.86912  Biso   1.000  C
  H383     1.0000 0.42262  0.14949  0.82948  Biso   1.000  H
  C362     1.0000 0.75193  0.75210  0.94361  Biso   1.000  C
  C363     1.0000 0.63694  0.73198  0.97480  Biso   1.000  C
  H384     1.0000 0.98497  0.22855  0.92572  Biso   1.000  H
  C364     1.0000 0.95074  0.19170  0.96420  Biso   1.000  C
  C365     1.0000 0.04424  0.30471  0.99527  Biso   1.000  C
  N28      1.0000 0.16370  0.44693  0.97993  Biso   1.000  N
  C366     1.0000 0.26089  0.92863  0.94876  Biso   1.000  C
  H385     1.0000 0.43510  0.19970  0.87260  Biso   1.000  H
  H386     1.0000 0.77144  0.75638  0.92572  Biso   1.000  H
  C367     1.0000 0.80824  0.75899  0.96420  Biso   1.000  C
  C368     1.0000 0.69526  0.73953  0.99527  Biso   1.000  C
  N29      1.0000 0.55305  0.71673  0.97993  Biso   1.000  N
  H387     1.0000 0.90205  0.13360  0.96073  Biso   1.000  H
  C369     1.0000 0.97374  0.22173  0.98960  Biso   1.000  C
  H388     1.0000 0.05884  0.32289  0.01332  Biso   1.000  H
  H389     1.0000 0.19266  0.48203  0.96643  Biso   1.000  H
  C370     1.0000 0.19107  0.48116  0.00704  Biso   1.000  C
  C371     1.0000 0.24785  0.99984  0.94361  Biso   1.000  C
  C372     1.0000 0.26795  0.90489  0.97480  Biso   1.000  C
  H390     1.0000 0.86634  0.76842  0.96073  Biso   1.000  H
  C373     1.0000 0.77824  0.75204  0.98960  Biso   1.000  C
  H391     1.0000 0.67707  0.73592  0.01332  Biso   1.000  H
  H392     1.0000 0.51798  0.71065  0.96643  Biso   1.000  H
  C374     1.0000 0.51880  0.70984  0.00704  Biso   1.000  C
  H393     1.0000 0.93978  0.18381  0.00382  Biso   1.000  H
  H394     1.0000 0.13897  0.47622  0.01683  Biso   1.000  H
  H395     1.0000 0.21178  0.44452  0.01642  Biso   1.000  H
  C375     1.0000 0.26494  0.57725  0.00668  Biso   1.000  C
  H396     1.0000 0.24351  0.01502  0.92572  Biso   1.000  H
  C376     1.0000 0.24091  0.04919  0.96420  Biso   1.000  C
  C377     1.0000 0.26047  0.95571  0.99527  Biso   1.000  C
  N30      1.0000 0.28322  0.83629  0.97993  Biso   1.000  N
  H397     1.0000 0.81614  0.75591  0.00382  Biso   1.000  H
  H398     1.0000 0.52372  0.66270  0.01683  Biso   1.000  H
  H399     1.0000 0.55548  0.76721  0.01642  Biso   1.000  H
  C378     1.0000 0.42275  0.68764  0.00668  Biso   1.000  C
  C379     1.0000 0.24320  0.64552  0.00646  Biso   1.000  C
  C380     1.0000 0.35441  0.59764  0.00646  Biso   1.000  C
  H400     1.0000 0.23158  0.09793  0.96073  Biso   1.000  H
  C381     1.0000 0.24788  0.02619  0.98960  Biso   1.000  C
  H401     1.0000 0.26407  0.94113  0.01332  Biso   1.000  H
  H402     1.0000 0.28936  0.80733  0.96643  Biso   1.000  H
  C382     1.0000 0.29010  0.80894  0.00704  Biso   1.000  C
  C383     1.0000 0.40237  0.75678  0.00646  Biso   1.000  C
  C384     1.0000 0.31228  0.73505  0.00668  Biso   1.000  C
  C385     1.0000 0.14652  0.62265  0.00586  Biso   1.000  C
  C386     1.0000 0.37735  0.52389  0.00586  Biso   1.000  C
  H403     1.0000 0.24399  0.06022  0.00382  Biso   1.000  H
  H404     1.0000 0.33728  0.86103  0.01683  Biso   1.000  H
  H405     1.0000 0.23278  0.78821  0.01642  Biso   1.000  H
  C387     1.0000 0.47613  0.85347  0.00586  Biso   1.000  C
  H406     1.0000 0.14166  0.66979  0.99612  Biso   1.000  H
  H407     1.0000 0.11056  0.56555  0.99622  Biso   1.000  H
  C388     1.0000 0.10858  0.61383  0.03359  Biso   1.000  C
  H408     1.0000 0.33017  0.47180  0.99612  Biso   1.000  H
  H409     1.0000 0.43448  0.54502  0.99622  Biso   1.000  H
  C389     1.0000 0.38617  0.49474  0.03359  Biso   1.000  C
  H410     1.0000 0.52816  0.85829  0.99612  Biso   1.000  H
  H411     1.0000 0.45497  0.88945  0.99622  Biso   1.000  H
  C390     1.0000 0.50522  0.89138  0.03359  Biso   1.000  C
  H412     1.0000 0.04619  0.59965  0.03242  Biso   1.000  H
  H413     1.0000 0.11144  0.56582  0.04313  Biso   1.000  H
  H414     1.0000 0.14355  0.67033  0.04323  Biso   1.000  H
  H415     1.0000 0.40034  0.44653  0.03242  Biso   1.000  H
  H416     1.0000 0.43414  0.54562  0.04313  Biso   1.000  H
  H417     1.0000 0.32966  0.47321  0.04323  Biso   1.000  H
  H418     1.0000 0.55347  0.95384  0.03242  Biso   1.000  H
  H419     1.0000 0.45433  0.88851  0.04313  Biso   1.000  H
  H420     1.0000 0.52676  0.85641  0.04323  Biso   1.000  H
  C391     1.0000 0.44187  0.16141  0.20027  Biso   1.000  C
  C392     1.0000 0.47985  0.19057  0.17252  Biso   1.000  C
  H421     1.0000 0.37949  0.11320  0.19910  Biso   1.000  H
  H422     1.0000 0.44479  0.21230  0.20979  Biso   1.000  H
  H423     1.0000 0.47686  0.13988  0.20989  Biso   1.000  H
  C393     1.0000 0.57654  0.26432  0.17314  Biso   1.000  C
  H424     1.0000 0.47500  0.13848  0.16280  Biso   1.000  H
  H425     1.0000 0.44391  0.21170  0.16290  Biso   1.000  H
  C394     1.0000 0.64562  0.24393  0.17336  Biso   1.000  C
  C395     1.0000 0.59820  0.35432  0.17336  Biso   1.000  C
  C396     1.0000 0.62346  0.14784  0.17372  Biso   1.000  C
  C397     1.0000 0.73563  0.31220  0.17314  Biso   1.000  C
  C398     1.0000 0.68779  0.42346  0.17314  Biso   1.000  C
  C399     1.0000 0.52435  0.37652  0.17372  Biso   1.000  C
  H426     1.0000 0.67055  0.14289  0.18349  Biso   1.000  H
  H427     1.0000 0.56611  0.11120  0.18310  Biso   1.000  H
  N31      1.0000 0.61659  0.11360  0.14659  Biso   1.000  N
  C400     1.0000 0.75608  0.40173  0.17336  Biso   1.000  C
  C401     1.0000 0.80941  0.28926  0.17252  Biso   1.000  C
  C402     1.0000 0.71071  0.52015  0.17252  Biso   1.000  C
  H428     1.0000 0.47229  0.32938  0.18349  Biso   1.000  H
  H429     1.0000 0.54511  0.43389  0.18310  Biso   1.000  H
  N32      1.0000 0.49699  0.38341  0.14659  Biso   1.000  N
  C403     1.0000 0.60127  0.02969  0.14148  Biso   1.000  C
  H430     1.0000 0.62268  0.14871  0.13309  Biso   1.000  H
  C404     1.0000 0.85215  0.47561  0.17372  Biso   1.000  C
  H431     1.0000 0.86144  0.33647  0.16280  Biso   1.000  H
  H432     1.0000 0.78830  0.23222  0.16290  Biso   1.000  H
  C405     1.0000 0.83861  0.28050  0.20027  Biso   1.000  C
  H433     1.0000 0.66349  0.52496  0.16280  Biso   1.000  H
  H434     1.0000 0.76778  0.55612  0.16290  Biso   1.000  H
  C406     1.0000 0.71947  0.55806  0.20027  Biso   1.000  C
  C407     1.0000 0.42835  0.39865  0.14148  Biso   1.000  C
  H435     1.0000 0.52603  0.37732  0.13309  Biso   1.000  H
  C408     1.0000 0.59423  0.99893  0.11542  Biso   1.000  C
  C409     1.0000 0.59383  0.97138  0.16195  Biso   1.000  C
  H436     1.0000 0.85711  0.52770  0.18349  Biso   1.000  H
  H437     1.0000 0.88880  0.45489  0.18310  Biso   1.000  H
  N33      1.0000 0.88638  0.50296  0.14659  Biso   1.000  N
  H438     1.0000 0.88677  0.26633  0.19910  Biso   1.000  H
  H439     1.0000 0.78768  0.23249  0.20979  Biso   1.000  H
  H440     1.0000 0.86009  0.33700  0.20989  Biso   1.000  H
  H441     1.0000 0.73367  0.62051  0.19910  Biso   1.000  H
  H442     1.0000 0.76749  0.55518  0.20979  Biso   1.000  H
  H443     1.0000 0.66296  0.52309  0.20989  Biso   1.000  H
  C410     1.0000 0.40471  0.40581  0.11542  Biso   1.000  C
  C411     1.0000 0.37758  0.40621  0.16195  Biso   1.000  C
  S34      1.0000 0.60050  0.06834  0.08859  Biso   1.000  S
  C412     1.0000 0.58123  0.91468  0.11027  Biso   1.000  C
  C413     1.0000 0.58130  0.88840  0.15628  Biso   1.000  C
  H444     1.0000 0.59737  0.98957  0.18000  Biso   1.000  H
  C414     1.0000 0.97025  0.57157  0.14148  Biso   1.000  C
  H445     1.0000 0.85128  0.47401  0.13309  Biso   1.000  H
  C415     1.0000 0.33348  0.41878  0.11027  Biso   1.000  C
  S35      1.0000 0.46787  0.39952  0.08859  Biso   1.000  S
  C416     1.0000 0.30710  0.41871  0.15628  Biso   1.000  C
  H446     1.0000 0.39222  0.40260  0.18000  Biso   1.000  H
  S36      1.0000 0.73285  0.13453  0.07807  Biso   1.000  S
  H447     1.0000 0.57689  0.89522  0.09240  Biso   1.000  H
  C417     1.0000 0.57428  0.85838  0.13086  Biso   1.000  C
  H448     1.0000 0.57740  0.85049  0.17050  Biso   1.000  H
  C418     1.0000 0.00111  0.59530  0.11542  Biso   1.000  C
  C419     1.0000 0.02855  0.62238  0.16195  Biso   1.000  C
  H449     1.0000 0.31825  0.42306  0.09240  Biso   1.000  H
  C420     1.0000 0.28406  0.42567  0.13086  Biso   1.000  C
  S37      1.0000 0.40167  0.26713  0.07807  Biso   1.000  S
  H450     1.0000 0.27308  0.42259  0.17050  Biso   1.000  H
  C421     1.0000 0.73913  0.07135  0.05124  Biso   1.000  C
  H451     1.0000 0.56485  0.80027  0.12740  Biso   1.000  H
  S38      1.0000 0.93164  0.53212  0.08859  Biso   1.000  S
  C422     1.0000 0.08530  0.66652  0.11027  Biso   1.000  C
  C423     1.0000 0.11156  0.69286  0.15628  Biso   1.000  C
  H452     1.0000 0.01037  0.60781  0.18000  Biso   1.000  H
  H453     1.0000 0.23538  0.43509  0.12740  Biso   1.000  H
  C424     1.0000 0.33223  0.26084  0.05124  Biso   1.000  C
  C425     1.0000 0.75211  0.00013  0.05639  Biso   1.000  C
  C426     1.0000 0.73200  0.09508  0.02520  Biso   1.000  C
  S39      1.0000 0.86549  0.59831  0.07807  Biso   1.000  S
  H454     1.0000 0.10476  0.68169  0.09240  Biso   1.000  H
  C427     1.0000 0.14159  0.71586  0.13086  Biso   1.000  C
  H455     1.0000 0.14948  0.72689  0.17050  Biso   1.000  H
  C428     1.0000 0.24803  0.24787  0.05639  Biso   1.000  C
  C429     1.0000 0.36302  0.26800  0.02520  Biso   1.000  C
  H456     1.0000 0.75645  0.98496  0.07426  Biso   1.000  H
  C430     1.0000 0.75911  0.95079  0.03580  Biso   1.000  C
  C431     1.0000 0.73949  0.04426  0.00471  Biso   1.000  C
  N34      1.0000 0.71674  0.16369  0.02007  Biso   1.000  N
  C432     1.0000 0.92857  0.66772  0.05124  Biso   1.000  C
  H457     1.0000 0.19966  0.76461  0.12740  Biso   1.000  H
  H458     1.0000 0.22852  0.24359  0.07426  Biso   1.000  H
  C433     1.0000 0.19172  0.24098  0.03580  Biso   1.000  C
  C434     1.0000 0.30470  0.26044  0.00471  Biso   1.000  C
  N35      1.0000 0.44691  0.28324  0.02007  Biso   1.000  N
  H459     1.0000 0.76844  0.90204  0.03927  Biso   1.000  H
  C435     1.0000 0.75202  0.97379  0.01040  Biso   1.000  C
  H460     1.0000 0.73589  0.05884  0.98666  Biso   1.000  H
  H461     1.0000 0.71060  0.19264  0.03357  Biso   1.000  H
  C436     1.0000 0.70986  0.19103  0.99296  Biso   1.000  C
  C437     1.0000 0.99982  0.75197  0.05639  Biso   1.000  C
  C438     1.0000 0.90491  0.63696  0.02520  Biso   1.000  C
  H462     1.0000 0.13361  0.23156  0.03927  Biso   1.000  H
  C439     1.0000 0.22172  0.24794  0.01040  Biso   1.000  C
  H463     1.0000 0.32295  0.26405  0.98666  Biso   1.000  H
  H464     1.0000 0.48203  0.28933  0.03357  Biso   1.000  H
  C440     1.0000 0.48116  0.29013  0.99296  Biso   1.000  C
  H465     1.0000 0.75597  0.93975  0.99616  Biso   1.000  H
  H466     1.0000 0.66273  0.13895  0.98317  Biso   1.000  H
  H467     1.0000 0.76724  0.21176  0.98356  Biso   1.000  H
  C441     1.0000 0.68768  0.26492  0.99330  Biso   1.000  C
  H468     1.0000 0.01499  0.77143  0.07426  Biso   1.000  H
  C442     1.0000 0.04922  0.80827  0.03580  Biso   1.000  C
  C443     1.0000 0.95572  0.69527  0.00471  Biso   1.000  C
  N36      1.0000 0.83631  0.55304  0.02007  Biso   1.000  N
  H469     1.0000 0.18382  0.24406  0.99616  Biso   1.000  H
  H470     1.0000 0.47624  0.33727  0.98317  Biso   1.000  H
  H471     1.0000 0.44454  0.23276  0.98356  Biso   1.000  H
  C444     1.0000 0.57721  0.31233  0.99330  Biso   1.000  C
  C445     1.0000 0.75676  0.35445  0.99352  Biso   1.000  C
  C446     1.0000 0.59765  0.24319  0.99352  Biso   1.000  C
  H472     1.0000 0.09791  0.86638  0.03927  Biso   1.000  H
  C447     1.0000 0.02622  0.77825  0.01040  Biso   1.000  C
  H473     1.0000 0.94112  0.67708  0.98666  Biso   1.000  H
  H474     1.0000 0.80729  0.51794  0.03357  Biso   1.000  H
  C448     1.0000 0.80894  0.51881  0.99296  Biso   1.000  C
  C449     1.0000 0.64554  0.40233  0.99352  Biso   1.000  C
  C450     1.0000 0.73502  0.42272  0.99330  Biso   1.000  C
  C451     1.0000 0.85347  0.37739  0.99414  Biso   1.000  C
  C452     1.0000 0.52389  0.14650  0.99414  Biso   1.000  C
  H475     1.0000 0.06023  0.81616  0.99616  Biso   1.000  H
  H476     1.0000 0.86099  0.52376  0.98317  Biso   1.000  H
  H477     1.0000 0.78824  0.55545  0.98356  Biso   1.000  H
  C453     1.0000 0.62260  0.47608  0.99414  Biso   1.000  C
  H478     1.0000 0.85830  0.33018  0.00388  Biso   1.000  H
  H479     1.0000 0.88940  0.43443  0.00378  Biso   1.000  H
  C454     1.0000 0.89144  0.38615  0.96639  Biso   1.000  C
  H480     1.0000 0.47185  0.14169  0.00388  Biso   1.000  H
  H481     1.0000 0.54502  0.11060  0.00378  Biso   1.000  H
  C455     1.0000 0.49474  0.10859  0.96639  Biso   1.000  C
  H482     1.0000 0.66984  0.52817  0.00388  Biso   1.000  H
  H483     1.0000 0.56554  0.45495  0.00378  Biso   1.000  H
  C456     1.0000 0.61379  0.50524  0.96639  Biso   1.000  C
  H484     1.0000 0.95380  0.40039  0.96756  Biso   1.000  H
  H485     1.0000 0.88851  0.43416  0.95687  Biso   1.000  H
  H486     1.0000 0.85641  0.32965  0.95677  Biso   1.000  H
  H487     1.0000 0.44649  0.04614  0.96756  Biso   1.000  H
  H488     1.0000 0.54563  0.11146  0.95687  Biso   1.000  H
  H489     1.0000 0.47319  0.14356  0.95677  Biso   1.000  H
  H490     1.0000 0.59961  0.55345  0.96756  Biso   1.000  H
  H491     1.0000 0.56582  0.45435  0.95687  Biso   1.000  H
  H492     1.0000 0.67030  0.52677  0.95677  Biso   1.000  H
