data_image0
_cell_length_a       29.518
_cell_length_b       29.518
_cell_length_c       125.69
_cell_angle_alpha    90
_cell_angle_beta     90
_cell_angle_gamma    120

_symmetry_space_group_name_H-M    "P 1"
_symmetry_int_tables_number       1

loop_
  _symmetry_equiv_pos_as_xyz
  'x, y, z'

loop_
  _atom_site_label
  _atom_site_occupancy
  _atom_site_fract_x
  _atom_site_fract_y
  _atom_site_fract_z
  _atom_site_thermal_displace_type
  _atom_site_B_iso_or_equiv
  _atom_site_type_symbol
  C1       1.0000 0.39965  0.37170  0.40133  Biso   1.000  C
  C2       1.0000 0.36513  0.33681  0.39334  Biso   1.000  C
  H1       1.0000 0.40811  0.40691  0.40240  Biso   1.000  H
  C3       1.0000 0.41798  0.34542  0.40698  Biso   1.000  C
  C4       1.0000 0.33699  0.34956  0.38604  Biso   1.000  C
  N1       1.0000 0.36303  0.29006  0.39401  Biso   1.000  N
  C5       1.0000 0.39447  0.29351  0.40239  Biso   1.000  C
  H2       1.0000 0.44162  0.35840  0.41280  Biso   1.000  H
  C6       1.0000 0.30425  0.31682  0.37799  Biso   1.000  C
  C7       1.0000 0.34204  0.40194  0.38656  Biso   1.000  C
  H3       1.0000 0.34501  0.26268  0.38990  Biso   1.000  H
  C8       1.0000 0.40030  0.25239  0.40626  Biso   1.000  C
  N2       1.0000 0.29750  0.26863  0.37542  Biso   1.000  N
  C9       1.0000 0.27258  0.32766  0.37120  Biso   1.000  C
  C10      1.0000 0.36568  0.43629  0.37790  Biso   1.000  C
  C11      1.0000 0.31998  0.41677  0.39453  Biso   1.000  C
  C12      1.0000 0.37902  0.20306  0.40188  Biso   1.000  C
  C13      1.0000 0.42946  0.25990  0.41647  Biso   1.000  C
  C14      1.0000 0.26331  0.24895  0.36685  Biso   1.000  C
  C15      1.0000 0.24763  0.28678  0.36438  Biso   1.000  C
  H4       1.0000 0.26930  0.35809  0.37140  Biso   1.000  H
  C16      1.0000 0.36831  0.48362  0.37750  Biso   1.000  C
  H5       1.0000 0.38001  0.42612  0.37220  Biso   1.000  H
  C17      1.0000 0.32231  0.46453  0.39405  Biso   1.000  C
  H6       1.0000 0.30311  0.39400  0.40040  Biso   1.000  H
  N3       1.0000 0.35095  0.18609  0.39247  Biso   1.000  N
  C18      1.0000 0.37721  0.15784  0.40652  Biso   1.000  C
  C19      1.0000 0.41057  0.26960  0.42581  Biso   1.000  C
  C20      1.0000 0.47247  0.25208  0.41696  Biso   1.000  C
  C21      1.0000 0.24676  0.20170  0.36183  Biso   1.000  C
  H7       1.0000 0.22400  0.28369  0.35890  Biso   1.000  H
  C22      1.0000 0.34645  0.49872  0.38563  Biso   1.000  C
  H8       1.0000 0.38521  0.50651  0.37170  Biso   1.000  H
  H9       1.0000 0.30711  0.47431  0.39960  Biso   1.000  H
  C23      1.0000 0.33201  0.13296  0.39132  Biso   1.000  C
  C24      1.0000 0.34936  0.11622  0.40026  Biso   1.000  C
  H10      1.0000 0.39329  0.15741  0.41300  Biso   1.000  H
  H11      1.0000 0.38201  0.27590  0.42560  Biso   1.000  H
  C25      1.0000 0.43321  0.27004  0.43538  Biso   1.000  C
  H12      1.0000 0.48669  0.24692  0.41060  Biso   1.000  H
  C26      1.0000 0.49440  0.25188  0.42670  Biso   1.000  C
  C27      1.0000 0.20950  0.19149  0.35264  Biso   1.000  C
  C28      1.0000 0.25772  0.16277  0.36484  Biso   1.000  C
  C29      1.0000 0.35032  0.55055  0.38532  Biso   1.000  C
  C30      1.0000 0.30093  0.10128  0.38299  Biso   1.000  C
  H13      1.0000 0.34241  0.08160  0.40160  Biso   1.000  H
  H14      1.0000 0.42059  0.27759  0.44170  Biso   1.000  H
  C31      1.0000 0.47435  0.25955  0.43604  Biso   1.000  C
  H15      1.0000 0.52350  0.24641  0.42700  Biso   1.000  H
  C32      1.0000 0.22857  0.21104  0.34260  Biso   1.000  C
  C33      1.0000 0.15594  0.16614  0.35436  Biso   1.000  C
  N4       1.0000 0.28607  0.16520  0.37360  Biso   1.000  N
  C34      1.0000 0.23672  0.11250  0.35987  Biso   1.000  C
  N5       1.0000 0.37509  0.58228  0.37810  Biso   1.000  N
  H16      1.0000 0.33369  0.55979  0.39070  Biso   1.000  H
  C35      1.0000 0.28120  0.11704  0.37463  Biso   1.000  C
  C36      1.0000 0.28540  0.04503  0.38419  Biso   1.000  C
  C37      1.0000 0.49639  0.25959  0.44650  Biso   1.000  C
  C38      1.0000 0.19503  0.20651  0.33454  Biso   1.000  C
  H17      1.0000 0.26514  0.22775  0.34127  Biso   1.000  H
  C39      1.0000 0.12276  0.16117  0.34628  Biso   1.000  C
  H18      1.0000 0.14225  0.15217  0.36117  Biso   1.000  H
  H19      1.0000 0.30399  0.19250  0.37780  Biso   1.000  H
  C40      1.0000 0.25090  0.08395  0.36597  Biso   1.000  C
  H20      1.0000 0.21670  0.10140  0.35350  Biso   1.000  H
  C41      1.0000 0.37974  0.63407  0.37856  Biso   1.000  C
  C42      1.0000 0.32097  0.02828  0.38345  Biso   1.000  C
  C43      1.0000 0.23453  0.00935  0.38704  Biso   1.000  C
  N6       1.0000 0.53351  0.24942  0.44760  Biso   1.000  N
  H21      1.0000 0.48271  0.26741  0.45260  Biso   1.000  H
  C44      1.0000 0.14154  0.18225  0.33652  Biso   1.000  C
  H22      1.0000 0.20836  0.21989  0.32766  Biso   1.000  H
  H23      1.0000 0.08613  0.14278  0.34747  Biso   1.000  H
  H24      1.0000 0.24249  0.04878  0.36480  Biso   1.000  H
  C45      1.0000 0.43555  0.67597  0.37702  Biso   1.000  C
  H25      1.0000 0.35781  0.63689  0.37290  Biso   1.000  H
  H26      1.0000 0.36710  0.63881  0.38550  Biso   1.000  H
  H27      1.0000 0.35580  0.05242  0.38130  Biso   1.000  H
  C46      1.0000 0.30752  0.97719  0.38568  Biso   1.000  C
  H28      1.0000 0.20900  0.01979  0.38750  Biso   1.000  H
  C47      1.0000 0.22105  0.95771  0.38927  Biso   1.000  C
  C48      1.0000 0.55554  0.25587  0.45834  Biso   1.000  C
  C49      1.0000 0.10415  0.17748  0.32787  Biso   1.000  C
  C50      1.0000 0.45350  0.70319  0.36733  Biso   1.000  C
  C51      1.0000 0.47154  0.69001  0.38526  Biso   1.000  C
  C52      1.0000 0.25771  0.94195  0.38881  Biso   1.000  C
  H29      1.0000 0.33291  0.96651  0.38500  Biso   1.000  H
  H30      1.0000 0.18601  0.93311  0.39110  Biso   1.000  H
  H31      1.0000 0.53739  0.26769  0.46330  Biso   1.000  H
  H32      1.0000 0.55039  0.22200  0.46090  Biso   1.000  H
  C53      1.0000 0.61292  0.29550  0.45803  Biso   1.000  C
  N7       1.0000 0.12011  0.19739  0.31893  Biso   1.000  N
  H33      1.0000 0.06764  0.15886  0.32927  Biso   1.000  H
  C54      1.0000 0.50429  0.74407  0.36611  Biso   1.000  C
  O1       1.0000 0.41983  0.68884  0.35883  Biso   1.000  O
  C55      1.0000 0.52357  0.73058  0.38435  Biso   1.000  C
  O2       1.0000 0.45563  0.66157  0.39469  Biso   1.000  O
  C56      1.0000 0.24264  0.88789  0.39140  Biso   1.000  C
  C57      1.0000 0.63002  0.34874  0.45782  Biso   1.000  C
  C58      1.0000 0.65123  0.28126  0.45782  Biso   1.000  C
  C59      1.0000 0.07972  0.18816  0.31082  Biso   1.000  C
  C60      1.0000 0.52152  0.77513  0.35585  Biso   1.000  C
  C61      1.0000 0.53846  0.75651  0.37449  Biso   1.000  C
  C62      1.0000 0.41563  0.64256  0.35333  Biso   1.000  C
  C63      1.0000 0.56146  0.74579  0.39331  Biso   1.000  C
  C64      1.0000 0.47125  0.62175  0.39519  Biso   1.000  C
  N8       1.0000 0.27459  0.87150  0.39146  Biso   1.000  N
  H34      1.0000 0.20710  0.86410  0.39310  Biso   1.000  H
  O3       1.0000 0.59210  0.36396  0.45781  Biso   1.000  O
  C65      1.0000 0.68260  0.38708  0.45803  Biso   1.000  C
  O4       1.0000 0.63606  0.22814  0.45781  Biso   1.000  O
  C66      1.0000 0.70447  0.31741  0.45803  Biso   1.000  C
  C67      1.0000 0.09354  0.17095  0.30056  Biso   1.000  C
  H35      1.0000 0.07852  0.22067  0.30956  Biso   1.000  H
  H36      1.0000 0.04485  0.16078  0.31337  Biso   1.000  H
  N9       1.0000 0.53073  0.74396  0.34774  Biso   1.000  N
  H37      1.0000 0.55401  0.80881  0.35710  Biso   1.000  H
  H38      1.0000 0.49409  0.78261  0.35330  Biso   1.000  H
  O5       1.0000 0.59087  0.79438  0.37322  Biso   1.000  O
  H39      1.0000 0.45092  0.64741  0.35210  Biso   1.000  H
  H40      1.0000 0.39561  0.61091  0.35780  Biso   1.000  H
  C68      1.0000 0.38842  0.63618  0.34295  Biso   1.000  C
  N10      1.0000 0.59690  0.72541  0.39146  Biso   1.000  N
  H41      1.0000 0.54230  0.73159  0.40010  Biso   1.000  H
  H42      1.0000 0.58192  0.78440  0.39390  Biso   1.000  H
  H43      1.0000 0.45890  0.59969  0.38870  Biso   1.000  H
  H44      1.0000 0.50980  0.63888  0.39540  Biso   1.000  H
  C69      1.0000 0.44899  0.58854  0.40472  Biso   1.000  C
  C70      1.0000 0.25422  0.81571  0.39331  Biso   1.000  C
  C71      1.0000 0.58549  0.38184  0.44740  Biso   1.000  C
  C72      1.0000 0.70035  0.44446  0.45834  Biso   1.000  C
  C73      1.0000 0.71873  0.36998  0.45782  Biso   1.000  C
  C74      1.0000 0.61815  0.20365  0.44740  Biso   1.000  C
  C75      1.0000 0.74412  0.29969  0.45834  Biso   1.000  C
  C76      1.0000 0.11529  0.20510  0.29218  Biso   1.000  C
  C77      1.0000 0.08363  0.12017  0.29934  Biso   1.000  C
  C78      1.0000 0.51081  0.73997  0.33880  Biso   1.000  C
  C79      1.0000 0.61944  0.77416  0.36731  Biso   1.000  C
  H45      1.0000 0.35240  0.62899  0.34430  Biso   1.000  H
  H46      1.0000 0.40699  0.66940  0.33890  Biso   1.000  H
  C80      1.0000 0.38597  0.59225  0.33619  Biso   1.000  C
  C81      1.0000 0.64524  0.75737  0.39140  Biso   1.000  C
  H47      1.0000 0.46471  0.61001  0.41120  Biso   1.000  H
  H48      1.0000 0.41092  0.57500  0.40500  Biso   1.000  H
  C82      1.0000 0.45924  0.54285  0.40471  Biso   1.000  C
  C83      1.0000 0.26942  0.79298  0.38435  Biso   1.000  C
  H49      1.0000 0.26842  0.81071  0.40010  Biso   1.000  H
  H50      1.0000 0.21562  0.79752  0.39390  Biso   1.000  H
  H51      1.0000 0.61769  0.41438  0.44540  Biso   1.000  H
  H52      1.0000 0.57849  0.35488  0.44190  Biso   1.000  H
  C84      1.0000 0.54002  0.39165  0.44808  Biso   1.000  C
  N11      1.0000 0.71590  0.46649  0.44760  Biso   1.000  N
  H53      1.0000 0.73029  0.46262  0.46330  Biso   1.000  H
  H54      1.0000 0.67161  0.44959  0.46090  Biso   1.000  H
  O6       1.0000 0.77185  0.40793  0.45781  Biso   1.000  O
  H55      1.0000 0.58559  0.20330  0.44540  Biso   1.000  H
  H56      1.0000 0.64510  0.22360  0.44190  Biso   1.000  H
  C85      1.0000 0.60834  0.14838  0.44808  Biso   1.000  C
  N12      1.0000 0.75057  0.28412  0.44760  Biso   1.000  N
  H57      1.0000 0.73231  0.26968  0.46330  Biso   1.000  H
  H58      1.0000 0.77799  0.32840  0.46090  Biso   1.000  H
  C86      1.0000 0.12632  0.19023  0.28231  Biso   1.000  C
  O7       1.0000 0.12983  0.25756  0.29344  Biso   1.000  O
  C87      1.0000 0.09291  0.10222  0.28965  Biso   1.000  C
  O8       1.0000 0.06432  0.08649  0.30784  Biso   1.000  O
  C88      1.0000 0.51561  0.70742  0.33015  Biso   1.000  C
  H59      1.0000 0.49219  0.75788  0.33740  Biso   1.000  H
  H60      1.0000 0.61631  0.74302  0.37100  Biso   1.000  H
  H61      1.0000 0.60440  0.76352  0.36010  Biso   1.000  H
  C89      1.0000 0.67646  0.81609  0.36652  Biso   1.000  C
  H62      1.0000 0.36438  0.55850  0.33990  Biso   1.000  H
  H63      1.0000 0.42171  0.59761  0.33540  Biso   1.000  H
  C90      1.0000 0.36336  0.58932  0.32537  Biso   1.000  C
  H64      1.0000 0.65700  0.79289  0.39310  Biso   1.000  H
  C91      1.0000 0.68425  0.74231  0.38881  Biso   1.000  C
  H65      1.0000 0.44420  0.52211  0.39820  Biso   1.000  H
  H66      1.0000 0.49749  0.55681  0.40450  Biso   1.000  H
  C92      1.0000 0.43610  0.50639  0.41441  Biso   1.000  C
  C93      1.0000 0.24351  0.78195  0.37449  Biso   1.000  C
  C94      1.0000 0.30996  0.78152  0.38526  Biso   1.000  C
  H67      1.0000 0.50899  0.36020  0.45100  Biso   1.000  H
  H68      1.0000 0.54889  0.42111  0.45300  Biso   1.000  H
  C95      1.0000 0.52694  0.40464  0.43706  Biso   1.000  C
  C96      1.0000 0.76322  0.50361  0.44650  Biso   1.000  C
  C97      1.0000 0.79635  0.41450  0.44740  Biso   1.000  C
  H69      1.0000 0.63979  0.14881  0.45100  Biso   1.000  H
  H70      1.0000 0.57891  0.12780  0.45300  Biso   1.000  H
  C98      1.0000 0.59536  0.12228  0.43706  Biso   1.000  C
  C99      1.0000 0.74039  0.23678  0.44650  Biso   1.000  C
  C100     1.0000 0.14903  0.22814  0.27336  Biso   1.000  C
  C101     1.0000 0.11484  0.13821  0.28141  Biso   1.000  C
  C102     1.0000 0.17863  0.28611  0.29936  Biso   1.000  C
  C103     1.0000 0.07901  0.04643  0.28811  Biso   1.000  C
  C104     1.0000 0.10643  0.08231  0.31333  Biso   1.000  C
  C105     1.0000 0.53984  0.67816  0.33213  Biso   1.000  C
  C106     1.0000 0.49452  0.70507  0.32039  Biso   1.000  C
  H71      1.0000 0.69018  0.82959  0.37370  Biso   1.000  H
  H72      1.0000 0.67969  0.84559  0.36220  Biso   1.000  H
  C107     1.0000 0.70813  0.79461  0.36154  Biso   1.000  C
  H73      1.0000 0.36260  0.56049  0.32140  Biso   1.000  H
  H74      1.0000 0.38500  0.62230  0.32160  Biso   1.000  H
  H75      1.0000 0.32762  0.58322  0.32610  Biso   1.000  H
  C108     1.0000 0.66967  0.69248  0.38568  Biso   1.000  C
  C109     1.0000 0.73666  0.77897  0.38927  Biso   1.000  C
  H76      1.0000 0.44409  0.47799  0.41390  Biso   1.000  H
  H77      1.0000 0.39809  0.49168  0.41450  Biso   1.000  H
  H78      1.0000 0.45140  0.52642  0.42090  Biso   1.000  H
  C110     1.0000 0.25593  0.76024  0.36611  Biso   1.000  C
  O9       1.0000 0.20562  0.79651  0.37322  Biso   1.000  O
  O10      1.0000 0.33843  0.79408  0.39469  Biso   1.000  O
  C111     1.0000 0.32405  0.75962  0.37702  Biso   1.000  C
  H79      1.0000 0.51941  0.37569  0.43210  Biso   1.000  H
  H80      1.0000 0.55771  0.43672  0.43430  Biso   1.000  H
  C112     1.0000 0.47988  0.41317  0.43739  Biso   1.000  C
  C113     1.0000 0.78523  0.52567  0.43604  Biso   1.000  C
  H81      1.0000 0.78470  0.51730  0.45260  Biso   1.000  H
  H82      1.0000 0.79672  0.38231  0.44540  Biso   1.000  H
  H83      1.0000 0.77641  0.42150  0.44190  Biso   1.000  H
  C114     1.0000 0.85165  0.45999  0.44808  Biso   1.000  C
  H84      1.0000 0.62428  0.14368  0.43210  Biso   1.000  H
  H85      1.0000 0.56331  0.12099  0.43430  Biso   1.000  H
  C115     1.0000 0.58683  0.06674  0.43739  Biso   1.000  C
  C116     1.0000 0.74042  0.21476  0.43604  Biso   1.000  C
  H86      1.0000 0.73259  0.21531  0.45260  Biso   1.000  H
  N13      1.0000 0.20483  0.26358  0.27521  Biso   1.000  N
  H87      1.0000 0.14402  0.20897  0.26657  Biso   1.000  H
  H88      1.0000 0.13082  0.24856  0.27277  Biso   1.000  H
  O11      1.0000 0.12739  0.12232  0.27198  Biso   1.000  O
  H89      1.0000 0.20664  0.28298  0.29566  Biso   1.000  H
  H90      1.0000 0.17421  0.27105  0.30656  Biso   1.000  H
  C117     1.0000 0.19368  0.34311  0.30014  Biso   1.000  C
  N14      1.0000 0.12616  0.04174  0.28857  Biso   1.000  N
  H91      1.0000 0.05423  0.02445  0.29377  Biso   1.000  H
  H92      1.0000 0.06163  0.03376  0.28117  Biso   1.000  H
  H93      1.0000 0.13683  0.11755  0.31457  Biso   1.000  H
  H94      1.0000 0.11803  0.06228  0.30886  Biso   1.000  H
  C118     1.0000 0.08557  0.05508  0.32372  Biso   1.000  C
  C119     1.0000 0.54440  0.64913  0.32406  Biso   1.000  C
  H95      1.0000 0.55321  0.67820  0.33900  Biso   1.000  H
  C120     1.0000 0.49945  0.67687  0.31231  Biso   1.000  C
  H96      1.0000 0.47609  0.72330  0.31920  Biso   1.000  H
  H97      1.0000 0.70610  0.76621  0.36610  Biso   1.000  H
  H98      1.0000 0.69311  0.77940  0.35450  Biso   1.000  H
  C121     1.0000 0.76520  0.83651  0.36013  Biso   1.000  C
  H99      1.0000 0.63360  0.66709  0.38500  Biso   1.000  H
  C122     1.0000 0.70729  0.67902  0.38345  Biso   1.000  C
  H100     1.0000 0.74711  0.81402  0.39110  Biso   1.000  H
  C123     1.0000 0.77480  0.76547  0.38704  Biso   1.000  C
  C124     1.0000 0.22488  0.74639  0.35585  Biso   1.000  C
  C125     1.0000 0.29681  0.75035  0.36733  Biso   1.000  C
  C126     1.0000 0.22585  0.84529  0.36731  Biso   1.000  C
  C127     1.0000 0.37828  0.84951  0.39519  Biso   1.000  C
  C128     1.0000 0.36593  0.74569  0.37856  Biso   1.000  C
  H101     1.0000 0.47300  0.42131  0.43020  Biso   1.000  H
  H102     1.0000 0.48750  0.44231  0.44220  Biso   1.000  H
  H103     1.0000 0.44910  0.38129  0.44000  Biso   1.000  H
  C129     1.0000 0.83682  0.56679  0.43538  Biso   1.000  C
  C130     1.0000 0.75748  0.50561  0.42670  Biso   1.000  C
  H104     1.0000 0.85121  0.49102  0.45100  Biso   1.000  H
  H105     1.0000 0.87221  0.45111  0.45300  Biso   1.000  H
  C131     1.0000 0.87770  0.47306  0.43706  Biso   1.000  C
  H106     1.0000 0.57871  0.05171  0.43020  Biso   1.000  H
  H107     1.0000 0.55769  0.04518  0.44220  Biso   1.000  H
  H108     1.0000 0.61869  0.06779  0.44000  Biso   1.000  H
  C132     1.0000 0.72997  0.16316  0.43538  Biso   1.000  C
  C133     1.0000 0.74812  0.24250  0.42670  Biso   1.000  C
  C134     1.0000 0.22119  0.31189  0.27526  Biso   1.000  C
  C135     1.0000 0.18284  0.13789  0.27148  Biso   1.000  C
  H109     1.0000 0.19396  0.35688  0.29297  Biso   1.000  H
  H110     1.0000 0.16742  0.34636  0.30446  Biso   1.000  H
  C136     1.0000 0.24685  0.37479  0.30512  Biso   1.000  C
  C137     1.0000 0.13309  0.01698  0.28134  Biso   1.000  C
  H111     1.0000 0.05672  0.01905  0.32236  Biso   1.000  H
  H112     1.0000 0.07094  0.07366  0.32777  Biso   1.000  H
  C138     1.0000 0.12703  0.05261  0.33048  Biso   1.000  C
  C139     1.0000 0.52482  0.64866  0.31403  Biso   1.000  C
  H113     1.0000 0.56111  0.62930  0.32540  Biso   1.000  H
  H114     1.0000 0.48550  0.67659  0.30550  Biso   1.000  H
  H115     1.0000 0.78442  0.82102  0.35690  Biso   1.000  H
  H116     1.0000 0.78051  0.85122  0.36710  Biso   1.000  H
  H117     1.0000 0.76740  0.86428  0.35550  Biso   1.000  H
  H118     1.0000 0.69659  0.64420  0.38130  Biso   1.000  H
  C140     1.0000 0.75964  0.71462  0.38419  Biso   1.000  C
  H119     1.0000 0.81081  0.79102  0.38750  Biso   1.000  H
  N15      1.0000 0.25604  0.78676  0.34774  Biso   1.000  N
  H120     1.0000 0.19120  0.74522  0.35710  Biso   1.000  H
  H121     1.0000 0.21739  0.71150  0.35330  Biso   1.000  H
  O12      1.0000 0.31117  0.73102  0.35883  Biso   1.000  O
  H122     1.0000 0.25699  0.87330  0.37100  Biso   1.000  H
  H123     1.0000 0.23650  0.84090  0.36010  Biso   1.000  H
  C141     1.0000 0.18388  0.86035  0.36652  Biso   1.000  C
  H124     1.0000 0.40030  0.85921  0.38870  Biso   1.000  H
  H125     1.0000 0.36109  0.87091  0.39540  Biso   1.000  H
  C142     1.0000 0.41146  0.86046  0.40472  Biso   1.000  C
  N16      1.0000 0.41772  0.79283  0.37810  Biso   1.000  N
  H126     1.0000 0.36311  0.72093  0.37290  Biso   1.000  H
  H127     1.0000 0.36121  0.72832  0.38550  Biso   1.000  H
  C143     1.0000 0.85902  0.58944  0.42581  Biso   1.000  C
  H128     1.0000 0.85701  0.57938  0.44170  Biso   1.000  H
  C144     1.0000 0.77961  0.52751  0.41696  Biso   1.000  C
  H129     1.0000 0.72290  0.47650  0.42700  Biso   1.000  H
  H130     1.0000 0.85630  0.48061  0.43210  Biso   1.000  H
  H131     1.0000 0.87899  0.44231  0.43430  Biso   1.000  H
  C145     1.0000 0.93328  0.52012  0.43739  Biso   1.000  C
  C146     1.0000 0.73039  0.14098  0.42581  Biso   1.000  C
  H132     1.0000 0.72240  0.14302  0.44170  Biso   1.000  H
  C147     1.0000 0.74791  0.22039  0.41696  Biso   1.000  C
  H133     1.0000 0.75361  0.27712  0.42700  Biso   1.000  H
  H134     1.0000 0.19744  0.32367  0.27357  Biso   1.000  H
  C148     1.0000 0.27530  0.35093  0.27786  Biso   1.000  C
  H135     1.0000 0.19254  0.12557  0.27797  Biso   1.000  H
  H136     1.0000 0.20423  0.17646  0.27127  Biso   1.000  H
  C149     1.0000 0.19379  0.11567  0.26195  Biso   1.000  C
  H137     1.0000 0.27324  0.37276  0.30056  Biso   1.000  H
  H138     1.0000 0.24703  0.35977  0.31216  Biso   1.000  H
  C150     1.0000 0.26201  0.43187  0.30654  Biso   1.000  C
  H139     1.0000 0.10723  0.00035  0.27596  Biso   1.000  H
  C151     1.0000 0.18106  0.01310  0.28103  Biso   1.000  C
  H140     1.0000 0.13922  0.03106  0.32676  Biso   1.000  H
  H141     1.0000 0.15744  0.08837  0.33127  Biso   1.000  H
  C152     1.0000 0.10735  0.03000  0.34130  Biso   1.000  C
  C153     1.0000 0.53503  0.62159  0.30484  Biso   1.000  C
  C154     1.0000 0.80033  0.69905  0.38299  Biso   1.000  C
  C155     1.0000 0.26004  0.77084  0.33880  Biso   1.000  C
  C156     1.0000 0.35746  0.77311  0.35333  Biso   1.000  C
  H142     1.0000 0.17040  0.86062  0.37370  Biso   1.000  H
  H143     1.0000 0.15440  0.83410  0.36220  Biso   1.000  H
  C157     1.0000 0.20540  0.91355  0.36154  Biso   1.000  C
  H144     1.0000 0.39002  0.85471  0.41120  Biso   1.000  H
  H145     1.0000 0.42500  0.83590  0.40500  Biso   1.000  H
  C158     1.0000 0.45715  0.91640  0.40471  Biso   1.000  C
  C159     1.0000 0.44946  0.79979  0.38532  Biso   1.000  C
  C160     1.0000 0.83046  0.57054  0.41647  Biso   1.000  C
  H146     1.0000 0.89389  0.61799  0.42560  Biso   1.000  H
  H147     1.0000 0.76021  0.51331  0.41060  Biso   1.000  H
  H148     1.0000 0.94830  0.52700  0.43020  Biso   1.000  H
  H149     1.0000 0.95480  0.51249  0.44220  Biso   1.000  H
  H150     1.0000 0.93220  0.55091  0.44000  Biso   1.000  H
  C161     1.0000 0.74006  0.16954  0.41647  Biso   1.000  C
  H151     1.0000 0.72409  0.10609  0.42560  Biso   1.000  H
  H152     1.0000 0.75311  0.23980  0.41060  Biso   1.000  H
  C162     1.0000 0.31052  0.33634  0.28098  Biso   1.000  C
  C163     1.0000 0.29104  0.40335  0.27740  Biso   1.000  C
  H153     1.0000 0.18805  0.13136  0.25547  Biso   1.000  H
  H154     1.0000 0.16925  0.07757  0.26167  Biso   1.000  H
  C164     1.0000 0.24971  0.12588  0.26195  Biso   1.000  C
  H155     1.0000 0.29675  0.45108  0.30977  Biso   1.000  H
  H156     1.0000 0.26264  0.44716  0.29957  Biso   1.000  H
  H157     1.0000 0.23644  0.43406  0.31117  Biso   1.000  H
  C165     1.0000 0.21803  0.03501  0.28916  Biso   1.000  C
  C166     1.0000 0.19111  0.98897  0.27262  Biso   1.000  C
  H158     1.0000 0.13544  0.02926  0.34527  Biso   1.000  H
  H159     1.0000 0.09603  0.05168  0.34506  Biso   1.000  H
  H160     1.0000 0.07774  0.99429  0.34057  Biso   1.000  H
  C167     1.0000 0.49610  0.57172  0.30183  Biso   1.000  C
  C168     1.0000 0.58227  0.65230  0.29982  Biso   1.000  C
  C169     1.0000 0.80096  0.66799  0.39132  Biso   1.000  C
  C170     1.0000 0.83582  0.71880  0.37463  Biso   1.000  C
  C171     1.0000 0.29261  0.80820  0.33015  Biso   1.000  C
  H161     1.0000 0.24211  0.73431  0.33740  Biso   1.000  H
  H162     1.0000 0.35260  0.80351  0.35210  Biso   1.000  H
  H163     1.0000 0.38911  0.78473  0.35780  Biso   1.000  H
  C172     1.0000 0.36383  0.75226  0.34295  Biso   1.000  C
  H164     1.0000 0.23380  0.93991  0.36610  Biso   1.000  H
  H165     1.0000 0.22059  0.91370  0.35450  Biso   1.000  H
  C173     1.0000 0.16348  0.92869  0.36013  Biso   1.000  C
  H166     1.0000 0.47789  0.92212  0.39820  Biso   1.000  H
  H167     1.0000 0.44321  0.94070  0.40450  Biso   1.000  H
  C174     1.0000 0.49361  0.92970  0.41441  Biso   1.000  C
  H168     1.0000 0.44020  0.77389  0.39070  Biso   1.000  H
  C175     1.0000 0.50129  0.84775  0.38563  Biso   1.000  C
  C176     1.0000 0.85210  0.59973  0.40626  Biso   1.000  C
  C177     1.0000 0.74761  0.14791  0.40626  Biso   1.000  C
  H169     1.0000 0.29984  0.30027  0.28167  Biso   1.000  H
  C178     1.0000 0.36163  0.37397  0.28322  Biso   1.000  C
  H170     1.0000 0.26644  0.41376  0.27557  Biso   1.000  H
  C179     1.0000 0.34265  0.44145  0.27962  Biso   1.000  C
  H171     1.0000 0.25544  0.11086  0.26847  Biso   1.000  H
  H172     1.0000 0.27404  0.16418  0.26217  Biso   1.000  H
  C180     1.0000 0.26302  0.10276  0.25226  Biso   1.000  C
  H173     1.0000 0.21203  0.05187  0.29496  Biso   1.000  H
  C181     1.0000 0.26272  0.03231  0.28877  Biso   1.000  C
  H174     1.0000 0.16614  0.97379  0.26707  Biso   1.000  H
  C182     1.0000 0.23652  0.98662  0.27214  Biso   1.000  C
  N17      1.0000 0.49855  0.54578  0.29307  Biso   1.000  N
  C183     1.0000 0.44587  0.54246  0.30679  Biso   1.000  C
  N18      1.0000 0.60198  0.63779  0.29125  Biso   1.000  N
  C184     1.0000 0.62013  0.70582  0.30228  Biso   1.000  C
  N19      1.0000 0.83513  0.64905  0.39247  Biso   1.000  N
  C185     1.0000 0.76689  0.65066  0.40026  Biso   1.000  C
  N20      1.0000 0.87911  0.71391  0.37360  Biso   1.000  N
  C186     1.0000 0.83304  0.74908  0.36597  Biso   1.000  C
  C187     1.0000 0.32187  0.86172  0.33213  Biso   1.000  C
  C188     1.0000 0.29491  0.78942  0.32039  Biso   1.000  C
  H175     1.0000 0.37103  0.72343  0.34430  Biso   1.000  H
  H176     1.0000 0.33060  0.73763  0.33890  Biso   1.000  H
  C189     1.0000 0.40777  0.79373  0.33619  Biso   1.000  C
  H177     1.0000 0.17902  0.96342  0.35690  Biso   1.000  H
  H178     1.0000 0.14882  0.92931  0.36710  Biso   1.000  H
  H179     1.0000 0.13571  0.90310  0.35550  Biso   1.000  H
  H180     1.0000 0.52202  0.96612  0.41390  Biso   1.000  H
  H181     1.0000 0.50830  0.90643  0.41450  Biso   1.000  H
  H182     1.0000 0.47362  0.92501  0.42090  Biso   1.000  H
  C190     1.0000 0.51638  0.88472  0.37750  Biso   1.000  C
  C191     1.0000 0.53546  0.85777  0.39405  Biso   1.000  C
  C192     1.0000 0.82403  0.62097  0.40188  Biso   1.000  C
  C193     1.0000 0.89906  0.60555  0.40239  Biso   1.000  C
  C194     1.0000 0.70649  0.10096  0.40239  Biso   1.000  C
  C195     1.0000 0.79693  0.17596  0.40188  Biso   1.000  C
  H183     1.0000 0.38574  0.36325  0.28537  Biso   1.000  H
  C196     1.0000 0.37834  0.42631  0.28247  Biso   1.000  C
  H184     1.0000 0.35315  0.47748  0.27916  Biso   1.000  H
  H185     1.0000 0.29945  0.11078  0.25276  Biso   1.000  H
  H186     1.0000 0.23976  0.06478  0.25217  Biso   1.000  H
  H187     1.0000 0.25833  0.11806  0.24576  Biso   1.000  H
  H188     1.0000 0.28724  0.04667  0.29447  Biso   1.000  H
  C197     1.0000 0.27340  0.00868  0.28011  Biso   1.000  C
  H189     1.0000 0.24242  0.96976  0.26627  Biso   1.000  H
  C198     1.0000 0.45036  0.50252  0.29204  Biso   1.000  C
  H190     1.0000 0.52584  0.55517  0.28887  Biso   1.000  H
  C199     1.0000 0.41727  0.49970  0.30070  Biso   1.000  C
  H191     1.0000 0.43474  0.55138  0.31317  Biso   1.000  H
  C200     1.0000 0.65016  0.67921  0.28868  Biso   1.000  C
  H192     1.0000 0.61702  0.72635  0.30777  Biso   1.000  H
  C201     1.0000 0.66101  0.72178  0.29547  Biso   1.000  C
  C202     1.0000 0.78064  0.62281  0.40652  Biso   1.000  C
  H193     1.0000 0.73918  0.65758  0.40160  Biso   1.000  H
  H194     1.0000 0.88848  0.69600  0.37780  Biso   1.000  H
  C203     1.0000 0.90505  0.74227  0.36484  Biso   1.000  C
  H195     1.0000 0.80628  0.75749  0.36480  Biso   1.000  H
  C204     1.0000 0.87578  0.76328  0.35987  Biso   1.000  C
  C205     1.0000 0.35089  0.89528  0.32406  Biso   1.000  C
  H196     1.0000 0.32182  0.87502  0.33900  Biso   1.000  H
  C206     1.0000 0.32312  0.82260  0.31231  Biso   1.000  C
  H197     1.0000 0.27670  0.75281  0.31920  Biso   1.000  H
  H198     1.0000 0.44150  0.80589  0.33990  Biso   1.000  H
  H199     1.0000 0.40241  0.82412  0.33540  Biso   1.000  H
  C207     1.0000 0.41071  0.77405  0.32537  Biso   1.000  C
  H200     1.0000 0.49350  0.87873  0.37170  Biso   1.000  H
  C208     1.0000 0.56372  0.92939  0.37790  Biso   1.000  C
  H201     1.0000 0.52569  0.83281  0.39960  Biso   1.000  H
  C209     1.0000 0.58326  0.90322  0.39453  Biso   1.000  C
  N21      1.0000 0.92703  0.63697  0.39401  Biso   1.000  N
  C210     1.0000 0.92743  0.58201  0.40698  Biso   1.000  C
  N22      1.0000 0.70993  0.07296  0.39401  Biso   1.000  N
  C211     1.0000 0.65458  0.07256  0.40698  Biso   1.000  C
  N23      1.0000 0.81393  0.16488  0.39247  Biso   1.000  N
  C212     1.0000 0.84216  0.21938  0.40652  Biso   1.000  C
  C213     1.0000 0.43460  0.46700  0.28367  Biso   1.000  C
  C214     1.0000 0.32078  0.00364  0.28063  Biso   1.000  C
  H202     1.0000 0.38213  0.47298  0.30187  Biso   1.000  H
  C215     1.0000 0.68289  0.67921  0.28063  Biso   1.000  C
  H203     1.0000 0.69144  0.75546  0.29527  Biso   1.000  H
  H204     1.0000 0.76408  0.60669  0.41300  Biso   1.000  H
  C216     1.0000 0.95490  0.75323  0.36183  Biso   1.000  C
  H205     1.0000 0.88471  0.78331  0.35350  Biso   1.000  H
  C217     1.0000 0.35137  0.87619  0.31403  Biso   1.000  C
  H206     1.0000 0.37071  0.93182  0.32540  Biso   1.000  H
  H207     1.0000 0.32342  0.80891  0.30550  Biso   1.000  H
  H208     1.0000 0.43950  0.80210  0.32140  Biso   1.000  H
  H209     1.0000 0.37769  0.76271  0.32160  Biso   1.000  H
  H210     1.0000 0.41682  0.74440  0.32610  Biso   1.000  H
  H211     1.0000 0.57392  0.95392  0.37220  Biso   1.000  H
  C218     1.0000 0.59802  0.94007  0.38656  Biso   1.000  C
  H212     1.0000 0.60603  0.90913  0.40040  Biso   1.000  H
  H213     1.0000 0.91772  0.65500  0.38990  Biso   1.000  H
  C219     1.0000 0.97169  0.63489  0.39334  Biso   1.000  C
  C220     1.0000 0.97204  0.60035  0.40133  Biso   1.000  C
  H214     1.0000 0.91682  0.55842  0.41280  Biso   1.000  H
  C221     1.0000 0.66319  0.02832  0.39334  Biso   1.000  C
  H215     1.0000 0.73730  0.08231  0.38990  Biso   1.000  H
  C222     1.0000 0.62829  0.02797  0.40133  Biso   1.000  C
  H216     1.0000 0.64161  0.08321  0.41280  Biso   1.000  H
  C223     1.0000 0.86702  0.19904  0.39132  Biso   1.000  C
  H217     1.0000 0.84258  0.23588  0.41300  Biso   1.000  H
  C224     1.0000 0.88380  0.23315  0.40026  Biso   1.000  C
  C225     1.0000 0.46631  0.46762  0.27534  Biso   1.000  C
  C226     1.0000 0.36166  0.03180  0.27332  Biso   1.000  C
  C227     1.0000 0.32077  0.97097  0.28868  Biso   1.000  C
  C228     1.0000 0.67016  0.63838  0.27332  Biso   1.000  C
  C229     1.0000 0.73530  0.72659  0.28011  Biso   1.000  C
  C230     1.0000 0.98198  0.79051  0.35264  Biso   1.000  C
  C231     1.0000 0.98562  0.73668  0.36685  Biso   1.000  C
  C232     1.0000 0.37842  0.91343  0.30484  Biso   1.000  C
  C233     1.0000 0.65044  0.98744  0.38604  Biso   1.000  C
  C234     1.0000 0.01255  0.66302  0.38604  Biso   1.000  C
  H218     1.0000 0.99881  0.59190  0.40240  Biso   1.000  H
  H219     1.0000 0.59309  0.00121  0.40240  Biso   1.000  H
  C235     1.0000 0.89873  0.19966  0.38299  Biso   1.000  C
  H220     1.0000 0.91840  0.26080  0.40160  Biso   1.000  H
  N24      1.0000 0.51942  0.50181  0.27420  Biso   1.000  N
  C236     1.0000 0.44955  0.43355  0.26641  Biso   1.000  C
  N25      1.0000 0.40630  0.02969  0.27265  Biso   1.000  N
  C237     1.0000 0.36131  0.06635  0.26534  Biso   1.000  C
  N26      1.0000 0.36224  0.96421  0.29125  Biso   1.000  N
  C238     1.0000 0.27825  0.93925  0.29547  Biso   1.000  C
  N27      1.0000 0.62340  0.59370  0.27265  Biso   1.000  N
  C239     1.0000 0.70504  0.63869  0.26534  Biso   1.000  C
  C240     1.0000 0.76961  0.73727  0.28877  Biso   1.000  C
  C241     1.0000 0.75009  0.76348  0.27214  Biso   1.000  C
  C242     1.0000 0.98246  0.77142  0.34260  Biso   1.000  C
  C243     1.0000 0.01021  0.84406  0.35436  Biso   1.000  C
  N28      1.0000 0.97110  0.70249  0.37542  Biso   1.000  N
  C244     1.0000 0.03917  0.75237  0.36438  Biso   1.000  C
  C245     1.0000 0.34770  0.92998  0.29982  Biso   1.000  C
  C246     1.0000 0.42828  0.92438  0.30183  Biso   1.000  C
  C247     1.0000 0.68317  0.98744  0.37799  Biso   1.000  C
  C248     1.0000 0.01257  0.69572  0.37799  Biso   1.000  C
  C249     1.0000 0.05993  0.65797  0.38656  Biso   1.000  C
  C250     1.0000 0.88297  0.16414  0.37463  Biso   1.000  C
  C251     1.0000 0.95500  0.24038  0.38419  Biso   1.000  C
  C252     1.0000 0.53639  0.49070  0.26479  Biso   1.000  C
  C253     1.0000 0.49119  0.44732  0.26015  Biso   1.000  C
  H221     1.0000 0.41493  0.40585  0.26506  Biso   1.000  H
  H222     1.0000 0.41561  0.01166  0.27677  Biso   1.000  H
  C254     1.0000 0.43429  0.06114  0.26428  Biso   1.000  C
  H223     1.0000 0.33452  0.07476  0.26427  Biso   1.000  H
  C255     1.0000 0.40590  0.08465  0.25969  Biso   1.000  C
  C256     1.0000 0.29418  0.91433  0.30228  Biso   1.000  C
  H224     1.0000 0.24452  0.93596  0.29527  Biso   1.000  H
  C257     1.0000 0.62684  0.56569  0.26428  Biso   1.000  C
  H225     1.0000 0.59602  0.58435  0.27677  Biso   1.000  H
  C258     1.0000 0.67875  0.59409  0.25969  Biso   1.000  C
  H226     1.0000 0.74026  0.66548  0.26427  Biso   1.000  H
  C259     1.0000 0.81697  0.78198  0.28916  Biso   1.000  C
  H227     1.0000 0.75943  0.71278  0.29447  Biso   1.000  H
  C260     1.0000 0.79787  0.80889  0.27262  Biso   1.000  C
  H228     1.0000 0.72732  0.75757  0.26627  Biso   1.000  H
  C261     1.0000 0.01147  0.80498  0.33454  Biso   1.000  C
  H229     1.0000 0.96264  0.73488  0.34127  Biso   1.000  H
  C262     1.0000 0.03842  0.87723  0.34628  Biso   1.000  C
  H230     1.0000 0.00991  0.85775  0.36117  Biso   1.000  H
  H231     1.0000 0.05969  0.77599  0.35890  Biso   1.000  H
  C263     1.0000 0.05508  0.72741  0.37120  Biso   1.000  C
  N29      1.0000 0.45422  0.95274  0.29307  Biso   1.000  N
  C264     1.0000 0.45757  0.90342  0.30679  Biso   1.000  C
  N30      1.0000 0.73135  0.02887  0.37542  Biso   1.000  N
  C265     1.0000 0.67234  0.94492  0.37120  Biso   1.000  C
  C266     1.0000 0.07061  0.63435  0.37790  Biso   1.000  C
  C267     1.0000 0.09681  0.68004  0.39453  Biso   1.000  C
  N31      1.0000 0.83478  0.12088  0.37360  Biso   1.000  N
  C268     1.0000 0.91606  0.16696  0.36597  Biso   1.000  C
  C269     1.0000 0.97172  0.29272  0.38345  Biso   1.000  C
  C270     1.0000 0.99068  0.22521  0.38704  Biso   1.000  C
  C271     1.0000 0.58572  0.51875  0.26041  Biso   1.000  C
  H232     1.0000 0.49074  0.43077  0.25366  Biso   1.000  H
  C272     1.0000 0.48125  0.06697  0.26041  Biso   1.000  C
  H233     1.0000 0.41653  0.10828  0.25387  Biso   1.000  H
  H234     1.0000 0.27364  0.89066  0.30777  Biso   1.000  H
  H235     1.0000 0.69172  0.58345  0.25387  Biso   1.000  H
  C273     1.0000 0.83206  0.81895  0.28103  Biso   1.000  C
  H236     1.0000 0.83985  0.78796  0.29496  Biso   1.000  H
  H237     1.0000 0.80764  0.83385  0.26707  Biso   1.000  H
  C274     1.0000 0.04074  0.85850  0.33652  Biso   1.000  C
  H238     1.0000 0.01153  0.79168  0.32766  Biso   1.000  H
  H239     1.0000 0.05663  0.91385  0.34747  Biso   1.000  H
  H240     1.0000 0.08880  0.73069  0.37140  Biso   1.000  H
  H241     1.0000 0.44485  0.97066  0.28887  Biso   1.000  H
  C275     1.0000 0.49751  0.94786  0.29204  Biso   1.000  C
  C276     1.0000 0.50029  0.91758  0.30070  Biso   1.000  C
  H242     1.0000 0.44864  0.88339  0.31317  Biso   1.000  H
  C277     1.0000 0.75106  0.01436  0.36685  Biso   1.000  C
  C278     1.0000 0.71321  0.96088  0.36438  Biso   1.000  C
  H243     1.0000 0.64189  0.91120  0.37140  Biso   1.000  H
  C279     1.0000 0.11532  0.63169  0.37750  Biso   1.000  C
  H244     1.0000 0.04609  0.61999  0.37220  Biso   1.000  H
  C280     1.0000 0.14224  0.67773  0.39405  Biso   1.000  C
  H245     1.0000 0.09091  0.69690  0.40040  Biso   1.000  H
  C281     1.0000 0.83723  0.09494  0.36484  Biso   1.000  C
  H246     1.0000 0.80749  0.11149  0.37780  Biso   1.000  H
  C282     1.0000 0.88746  0.12420  0.35987  Biso   1.000  C
  H247     1.0000 0.95122  0.19371  0.36480  Biso   1.000  H
  H248     1.0000 0.94759  0.30340  0.38130  Biso   1.000  H
  C283     1.0000 0.02282  0.33036  0.38568  Biso   1.000  C
  H249     1.0000 0.98020  0.18922  0.38750  Biso   1.000  H
  C284     1.0000 0.04230  0.26335  0.38927  Biso   1.000  C
  C285     1.0000 0.59326  0.49712  0.25019  Biso   1.000  C
  C286     1.0000 0.50929  0.04569  0.26479  Biso   1.000  C
  C287     1.0000 0.50288  0.09615  0.25019  Biso   1.000  C
  C288     1.0000 0.88389  0.86691  0.28134  Biso   1.000  C
  C289     1.0000 0.07331  0.89585  0.32787  Biso   1.000  C
  C290     1.0000 0.53300  0.96761  0.28367  Biso   1.000  C
  H250     1.0000 0.52705  0.90917  0.30187  Biso   1.000  H
  C291     1.0000 0.79830  0.04506  0.36183  Biso   1.000  C
  H251     1.0000 0.71631  0.94031  0.35890  Biso   1.000  H
  C292     1.0000 0.15227  0.65355  0.38563  Biso   1.000  C
  H252     1.0000 0.12130  0.61479  0.37170  Biso   1.000  H
  H253     1.0000 0.16721  0.69291  0.39960  Biso   1.000  H
  H254     1.0000 0.89859  0.11528  0.35350  Biso   1.000  H
  C293     1.0000 0.05804  0.31576  0.38881  Biso   1.000  C
  H255     1.0000 0.03349  0.36638  0.38500  Biso   1.000  H
  H256     1.0000 0.06689  0.25290  0.39110  Biso   1.000  H
  C294     1.0000 0.60293  0.52567  0.24085  Biso   1.000  C
  C295     1.0000 0.58542  0.44626  0.24971  Biso   1.000  C
  N32      1.0000 0.49822  0.01764  0.27420  Biso   1.000  N
  C296     1.0000 0.55269  0.04385  0.26015  Biso   1.000  C
  C297     1.0000 0.47433  0.07726  0.24085  Biso   1.000  C
  C298     1.0000 0.55372  0.13914  0.24971  Biso   1.000  C
  N33      1.0000 0.91561  0.87383  0.28857  Biso   1.000  N
  H257     1.0000 0.89313  0.89276  0.27596  Biso   1.000  H
  N34      1.0000 0.07729  0.87989  0.31893  Biso   1.000  N
  H258     1.0000 0.09122  0.93235  0.32927  Biso   1.000  H
  C299     1.0000 0.53239  0.99871  0.27534  Biso   1.000  C
  C300     1.0000 0.57369  0.95204  0.28247  Biso   1.000  C
  C301     1.0000 0.80853  0.01803  0.35264  Biso   1.000  C
  C302     1.0000 0.20024  0.64968  0.38532  Biso   1.000  C
  C303     1.0000 0.11213  0.35477  0.39140  Biso   1.000  C
  H259     1.0000 0.60924  0.56057  0.24107  Biso   1.000  H
  C304     1.0000 0.60336  0.50349  0.23128  Biso   1.000  C
  H260     1.0000 0.58022  0.42686  0.25607  Biso   1.000  H
  C305     1.0000 0.58521  0.42416  0.23996  Biso   1.000  C
  H261     1.0000 0.56925  0.05997  0.25366  Biso   1.000  H
  C306     1.0000 0.56644  0.01600  0.26641  Biso   1.000  C
  H262     1.0000 0.43943  0.04866  0.24107  Biso   1.000  H
  C307     1.0000 0.49651  0.09987  0.23128  Biso   1.000  C
  H263     1.0000 0.57313  0.15338  0.25607  Biso   1.000  H
  C308     1.0000 0.57585  0.16105  0.23996  Biso   1.000  C
  C309     1.0000 0.96739  0.92097  0.28811  Biso   1.000  C
  C310     1.0000 0.10847  0.92030  0.31082  Biso   1.000  C
  C311     1.0000 0.62606  0.98768  0.28322  Biso   1.000  C
  C312     1.0000 0.55855  0.90123  0.27962  Biso   1.000  C
  C313     1.0000 0.78893  0.01753  0.34260  Biso   1.000  C
  C314     1.0000 0.83389  0.98983  0.35436  Biso   1.000  C
  N35      1.0000 0.20717  0.62492  0.37810  Biso   1.000  N
  H264     1.0000 0.22610  0.66631  0.39070  Biso   1.000  H
  N36      1.0000 0.12852  0.40312  0.39146  Biso   1.000  N
  H265     1.0000 0.13589  0.34299  0.39310  Biso   1.000  H
  H266     1.0000 0.61095  0.52368  0.22497  Biso   1.000  H
  C315     1.0000 0.59291  0.45190  0.23062  Biso   1.000  C
  H267     1.0000 0.57974  0.38958  0.23967  Biso   1.000  H
  H268     1.0000 0.59414  0.00908  0.26506  Biso   1.000  H
  H269     1.0000 0.47632  0.08727  0.22497  Biso   1.000  H
  C316     1.0000 0.54812  0.14102  0.23062  Biso   1.000  C
  H270     1.0000 0.61042  0.19016  0.23967  Biso   1.000  H
  H271     1.0000 0.97024  0.94577  0.29377  Biso   1.000  H
  H272     1.0000 0.97213  0.93838  0.28117  Biso   1.000  H
  C317     1.0000 0.00930  0.90708  0.28965  Biso   1.000  C
  C318     1.0000 0.07742  0.90645  0.30056  Biso   1.000  C
  H273     1.0000 0.14215  0.92148  0.30956  Biso   1.000  H
  H274     1.0000 0.11593  0.95516  0.31337  Biso   1.000  H
  H275     1.0000 0.63674  0.02245  0.28537  Biso   1.000  H
  C319     1.0000 0.66366  0.97418  0.28098  Biso   1.000  C
  C320     1.0000 0.59667  0.88769  0.27740  Biso   1.000  C
  H276     1.0000 0.52253  0.87568  0.27916  Biso   1.000  H
  C321     1.0000 0.79351  0.98854  0.33454  Biso   1.000  C
  H277     1.0000 0.77222  0.03736  0.34127  Biso   1.000  H
  C322     1.0000 0.83881  0.96159  0.34628  Biso   1.000  C
  H278     1.0000 0.84783  0.99006  0.36117  Biso   1.000  H
  C323     1.0000 0.25434  0.62026  0.37856  Biso   1.000  C
  C324     1.0000 0.18430  0.43852  0.39331  Biso   1.000  C
  C325     1.0000 0.59294  0.42987  0.22017  Biso   1.000  C
  C326     1.0000 0.57011  0.16305  0.22017  Biso   1.000  C
  C327     1.0000 0.03653  0.91635  0.29934  Biso   1.000  C
  C328     1.0000 0.02337  0.88513  0.28141  Biso   1.000  C
  C329     1.0000 0.08982  0.88470  0.29218  Biso   1.000  C
  C330     1.0000 0.64909  0.92438  0.27786  Biso   1.000  C
  H279     1.0000 0.69973  0.99957  0.28167  Biso   1.000  H
  H280     1.0000 0.58624  0.85268  0.27557  Biso   1.000  H
  C331     1.0000 0.81774  0.95928  0.33652  Biso   1.000  C
  H281     1.0000 0.78014  0.98850  0.32766  Biso   1.000  H
  H282     1.0000 0.85726  0.94340  0.34747  Biso   1.000  H
  C332     1.0000 0.24042  0.56444  0.37702  Biso   1.000  C
  H283     1.0000 0.27910  0.64221  0.37290  Biso   1.000  H
  H284     1.0000 0.27170  0.63290  0.38550  Biso   1.000  H
  C333     1.0000 0.20703  0.47646  0.38435  Biso   1.000  C
  H285     1.0000 0.18931  0.45769  0.40010  Biso   1.000  H
  H286     1.0000 0.20251  0.41810  0.39390  Biso   1.000  H
  N37      1.0000 0.58278  0.38258  0.21906  Biso   1.000  N
  H287     1.0000 0.60073  0.45135  0.21407  Biso   1.000  H
  N38      1.0000 0.61745  0.20021  0.21906  Biso   1.000  N
  H288     1.0000 0.54863  0.14935  0.21407  Biso   1.000  H
  O13      1.0000 0.02218  0.93568  0.30784  Biso   1.000  O
  O14      1.0000 0.99492  0.87262  0.27198  Biso   1.000  O
  C334     1.0000 0.06393  0.87371  0.28231  Biso   1.000  C
  O15      1.0000 0.12770  0.87015  0.29344  Biso   1.000  O
  C335     1.0000 0.68811  0.90932  0.27526  Biso   1.000  C
  C336     1.0000 0.82252  0.92669  0.32787  Biso   1.000  C
  C337     1.0000 0.24970  0.54649  0.36733  Biso   1.000  C
  C338     1.0000 0.21849  0.52845  0.38526  Biso   1.000  C
  C339     1.0000 0.21804  0.46156  0.37449  Biso   1.000  C
  C340     1.0000 0.58922  0.36701  0.20833  Biso   1.000  C
  C341     1.0000 0.63300  0.22223  0.20833  Biso   1.000  C
  C342     1.0000 0.97589  0.89358  0.31333  Biso   1.000  C
  C343     1.0000 0.95507  0.81719  0.27148  Biso   1.000  C
  C344     1.0000 0.07913  0.85098  0.27336  Biso   1.000  C
  C345     1.0000 0.10750  0.82141  0.29936  Biso   1.000  C
  N39      1.0000 0.73645  0.94128  0.27521  Biso   1.000  N
  H289     1.0000 0.67633  0.87376  0.27357  Biso   1.000  H
  N40      1.0000 0.80260  0.92270  0.31893  Biso   1.000  N
  H290     1.0000 0.84113  0.90878  0.32927  Biso   1.000  H
  C346     1.0000 0.23979  0.49571  0.36611  Biso   1.000  C
  O16      1.0000 0.26901  0.58017  0.35883  Biso   1.000  O
  O17      1.0000 0.20596  0.54437  0.39469  Biso   1.000  O
  O18      1.0000 0.20350  0.40910  0.37322  Biso   1.000  O
  H291     1.0000 0.60102  0.39697  0.20337  Biso   1.000  H
  H292     1.0000 0.55533  0.33826  0.20577  Biso   1.000  H
  C347     1.0000 0.62886  0.34925  0.20864  Biso   1.000  C
  C348     1.0000 0.65075  0.27962  0.20864  Biso   1.000  C
  H293     1.0000 0.60306  0.20408  0.20337  Biso   1.000  H
  H294     1.0000 0.66172  0.21707  0.20577  Biso   1.000  H
  H295     1.0000 0.98073  0.86315  0.31457  Biso   1.000  H
  H296     1.0000 0.94424  0.88197  0.30886  Biso   1.000  H
  C349     1.0000 0.96951  0.91443  0.32372  Biso   1.000  C
  H297     1.0000 0.93305  0.80748  0.27797  Biso   1.000  H
  H298     1.0000 0.97224  0.79575  0.27127  Biso   1.000  H
  C350     1.0000 0.92187  0.80619  0.26195  Biso   1.000  C
  N41      1.0000 0.05874  0.79516  0.27521  Biso   1.000  N
  H299     1.0000 0.06491  0.85595  0.26657  Biso   1.000  H
  H300     1.0000 0.11773  0.86917  0.27277  Biso   1.000  H
  H301     1.0000 0.07633  0.79336  0.29566  Biso   1.000  H
  H302     1.0000 0.09683  0.82575  0.30656  Biso   1.000  H
  C351     1.0000 0.14945  0.80631  0.30014  Biso   1.000  C
  C352     1.0000 0.77189  0.92090  0.27336  Biso   1.000  C
  C353     1.0000 0.81183  0.89156  0.31082  Biso   1.000  C
  C354     1.0000 0.25361  0.47850  0.35585  Biso   1.000  C
  C355     1.0000 0.22689  0.58435  0.35333  Biso   1.000  C
  C356     1.0000 0.15049  0.52877  0.39519  Biso   1.000  C
  C357     1.0000 0.15472  0.38058  0.36731  Biso   1.000  C
  C358     1.0000 0.68209  0.38540  0.20885  Biso   1.000  C
  C359     1.0000 0.61461  0.29671  0.20885  Biso   1.000  C
  C360     1.0000 0.70330  0.31792  0.20885  Biso   1.000  C
  H303     1.0000 0.96232  0.94326  0.32236  Biso   1.000  H
  C361     1.0000 0.92558  0.87297  0.33048  Biso   1.000  C
  H304     1.0000 0.00275  0.92906  0.32777  Biso   1.000  H
  H305     1.0000 0.94332  0.81198  0.25547  Biso   1.000  H
  H306     1.0000 0.90833  0.83076  0.26167  Biso   1.000  H
  C362     1.0000 0.87620  0.75029  0.26195  Biso   1.000  C
  C363     1.0000 0.09071  0.77881  0.27526  Biso   1.000  C
  H307     1.0000 0.16295  0.80608  0.29297  Biso   1.000  H
  H308     1.0000 0.17893  0.83256  0.30446  Biso   1.000  H
  C364     1.0000 0.12793  0.75311  0.30512  Biso   1.000  C
  C365     1.0000 0.80976  0.93608  0.28231  Biso   1.000  C
  H309     1.0000 0.79103  0.93506  0.26657  Biso   1.000  H
  H310     1.0000 0.75143  0.88229  0.27277  Biso   1.000  H
  C366     1.0000 0.82903  0.92258  0.30056  Biso   1.000  C
  H311     1.0000 0.77934  0.85788  0.30956  Biso   1.000  H
  H312     1.0000 0.83926  0.88409  0.31337  Biso   1.000  H
  N42      1.0000 0.21322  0.46927  0.34774  Biso   1.000  N
  H313     1.0000 0.25481  0.44599  0.35710  Biso   1.000  H
  H314     1.0000 0.28848  0.50588  0.35330  Biso   1.000  H
  H315     1.0000 0.19650  0.54911  0.35210  Biso   1.000  H
  H316     1.0000 0.21529  0.60438  0.35780  Biso   1.000  H
  C367     1.0000 0.24776  0.61158  0.34295  Biso   1.000  C
  H317     1.0000 0.14079  0.54109  0.38870  Biso   1.000  H
  H318     1.0000 0.12910  0.49019  0.39540  Biso   1.000  H
  C368     1.0000 0.13954  0.55098  0.40472  Biso   1.000  C
  H319     1.0000 0.12671  0.38371  0.37100  Biso   1.000  H
  H320     1.0000 0.15911  0.39561  0.36010  Biso   1.000  H
  C369     1.0000 0.13965  0.32355  0.36652  Biso   1.000  C
  O19      1.0000 0.69727  0.43852  0.20886  Biso   1.000  O
  C370     1.0000 0.72040  0.37116  0.20864  Biso   1.000  C
  O20      1.0000 0.56149  0.25877  0.20886  Biso   1.000  O
  O21      1.0000 0.74125  0.30274  0.20886  Biso   1.000  O
  H321     1.0000 0.89183  0.86076  0.32676  Biso   1.000  H
  H322     1.0000 0.93094  0.84257  0.33127  Biso   1.000  H
  C371     1.0000 0.92264  0.89265  0.34130  Biso   1.000  C
  H323     1.0000 0.85545  0.74458  0.26847  Biso   1.000  H
  H324     1.0000 0.89012  0.72596  0.26217  Biso   1.000  H
  C372     1.0000 0.83971  0.73695  0.25226  Biso   1.000  C
  H325     1.0000 0.12623  0.80256  0.27357  Biso   1.000  H
  C373     1.0000 0.07561  0.72471  0.27786  Biso   1.000  C
  H326     1.0000 0.09955  0.72678  0.30056  Biso   1.000  H
  H327     1.0000 0.11274  0.75295  0.31216  Biso   1.000  H
  C374     1.0000 0.16987  0.73801  0.30654  Biso   1.000  C
  C375     1.0000 0.79488  0.91018  0.29218  Biso   1.000  C
  C376     1.0000 0.86179  0.97665  0.28141  Biso   1.000  C
  C377     1.0000 0.87983  0.96346  0.29934  Biso   1.000  C
  C378     1.0000 0.22917  0.48918  0.33880  Biso   1.000  C
  H328     1.0000 0.27661  0.64761  0.34430  Biso   1.000  H
  H329     1.0000 0.26238  0.59300  0.33890  Biso   1.000  H
  C379     1.0000 0.20630  0.61404  0.33619  Biso   1.000  C
  H330     1.0000 0.14528  0.53530  0.41120  Biso   1.000  H
  H331     1.0000 0.16408  0.58909  0.40500  Biso   1.000  H
  C380     1.0000 0.08362  0.54077  0.40471  Biso   1.000  C
  H332     1.0000 0.13939  0.30982  0.37370  Biso   1.000  H
  H333     1.0000 0.16591  0.32030  0.36220  Biso   1.000  H
  C381     1.0000 0.08648  0.29186  0.36154  Biso   1.000  C
  C382     1.0000 0.71517  0.46301  0.21927  Biso   1.000  C
  C383     1.0000 0.77779  0.41078  0.20833  Biso   1.000  C
  C384     1.0000 0.53698  0.25216  0.21927  Biso   1.000  C
  C385     1.0000 0.74784  0.28482  0.21927  Biso   1.000  C
  H334     1.0000 0.89383  0.86456  0.34527  Biso   1.000  H
  H335     1.0000 0.95563  0.90395  0.34506  Biso   1.000  H
  H336     1.0000 0.91651  0.92226  0.34057  Biso   1.000  H
  H337     1.0000 0.81133  0.70057  0.25276  Biso   1.000  H
  H338     1.0000 0.82505  0.76027  0.25217  Biso   1.000  H
  H339     1.0000 0.85971  0.74165  0.24576  Biso   1.000  H
  C386     1.0000 0.02583  0.68950  0.28098  Biso   1.000  C
  C387     1.0000 0.11230  0.70898  0.27740  Biso   1.000  C
  H340     1.0000 0.15433  0.70327  0.30977  Biso   1.000  H
  H341     1.0000 0.18453  0.73738  0.29957  Biso   1.000  H
  H342     1.0000 0.19762  0.76355  0.31117  Biso   1.000  H
  O22      1.0000 0.74246  0.87228  0.29344  Biso   1.000  O
  O23      1.0000 0.87770  0.00509  0.27198  Biso   1.000  O
  C388     1.0000 0.89780  0.99073  0.28965  Biso   1.000  C
  O24      1.0000 0.91352  0.97786  0.30784  Biso   1.000  O
  C389     1.0000 0.19179  0.48440  0.33015  Biso   1.000  C
  H343     1.0000 0.26569  0.50780  0.33740  Biso   1.000  H
  H344     1.0000 0.19411  0.63560  0.33990  Biso   1.000  H
  H345     1.0000 0.17589  0.57829  0.33540  Biso   1.000  H
  C390     1.0000 0.22598  0.63665  0.32537  Biso   1.000  C
  H346     1.0000 0.07788  0.55580  0.39820  Biso   1.000  H
  H347     1.0000 0.05931  0.50252  0.40450  Biso   1.000  H
  C391     1.0000 0.07031  0.56389  0.41441  Biso   1.000  C
  H348     1.0000 0.06009  0.29390  0.36610  Biso   1.000  H
  H349     1.0000 0.08630  0.30688  0.35450  Biso   1.000  H
  C392     1.0000 0.07134  0.23483  0.36013  Biso   1.000  C
  H350     1.0000 0.74774  0.46336  0.22127  Biso   1.000  H
  H351     1.0000 0.68823  0.44306  0.22477  Biso   1.000  H
  C393     1.0000 0.72501  0.51832  0.21859  Biso   1.000  C
  N43      1.0000 0.79982  0.41724  0.21906  Biso   1.000  N
  H352     1.0000 0.79593  0.39897  0.20337  Biso   1.000  H
  H353     1.0000 0.78294  0.44466  0.20577  Biso   1.000  H
  H354     1.0000 0.53661  0.28435  0.22127  Biso   1.000  H
  H355     1.0000 0.55692  0.24516  0.22477  Biso   1.000  H
  C394     1.0000 0.48170  0.20670  0.21859  Biso   1.000  C
  H356     1.0000 0.71564  0.25228  0.22127  Biso   1.000  H
  H357     1.0000 0.75484  0.31177  0.22477  Biso   1.000  H
  C395     1.0000 0.79330  0.27500  0.21859  Biso   1.000  C
  H358     1.0000 0.00044  0.70018  0.28167  Biso   1.000  H
  C396     1.0000 0.01238  0.63841  0.28322  Biso   1.000  C
  H359     1.0000 0.14732  0.73355  0.27557  Biso   1.000  H
  C397     1.0000 0.09879  0.65731  0.27962  Biso   1.000  C
  C398     1.0000 0.71388  0.89250  0.29936  Biso   1.000  C
  C399     1.0000 0.86208  0.04491  0.27148  Biso   1.000  C
  C400     1.0000 0.95359  0.03259  0.28811  Biso   1.000  C
  C401     1.0000 0.91772  0.02414  0.31333  Biso   1.000  C
  C402     1.0000 0.13830  0.46015  0.33213  Biso   1.000  C
  C403     1.0000 0.21057  0.50549  0.32039  Biso   1.000  C
  H360     1.0000 0.19789  0.63740  0.32140  Biso   1.000  H
  H361     1.0000 0.23730  0.61498  0.32160  Biso   1.000  H
  H362     1.0000 0.25561  0.67241  0.32610  Biso   1.000  H
  H363     1.0000 0.03390  0.55591  0.41390  Biso   1.000  H
  H364     1.0000 0.09359  0.60192  0.41450  Biso   1.000  H
  H365     1.0000 0.07500  0.54860  0.42090  Biso   1.000  H
  H366     1.0000 0.03658  0.21558  0.35690  Biso   1.000  H
  H367     1.0000 0.07069  0.21949  0.36710  Biso   1.000  H
  H368     1.0000 0.09689  0.23260  0.35550  Biso   1.000  H
  H369     1.0000 0.69354  0.51785  0.21567  Biso   1.000  H
  H370     1.0000 0.75442  0.53886  0.21367  Biso   1.000  H
  C404     1.0000 0.73797  0.54437  0.22960  Biso   1.000  C
  C405     1.0000 0.83694  0.40707  0.22017  Biso   1.000  C
  H371     1.0000 0.48214  0.17568  0.21567  Biso   1.000  H
  H372     1.0000 0.46113  0.21558  0.21367  Biso   1.000  H
  C406     1.0000 0.45563  0.19360  0.22960  Biso   1.000  C
  H373     1.0000 0.82434  0.30645  0.21567  Biso   1.000  H
  H374     1.0000 0.78446  0.24559  0.21367  Biso   1.000  H
  C407     1.0000 0.80639  0.26202  0.22960  Biso   1.000  C
  H375     1.0000 0.97754  0.61428  0.28537  Biso   1.000  H
  C408     1.0000 0.04795  0.62167  0.28247  Biso   1.000  C
  H376     1.0000 0.12433  0.64686  0.27916  Biso   1.000  H
  H377     1.0000 0.71704  0.92368  0.29566  Biso   1.000  H
  H378     1.0000 0.72895  0.90318  0.30656  Biso   1.000  H
  C409     1.0000 0.65687  0.85057  0.30014  Biso   1.000  C
  H379     1.0000 0.87443  0.06697  0.27797  Biso   1.000  H
  H380     1.0000 0.82353  0.02777  0.27127  Biso   1.000  H
  C410     1.0000 0.88434  0.07812  0.26195  Biso   1.000  C
  N44      1.0000 0.95824  0.08438  0.28857  Biso   1.000  N
  H381     1.0000 0.97552  0.02977  0.29377  Biso   1.000  H
  H382     1.0000 0.96623  0.02785  0.28117  Biso   1.000  H
  H383     1.0000 0.88243  0.01929  0.31457  Biso   1.000  H
  H384     1.0000 0.93774  0.05578  0.30886  Biso   1.000  H
  C411     1.0000 0.94491  0.03047  0.32372  Biso   1.000  C
  C412     1.0000 0.10476  0.45561  0.32406  Biso   1.000  C
  H385     1.0000 0.12499  0.44681  0.33900  Biso   1.000  H
  C413     1.0000 0.17739  0.50052  0.31231  Biso   1.000  C
  H386     1.0000 0.24722  0.52391  0.31920  Biso   1.000  H
  H387     1.0000 0.70905  0.52298  0.23457  Biso   1.000  H
  H388     1.0000 0.77002  0.54566  0.23237  Biso   1.000  H
  C414     1.0000 0.74652  0.59996  0.22928  Biso   1.000  C
  C415     1.0000 0.85898  0.40711  0.23062  Biso   1.000  C
  H389     1.0000 0.85063  0.39928  0.21407  Biso   1.000  H
  H390     1.0000 0.47703  0.18605  0.23457  Biso   1.000  H
  H391     1.0000 0.45436  0.22438  0.23237  Biso   1.000  H
  C416     1.0000 0.40005  0.14654  0.22928  Biso   1.000  C
  H392     1.0000 0.81392  0.29096  0.23457  Biso   1.000  H
  H393     1.0000 0.77564  0.22998  0.23237  Biso   1.000  H
  C417     1.0000 0.85345  0.25349  0.22928  Biso   1.000  C
  C418     1.0000 0.03240  0.56538  0.28367  Biso   1.000  C
  H394     1.0000 0.64314  0.83707  0.29297  Biso   1.000  H
  H395     1.0000 0.65364  0.82107  0.30446  Biso   1.000  H
  C419     1.0000 0.62521  0.87208  0.30512  Biso   1.000  C
  H396     1.0000 0.86864  0.05668  0.25547  Biso   1.000  H
  H397     1.0000 0.92241  0.09165  0.26167  Biso   1.000  H
  C420     1.0000 0.87409  0.12381  0.26195  Biso   1.000  C
  C421     1.0000 0.98301  0.11610  0.28134  Biso   1.000  C
  H398     1.0000 0.98093  0.03767  0.32236  Biso   1.000  H
  C422     1.0000 0.94738  0.07444  0.33048  Biso   1.000  C
  H399     1.0000 0.92634  0.99726  0.32777  Biso   1.000  H
  C423     1.0000 0.12383  0.47517  0.31403  Biso   1.000  C
  H400     1.0000 0.06819  0.43891  0.32540  Biso   1.000  H
  H401     1.0000 0.19108  0.51449  0.30550  Biso   1.000  H
  H402     1.0000 0.75464  0.61498  0.23646  Biso   1.000  H
  H403     1.0000 0.77564  0.62148  0.22446  Biso   1.000  H
  H404     1.0000 0.71464  0.59887  0.22667  Biso   1.000  H
  C424     1.0000 0.90012  0.39662  0.23128  Biso   1.000  C
  C425     1.0000 0.83893  0.41477  0.23996  Biso   1.000  C
  H405     1.0000 0.38502  0.13965  0.23646  Biso   1.000  H
  H406     1.0000 0.37853  0.15417  0.22446  Biso   1.000  H
  H407     1.0000 0.40112  0.11575  0.22667  Biso   1.000  H
  H408     1.0000 0.86033  0.24535  0.23646  Biso   1.000  H
  H409     1.0000 0.84585  0.22438  0.22446  Biso   1.000  H
  H410     1.0000 0.88423  0.28537  0.22667  Biso   1.000  H
  C426     1.0000 0.00131  0.53369  0.27534  Biso   1.000  C
  C427     1.0000 0.05215  0.54965  0.29204  Biso   1.000  C
  H411     1.0000 0.62725  0.90048  0.30056  Biso   1.000  H
  H412     1.0000 0.64022  0.88726  0.31216  Biso   1.000  H
  C428     1.0000 0.56813  0.83015  0.30654  Biso   1.000  C
  H413     1.0000 0.88915  0.14458  0.26847  Biso   1.000  H
  H414     1.0000 0.83586  0.10988  0.26217  Biso   1.000  H
  C429     1.0000 0.89723  0.16027  0.25226  Biso   1.000  C
  H415     1.0000 0.99964  0.10687  0.27596  Biso   1.000  H
  C430     1.0000 0.98689  0.16797  0.28103  Biso   1.000  C
  H416     1.0000 0.96895  0.10816  0.32676  Biso   1.000  H
  H417     1.0000 0.91163  0.06908  0.33127  Biso   1.000  H
  C431     1.0000 0.96996  0.07734  0.34130  Biso   1.000  C
  C432     1.0000 0.08657  0.46496  0.30484  Biso   1.000  C
  C433     1.0000 0.92276  0.39705  0.24085  Biso   1.000  C
  H418     1.0000 0.91274  0.38907  0.22497  Biso   1.000  H
  C434     1.0000 0.86086  0.41458  0.24971  Biso   1.000  C
  H419     1.0000 0.80983  0.42025  0.23967  Biso   1.000  H
  N45      1.0000 0.98238  0.48057  0.27420  Biso   1.000  N
  C435     1.0000 0.98397  0.55044  0.26641  Biso   1.000  C
  N46      1.0000 0.04726  0.50146  0.29307  Biso   1.000  N
  C436     1.0000 0.08243  0.58271  0.30070  Biso   1.000  C
  H420     1.0000 0.54893  0.84568  0.30977  Biso   1.000  H
  H421     1.0000 0.55284  0.81548  0.29957  Biso   1.000  H
  H422     1.0000 0.56593  0.80237  0.31117  Biso   1.000  H
  H423     1.0000 0.88924  0.18867  0.25276  Biso   1.000  H
  H424     1.0000 0.93524  0.17498  0.25217  Biso   1.000  H
  H425     1.0000 0.88195  0.14028  0.24576  Biso   1.000  H
  C437     1.0000 0.96502  0.18304  0.28916  Biso   1.000  C
  C438     1.0000 0.01104  0.20216  0.27262  Biso   1.000  C
  H426     1.0000 0.97073  0.10617  0.34527  Biso   1.000  H
  H427     1.0000 0.94833  0.04436  0.34506  Biso   1.000  H
  H428     1.0000 0.00573  0.08348  0.34057  Biso   1.000  H
  C439     1.0000 0.07561  0.50389  0.30183  Biso   1.000  C
  C440     1.0000 0.07002  0.41771  0.29982  Biso   1.000  C
  C441     1.0000 0.90387  0.40675  0.25019  Biso   1.000  C
  H429     1.0000 0.95132  0.39075  0.24107  Biso   1.000  H
  H430     1.0000 0.84665  0.41978  0.25607  Biso   1.000  H
  C442     1.0000 0.95431  0.46359  0.26479  Biso   1.000  C
  C443     1.0000 0.95611  0.50881  0.26015  Biso   1.000  C
  H431     1.0000 0.99092  0.58506  0.26506  Biso   1.000  H
  H432     1.0000 0.02934  0.47416  0.28887  Biso   1.000  H
  H433     1.0000 0.09083  0.61788  0.30187  Biso   1.000  H
  C444     1.0000 0.09661  0.55415  0.30679  Biso   1.000  C
  C445     1.0000 0.96767  0.23041  0.28877  Biso   1.000  C
  H434     1.0000 0.94812  0.16015  0.29496  Biso   1.000  H
  C446     1.0000 0.01335  0.24989  0.27214  Biso   1.000  C
  H435     1.0000 0.02624  0.19238  0.26707  Biso   1.000  H
  N47      1.0000 0.03583  0.39803  0.29125  Biso   1.000  N
  C447     1.0000 0.08570  0.37988  0.30228  Biso   1.000  C
  C448     1.0000 0.93305  0.41430  0.26041  Biso   1.000  C
  H436     1.0000 0.94005  0.50928  0.25366  Biso   1.000  H
  H437     1.0000 0.11663  0.56526  0.31317  Biso   1.000  H
  C449     1.0000 0.99129  0.26472  0.28011  Biso   1.000  C
  H438     1.0000 0.95334  0.24058  0.29447  Biso   1.000  H
  H439     1.0000 0.03022  0.27266  0.26627  Biso   1.000  H
  C450     1.0000 0.02908  0.34984  0.28868  Biso   1.000  C
  C451     1.0000 0.06075  0.33900  0.29547  Biso   1.000  C
  H440     1.0000 0.10933  0.38297  0.30777  Biso   1.000  H
  C452     1.0000 0.93886  0.37315  0.26428  Biso   1.000  C
  C453     1.0000 0.99636  0.31713  0.28063  Biso   1.000  C
  H441     1.0000 0.06403  0.30857  0.29527  Biso   1.000  H
  N48      1.0000 0.97029  0.37659  0.27265  Biso   1.000  N
  C454     1.0000 0.91535  0.32124  0.25969  Biso   1.000  C
  C455     1.0000 0.96820  0.32985  0.27332  Biso   1.000  C
  H442     1.0000 0.98832  0.40398  0.27677  Biso   1.000  H
  C456     1.0000 0.93368  0.29495  0.26534  Biso   1.000  C
  H443     1.0000 0.89171  0.30825  0.25387  Biso   1.000  H
  H444     1.0000 0.92524  0.25979  0.26427  Biso   1.000  H
  C457     1.0000 0.26698  0.30536  0.43200  Biso   1.000  C
  C458     1.0000 0.24868  0.26076  0.42635  Biso   1.000  C
  C459     1.0000 0.30153  0.30501  0.44000  Biso   1.000  C
  H445     1.0000 0.25854  0.33212  0.43093  Biso   1.000  H
  C460     1.0000 0.27219  0.23236  0.43094  Biso   1.000  C
  H446     1.0000 0.22507  0.25012  0.42053  Biso   1.000  H
  N49      1.0000 0.30364  0.26037  0.43933  Biso   1.000  N
  C461     1.0000 0.32966  0.34589  0.44729  Biso   1.000  C
  C462     1.0000 0.26637  0.18542  0.42707  Biso   1.000  C
  H447     1.0000 0.32166  0.25102  0.44343  Biso   1.000  H
  C463     1.0000 0.36239  0.34589  0.45534  Biso   1.000  C
  C464     1.0000 0.32462  0.39326  0.44677  Biso   1.000  C
  C465     1.0000 0.23719  0.16379  0.41687  Biso   1.000  C
  C466     1.0000 0.28764  0.15737  0.43145  Biso   1.000  C
  N50      1.0000 0.36915  0.30446  0.45791  Biso   1.000  N
  C467     1.0000 0.39408  0.38841  0.46214  Biso   1.000  C
  C468     1.0000 0.30099  0.40394  0.45543  Biso   1.000  C
  C469     1.0000 0.34672  0.43015  0.43880  Biso   1.000  C
  C470     1.0000 0.25608  0.19235  0.40753  Biso   1.000  C
  C471     1.0000 0.19418  0.11294  0.41637  Biso   1.000  C
  N51      1.0000 0.31571  0.16844  0.44086  Biso   1.000  N
  C472     1.0000 0.28946  0.11399  0.42681  Biso   1.000  C
  C473     1.0000 0.40337  0.31897  0.46648  Biso   1.000  C
  C474     1.0000 0.41902  0.37249  0.46896  Biso   1.000  C
  H448     1.0000 0.39736  0.42213  0.46193  Biso   1.000  H
  C475     1.0000 0.29835  0.44865  0.45584  Biso   1.000  C
  H449     1.0000 0.28668  0.37945  0.46113  Biso   1.000  H
  C476     1.0000 0.34436  0.47556  0.43929  Biso   1.000  C
  H450     1.0000 0.36359  0.42424  0.43293  Biso   1.000  H
  C477     1.0000 0.23347  0.17017  0.39796  Biso   1.000  C
  H451     1.0000 0.28467  0.22724  0.40773  Biso   1.000  H
  C478     1.0000 0.17229  0.09083  0.40664  Biso   1.000  C
  H452     1.0000 0.17997  0.09353  0.42273  Biso   1.000  H
  C479     1.0000 0.33464  0.13429  0.44202  Biso   1.000  C
  H453     1.0000 0.27336  0.09744  0.42034  Biso   1.000  H
  C480     1.0000 0.31734  0.10022  0.43307  Biso   1.000  C
  C481     1.0000 0.41990  0.28826  0.47150  Biso   1.000  C
  H454     1.0000 0.44267  0.39302  0.47444  Biso   1.000  H
  C482     1.0000 0.32022  0.48562  0.44770  Biso   1.000  C
  H455     1.0000 0.28145  0.45464  0.46164  Biso   1.000  H
  H456     1.0000 0.35955  0.50052  0.43373  Biso   1.000  H
  C483     1.0000 0.19232  0.11857  0.39729  Biso   1.000  C
  H457     1.0000 0.24607  0.19035  0.39163  Biso   1.000  H
  H458     1.0000 0.14317  0.05625  0.40633  Biso   1.000  H
  C484     1.0000 0.36574  0.13367  0.45035  Biso   1.000  C
  H459     1.0000 0.32426  0.07253  0.43174  Biso   1.000  H
  C485     1.0000 0.40895  0.23839  0.46849  Biso   1.000  C
  C486     1.0000 0.45718  0.31533  0.48070  Biso   1.000  C
  C487     1.0000 0.31635  0.53358  0.44801  Biso   1.000  C
  C488     1.0000 0.17027  0.09654  0.38683  Biso   1.000  C
  C489     1.0000 0.38549  0.16919  0.45870  Biso   1.000  C
  C490     1.0000 0.38129  0.09295  0.44914  Biso   1.000  C
  N52      1.0000 0.38057  0.21245  0.45973  Biso   1.000  N
  C491     1.0000 0.42992  0.20913  0.47347  Biso   1.000  C
  C492     1.0000 0.43807  0.31580  0.49072  Biso   1.000  C
  C493     1.0000 0.51075  0.34354  0.47898  Biso   1.000  C
  N53      1.0000 0.29156  0.54050  0.45523  Biso   1.000  N
  H460     1.0000 0.33297  0.55943  0.44264  Biso   1.000  H
  N54      1.0000 0.13314  0.04925  0.38573  Biso   1.000  N
  H461     1.0000 0.18395  0.11802  0.38073  Biso   1.000  H
  C494     1.0000 0.41576  0.16637  0.46736  Biso   1.000  C
  C495     1.0000 0.34566  0.04061  0.44988  Biso   1.000  C
  C496     1.0000 0.43214  0.10812  0.44630  Biso   1.000  C
  H462     1.0000 0.36267  0.22184  0.45553  Biso   1.000  H
  H463     1.0000 0.44997  0.21805  0.47983  Biso   1.000  H
  C497     1.0000 0.47164  0.34479  0.49880  Biso   1.000  C
  H464     1.0000 0.40153  0.29597  0.49207  Biso   1.000  H
  C498     1.0000 0.54389  0.37174  0.48706  Biso   1.000  C
  H465     1.0000 0.52443  0.34327  0.47217  Biso   1.000  H
  C499     1.0000 0.28691  0.58764  0.45477  Biso   1.000  C
  C500     1.0000 0.11112  0.03368  0.37499  Biso   1.000  C
  H466     1.0000 0.42417  0.13961  0.46853  Biso   1.000  H
  C501     1.0000 0.35915  0.00301  0.44766  Biso   1.000  C
  H467     1.0000 0.31085  0.02993  0.45203  Biso   1.000  H
  C502     1.0000 0.44564  0.07002  0.44406  Biso   1.000  C
  H468     1.0000 0.45767  0.14415  0.44583  Biso   1.000  H
  C503     1.0000 0.52512  0.37405  0.49682  Biso   1.000  C
  H469     1.0000 0.45833  0.34487  0.50566  Biso   1.000  H
  H470     1.0000 0.58055  0.38997  0.48587  Biso   1.000  H
  C504     1.0000 0.23111  0.57375  0.45631  Biso   1.000  C
  H471     1.0000 0.30886  0.61244  0.46043  Biso   1.000  H
  H472     1.0000 0.29958  0.60505  0.44783  Biso   1.000  H
  C505     1.0000 0.05373  0.01592  0.37530  Biso   1.000  C
  H473     1.0000 0.12929  0.06365  0.37003  Biso   1.000  H
  H474     1.0000 0.11626  0.00493  0.37243  Biso   1.000  H
  C506     1.0000 0.40894  0.01756  0.44452  Biso   1.000  C
  H475     1.0000 0.33377  0.96694  0.44833  Biso   1.000  H
  H476     1.0000 0.48066  0.08043  0.44223  Biso   1.000  H
  C507     1.0000 0.56249  0.40664  0.50547  Biso   1.000  C
  C508     1.0000 0.21315  0.58302  0.46600  Biso   1.000  C
  C509     1.0000 0.19510  0.55181  0.44807  Biso   1.000  C
  C510     1.0000 0.03664  0.05207  0.37551  Biso   1.000  C
  C511     1.0000 0.01543  0.96339  0.37551  Biso   1.000  C
  C512     1.0000 0.42403  0.97856  0.44194  Biso   1.000  C
  N55      1.0000 0.54656  0.41063  0.51441  Biso   1.000  N
  H477     1.0000 0.59902  0.42455  0.50407  Biso   1.000  H
  O25      1.0000 0.24683  0.60235  0.47450  Biso   1.000  O
  C513     1.0000 0.16237  0.57313  0.46722  Biso   1.000  C
  C514     1.0000 0.14310  0.54034  0.44899  Biso   1.000  C
  O26      1.0000 0.21104  0.53929  0.43864  Biso   1.000  O
  O27      1.0000 0.07458  0.10519  0.37553  Biso   1.000  O
  C515     1.0000 0.98409  0.03783  0.37530  Biso   1.000  C
  C516     1.0000 0.96220  0.94629  0.37530  Biso   1.000  C
  O28      1.0000 0.03061  0.92544  0.37553  Biso   1.000  O
  N56      1.0000 0.39209  0.93025  0.44187  Biso   1.000  N
  H478     1.0000 0.45956  0.99034  0.44023  Biso   1.000  H
  C517     1.0000 0.58695  0.44180  0.52252  Biso   1.000  C
  C518     1.0000 0.25103  0.56026  0.48001  Biso   1.000  C
  C519     1.0000 0.12822  0.55138  0.45884  Biso   1.000  C
  C520     1.0000 0.14515  0.58693  0.47748  Biso   1.000  C
  C521     1.0000 0.10519  0.51766  0.44003  Biso   1.000  C
  C522     1.0000 0.19543  0.48382  0.43814  Biso   1.000  C
  C523     1.0000 0.08117  0.12968  0.38593  Biso   1.000  C
  C524     1.0000 0.94795  0.98459  0.37551  Biso   1.000  C
  C525     1.0000 0.96633  0.07745  0.37499  Biso   1.000  C
  C526     1.0000 0.92257  0.88890  0.37499  Biso   1.000  C
  C527     1.0000 0.04851  0.91883  0.38593  Biso   1.000  C
  C528     1.0000 0.41244  0.89481  0.44003  Biso   1.000  C
  C529     1.0000 0.57311  0.41074  0.53278  Biso   1.000  C
  H479     1.0000 0.58814  0.47549  0.52376  Biso   1.000  H
  H480     1.0000 0.62185  0.44928  0.51997  Biso   1.000  H
  H481     1.0000 0.21575  0.52982  0.48123  Biso   1.000  H
  H482     1.0000 0.27107  0.54864  0.47554  Biso   1.000  H
  C530     1.0000 0.27826  0.58111  0.49038  Biso   1.000  C
  O29      1.0000 0.07578  0.53682  0.46012  Biso   1.000  O
  N57      1.0000 0.13594  0.54656  0.48559  Biso   1.000  N
  H483     1.0000 0.11266  0.58815  0.47624  Biso   1.000  H
  H484     1.0000 0.17256  0.62183  0.48003  Biso   1.000  H
  N58      1.0000 0.06976  0.46183  0.44187  Biso   1.000  N
  H485     1.0000 0.12438  0.52262  0.43323  Biso   1.000  H
  H486     1.0000 0.08478  0.53585  0.43943  Biso   1.000  H
  H487     1.0000 0.20775  0.47412  0.44463  Biso   1.000  H
  H488     1.0000 0.15685  0.46242  0.43793  Biso   1.000  H
  C531     1.0000 0.21766  0.47286  0.42861  Biso   1.000  C
  H489     1.0000 0.04896  0.13003  0.38793  Biso   1.000  H
  H490     1.0000 0.08817  0.10973  0.39143  Biso   1.000  H
  C532     1.0000 0.12664  0.18499  0.38525  Biso   1.000  C
  O30      1.0000 0.89483  0.96941  0.37553  Biso   1.000  O
  N59      1.0000 0.95076  0.08391  0.38573  Biso   1.000  N
  H491     1.0000 0.93637  0.06564  0.37003  Biso   1.000  H
  H492     1.0000 0.99506  0.11133  0.37243  Biso   1.000  H
  N60      1.0000 0.91609  0.86688  0.38573  Biso   1.000  N
  H493     1.0000 0.93436  0.87075  0.37003  Biso   1.000  H
  H494     1.0000 0.88868  0.88374  0.37243  Biso   1.000  H
  H495     1.0000 0.08109  0.95106  0.38793  Biso   1.000  H
  H496     1.0000 0.02159  0.91187  0.39143  Biso   1.000  H
  C533     1.0000 0.05834  0.87337  0.38525  Biso   1.000  C
  C534     1.0000 0.39725  0.85690  0.44899  Biso   1.000  C
  H497     1.0000 0.39829  0.87564  0.43323  Biso   1.000  H
  H498     1.0000 0.45108  0.91523  0.43943  Biso   1.000  H
  C535     1.0000 0.55138  0.42318  0.54116  Biso   1.000  C
  C536     1.0000 0.58303  0.36987  0.53400  Biso   1.000  C
  H499     1.0000 0.31428  0.60994  0.48904  Biso   1.000  H
  H500     1.0000 0.25965  0.59574  0.49443  Biso   1.000  H
  C537     1.0000 0.28073  0.53964  0.49714  Biso   1.000  C
  C538     1.0000 0.04725  0.48808  0.46602  Biso   1.000  C
  C539     1.0000 0.15586  0.56249  0.49453  Biso   1.000  C
  C540     1.0000 0.02144  0.44548  0.44194  Biso   1.000  C
  H501     1.0000 0.20197  0.47862  0.42213  Biso   1.000  H
  H502     1.0000 0.25576  0.49743  0.42833  Biso   1.000  H
  C541     1.0000 0.20741  0.41693  0.42863  Biso   1.000  C
  H503     1.0000 0.15764  0.18452  0.38233  Biso   1.000  H
  H504     1.0000 0.11777  0.20553  0.38033  Biso   1.000  H
  C542     1.0000 0.13974  0.21104  0.39628  Biso   1.000  C
  C543     1.0000 0.87032  0.95149  0.38593  Biso   1.000  C
  C544     1.0000 0.90346  0.07374  0.38683  Biso   1.000  C
  C545     1.0000 0.92628  0.82972  0.38683  Biso   1.000  C
  H505     1.0000 0.02687  0.84235  0.38233  Biso   1.000  H
  H506     1.0000 0.08778  0.88225  0.38033  Biso   1.000  H
  C546     1.0000 0.07130  0.86027  0.39628  Biso   1.000  C
  C547     1.0000 0.42317  0.87181  0.45884  Biso   1.000  C
  C548     1.0000 0.35672  0.80492  0.44807  Biso   1.000  C
  O31      1.0000 0.53685  0.46105  0.53988  Biso   1.000  O
  C549     1.0000 0.54035  0.39725  0.55101  Biso   1.000  C
  O32      1.0000 0.60234  0.35551  0.52550  Biso   1.000  O
  C550     1.0000 0.57375  0.34264  0.54369  Biso   1.000  C
  H507     1.0000 0.30227  0.52744  0.49344  Biso   1.000  H
  H508     1.0000 0.24497  0.50924  0.49793  Biso   1.000  H
  C551     1.0000 0.30334  0.55932  0.50796  Biso   1.000  C
  H509     1.0000 0.05036  0.46003  0.46234  Biso   1.000  H
  H510     1.0000 0.06226  0.49242  0.47324  Biso   1.000  H
  C552     1.0000 0.99020  0.47298  0.46682  Biso   1.000  C
  H511     1.0000 0.17447  0.59902  0.49593  Biso   1.000  H
  C553     1.0000 0.15107  0.52513  0.50318  Biso   1.000  C
  C554     1.0000 0.98243  0.39138  0.44452  Biso   1.000  C
  H512     1.0000 0.00967  0.46923  0.44023  Biso   1.000  H
  H513     1.0000 0.22244  0.41121  0.43513  Biso   1.000  H
  H514     1.0000 0.16918  0.39263  0.42883  Biso   1.000  H
  C555     1.0000 0.23057  0.40362  0.41892  Biso   1.000  C
  H515     1.0000 0.14727  0.18965  0.40123  Biso   1.000  H
  H516     1.0000 0.10898  0.21234  0.39903  Biso   1.000  H
  C556     1.0000 0.18677  0.26663  0.39594  Biso   1.000  C
  H517     1.0000 0.86997  0.91895  0.38793  Biso   1.000  H
  H518     1.0000 0.89027  0.97845  0.39143  Biso   1.000  H
  C557     1.0000 0.81503  0.94167  0.38525  Biso   1.000  C
  C558     1.0000 0.88146  0.07378  0.39729  Biso   1.000  C
  H519     1.0000 0.88196  0.06591  0.38073  Biso   1.000  H
  C559     1.0000 0.92624  0.80769  0.39729  Biso   1.000  C
  H520     1.0000 0.93408  0.81606  0.38073  Biso   1.000  H
  H521     1.0000 0.04238  0.85276  0.40123  Biso   1.000  H
  H522     1.0000 0.10336  0.89105  0.39903  Biso   1.000  H
  C560     1.0000 0.07984  0.81325  0.39594  Biso   1.000  C
  O33      1.0000 0.46106  0.92423  0.46012  Biso   1.000  O
  C561     1.0000 0.41075  0.83762  0.46722  Biso   1.000  C
  O34      1.0000 0.32827  0.78899  0.43864  Biso   1.000  O
  C562     1.0000 0.34264  0.76889  0.45631  Biso   1.000  C
  C563     1.0000 0.48805  0.44083  0.53398  Biso   1.000  C
  C564     1.0000 0.55181  0.35668  0.55193  Biso   1.000  C
  C565     1.0000 0.51767  0.41247  0.55997  Biso   1.000  C
  C566     1.0000 0.56027  0.30923  0.51999  Biso   1.000  C
  C567     1.0000 0.58766  0.30074  0.54523  Biso   1.000  C
  H523     1.0000 0.30407  0.53123  0.51193  Biso   1.000  H
  H524     1.0000 0.28165  0.57062  0.51174  Biso   1.000  H
  H525     1.0000 0.33908  0.58893  0.50723  Biso   1.000  H
  H526     1.0000 0.97646  0.47275  0.45963  Biso   1.000  H
  H527     1.0000 0.98696  0.49923  0.47114  Biso   1.000  H
  C568     1.0000 0.95852  0.41978  0.47180  Biso   1.000  C
  C569     1.0000 0.12684  0.47165  0.50120  Biso   1.000  C
  C570     1.0000 0.17215  0.54390  0.51294  Biso   1.000  C
  C571     1.0000 0.99701  0.35617  0.44766  Biso   1.000  C
  C572     1.0000 0.93000  0.37562  0.44406  Biso   1.000  C
  H528     1.0000 0.22258  0.36724  0.41944  Biso   1.000  H
  H529     1.0000 0.26855  0.42694  0.41883  Biso   1.000  H
  H530     1.0000 0.21527  0.40832  0.41244  Biso   1.000  H
  H531     1.0000 0.19366  0.28161  0.40313  Biso   1.000  H
  H532     1.0000 0.17917  0.28815  0.39114  Biso   1.000  H
  H533     1.0000 0.21756  0.26554  0.39333  Biso   1.000  H
  H534     1.0000 0.81547  0.97316  0.38233  Biso   1.000  H
  H535     1.0000 0.79446  0.91226  0.38033  Biso   1.000  H
  C573     1.0000 0.78896  0.92869  0.39628  Biso   1.000  C
  C574     1.0000 0.82984  0.06329  0.39796  Biso   1.000  C
  C575     1.0000 0.90918  0.08144  0.40664  Biso   1.000  C
  C576     1.0000 0.93670  0.76654  0.39796  Biso   1.000  C
  C577     1.0000 0.91854  0.82772  0.40664  Biso   1.000  C
  H536     1.0000 0.08798  0.80636  0.40313  Biso   1.000  H
  H537     1.0000 0.10898  0.82084  0.39114  Biso   1.000  H
  H538     1.0000 0.04798  0.78246  0.39333  Biso   1.000  H
  C578     1.0000 0.44082  0.95278  0.46602  Biso   1.000  C
  C579     1.0000 0.36990  0.78688  0.46600  Biso   1.000  C
  C580     1.0000 0.44178  0.85483  0.47748  Biso   1.000  C
  C581     1.0000 0.28840  0.80460  0.43814  Biso   1.000  C
  C582     1.0000 0.30076  0.71310  0.45477  Biso   1.000  C
  H539     1.0000 0.46002  0.40965  0.53766  Biso   1.000  H
  H540     1.0000 0.49243  0.43015  0.52676  Biso   1.000  H
  C583     1.0000 0.47297  0.48276  0.53318  Biso   1.000  C
  O35      1.0000 0.53928  0.32824  0.56136  Biso   1.000  O
  N61      1.0000 0.46185  0.39208  0.55813  Biso   1.000  N
  H541     1.0000 0.52263  0.39827  0.56677  Biso   1.000  H
  H542     1.0000 0.53582  0.45108  0.56057  Biso   1.000  H
  H543     1.0000 0.52983  0.31408  0.51877  Biso   1.000  H
  H544     1.0000 0.54864  0.27759  0.52446  Biso   1.000  H
  C584     1.0000 0.58110  0.30286  0.50962  Biso   1.000  C
  N62      1.0000 0.54053  0.24895  0.54477  Biso   1.000  N
  H545     1.0000 0.61241  0.30356  0.53957  Biso   1.000  H
  H546     1.0000 0.60504  0.30548  0.55217  Biso   1.000  H
  H547     1.0000 0.96055  0.39341  0.46724  Biso   1.000  H
  H548     1.0000 0.97355  0.41962  0.47884  Biso   1.000  H
  C585     1.0000 0.90147  0.40468  0.47320  Biso   1.000  C
  H549     1.0000 0.11348  0.45835  0.49434  Biso   1.000  H
  C586     1.0000 0.12229  0.43809  0.50928  Biso   1.000  C
  H550     1.0000 0.19056  0.58052  0.51413  Biso   1.000  H
  C587     1.0000 0.16718  0.51073  0.52102  Biso   1.000  C
  C588     1.0000 0.95935  0.30505  0.44988  Biso   1.000  C
  H551     1.0000 0.03306  0.36681  0.44833  Biso   1.000  H
  C589     1.0000 0.89185  0.32398  0.44630  Biso   1.000  C
  H552     1.0000 0.91957  0.40022  0.44223  Biso   1.000  H
  H553     1.0000 0.81038  0.95763  0.40123  Biso   1.000  H
  H554     1.0000 0.78768  0.89665  0.39903  Biso   1.000  H
  C590     1.0000 0.73337  0.92016  0.39594  Biso   1.000  C
  C591     1.0000 0.80763  0.06372  0.40753  Biso   1.000  C
  H555     1.0000 0.80967  0.05574  0.39163  Biso   1.000  H
  C592     1.0000 0.88706  0.08125  0.41637  Biso   1.000  C
  H556     1.0000 0.94376  0.08692  0.40633  Biso   1.000  H
  C593     1.0000 0.93626  0.74393  0.40753  Biso   1.000  C
  H557     1.0000 0.94429  0.75394  0.39163  Biso   1.000  H
  C594     1.0000 0.91876  0.80582  0.41637  Biso   1.000  C
  H558     1.0000 0.91309  0.85687  0.40633  Biso   1.000  H
  C595     1.0000 0.48277  0.00978  0.46682  Biso   1.000  C
  H559     1.0000 0.40968  0.94965  0.46234  Biso   1.000  H
  H560     1.0000 0.43019  0.93776  0.47324  Biso   1.000  H
  O36      1.0000 0.35551  0.75316  0.47450  Biso   1.000  O
  N63      1.0000 0.41062  0.86406  0.48559  Biso   1.000  N
  H561     1.0000 0.47548  0.88734  0.47624  Biso   1.000  H
  H562     1.0000 0.44926  0.82745  0.48003  Biso   1.000  H
  H563     1.0000 0.26637  0.79224  0.44463  Biso   1.000  H
  H564     1.0000 0.30557  0.84313  0.43793  Biso   1.000  H
  C596     1.0000 0.25522  0.78234  0.42861  Biso   1.000  C
  N64      1.0000 0.24893  0.70845  0.45523  Biso   1.000  N
  H565     1.0000 0.30357  0.69116  0.46043  Biso   1.000  H
  H566     1.0000 0.30546  0.70043  0.44783  Biso   1.000  H
  H567     1.0000 0.47274  0.49626  0.54037  Biso   1.000  H
  H568     1.0000 0.49923  0.51226  0.52886  Biso   1.000  H
  C597     1.0000 0.41982  0.46129  0.52820  Biso   1.000  C
  C598     1.0000 0.48383  0.28842  0.56186  Biso   1.000  C
  C599     1.0000 0.44547  0.42404  0.55806  Biso   1.000  C
  H569     1.0000 0.60992  0.29566  0.51096  Biso   1.000  H
  H570     1.0000 0.59574  0.33607  0.50557  Biso   1.000  H
  C600     1.0000 0.53962  0.25893  0.50286  Biso   1.000  C
  C601     1.0000 0.53357  0.21723  0.55199  Biso   1.000  C
  H571     1.0000 0.88228  0.36994  0.47643  Biso   1.000  H
  H572     1.0000 0.88617  0.40402  0.46623  Biso   1.000  H
  H573     1.0000 0.89927  0.43023  0.47783  Biso   1.000  H
  H574     1.0000 0.10558  0.40155  0.50793  Biso   1.000  H
  C602     1.0000 0.14186  0.45718  0.51930  Biso   1.000  C
  H575     1.0000 0.18118  0.52442  0.52783  Biso   1.000  H
  C603     1.0000 0.90706  0.28834  0.44914  Biso   1.000  C
  H576     1.0000 0.97007  0.28095  0.45203  Biso   1.000  H
  H577     1.0000 0.85587  0.31353  0.44583  Biso   1.000  H
  H578     1.0000 0.71838  0.91206  0.40313  Biso   1.000  H
  H579     1.0000 0.71187  0.89105  0.39114  Biso   1.000  H
  H580     1.0000 0.73447  0.95204  0.39333  Biso   1.000  H
  C604     1.0000 0.83622  0.07343  0.41687  Biso   1.000  C
  H581     1.0000 0.77277  0.05743  0.40773  Biso   1.000  H
  H582     1.0000 0.90646  0.08645  0.42273  Biso   1.000  H
  C605     1.0000 0.92660  0.76282  0.41687  Biso   1.000  C
  H583     1.0000 0.94256  0.71533  0.40773  Biso   1.000  H
  H584     1.0000 0.91358  0.82005  0.42273  Biso   1.000  H
  H585     1.0000 0.49626  0.02355  0.45963  Biso   1.000  H
  H586     1.0000 0.51227  0.01303  0.47114  Biso   1.000  H
  C606     1.0000 0.46128  0.04147  0.47180  Biso   1.000  C
  C607     1.0000 0.30921  0.74898  0.48001  Biso   1.000  C
  C608     1.0000 0.40666  0.84415  0.49453  Biso   1.000  C
  H587     1.0000 0.27665  0.79803  0.42213  Biso   1.000  H
  H588     1.0000 0.24166  0.74424  0.42833  Biso   1.000  H
  C609     1.0000 0.20953  0.79259  0.42863  Biso   1.000  C
  C610     1.0000 0.21724  0.68369  0.44801  Biso   1.000  C
  H589     1.0000 0.39345  0.43289  0.53276  Biso   1.000  H
  H590     1.0000 0.41963  0.44607  0.52116  Biso   1.000  H
  C611     1.0000 0.40465  0.50318  0.52680  Biso   1.000  C
  H591     1.0000 0.47412  0.26636  0.55537  Biso   1.000  H
  H592     1.0000 0.46242  0.30555  0.56207  Biso   1.000  H
  C612     1.0000 0.47289  0.25521  0.57139  Biso   1.000  C
  H593     1.0000 0.46923  0.45956  0.55977  Biso   1.000  H
  C613     1.0000 0.39139  0.40898  0.55548  Biso   1.000  C
  H594     1.0000 0.52745  0.22517  0.50656  Biso   1.000  H
  H595     1.0000 0.50923  0.26428  0.50207  Biso   1.000  H
  C614     1.0000 0.55929  0.25599  0.49204  Biso   1.000  C
  H596     1.0000 0.55943  0.22646  0.55736  Biso   1.000  H
  C615     1.0000 0.48560  0.16539  0.55230  Biso   1.000  C
  C616     1.0000 0.13166  0.41990  0.52850  Biso   1.000  C
  C617     1.0000 0.86631  0.23205  0.45035  Biso   1.000  C
  C618     1.0000 0.81457  0.08094  0.42707  Biso   1.000  C
  C619     1.0000 0.91906  0.73364  0.42707  Biso   1.000  C
  H597     1.0000 0.43285  0.03943  0.46724  Biso   1.000  H
  H598     1.0000 0.44608  0.02644  0.47884  Biso   1.000  H
  C620     1.0000 0.50320  0.09854  0.47320  Biso   1.000  C
  H599     1.0000 0.31408  0.78426  0.48123  Biso   1.000  H
  H600     1.0000 0.27758  0.72895  0.47554  Biso   1.000  H
  C621     1.0000 0.30286  0.72179  0.49038  Biso   1.000  C
  H601     1.0000 0.42456  0.82553  0.49593  Biso   1.000  H
  C622     1.0000 0.37405  0.84892  0.50318  Biso   1.000  C
  H602     1.0000 0.18875  0.77753  0.43513  Biso   1.000  H
  H603     1.0000 0.22348  0.83085  0.42883  Biso   1.000  H
  C623     1.0000 0.17308  0.76944  0.41892  Biso   1.000  C
  C624     1.0000 0.16538  0.67978  0.44770  Biso   1.000  C
  H604     1.0000 0.22648  0.66706  0.44264  Biso   1.000  H
  H605     1.0000 0.36992  0.48765  0.52357  Biso   1.000  H
  H606     1.0000 0.40402  0.51785  0.53377  Biso   1.000  H
  H607     1.0000 0.43022  0.53096  0.52217  Biso   1.000  H
  H608     1.0000 0.47864  0.27669  0.57787  Biso   1.000  H
  H609     1.0000 0.49742  0.24167  0.57167  Biso   1.000  H
  C625     1.0000 0.41694  0.20952  0.57137  Biso   1.000  C
  C626     1.0000 0.35614  0.35915  0.55234  Biso   1.000  C
  C627     1.0000 0.37564  0.44564  0.55594  Biso   1.000  C
  H610     1.0000 0.53122  0.22716  0.48807  Biso   1.000  H
  H611     1.0000 0.57063  0.28897  0.48826  Biso   1.000  H
  H612     1.0000 0.58891  0.24985  0.49277  Biso   1.000  H
  C628     1.0000 0.44865  0.15029  0.54416  Biso   1.000  C
  C629     1.0000 0.47556  0.13120  0.56071  Biso   1.000  C
  C630     1.0000 0.17056  0.40895  0.53151  Biso   1.000  C
  C631     1.0000 0.08439  0.40335  0.53352  Biso   1.000  C
  C632     1.0000 0.86572  0.20037  0.44202  Biso   1.000  C
  C633     1.0000 0.83082  0.21629  0.45870  Biso   1.000  C
  C634     1.0000 0.76762  0.03982  0.43094  Biso   1.000  C
  C635     1.0000 0.84262  0.13026  0.43145  Biso   1.000  C
  C636     1.0000 0.96019  0.72781  0.43094  Biso   1.000  C
  C637     1.0000 0.86973  0.71236  0.43145  Biso   1.000  C
  H613     1.0000 0.48766  0.11775  0.47643  Biso   1.000  H
  H614     1.0000 0.51786  0.11383  0.46623  Biso   1.000  H
  H615     1.0000 0.53095  0.10073  0.47783  Biso   1.000  H
  H616     1.0000 0.29569  0.68576  0.48904  Biso   1.000  H
  H617     1.0000 0.33605  0.74033  0.49443  Biso   1.000  H
  C638     1.0000 0.25892  0.71929  0.49714  Biso   1.000  C
  C639     1.0000 0.34481  0.87318  0.50120  Biso   1.000  C
  C640     1.0000 0.37174  0.82784  0.51294  Biso   1.000  C
  H618     1.0000 0.14467  0.77745  0.41944  Biso   1.000  H
  H619     1.0000 0.15836  0.73145  0.41883  Biso   1.000  H
  H620     1.0000 0.19306  0.78473  0.41244  Biso   1.000  H
  C641     1.0000 0.15032  0.70168  0.45584  Biso   1.000  C
  C642     1.0000 0.13119  0.65564  0.43929  Biso   1.000  C
  H621     1.0000 0.41125  0.18879  0.56487  Biso   1.000  H
  H622     1.0000 0.39266  0.22348  0.57117  Biso   1.000  H
  C643     1.0000 0.40362  0.17306  0.58108  Biso   1.000  C
  H623     1.0000 0.36683  0.33376  0.55167  Biso   1.000  H
  C644     1.0000 0.30507  0.34569  0.55012  Biso   1.000  C
  H624     1.0000 0.40023  0.48065  0.55777  Biso   1.000  H
  C645     1.0000 0.32401  0.43214  0.55370  Biso   1.000  C
  H625     1.0000 0.45464  0.17318  0.53836  Biso   1.000  H
  C646     1.0000 0.40392  0.10292  0.54457  Biso   1.000  C
  H626     1.0000 0.50053  0.14098  0.56627  Biso   1.000  H
  C647     1.0000 0.43013  0.08344  0.56120  Biso   1.000  C
  N65      1.0000 0.16814  0.38058  0.54027  Biso   1.000  N
  C648     1.0000 0.22084  0.42995  0.52653  Biso   1.000  C
  N66      1.0000 0.06472  0.36916  0.54209  Biso   1.000  N
  C649     1.0000 0.04653  0.41904  0.53104  Biso   1.000  C
  N67      1.0000 0.83153  0.14724  0.44086  Biso   1.000  N
  C650     1.0000 0.89980  0.21711  0.43307  Biso   1.000  C
  N68      1.0000 0.78753  0.16813  0.45973  Biso   1.000  N
  C651     1.0000 0.83361  0.24938  0.46736  Biso   1.000  C
  C652     1.0000 0.73923  0.98791  0.42635  Biso   1.000  C
  N69      1.0000 0.73964  0.04327  0.43933  Biso   1.000  N
  C653     1.0000 0.88604  0.17549  0.42681  Biso   1.000  C
  N70      1.0000 0.95672  0.69636  0.43933  Biso   1.000  N
  C654     1.0000 0.01209  0.75132  0.42635  Biso   1.000  C
  N71      1.0000 0.85276  0.68431  0.44086  Biso   1.000  N
  C655     1.0000 0.82452  0.71056  0.42681  Biso   1.000  C
  H627     1.0000 0.22518  0.69773  0.49344  Biso   1.000  H
  H628     1.0000 0.26427  0.75504  0.49793  Biso   1.000  H
  C656     1.0000 0.25601  0.69671  0.50796  Biso   1.000  C
  H629     1.0000 0.34486  0.88656  0.49434  Biso   1.000  H
  C657     1.0000 0.31583  0.87775  0.50928  Biso   1.000  C
  H630     1.0000 0.38999  0.80945  0.51413  Biso   1.000  H
  C658     1.0000 0.34353  0.83281  0.52102  Biso   1.000  C
  C659     1.0000 0.10295  0.69902  0.45543  Biso   1.000  C
  H631     1.0000 0.17318  0.71854  0.46164  Biso   1.000  H
  C660     1.0000 0.08344  0.65329  0.43880  Biso   1.000  C
  H632     1.0000 0.14098  0.64046  0.43373  Biso   1.000  H
  H633     1.0000 0.36723  0.14466  0.58056  Biso   1.000  H
  H634     1.0000 0.42693  0.15835  0.58117  Biso   1.000  H
  H635     1.0000 0.40833  0.19305  0.58756  Biso   1.000  H
  H636     1.0000 0.28095  0.31087  0.54797  Biso   1.000  H
  C661     1.0000 0.28831  0.38129  0.55086  Biso   1.000  C
  H637     1.0000 0.31352  0.45765  0.55417  Biso   1.000  H
  H638     1.0000 0.37943  0.09275  0.53887  Biso   1.000  H
  C662     1.0000 0.39324  0.06861  0.55323  Biso   1.000  C
  H639     1.0000 0.42423  0.06067  0.56707  Biso   1.000  H
  H640     1.0000 0.14085  0.36267  0.54447  Biso   1.000  H
  C663     1.0000 0.21632  0.38547  0.54130  Biso   1.000  C
  C664     1.0000 0.24938  0.41575  0.53264  Biso   1.000  C
  H641     1.0000 0.23194  0.44998  0.52017  Biso   1.000  H
  C665     1.0000 0.01648  0.36239  0.54466  Biso   1.000  C
  H642     1.0000 0.04964  0.44267  0.52556  Biso   1.000  H
  C666     1.0000 0.00567  0.39408  0.53786  Biso   1.000  C
  H643     1.0000 0.92748  0.25173  0.43174  Biso   1.000  H
  H644     1.0000 0.77815  0.14083  0.45553  Biso   1.000  H
  C667     1.0000 0.76161  0.17056  0.46849  Biso   1.000  C
  H645     1.0000 0.86038  0.28455  0.46853  Biso   1.000  H
  C668     1.0000 0.79088  0.22082  0.47347  Biso   1.000  C
  C669     1.0000 0.69463  0.96166  0.43200  Biso   1.000  C
  H646     1.0000 0.74990  0.97496  0.42053  Biso   1.000  H
  C670     1.0000 0.69499  0.99652  0.44000  Biso   1.000  C
  H647     1.0000 0.74899  0.07065  0.44343  Biso   1.000  H
  H648     1.0000 0.90255  0.17592  0.42034  Biso   1.000  H
  H649     1.0000 0.92938  0.67833  0.44343  Biso   1.000  H
  C671     1.0000 0.00348  0.69847  0.44000  Biso   1.000  C
  C672     1.0000 0.03837  0.73302  0.43200  Biso   1.000  C
  H650     1.0000 0.02509  0.77495  0.42053  Biso   1.000  H
  C673     1.0000 0.79966  0.66538  0.44202  Biso   1.000  C
  H651     1.0000 0.82406  0.72664  0.42034  Biso   1.000  H
  C674     1.0000 0.78292  0.68271  0.43307  Biso   1.000  C
  H652     1.0000 0.22716  0.69593  0.51193  Biso   1.000  H
  H653     1.0000 0.28898  0.71835  0.51174  Biso   1.000  H
  H654     1.0000 0.24988  0.66096  0.50723  Biso   1.000  H
  H655     1.0000 0.29597  0.89446  0.50793  Biso   1.000  H
  C675     1.0000 0.31532  0.85816  0.51930  Biso   1.000  C
  H656     1.0000 0.34326  0.81884  0.52783  Biso   1.000  H
  C676     1.0000 0.06864  0.67539  0.44677  Biso   1.000  C
  H657     1.0000 0.09276  0.71334  0.46113  Biso   1.000  H
  H658     1.0000 0.06068  0.63643  0.43293  Biso   1.000  H
  C677     1.0000 0.23205  0.36572  0.54965  Biso   1.000  C
  C678     1.0000 0.34591  0.01623  0.55271  Biso   1.000  C
  H659     1.0000 0.28455  0.42416  0.53147  Biso   1.000  H
  C679     1.0000 0.98380  0.32969  0.55271  Biso   1.000  C
  H660     1.0000 0.97523  0.39737  0.53807  Biso   1.000  H
  C680     1.0000 0.71173  0.13163  0.47150  Biso   1.000  C
  H661     1.0000 0.78197  0.23193  0.47983  Biso   1.000  H
  H662     1.0000 0.66788  0.92646  0.43093  Biso   1.000  H
  C681     1.0000 0.65411  0.98380  0.44729  Biso   1.000  C
  C682     1.0000 0.01622  0.67035  0.44729  Biso   1.000  C
  H663     1.0000 0.07359  0.74147  0.43093  Biso   1.000  H
  C683     1.0000 0.76795  0.63428  0.45035  Biso   1.000  C
  H664     1.0000 0.74827  0.67575  0.43174  Biso   1.000  H
  C684     1.0000 0.28827  0.86837  0.52850  Biso   1.000  C
  C685     1.0000 0.20034  0.33462  0.55798  Biso   1.000  C
  C686     1.0000 0.34592  0.98353  0.54466  Biso   1.000  C
  C687     1.0000 0.30501  0.00348  0.56000  Biso   1.000  C
  C688     1.0000 0.93138  0.32464  0.55323  Biso   1.000  C
  C689     1.0000 0.99654  0.30156  0.56000  Biso   1.000  C
  C690     1.0000 0.68102  0.08438  0.46648  Biso   1.000  C
  C691     1.0000 0.68468  0.14184  0.48070  Biso   1.000  C
  C692     1.0000 0.60676  0.93139  0.44677  Biso   1.000  C
  C693     1.0000 0.65410  0.01651  0.45534  Biso   1.000  C
  C694     1.0000 0.98354  0.63765  0.45534  Biso   1.000  C
  C695     1.0000 0.78368  0.61453  0.45870  Biso   1.000  C
  C696     1.0000 0.71169  0.61871  0.44914  Biso   1.000  C
  C697     1.0000 0.23839  0.82944  0.53151  Biso   1.000  C
  C698     1.0000 0.31898  0.91562  0.53352  Biso   1.000  C
  N72      1.0000 0.14726  0.31573  0.55914  Biso   1.000  N
  C699     1.0000 0.21710  0.31733  0.56693  Biso   1.000  C
  N73      1.0000 0.30446  0.93530  0.54209  Biso   1.000  N
  C700     1.0000 0.38844  0.99437  0.53786  Biso   1.000  C
  C701     1.0000 0.30539  0.03838  0.56800  Biso   1.000  C
  N74      1.0000 0.26036  0.95673  0.56067  Biso   1.000  N
  C702     1.0000 0.89707  0.30102  0.54457  Biso   1.000  C
  C703     1.0000 0.91656  0.34671  0.56120  Biso   1.000  C
  N75      1.0000 0.04328  0.30364  0.56067  Biso   1.000  N
  C704     1.0000 0.96165  0.26702  0.56800  Biso   1.000  C
  N76      1.0000 0.69554  0.06470  0.45791  Biso   1.000  N
  C705     1.0000 0.62752  0.04655  0.46896  Biso   1.000  C
  C706     1.0000 0.68419  0.12228  0.49072  Biso   1.000  C
  C707     1.0000 0.65647  0.16719  0.47898  Biso   1.000  C
  C708     1.0000 0.59608  0.89708  0.45543  Biso   1.000  C
  C709     1.0000 0.56989  0.91660  0.43880  Biso   1.000  C
  C710     1.0000 0.61158  0.00567  0.46214  Biso   1.000  C
  N77      1.0000 0.93528  0.63084  0.45791  Biso   1.000  N
  C711     1.0000 0.99433  0.60592  0.46214  Biso   1.000  C
  N78      1.0000 0.83186  0.61942  0.45973  Biso   1.000  N
  C712     1.0000 0.75062  0.58425  0.46736  Biso   1.000  C
  C713     1.0000 0.69493  0.65431  0.44988  Biso   1.000  C
  C714     1.0000 0.67601  0.56790  0.44630  Biso   1.000  C
  N79      1.0000 0.21248  0.83191  0.54027  Biso   1.000  N
  C715     1.0000 0.20914  0.77922  0.52653  Biso   1.000  C
  C716     1.0000 0.37250  0.95349  0.53104  Biso   1.000  C
  C717     1.0000 0.13027  0.28764  0.56855  Biso   1.000  C
  C718     1.0000 0.17550  0.28948  0.57319  Biso   1.000  C
  H665     1.0000 0.25173  0.32425  0.56826  Biso   1.000  H
  H666     1.0000 0.42213  0.02476  0.53807  Biso   1.000  H
  H667     1.0000 0.33214  0.07358  0.56907  Biso   1.000  H
  C719     1.0000 0.26077  0.01209  0.57365  Biso   1.000  C
  H668     1.0000 0.25103  0.92939  0.55657  Biso   1.000  H
  C720     1.0000 0.23238  0.96018  0.56906  Biso   1.000  C
  C721     1.0000 0.84968  0.29832  0.54416  Biso   1.000  C
  H669     1.0000 0.90724  0.28666  0.53887  Biso   1.000  H
  C722     1.0000 0.86881  0.34436  0.56071  Biso   1.000  C
  H670     1.0000 0.93932  0.36357  0.56707  Biso   1.000  H
  H671     1.0000 0.07062  0.32167  0.55657  Biso   1.000  H
  C723     1.0000 0.03983  0.27223  0.56906  Biso   1.000  C
  H672     1.0000 0.92643  0.25857  0.56907  Biso   1.000  H
  C724     1.0000 0.98791  0.24868  0.57365  Biso   1.000  C
  H673     1.0000 0.60697  0.04964  0.47444  Biso   1.000  H
  C725     1.0000 0.65519  0.12682  0.49880  Biso   1.000  C
  H674     1.0000 0.70405  0.10558  0.49207  Biso   1.000  H
  C726     1.0000 0.62826  0.17216  0.48706  Biso   1.000  C
  H675     1.0000 0.65674  0.18116  0.47217  Biso   1.000  H
  C727     1.0000 0.55135  0.84971  0.45584  Biso   1.000  C
  H676     1.0000 0.62057  0.90725  0.46113  Biso   1.000  H
  C728     1.0000 0.52446  0.86884  0.43929  Biso   1.000  C
  H677     1.0000 0.57577  0.93933  0.43293  Biso   1.000  H
  H678     1.0000 0.57787  0.97524  0.46193  Biso   1.000  H
  C729     1.0000 0.91561  0.59665  0.46648  Biso   1.000  C
  C730     1.0000 0.95349  0.58100  0.46896  Biso   1.000  C
  H679     1.0000 0.02477  0.60263  0.46193  Biso   1.000  H
  H680     1.0000 0.85915  0.63733  0.45553  Biso   1.000  H
  C731     1.0000 0.82944  0.59105  0.46849  Biso   1.000  C
  H681     1.0000 0.71545  0.57584  0.46853  Biso   1.000  H
  C732     1.0000 0.77918  0.57009  0.47347  Biso   1.000  C
  C733     1.0000 0.64386  0.64085  0.44766  Biso   1.000  C
  H682     1.0000 0.71907  0.68916  0.45203  Biso   1.000  H
  C734     1.0000 0.62436  0.55436  0.44406  Biso   1.000  C
  H683     1.0000 0.68648  0.54235  0.44583  Biso   1.000  H
  H684     1.0000 0.22185  0.85917  0.54447  Biso   1.000  H
  C735     1.0000 0.16918  0.78371  0.54130  Biso   1.000  C
  C736     1.0000 0.16639  0.75062  0.53264  Biso   1.000  C
  H685     1.0000 0.21803  0.76807  0.52017  Biso   1.000  H
  H686     1.0000 0.39305  0.95040  0.52556  Biso   1.000  H
  C737     1.0000 0.08094  0.26636  0.57293  Biso   1.000  C
  H687     1.0000 0.17594  0.27336  0.57966  Biso   1.000  H
  H688     1.0000 0.25012  0.02507  0.57947  Biso   1.000  H
  C738     1.0000 0.18543  0.91906  0.57293  Biso   1.000  C
  C739     1.0000 0.83462  0.32022  0.55230  Biso   1.000  C
  H689     1.0000 0.82682  0.28146  0.53836  Biso   1.000  H
  H690     1.0000 0.85904  0.35958  0.56627  Biso   1.000  H
  H691     1.0000 0.97491  0.22505  0.57947  Biso   1.000  H
  C740     1.0000 0.62595  0.15108  0.49682  Biso   1.000  C
  H692     1.0000 0.65516  0.11348  0.50566  Biso   1.000  H
  H693     1.0000 0.61003  0.19059  0.48587  Biso   1.000  H
  C741     1.0000 0.51442  0.83465  0.44770  Biso   1.000  C
  H694     1.0000 0.54538  0.82686  0.46164  Biso   1.000  H
  H695     1.0000 0.49949  0.85906  0.43373  Biso   1.000  H
  C742     1.0000 0.86834  0.58010  0.47150  Biso   1.000  C
  H696     1.0000 0.95036  0.55733  0.47444  Biso   1.000  H
  H697     1.0000 0.76808  0.55006  0.47983  Biso   1.000  H
  C743     1.0000 0.60862  0.59105  0.44452  Biso   1.000  C
  H698     1.0000 0.63317  0.66624  0.44833  Biso   1.000  H
  H699     1.0000 0.59977  0.51935  0.44223  Biso   1.000  H
  C744     1.0000 0.13369  0.76795  0.54965  Biso   1.000  C
  H700     1.0000 0.13964  0.71549  0.53147  Biso   1.000  H
  C745     1.0000 0.07341  0.23721  0.58313  Biso   1.000  C
  C746     1.0000 0.15738  0.86974  0.56855  Biso   1.000  C
  C747     1.0000 0.16379  0.92661  0.58313  Biso   1.000  C
  C748     1.0000 0.78278  0.31635  0.55199  Biso   1.000  C
  C749     1.0000 0.59334  0.15585  0.50547  Biso   1.000  C
  C750     1.0000 0.46643  0.78277  0.44801  Biso   1.000  C
  C751     1.0000 0.85814  0.54282  0.48070  Biso   1.000  C
  C752     1.0000 0.55455  0.57599  0.44194  Biso   1.000  C
  C753     1.0000 0.13430  0.79967  0.55798  Biso   1.000  C
  C754     1.0000 0.09296  0.71170  0.55086  Biso   1.000  C
  C755     1.0000 0.06374  0.25607  0.59247  Biso   1.000  C
  C756     1.0000 0.08124  0.19418  0.58363  Biso   1.000  C
  N80      1.0000 0.16847  0.85276  0.55914  Biso   1.000  N
  C757     1.0000 0.11396  0.82451  0.57319  Biso   1.000  C
  C758     1.0000 0.19237  0.93628  0.59247  Biso   1.000  C
  C759     1.0000 0.11294  0.91875  0.58363  Biso   1.000  C
  N81      1.0000 0.75109  0.29159  0.54477  Biso   1.000  N
  H701     1.0000 0.77354  0.33298  0.55736  Biso   1.000  H
  N82      1.0000 0.58938  0.13594  0.51441  Biso   1.000  N
  H702     1.0000 0.57544  0.17447  0.50407  Biso   1.000  H
  N83      1.0000 0.45949  0.75109  0.45523  Biso   1.000  N
  H703     1.0000 0.44057  0.77354  0.44264  Biso   1.000  H
  C760     1.0000 0.87771  0.56191  0.49072  Biso   1.000  C
  C761     1.0000 0.83282  0.48927  0.47898  Biso   1.000  C
  N84      1.0000 0.53817  0.60795  0.44187  Biso   1.000  N
  H704     1.0000 0.53077  0.54044  0.44023  Biso   1.000  H
  C762     1.0000 0.10020  0.78289  0.56693  Biso   1.000  C
  C763     1.0000 0.04065  0.69495  0.55012  Biso   1.000  C
  C764     1.0000 0.10815  0.67602  0.55370  Biso   1.000  C
  H705     1.0000 0.05744  0.28467  0.59227  Biso   1.000  H
  C765     1.0000 0.06330  0.23346  0.60204  Biso   1.000  C
  H706     1.0000 0.08644  0.17998  0.57727  Biso   1.000  H
  C766     1.0000 0.08146  0.17228  0.59336  Biso   1.000  C
  H707     1.0000 0.09745  0.82408  0.57966  Biso   1.000  H
  H708     1.0000 0.22723  0.94257  0.59227  Biso   1.000  H
  C767     1.0000 0.17016  0.93671  0.60204  Biso   1.000  C
  H709     1.0000 0.09356  0.91359  0.57727  Biso   1.000  H
  C768     1.0000 0.09082  0.91856  0.59336  Biso   1.000  C
  C769     1.0000 0.69926  0.28693  0.54523  Biso   1.000  C
  C770     1.0000 0.55822  0.14517  0.52252  Biso   1.000  C
  C771     1.0000 0.41236  0.69930  0.45477  Biso   1.000  C
  C772     1.0000 0.87318  0.52839  0.49880  Biso   1.000  C
  H710     1.0000 0.89444  0.59849  0.49207  Biso   1.000  H
  C773     1.0000 0.82785  0.45610  0.48706  Biso   1.000  C
  H711     1.0000 0.81882  0.47558  0.47217  Biso   1.000  H
  C774     1.0000 0.48235  0.58757  0.44003  Biso   1.000  C
  H712     1.0000 0.07252  0.74827  0.56826  Biso   1.000  H
  C775     1.0000 0.00301  0.64386  0.55234  Biso   1.000  C
  H713     1.0000 0.02995  0.71909  0.54797  Biso   1.000  H
  C776     1.0000 0.07000  0.62438  0.55594  Biso   1.000  C
  H714     1.0000 0.14413  0.68647  0.55417  Biso   1.000  H
  H715     1.0000 0.05571  0.24606  0.60837  Biso   1.000  H
  C777     1.0000 0.07378  0.19235  0.60271  Biso   1.000  C
  H716     1.0000 0.08693  0.14317  0.59367  Biso   1.000  H
  H717     1.0000 0.19035  0.94430  0.60837  Biso   1.000  H
  C778     1.0000 0.11856  0.92626  0.60271  Biso   1.000  C
  H718     1.0000 0.05624  0.91308  0.59367  Biso   1.000  H
  C779     1.0000 0.65736  0.23111  0.54369  Biso   1.000  C
  H719     1.0000 0.69645  0.30888  0.53957  Biso   1.000  H
  H720     1.0000 0.69454  0.29957  0.55217  Biso   1.000  H
  C780     1.0000 0.58925  0.16238  0.53278  Biso   1.000  C
  H721     1.0000 0.52452  0.11266  0.52376  Biso   1.000  H
  H722     1.0000 0.55074  0.17255  0.51997  Biso   1.000  H
  C781     1.0000 0.42627  0.65740  0.45631  Biso   1.000  C
  H723     1.0000 0.38759  0.69644  0.46043  Biso   1.000  H
  H724     1.0000 0.39498  0.69456  0.44783  Biso   1.000  H
  C782     1.0000 0.84893  0.47487  0.49682  Biso   1.000  C
  H725     1.0000 0.88654  0.54169  0.50566  Biso   1.000  H
  H726     1.0000 0.80944  0.41948  0.48587  Biso   1.000  H
  C783     1.0000 0.45965  0.60275  0.44899  Biso   1.000  C
  H727     1.0000 0.47737  0.60173  0.43323  Biso   1.000  H
  H728     1.0000 0.46420  0.54896  0.43943  Biso   1.000  H
  C784     1.0000 0.01757  0.60862  0.55548  Biso   1.000  C
  H729     1.0000 0.96694  0.63319  0.55167  Biso   1.000  H
  H730     1.0000 0.08043  0.59978  0.55777  Biso   1.000  H
  C785     1.0000 0.07372  0.17028  0.61317  Biso   1.000  C
  C786     1.0000 0.09656  0.92630  0.61317  Biso   1.000  C
  C787     1.0000 0.63012  0.21316  0.53400  Biso   1.000  C
  C788     1.0000 0.64330  0.19512  0.55193  Biso   1.000  C
  C789     1.0000 0.57685  0.12823  0.54116  Biso   1.000  C
  C790     1.0000 0.41697  0.63013  0.46600  Biso   1.000  C
  C791     1.0000 0.44819  0.64332  0.44807  Biso   1.000  C
  C792     1.0000 0.84414  0.43751  0.50547  Biso   1.000  C
  C793     1.0000 0.44863  0.57685  0.45884  Biso   1.000  C
  C794     1.0000 0.97858  0.55456  0.55806  Biso   1.000  C
  N85      1.0000 0.08391  0.13312  0.61427  Biso   1.000  N
  H731     1.0000 0.06594  0.18397  0.61927  Biso   1.000  H
  N86      1.0000 0.04924  0.91609  0.61427  Biso   1.000  N
  H732     1.0000 0.11804  0.93409  0.61927  Biso   1.000  H
  O37      1.0000 0.64449  0.24684  0.52550  Biso   1.000  O
  C795     1.0000 0.60277  0.14313  0.55101  Biso   1.000  C
  O38      1.0000 0.67175  0.21104  0.56136  Biso   1.000  O
  O39      1.0000 0.53894  0.07577  0.53988  Biso   1.000  O
  O40      1.0000 0.39766  0.64449  0.47450  Biso   1.000  O
  C796     1.0000 0.42689  0.58926  0.46722  Biso   1.000  C
  O41      1.0000 0.46072  0.67176  0.43864  Biso   1.000  O
  N87      1.0000 0.86406  0.45344  0.51441  Biso   1.000  N
  H733     1.0000 0.82553  0.40098  0.50407  Biso   1.000  H
  O42      1.0000 0.46315  0.53895  0.46012  Biso   1.000  O
  N88      1.0000 0.93024  0.53817  0.55813  Biso   1.000  N
  H734     1.0000 0.99033  0.53077  0.55977  Biso   1.000  H
  C797     1.0000 0.07745  0.11114  0.62501  Biso   1.000  C
  C798     1.0000 0.03367  0.92255  0.62501  Biso   1.000  C
  C799     1.0000 0.69079  0.25102  0.51999  Biso   1.000  C
  C800     1.0000 0.58756  0.10519  0.55997  Biso   1.000  C
  C801     1.0000 0.71161  0.19544  0.56186  Biso   1.000  C
  C802     1.0000 0.55920  0.04726  0.53398  Biso   1.000  C
  C803     1.0000 0.43975  0.69081  0.48001  Biso   1.000  C
  C804     1.0000 0.41307  0.55823  0.47748  Biso   1.000  C
  C805     1.0000 0.51619  0.71162  0.43814  Biso   1.000  C
  C806     1.0000 0.85485  0.41307  0.52252  Biso   1.000  C
  C807     1.0000 0.51195  0.55917  0.46602  Biso   1.000  C
  C808     1.0000 0.89481  0.48234  0.55997  Biso   1.000  C
  H735     1.0000 0.06564  0.12925  0.62997  Biso   1.000  H
  H736     1.0000 0.11132  0.11626  0.62757  Biso   1.000  H
  C809     1.0000 0.03780  0.05371  0.62470  Biso   1.000  C
  H737     1.0000 0.06365  0.93440  0.62997  Biso   1.000  H
  H738     1.0000 0.00494  0.88867  0.62757  Biso   1.000  H
  C810     1.0000 0.01593  0.96221  0.62470  Biso   1.000  C
  H739     1.0000 0.68594  0.21578  0.51877  Biso   1.000  H
  H740     1.0000 0.72242  0.27105  0.52446  Biso   1.000  H
  C811     1.0000 0.69716  0.27825  0.50962  Biso   1.000  C
  N89      1.0000 0.60791  0.06975  0.55813  Biso   1.000  N
  H741     1.0000 0.60171  0.12436  0.56677  Biso   1.000  H
  H742     1.0000 0.54892  0.08477  0.56057  Biso   1.000  H
  H743     1.0000 0.73363  0.20776  0.55537  Biso   1.000  H
  H744     1.0000 0.69443  0.15687  0.56207  Biso   1.000  H
  C812     1.0000 0.74478  0.21766  0.57139  Biso   1.000  C
  C813     1.0000 0.51723  0.99022  0.53318  Biso   1.000  C
  H745     1.0000 0.59034  0.05038  0.53766  Biso   1.000  H
  H746     1.0000 0.56983  0.06228  0.52676  Biso   1.000  H
  H747     1.0000 0.47019  0.68596  0.48123  Biso   1.000  H
  H748     1.0000 0.45138  0.72245  0.47554  Biso   1.000  H
  C814     1.0000 0.41890  0.69714  0.49038  Biso   1.000  C
  N90      1.0000 0.45344  0.58937  0.48559  Biso   1.000  N
  H749     1.0000 0.41188  0.52455  0.47624  Biso   1.000  H
  H750     1.0000 0.37817  0.55076  0.48003  Biso   1.000  H
  H751     1.0000 0.52588  0.73364  0.44463  Biso   1.000  H
  H752     1.0000 0.53758  0.69445  0.43793  Biso   1.000  H
  C815     1.0000 0.52711  0.74479  0.42861  Biso   1.000  C
  C816     1.0000 0.83763  0.42687  0.53278  Biso   1.000  C
  H753     1.0000 0.88736  0.41189  0.52376  Biso   1.000  H
  H754     1.0000 0.82744  0.37817  0.51997  Biso   1.000  H
  H755     1.0000 0.53998  0.59035  0.46234  Biso   1.000  H
  H756     1.0000 0.50757  0.56985  0.47324  Biso   1.000  H
  C817     1.0000 0.52703  0.51724  0.46682  Biso   1.000  C
  C818     1.0000 0.85690  0.45966  0.55101  Biso   1.000  C
  H757     1.0000 0.87562  0.47738  0.56677  Biso   1.000  H
  H758     1.0000 0.91524  0.46419  0.56057  Biso   1.000  H
  C819     1.0000 0.05205  0.01541  0.62449  Biso   1.000  C
  C820     1.0000 0.98458  0.03665  0.62449  Biso   1.000  C
  C821     1.0000 0.96338  0.94797  0.62449  Biso   1.000  C
  H759     1.0000 0.70433  0.31428  0.51096  Biso   1.000  H
  H760     1.0000 0.66395  0.25967  0.50557  Biso   1.000  H
  C822     1.0000 0.74108  0.28071  0.50286  Biso   1.000  C
  C823     1.0000 0.57597  0.02144  0.55806  Biso   1.000  C
  H761     1.0000 0.72335  0.20197  0.57787  Biso   1.000  H
  H762     1.0000 0.75834  0.25576  0.57167  Biso   1.000  H
  C824     1.0000 0.79049  0.20745  0.57137  Biso   1.000  C
  H763     1.0000 0.50376  0.97649  0.54037  Biso   1.000  H
  H764     1.0000 0.48773  0.98697  0.52886  Biso   1.000  H
  C825     1.0000 0.53872  0.95853  0.52820  Biso   1.000  C
  H765     1.0000 0.39008  0.70434  0.48904  Biso   1.000  H
  H766     1.0000 0.40426  0.66393  0.49443  Biso   1.000  H
  C826     1.0000 0.46040  0.74111  0.49714  Biso   1.000  C
  C827     1.0000 0.43751  0.59336  0.49453  Biso   1.000  C
  H767     1.0000 0.52138  0.72335  0.42213  Biso   1.000  H
  H768     1.0000 0.50260  0.75836  0.42833  Biso   1.000  H
  C828     1.0000 0.58308  0.79052  0.42863  Biso   1.000  C
  C829     1.0000 0.87178  0.44862  0.54116  Biso   1.000  C
  C830     1.0000 0.78687  0.41702  0.53400  Biso   1.000  C
  H769     1.0000 0.52726  0.50374  0.45963  Biso   1.000  H
  H770     1.0000 0.50077  0.48774  0.47114  Biso   1.000  H
  C831     1.0000 0.58020  0.53875  0.47180  Biso   1.000  C
  C832     1.0000 0.80490  0.44819  0.55193  Biso   1.000  C
  O43      1.0000 0.10517  0.03059  0.62447  Biso   1.000  O
  C833     1.0000 0.94629  0.98412  0.62470  Biso   1.000  C
  O44      1.0000 0.96939  0.07456  0.62447  Biso   1.000  O
  O45      1.0000 0.92544  0.89485  0.62447  Biso   1.000  O
  H771     1.0000 0.77482  0.30227  0.50656  Biso   1.000  H
  H772     1.0000 0.73573  0.24496  0.50207  Biso   1.000  H
  C834     1.0000 0.74401  0.30333  0.49204  Biso   1.000  C
  C835     1.0000 0.59106  0.98244  0.55548  Biso   1.000  C
  H773     1.0000 0.54044  0.00966  0.55977  Biso   1.000  H
  H774     1.0000 0.81125  0.22247  0.56487  Biso   1.000  H
  H775     1.0000 0.77652  0.16915  0.57117  Biso   1.000  H
  C836     1.0000 0.82692  0.23056  0.58108  Biso   1.000  C
  H776     1.0000 0.56715  0.96057  0.53276  Biso   1.000  H
  H777     1.0000 0.55394  0.97359  0.52116  Biso   1.000  H
  C837     1.0000 0.49682  0.90150  0.52680  Biso   1.000  C
  H778     1.0000 0.47255  0.77483  0.49344  Biso   1.000  H
  H779     1.0000 0.49079  0.73575  0.49793  Biso   1.000  H
  C838     1.0000 0.44071  0.74401  0.50796  Biso   1.000  C
  H780     1.0000 0.40098  0.57545  0.49593  Biso   1.000  H
  C839     1.0000 0.47488  0.62595  0.50318  Biso   1.000  C
  H781     1.0000 0.58877  0.81125  0.43513  Biso   1.000  H
  H782     1.0000 0.60736  0.77656  0.42883  Biso   1.000  H
  C840     1.0000 0.59638  0.82694  0.41892  Biso   1.000  C
  O46      1.0000 0.92422  0.46318  0.53988  Biso   1.000  O
  O47      1.0000 0.75317  0.39765  0.52550  Biso   1.000  O
  C841     1.0000 0.76891  0.42629  0.54369  Biso   1.000  C
  H783     1.0000 0.60657  0.56715  0.46724  Biso   1.000  H
  H784     1.0000 0.58037  0.55393  0.47884  Biso   1.000  H
  C842     1.0000 0.59535  0.49682  0.47320  Biso   1.000  C
  O48      1.0000 0.78896  0.46071  0.56136  Biso   1.000  O
  C843     1.0000 0.12968  0.04851  0.61407  Biso   1.000  C
  C844     1.0000 0.88890  0.96636  0.62501  Biso   1.000  C
  C845     1.0000 0.95149  0.08117  0.61407  Biso   1.000  C
  C846     1.0000 0.91883  0.87032  0.61407  Biso   1.000  C
  H785     1.0000 0.77284  0.30407  0.48807  Biso   1.000  H
  H786     1.0000 0.71102  0.28165  0.48826  Biso   1.000  H
  H787     1.0000 0.75013  0.33908  0.49277  Biso   1.000  H
  C847     1.0000 0.64087  0.99703  0.55234  Biso   1.000  C
  C848     1.0000 0.55438  0.93002  0.55594  Biso   1.000  C
  H788     1.0000 0.85535  0.22258  0.58056  Biso   1.000  H
  H789     1.0000 0.84164  0.26855  0.58117  Biso   1.000  H
  H790     1.0000 0.80694  0.21527  0.58756  Biso   1.000  H
  H791     1.0000 0.51236  0.88229  0.52357  Biso   1.000  H
  H792     1.0000 0.48214  0.88617  0.53377  Biso   1.000  H
  H793     1.0000 0.46905  0.89927  0.52217  Biso   1.000  H
  H794     1.0000 0.46878  0.77284  0.51193  Biso   1.000  H
  H795     1.0000 0.42937  0.71103  0.51174  Biso   1.000  H
  H796     1.0000 0.41109  0.75015  0.50723  Biso   1.000  H
  C849     1.0000 0.52836  0.65521  0.50120  Biso   1.000  C
  C850     1.0000 0.45611  0.62826  0.51294  Biso   1.000  C
  H797     1.0000 0.63277  0.85534  0.41944  Biso   1.000  H
  H798     1.0000 0.57307  0.84165  0.41883  Biso   1.000  H
  H799     1.0000 0.59167  0.80695  0.41244  Biso   1.000  H
  C851     1.0000 0.95277  0.51196  0.53398  Biso   1.000  C
  C852     1.0000 0.74899  0.43978  0.51999  Biso   1.000  C
  C853     1.0000 0.71309  0.41236  0.54523  Biso   1.000  C
  H800     1.0000 0.63008  0.51235  0.47643  Biso   1.000  H
  H801     1.0000 0.59598  0.48215  0.46623  Biso   1.000  H
  H802     1.0000 0.56978  0.46904  0.47783  Biso   1.000  H
  C854     1.0000 0.80457  0.51618  0.56186  Biso   1.000  C
  H803     1.0000 0.13003  0.08105  0.61207  Biso   1.000  H
  H804     1.0000 0.10973  0.02155  0.60857  Biso   1.000  H
  C855     1.0000 0.18497  0.05833  0.61475  Biso   1.000  C
  N91      1.0000 0.86688  0.95079  0.61427  Biso   1.000  N
  H805     1.0000 0.87073  0.93639  0.62997  Biso   1.000  H
  H806     1.0000 0.88374  0.99507  0.62757  Biso   1.000  H
  H807     1.0000 0.91893  0.04898  0.61207  Biso   1.000  H
  H808     1.0000 0.97843  0.08817  0.60857  Biso   1.000  H
  C856     1.0000 0.94168  0.12667  0.61475  Biso   1.000  C
  H809     1.0000 0.95104  0.86997  0.61207  Biso   1.000  H
  H810     1.0000 0.91183  0.89027  0.60857  Biso   1.000  H
  C857     1.0000 0.87338  0.81505  0.61475  Biso   1.000  C
  C858     1.0000 0.65434  0.95939  0.55012  Biso   1.000  C
  H811     1.0000 0.66623  0.03306  0.55167  Biso   1.000  H
  H812     1.0000 0.51934  0.91957  0.55777  Biso   1.000  H
  C859     1.0000 0.56786  0.89188  0.55370  Biso   1.000  C
  H813     1.0000 0.54167  0.65513  0.49434  Biso   1.000  H
  C860     1.0000 0.56193  0.68420  0.50928  Biso   1.000  C
  H814     1.0000 0.41945  0.61003  0.51413  Biso   1.000  H
  C861     1.0000 0.48925  0.65646  0.52102  Biso   1.000  C
  H815     1.0000 0.94964  0.53997  0.53766  Biso   1.000  H
  H816     1.0000 0.93774  0.50758  0.52676  Biso   1.000  H
  C862     1.0000 0.00980  0.52702  0.53318  Biso   1.000  C
  H817     1.0000 0.78425  0.47018  0.51877  Biso   1.000  H
  H818     1.0000 0.72893  0.45136  0.52446  Biso   1.000  H
  C863     1.0000 0.72176  0.41893  0.50962  Biso   1.000  C
  N92      1.0000 0.70844  0.45950  0.54477  Biso   1.000  N
  H819     1.0000 0.69114  0.38756  0.53957  Biso   1.000  H
  H820     1.0000 0.70044  0.39499  0.55217  Biso   1.000  H
  H821     1.0000 0.79225  0.52588  0.55537  Biso   1.000  H
  H822     1.0000 0.84315  0.53758  0.56207  Biso   1.000  H
  C864     1.0000 0.78234  0.52714  0.57139  Biso   1.000  C
  H823     1.0000 0.18455  0.02687  0.61767  Biso   1.000  H
  H824     1.0000 0.20556  0.08778  0.61967  Biso   1.000  H
  C865     1.0000 0.21104  0.07131  0.60372  Biso   1.000  C
  C866     1.0000 0.82973  0.90346  0.61317  Biso   1.000  C
  H825     1.0000 0.97313  0.15765  0.61767  Biso   1.000  H
  H826     1.0000 0.91224  0.11779  0.61967  Biso   1.000  H
  C867     1.0000 0.92870  0.13973  0.60372  Biso   1.000  C
  H827     1.0000 0.84236  0.81548  0.61767  Biso   1.000  H
  H828     1.0000 0.88223  0.79447  0.61967  Biso   1.000  H
  C868     1.0000 0.86026  0.78896  0.60372  Biso   1.000  C
  H829     1.0000 0.68915  0.97007  0.54797  Biso   1.000  H
  C869     1.0000 0.61871  0.90705  0.55086  Biso   1.000  C
  H830     1.0000 0.54235  0.85589  0.55417  Biso   1.000  H
  H831     1.0000 0.59847  0.70403  0.50793  Biso   1.000  H
  C870     1.0000 0.54284  0.68470  0.51930  Biso   1.000  C
  H832     1.0000 0.47557  0.65673  0.52783  Biso   1.000  H
  H833     1.0000 0.02356  0.52729  0.54037  Biso   1.000  H
  H834     1.0000 0.01304  0.50077  0.52886  Biso   1.000  H
  C871     1.0000 0.04148  0.58022  0.52820  Biso   1.000  C
  H835     1.0000 0.68572  0.39006  0.51096  Biso   1.000  H
  H836     1.0000 0.74035  0.40426  0.50557  Biso   1.000  H
  C872     1.0000 0.71929  0.46040  0.50286  Biso   1.000  C
  C873     1.0000 0.68367  0.46646  0.55199  Biso   1.000  C
  H837     1.0000 0.79803  0.52138  0.57787  Biso   1.000  H
  H838     1.0000 0.74424  0.50257  0.57167  Biso   1.000  H
  C874     1.0000 0.79259  0.58307  0.57137  Biso   1.000  C
  H839     1.0000 0.18962  0.04237  0.59877  Biso   1.000  H
  H840     1.0000 0.21232  0.10335  0.60097  Biso   1.000  H
  C875     1.0000 0.26663  0.07984  0.60406  Biso   1.000  C
  C876     1.0000 0.80768  0.88143  0.60271  Biso   1.000  C
  H841     1.0000 0.81605  0.88198  0.61927  Biso   1.000  H
  H842     1.0000 0.95764  0.14728  0.59877  Biso   1.000  H
  H843     1.0000 0.89666  0.10898  0.60097  Biso   1.000  H
  C877     1.0000 0.92018  0.18679  0.60406  Biso   1.000  C
  H844     1.0000 0.85275  0.81039  0.59877  Biso   1.000  H
  H845     1.0000 0.89102  0.78766  0.60097  Biso   1.000  H
  C878     1.0000 0.81324  0.73341  0.60406  Biso   1.000  C
  C879     1.0000 0.63426  0.86633  0.54965  Biso   1.000  C
  C880     1.0000 0.58012  0.71177  0.52850  Biso   1.000  C
  H846     1.0000 0.03945  0.60659  0.53276  Biso   1.000  H
  H847     1.0000 0.02645  0.58038  0.52116  Biso   1.000  H
  C881     1.0000 0.09855  0.59536  0.52680  Biso   1.000  C
  H848     1.0000 0.69773  0.47256  0.50656  Biso   1.000  H
  H849     1.0000 0.75505  0.49079  0.50207  Biso   1.000  H
  C882     1.0000 0.69668  0.44072  0.49204  Biso   1.000  C
  H850     1.0000 0.66703  0.44057  0.55736  Biso   1.000  H
  C883     1.0000 0.67980  0.51442  0.55230  Biso   1.000  C
  H851     1.0000 0.77756  0.58879  0.56487  Biso   1.000  H
  H852     1.0000 0.83082  0.60737  0.57117  Biso   1.000  H
  C884     1.0000 0.76943  0.59638  0.58108  Biso   1.000  C
  H853     1.0000 0.28164  0.08798  0.59687  Biso   1.000  H
  H854     1.0000 0.28815  0.10898  0.60886  Biso   1.000  H
  H855     1.0000 0.26553  0.04796  0.60667  Biso   1.000  H
  C885     1.0000 0.76655  0.82987  0.60204  Biso   1.000  C
  C886     1.0000 0.82773  0.90921  0.59336  Biso   1.000  C
  H856     1.0000 0.91204  0.19368  0.59687  Biso   1.000  H
  H857     1.0000 0.89102  0.17916  0.60886  Biso   1.000  H
  H858     1.0000 0.95204  0.21758  0.60667  Biso   1.000  H
  H859     1.0000 0.80634  0.71839  0.59687  Biso   1.000  H
  H860     1.0000 0.82085  0.71189  0.60886  Biso   1.000  H
  H861     1.0000 0.78244  0.73446  0.60667  Biso   1.000  H
  C887     1.0000 0.61452  0.83085  0.54130  Biso   1.000  C
  C888     1.0000 0.66537  0.86575  0.55798  Biso   1.000  C
  C889     1.0000 0.59105  0.76161  0.53151  Biso   1.000  C
  C890     1.0000 0.59663  0.68103  0.53352  Biso   1.000  C
  H862     1.0000 0.11774  0.63010  0.52357  Biso   1.000  H
  H863     1.0000 0.11383  0.59598  0.53377  Biso   1.000  H
  H864     1.0000 0.10073  0.56977  0.52217  Biso   1.000  H
  H865     1.0000 0.69593  0.46877  0.48807  Biso   1.000  H
  H866     1.0000 0.71835  0.42938  0.48826  Biso   1.000  H
  H867     1.0000 0.66092  0.41107  0.49277  Biso   1.000  H
  C891     1.0000 0.70167  0.55139  0.54416  Biso   1.000  C
  C892     1.0000 0.65564  0.52444  0.56071  Biso   1.000  C
  H868     1.0000 0.77744  0.63279  0.58056  Biso   1.000  H
  H869     1.0000 0.73145  0.57306  0.58117  Biso   1.000  H
  H870     1.0000 0.78473  0.59168  0.58756  Biso   1.000  H
  C893     1.0000 0.74392  0.80765  0.59247  Biso   1.000  C
  H871     1.0000 0.75395  0.80969  0.60837  Biso   1.000  H
  C894     1.0000 0.80582  0.88706  0.58363  Biso   1.000  C
  H872     1.0000 0.85684  0.94379  0.59367  Biso   1.000  H
  N93      1.0000 0.61943  0.78755  0.54027  Biso   1.000  N
  C895     1.0000 0.58424  0.83363  0.53264  Biso   1.000  C
  N94      1.0000 0.68429  0.83156  0.55914  Biso   1.000  N
  C896     1.0000 0.68268  0.89982  0.56693  Biso   1.000  C
  C897     1.0000 0.57008  0.79087  0.52653  Biso   1.000  C
  N95      1.0000 0.63085  0.69554  0.54209  Biso   1.000  N
  C898     1.0000 0.58098  0.62751  0.53104  Biso   1.000  C
  H873     1.0000 0.71855  0.54536  0.53836  Biso   1.000  H
  C899     1.0000 0.69901  0.59606  0.54457  Biso   1.000  C
  H874     1.0000 0.64045  0.49948  0.56627  Biso   1.000  H
  C900     1.0000 0.65330  0.56989  0.56120  Biso   1.000  C
  C901     1.0000 0.76281  0.83621  0.58313  Biso   1.000  C
  H875     1.0000 0.71533  0.77276  0.59227  Biso   1.000  H
  H876     1.0000 0.82003  0.90647  0.57727  Biso   1.000  H
  H877     1.0000 0.63735  0.77820  0.54447  Biso   1.000  H
  H878     1.0000 0.57583  0.86039  0.53147  Biso   1.000  H
  C902     1.0000 0.71236  0.84263  0.56855  Biso   1.000  C
  C903     1.0000 0.71056  0.88605  0.57319  Biso   1.000  C
  H879     1.0000 0.67574  0.92747  0.56826  Biso   1.000  H
  H880     1.0000 0.55005  0.78199  0.52017  Biso   1.000  H
  C904     1.0000 0.63761  0.65411  0.54466  Biso   1.000  C
  H881     1.0000 0.55733  0.60698  0.52556  Biso   1.000  H
  C905     1.0000 0.60592  0.61159  0.53786  Biso   1.000  C
  H882     1.0000 0.71334  0.62059  0.53887  Biso   1.000  H
  C906     1.0000 0.67538  0.60674  0.55323  Biso   1.000  C
  H883     1.0000 0.63643  0.57580  0.56707  Biso   1.000  H
  C907     1.0000 0.73363  0.81458  0.57293  Biso   1.000  C
  H884     1.0000 0.72665  0.90259  0.57966  Biso   1.000  H
  C908     1.0000 0.67034  0.65411  0.55271  Biso   1.000  C
  H885     1.0000 0.60264  0.57787  0.53807  Biso   1.000  H
  C909     1.0000 0.72781  0.76764  0.56906  Biso   1.000  C
  C910     1.0000 0.69847  0.69499  0.56000  Biso   1.000  C
  N96      1.0000 0.69638  0.73967  0.56067  Biso   1.000  N
  C911     1.0000 0.75132  0.73924  0.57365  Biso   1.000  C
  C912     1.0000 0.73302  0.69464  0.56800  Biso   1.000  C
  H886     1.0000 0.67834  0.74898  0.55657  Biso   1.000  H
  H887     1.0000 0.77493  0.74988  0.57947  Biso   1.000  H
  H888     1.0000 0.74146  0.66788  0.56907  Biso   1.000  H
  C913     1.0000 0.36700  0.58920  0.29167  Biso   1.000  C
  N97      1.0000 0.38257  0.58275  0.28094  Biso   1.000  N
  H889     1.0000 0.39696  0.60102  0.29663  Biso   1.000  H
  H890     1.0000 0.33827  0.55533  0.29423  Biso   1.000  H
  C914     1.0000 0.34926  0.62887  0.29136  Biso   1.000  C
  C915     1.0000 0.42989  0.59296  0.27983  Biso   1.000  C
  C916     1.0000 0.38538  0.68207  0.29115  Biso   1.000  C
  C917     1.0000 0.29671  0.61463  0.29115  Biso   1.000  C
  C918     1.0000 0.45189  0.59292  0.26938  Biso   1.000  C
  H891     1.0000 0.45136  0.60074  0.28593  Biso   1.000  H
  O49      1.0000 0.43852  0.69729  0.29114  Biso   1.000  O
  C919     1.0000 0.37115  0.72041  0.29136  Biso   1.000  C
  O50      1.0000 0.25875  0.56147  0.29114  Biso   1.000  O
  C920     1.0000 0.27960  0.65074  0.29136  Biso   1.000  C
  C921     1.0000 0.50349  0.60336  0.26872  Biso   1.000  C
  C922     1.0000 0.42415  0.58521  0.26004  Biso   1.000  C
  C923     1.0000 0.46301  0.71516  0.28073  Biso   1.000  C
  C924     1.0000 0.41078  0.77779  0.29167  Biso   1.000  C
  C925     1.0000 0.31791  0.70331  0.29115  Biso   1.000  C
  C926     1.0000 0.25216  0.53698  0.28073  Biso   1.000  C
  C927     1.0000 0.22223  0.63302  0.29167  Biso   1.000  C
  C928     1.0000 0.52570  0.60293  0.25915  Biso   1.000  C
  H892     1.0000 0.52366  0.61091  0.27503  Biso   1.000  H
  C929     1.0000 0.44627  0.58541  0.25029  Biso   1.000  C
  H893     1.0000 0.38957  0.57974  0.26033  Biso   1.000  H
  H894     1.0000 0.46338  0.74775  0.27873  Biso   1.000  H
  H895     1.0000 0.44308  0.68825  0.27523  Biso   1.000  H
  C930     1.0000 0.51830  0.72498  0.28141  Biso   1.000  C
  N98      1.0000 0.41725  0.79982  0.28094  Biso   1.000  N
  H896     1.0000 0.39899  0.79594  0.29663  Biso   1.000  H
  H897     1.0000 0.44465  0.78292  0.29423  Biso   1.000  H
  O51      1.0000 0.30274  0.74126  0.29114  Biso   1.000  O
  H898     1.0000 0.28437  0.53663  0.27873  Biso   1.000  H
  H899     1.0000 0.24516  0.55693  0.27523  Biso   1.000  H
  C931     1.0000 0.20670  0.48171  0.28141  Biso   1.000  C
  N99      1.0000 0.20021  0.61745  0.28094  Biso   1.000  N
  H900     1.0000 0.20406  0.60305  0.29663  Biso   1.000  H
  H901     1.0000 0.21707  0.66173  0.29423  Biso   1.000  H
  C932     1.0000 0.49712  0.59327  0.24981  Biso   1.000  C
  H902     1.0000 0.56056  0.60923  0.25893  Biso   1.000  H
  H903     1.0000 0.42689  0.58025  0.24393  Biso   1.000  H
  H904     1.0000 0.51788  0.69353  0.28433  Biso   1.000  H
  H905     1.0000 0.53888  0.75444  0.28633  Biso   1.000  H
  C933     1.0000 0.54437  0.73797  0.27040  Biso   1.000  C
  C934     1.0000 0.40705  0.83694  0.27983  Biso   1.000  C
  C935     1.0000 0.28482  0.74783  0.28073  Biso   1.000  C
  H906     1.0000 0.17568  0.48214  0.28433  Biso   1.000  H
  H907     1.0000 0.21556  0.46113  0.28633  Biso   1.000  H
  C936     1.0000 0.19359  0.45561  0.27040  Biso   1.000  C
  C937     1.0000 0.16306  0.57011  0.27983  Biso   1.000  C
  C938     1.0000 0.51876  0.58572  0.23959  Biso   1.000  C
  H908     1.0000 0.52295  0.70902  0.26543  Biso   1.000  H
  H909     1.0000 0.54567  0.77005  0.26763  Biso   1.000  H
  C939     1.0000 0.59996  0.74650  0.27072  Biso   1.000  C
  C940     1.0000 0.40711  0.85900  0.26938  Biso   1.000  C
  H910     1.0000 0.39926  0.85063  0.28593  Biso   1.000  H
  H911     1.0000 0.25225  0.71563  0.27873  Biso   1.000  H
  H912     1.0000 0.31176  0.75483  0.27523  Biso   1.000  H
  C941     1.0000 0.27501  0.79332  0.28141  Biso   1.000  C
  H913     1.0000 0.18608  0.47705  0.26543  Biso   1.000  H
  H914     1.0000 0.22435  0.45432  0.26763  Biso   1.000  H
  C942     1.0000 0.14657  0.40007  0.27072  Biso   1.000  C
  C943     1.0000 0.14101  0.54809  0.26938  Biso   1.000  C
  H915     1.0000 0.14938  0.54864  0.28593  Biso   1.000  H
  C944     1.0000 0.49070  0.53639  0.23521  Biso   1.000  C
  C945     1.0000 0.56570  0.62684  0.23572  Biso   1.000  C
  H916     1.0000 0.61497  0.75464  0.26354  Biso   1.000  H
  H917     1.0000 0.62148  0.77564  0.27554  Biso   1.000  H
  H918     1.0000 0.59886  0.71462  0.27333  Biso   1.000  H
  C946     1.0000 0.39663  0.90012  0.26872  Biso   1.000  C
  C947     1.0000 0.41479  0.83894  0.26004  Biso   1.000  C
  H919     1.0000 0.30647  0.82434  0.28433  Biso   1.000  H
  H920     1.0000 0.24557  0.78444  0.28633  Biso   1.000  H
  C948     1.0000 0.26203  0.80639  0.27040  Biso   1.000  C
  H921     1.0000 0.13967  0.38504  0.26354  Biso   1.000  H
  H922     1.0000 0.15418  0.37855  0.27554  Biso   1.000  H
  H923     1.0000 0.11576  0.40112  0.27333  Biso   1.000  H
  C949     1.0000 0.09988  0.49653  0.26872  Biso   1.000  C
  C950     1.0000 0.16104  0.57582  0.26004  Biso   1.000  C
  N100     1.0000 0.50180  0.51942  0.22580  Biso   1.000  N
  C951     1.0000 0.44729  0.49117  0.23985  Biso   1.000  C
  N101     1.0000 0.59369  0.62339  0.22735  Biso   1.000  N
  C952     1.0000 0.59410  0.67875  0.24031  Biso   1.000  C
  C953     1.0000 0.39708  0.92277  0.25915  Biso   1.000  C
  H924     1.0000 0.38906  0.91275  0.27503  Biso   1.000  H
  C954     1.0000 0.41459  0.86088  0.25029  Biso   1.000  C
  H925     1.0000 0.42026  0.80983  0.26033  Biso   1.000  H
  H926     1.0000 0.29097  0.81394  0.26543  Biso   1.000  H
  H927     1.0000 0.22999  0.77564  0.26763  Biso   1.000  H
  C955     1.0000 0.25351  0.85345  0.27072  Biso   1.000  C
  C956     1.0000 0.07725  0.47431  0.25915  Biso   1.000  C
  H928     1.0000 0.08728  0.47635  0.27503  Biso   1.000  H
  C957     1.0000 0.13915  0.55372  0.25029  Biso   1.000  C
  H929     1.0000 0.19017  0.61044  0.26033  Biso   1.000  H
  C958     1.0000 0.46763  0.46633  0.22466  Biso   1.000  C
  C959     1.0000 0.43353  0.44955  0.23359  Biso   1.000  C
  H930     1.0000 0.43078  0.49074  0.24634  Biso   1.000  H
  H931     1.0000 0.58436  0.59605  0.22323  Biso   1.000  H
  C960     1.0000 0.63834  0.67014  0.22668  Biso   1.000  C
  C961     1.0000 0.63871  0.70503  0.23466  Biso   1.000  C
  H932     1.0000 0.58345  0.69173  0.24613  Biso   1.000  H
  C962     1.0000 0.40674  0.90387  0.24981  Biso   1.000  C
  H933     1.0000 0.39076  0.95132  0.25893  Biso   1.000  H
  H934     1.0000 0.41976  0.84664  0.24393  Biso   1.000  H
  H935     1.0000 0.24536  0.86033  0.26354  Biso   1.000  H
  H936     1.0000 0.22435  0.84582  0.27554  Biso   1.000  H
  H937     1.0000 0.28537  0.88424  0.27333  Biso   1.000  H
  C963     1.0000 0.09614  0.50287  0.24981  Biso   1.000  C
  H938     1.0000 0.04866  0.43942  0.25893  Biso   1.000  H
  H939     1.0000 0.15336  0.57313  0.24393  Biso   1.000  H
  C964     1.0000 0.46702  0.43461  0.21633  Biso   1.000  C
  H940     1.0000 0.40585  0.41493  0.23494  Biso   1.000  H
  C965     1.0000 0.67924  0.68289  0.21937  Biso   1.000  C
  H941     1.0000 0.66547  0.74024  0.23573  Biso   1.000  H
  C966     1.0000 0.41429  0.93305  0.23959  Biso   1.000  C
  C967     1.0000 0.06696  0.48124  0.23959  Biso   1.000  C
  C968     1.0000 0.42629  0.37835  0.21753  Biso   1.000  C
  C969     1.0000 0.50251  0.45037  0.20796  Biso   1.000  C
  C970     1.0000 0.67925  0.65019  0.21132  Biso   1.000  C
  C971     1.0000 0.72659  0.73531  0.21989  Biso   1.000  C
  C972     1.0000 0.37316  0.93888  0.23572  Biso   1.000  C
  C973     1.0000 0.46360  0.95430  0.23521  Biso   1.000  C
  C974     1.0000 0.06114  0.43429  0.23572  Biso   1.000  C
  C975     1.0000 0.04568  0.50928  0.23521  Biso   1.000  C
  C976     1.0000 0.37398  0.36161  0.21678  Biso   1.000  C
  C977     1.0000 0.44148  0.34268  0.22038  Biso   1.000  C
  N102     1.0000 0.54579  0.49853  0.20693  Biso   1.000  N
  C978     1.0000 0.49972  0.41728  0.19930  Biso   1.000  C
  N103     1.0000 0.63779  0.60196  0.20875  Biso   1.000  N
  C979     1.0000 0.72175  0.66099  0.20453  Biso   1.000  C
  C980     1.0000 0.73727  0.76962  0.21123  Biso   1.000  C
  C981     1.0000 0.76346  0.75010  0.22786  Biso   1.000  C
  N104     1.0000 0.37660  0.97030  0.22735  Biso   1.000  N
  C982     1.0000 0.32124  0.91533  0.24031  Biso   1.000  C
  N105     1.0000 0.48059  0.98238  0.22580  Biso   1.000  N
  C983     1.0000 0.50883  0.95613  0.23985  Biso   1.000  C
  N106     1.0000 0.02969  0.40628  0.22735  Biso   1.000  N
  C984     1.0000 0.08465  0.40589  0.24031  Biso   1.000  C
  N107     1.0000 0.01762  0.49821  0.22580  Biso   1.000  N
  C985     1.0000 0.04388  0.55271  0.23985  Biso   1.000  C
  C986     1.0000 0.33634  0.31052  0.21902  Biso   1.000  C
  H942     1.0000 0.36328  0.38575  0.21463  Biso   1.000  H
  C987     1.0000 0.40333  0.29104  0.22260  Biso   1.000  C
  H943     1.0000 0.47746  0.35312  0.22084  Biso   1.000  H
  H944     1.0000 0.55518  0.52583  0.21113  Biso   1.000  H
  C988     1.0000 0.57172  0.49610  0.19817  Biso   1.000  C
  H945     1.0000 0.47297  0.38215  0.19813  Biso   1.000  H
  C989     1.0000 0.54245  0.44583  0.19321  Biso   1.000  C
  C990     1.0000 0.65231  0.58228  0.20018  Biso   1.000  C
  C991     1.0000 0.70581  0.62011  0.19772  Biso   1.000  C
  H946     1.0000 0.75546  0.69142  0.20473  Biso   1.000  H
  C992     1.0000 0.78198  0.81695  0.21084  Biso   1.000  C
  H947     1.0000 0.71277  0.75945  0.20553  Biso   1.000  H
  C993     1.0000 0.80888  0.79786  0.22738  Biso   1.000  C
  H948     1.0000 0.75756  0.72733  0.23373  Biso   1.000  H
  H949     1.0000 0.40395  0.98833  0.22323  Biso   1.000  H
  C994     1.0000 0.32987  0.96822  0.22668  Biso   1.000  C
  C995     1.0000 0.29498  0.93368  0.23466  Biso   1.000  C
  H950     1.0000 0.30826  0.89175  0.24613  Biso   1.000  H
  C996     1.0000 0.53367  0.00128  0.22466  Biso   1.000  C
  H951     1.0000 0.50927  0.94002  0.24634  Biso   1.000  H
  C997     1.0000 0.55043  0.98399  0.23359  Biso   1.000  C
  C998     1.0000 0.03180  0.36165  0.22668  Biso   1.000  C
  H952     1.0000 0.01167  0.41563  0.22323  Biso   1.000  H
  C999     1.0000 0.06635  0.36130  0.23466  Biso   1.000  C
  H953     1.0000 0.10826  0.41653  0.24613  Biso   1.000  H
  C1000    1.0000 0.99868  0.53236  0.22466  Biso   1.000  C
  H954     1.0000 0.05998  0.56925  0.24634  Biso   1.000  H
  C1001    1.0000 0.01601  0.56648  0.23359  Biso   1.000  C
  C1002    1.0000 0.35090  0.27528  0.22214  Biso   1.000  C
  H955     1.0000 0.30027  0.29984  0.21833  Biso   1.000  H
  H956     1.0000 0.41376  0.26644  0.22443  Biso   1.000  H
  C1003    1.0000 0.62160  0.53502  0.19516  Biso   1.000  C
  H957     1.0000 0.55136  0.43472  0.18683  Biso   1.000  H
  H958     1.0000 0.72635  0.61702  0.19223  Biso   1.000  H
  C1004    1.0000 0.81893  0.83205  0.21897  Biso   1.000  C
  H959     1.0000 0.78796  0.83984  0.20504  Biso   1.000  H
  H960     1.0000 0.83386  0.80764  0.23293  Biso   1.000  H
  C1005    1.0000 0.31713  0.99635  0.21937  Biso   1.000  C
  H961     1.0000 0.25976  0.92523  0.23573  Biso   1.000  H
  C1006    1.0000 0.56538  0.03238  0.21633  Biso   1.000  C
  H962     1.0000 0.58508  0.99095  0.23494  Biso   1.000  H
  C1007    1.0000 0.00367  0.32077  0.21937  Biso   1.000  C
  H963     1.0000 0.07478  0.33454  0.23573  Biso   1.000  H
  C1008    1.0000 0.96759  0.53299  0.21633  Biso   1.000  C
  H964     1.0000 0.00907  0.59413  0.23494  Biso   1.000  H
  C1009    1.0000 0.31189  0.22118  0.22474  Biso   1.000  C
  C1010    1.0000 0.64865  0.52481  0.18597  Biso   1.000  C
  C1011    1.0000 0.86690  0.88388  0.21866  Biso   1.000  C
  C1012    1.0000 0.26471  0.99130  0.21989  Biso   1.000  C
  C1013    1.0000 0.34981  0.02905  0.21132  Biso   1.000  C
  C1014    1.0000 0.62164  0.04795  0.21753  Biso   1.000  C
  C1015    1.0000 0.54964  0.05213  0.20796  Biso   1.000  C
  C1016    1.0000 0.00871  0.27340  0.21989  Biso   1.000  C
  C1017    1.0000 0.97094  0.32077  0.21132  Biso   1.000  C
  C1018    1.0000 0.94785  0.49751  0.20796  Biso   1.000  C
  C1019    1.0000 0.95204  0.57371  0.21753  Biso   1.000  C
  N108     1.0000 0.26357  0.20482  0.22479  Biso   1.000  N
  H965     1.0000 0.32366  0.19743  0.22643  Biso   1.000  H
  C1020    1.0000 0.64914  0.54437  0.17594  Biso   1.000  C
  C1021    1.0000 0.67686  0.49947  0.18769  Biso   1.000  C
  N109     1.0000 0.87386  0.91561  0.21143  Biso   1.000  N
  H966     1.0000 0.89276  0.89311  0.22404  Biso   1.000  H
  C1022    1.0000 0.23040  0.96767  0.21123  Biso   1.000  C
  C1023    1.0000 0.24989  0.01337  0.22786  Biso   1.000  C
  N110     1.0000 0.39805  0.03582  0.20875  Biso   1.000  N
  C1024    1.0000 0.33899  0.06074  0.20453  Biso   1.000  C
  C1025    1.0000 0.63840  0.01235  0.21678  Biso   1.000  C
  C1026    1.0000 0.65731  0.09876  0.22038  Biso   1.000  C
  N111     1.0000 0.50147  0.04724  0.20693  Biso   1.000  N
  C1027    1.0000 0.58270  0.08241  0.19930  Biso   1.000  C
  C1028    1.0000 0.03234  0.26272  0.21123  Biso   1.000  C
  C1029    1.0000 0.98663  0.23655  0.22786  Biso   1.000  C
  N112     1.0000 0.96418  0.36220  0.20875  Biso   1.000  N
  C1030    1.0000 0.93925  0.27825  0.20453  Biso   1.000  C
  N113     1.0000 0.95276  0.45421  0.20693  Biso   1.000  N
  C1031    1.0000 0.91757  0.50029  0.19930  Biso   1.000  C
  C1032    1.0000 0.98767  0.62605  0.21678  Biso   1.000  C
  C1033    1.0000 0.90119  0.55853  0.22038  Biso   1.000  C
  C1034    1.0000 0.22814  0.14900  0.22664  Biso   1.000  C
  C1035    1.0000 0.67814  0.53984  0.16787  Biso   1.000  C
  H967     1.0000 0.62929  0.56112  0.17460  Biso   1.000  H
  C1036    1.0000 0.70507  0.49450  0.17961  Biso   1.000  C
  H968     1.0000 0.67659  0.48550  0.19450  Biso   1.000  H
  C1037    1.0000 0.92099  0.96740  0.21189  Biso   1.000  C
  C1038    1.0000 0.18303  0.96501  0.21084  Biso   1.000  C
  H969     1.0000 0.24057  0.95332  0.20553  Biso   1.000  H
  C1039    1.0000 0.20213  0.01102  0.22738  Biso   1.000  C
  H970     1.0000 0.27265  0.03023  0.23373  Biso   1.000  H
  C1040    1.0000 0.41772  0.07001  0.20018  Biso   1.000  C
  C1041    1.0000 0.37986  0.08570  0.19772  Biso   1.000  C
  H971     1.0000 0.30856  0.06402  0.20473  Biso   1.000  H
  C1042    1.0000 0.68947  0.02581  0.21902  Biso   1.000  C
  H972     1.0000 0.61428  0.97753  0.21463  Biso   1.000  H
  C1043    1.0000 0.70897  0.11230  0.22260  Biso   1.000  C
  H973     1.0000 0.64685  0.12431  0.22084  Biso   1.000  H
  H974     1.0000 0.47418  0.02933  0.21113  Biso   1.000  H
  C1044    1.0000 0.50389  0.07560  0.19817  Biso   1.000  C
  H975     1.0000 0.61787  0.09082  0.19813  Biso   1.000  H
  C1045    1.0000 0.55417  0.09661  0.19321  Biso   1.000  C
  C1046    1.0000 0.03500  0.21805  0.21084  Biso   1.000  C
  H976     1.0000 0.04667  0.28725  0.20553  Biso   1.000  H
  C1047    1.0000 0.98897  0.19109  0.22738  Biso   1.000  C
  H977     1.0000 0.96974  0.24242  0.23373  Biso   1.000  H
  C1048    1.0000 0.92996  0.34769  0.20018  Biso   1.000  C
  C1049    1.0000 0.91431  0.29417  0.19772  Biso   1.000  C
  H978     1.0000 0.93597  0.24453  0.20473  Biso   1.000  H
  C1050    1.0000 0.92438  0.42827  0.19817  Biso   1.000  C
  H979     1.0000 0.97066  0.44482  0.21113  Biso   1.000  H
  C1051    1.0000 0.90340  0.45753  0.19321  Biso   1.000  C
  H980     1.0000 0.90916  0.52704  0.19813  Biso   1.000  H
  H981     1.0000 0.02248  0.63673  0.21463  Biso   1.000  H
  C1052    1.0000 0.97420  0.66368  0.21902  Biso   1.000  C
  C1053    1.0000 0.88771  0.59667  0.22260  Biso   1.000  C
  H982     1.0000 0.87568  0.52255  0.22084  Biso   1.000  H
  C1054    1.0000 0.19023  0.12631  0.21769  Biso   1.000  C
  H983     1.0000 0.20895  0.14403  0.23343  Biso   1.000  H
  H984     1.0000 0.24857  0.13085  0.22723  Biso   1.000  H
  C1055    1.0000 0.70738  0.51558  0.16985  Biso   1.000  C
  H985     1.0000 0.67819  0.55321  0.16100  Biso   1.000  H
  H986     1.0000 0.72332  0.47611  0.18080  Biso   1.000  H
  H987     1.0000 0.94574  0.97022  0.20623  Biso   1.000  H
  H988     1.0000 0.93837  0.97213  0.21883  Biso   1.000  H
  C1056    1.0000 0.90708  0.00930  0.21035  Biso   1.000  C
  C1057    1.0000 0.16794  0.98688  0.21897  Biso   1.000  C
  H989     1.0000 0.16015  0.94812  0.20504  Biso   1.000  H
  H990     1.0000 0.19236  0.02624  0.23293  Biso   1.000  H
  C1058    1.0000 0.46499  0.08656  0.19516  Biso   1.000  C
  H991     1.0000 0.38297  0.10932  0.19223  Biso   1.000  H
  C1059    1.0000 0.72470  0.07560  0.22214  Biso   1.000  C
  H992     1.0000 0.70015  0.00042  0.21833  Biso   1.000  H
  H993     1.0000 0.73356  0.14731  0.22443  Biso   1.000  H
  H994     1.0000 0.56526  0.11664  0.18683  Biso   1.000  H
  C1060    1.0000 0.01313  0.18108  0.21897  Biso   1.000  C
  H995     1.0000 0.05187  0.21202  0.20504  Biso   1.000  H
  H996     1.0000 0.97378  0.16614  0.23293  Biso   1.000  H
  C1061    1.0000 0.91345  0.37843  0.19516  Biso   1.000  C
  H997     1.0000 0.89066  0.27363  0.19223  Biso   1.000  H
  H998     1.0000 0.88338  0.44865  0.18683  Biso   1.000  H
  C1062    1.0000 0.92438  0.64909  0.22214  Biso   1.000  C
  H999     1.0000 0.99958  0.69975  0.21833  Biso   1.000  H
  H1000    1.0000 0.85267  0.58623  0.22443  Biso   1.000  H
  C1063    1.0000 0.20511  0.11528  0.20782  Biso   1.000  C
  C1064    1.0000 0.13822  0.11485  0.21859  Biso   1.000  C
  C1065    1.0000 0.73999  0.51081  0.16120  Biso   1.000  C
  C1066    1.0000 0.91636  0.03652  0.20066  Biso   1.000  C
  C1067    1.0000 0.88514  0.02334  0.21859  Biso   1.000  C
  C1068    1.0000 0.11611  0.98301  0.21866  Biso   1.000  C
  C1069    1.0000 0.47519  0.12384  0.18597  Biso   1.000  C
  C1070    1.0000 0.77880  0.09070  0.22474  Biso   1.000  C
  C1071    1.0000 0.01700  0.13312  0.21866  Biso   1.000  C
  C1072    1.0000 0.87617  0.35136  0.18597  Biso   1.000  C
  C1073    1.0000 0.90930  0.68809  0.22474  Biso   1.000  C
  O52      1.0000 0.25755  0.12983  0.20656  Biso   1.000  O
  C1074    1.0000 0.17096  0.09353  0.19944  Biso   1.000  C
  O53      1.0000 0.12229  0.12737  0.22802  Biso   1.000  O
  C1075    1.0000 0.10224  0.09295  0.21035  Biso   1.000  C
  N114     1.0000 0.74395  0.53072  0.15226  Biso   1.000  N
  H1001    1.0000 0.75788  0.49219  0.16260  Biso   1.000  H
  O54      1.0000 0.93567  0.02217  0.19216  Biso   1.000  O
  C1076    1.0000 0.90644  0.07740  0.19944  Biso   1.000  C
  O55      1.0000 0.87263  0.99494  0.22802  Biso   1.000  O
  C1077    1.0000 0.87368  0.06391  0.21769  Biso   1.000  C
  N115     1.0000 0.08442  0.95825  0.21143  Biso   1.000  N
  H1002    1.0000 0.10687  0.99963  0.22404  Biso   1.000  H
  C1078    1.0000 0.45562  0.10475  0.17594  Biso   1.000  C
  C1079    1.0000 0.50051  0.17739  0.18769  Biso   1.000  C
  N116     1.0000 0.79516  0.05870  0.22479  Biso   1.000  N
  H1003    1.0000 0.80256  0.12622  0.22643  Biso   1.000  H
  N117     1.0000 0.04177  0.12616  0.21143  Biso   1.000  N
  H1004    1.0000 0.00036  0.10722  0.22404  Biso   1.000  H
  C1080    1.0000 0.89526  0.35085  0.17594  Biso   1.000  C
  C1081    1.0000 0.82258  0.32312  0.18769  Biso   1.000  C
  N118     1.0000 0.94126  0.73645  0.22479  Biso   1.000  N
  H1005    1.0000 0.87377  0.67632  0.22643  Biso   1.000  H
  C1082    1.0000 0.28610  0.17862  0.20064  Biso   1.000  C
  C1083    1.0000 0.12018  0.08364  0.20066  Biso   1.000  C
  C1084    1.0000 0.18818  0.07972  0.18918  Biso   1.000  C
  C1085    1.0000 0.13790  0.18284  0.22852  Biso   1.000  C
  C1086    1.0000 0.04642  0.07902  0.21189  Biso   1.000  C
  C1087    1.0000 0.77511  0.52149  0.14415  Biso   1.000  C
  C1088    1.0000 0.89360  0.97589  0.18667  Biso   1.000  C
  C1089    1.0000 0.88469  0.08980  0.20782  Biso   1.000  C
  C1090    1.0000 0.92026  0.10842  0.18918  Biso   1.000  C
  C1091    1.0000 0.81716  0.95508  0.22852  Biso   1.000  C
  C1092    1.0000 0.85100  0.07912  0.22664  Biso   1.000  C
  C1093    1.0000 0.03259  0.95359  0.21189  Biso   1.000  C
  C1094    1.0000 0.46017  0.13831  0.16787  Biso   1.000  C
  H1006    1.0000 0.43889  0.06817  0.17460  Biso   1.000  H
  C1095    1.0000 0.50548  0.21056  0.17961  Biso   1.000  C
  H1007    1.0000 0.51451  0.19108  0.19450  Biso   1.000  H
  C1096    1.0000 0.86169  0.32187  0.16787  Biso   1.000  C
  H1008    1.0000 0.93180  0.37069  0.17460  Biso   1.000  H
  C1097    1.0000 0.78944  0.29491  0.17961  Biso   1.000  C
  H1009    1.0000 0.80889  0.32339  0.19450  Biso   1.000  H
  C1098    1.0000 0.92089  0.77185  0.22664  Biso   1.000  C
  H1010    1.0000 0.28297  0.20662  0.20434  Biso   1.000  H
  H1011    1.0000 0.27107  0.17423  0.19344  Biso   1.000  H
  C1099    1.0000 0.34313  0.19368  0.19986  Biso   1.000  C
  O56      1.0000 0.08650  0.06431  0.19216  Biso   1.000  O
  N119     1.0000 0.19739  0.12009  0.18107  Biso   1.000  N
  H1012    1.0000 0.22069  0.07855  0.19044  Biso   1.000  H
  H1013    1.0000 0.16077  0.04483  0.18663  Biso   1.000  H
  H1014    1.0000 0.12557  0.19254  0.22203  Biso   1.000  H
  H1015    1.0000 0.17648  0.20424  0.22873  Biso   1.000  H
  C1100    1.0000 0.11566  0.19379  0.23805  Biso   1.000  C
  H1016    1.0000 0.02447  0.05422  0.20623  Biso   1.000  H
  H1017    1.0000 0.03377  0.06165  0.21883  Biso   1.000  H
  C1101    1.0000 0.74408  0.50428  0.13389  Biso   1.000  C
  H1018    1.0000 0.80881  0.55400  0.14290  Biso   1.000  H
  H1019    1.0000 0.78259  0.49411  0.14670  Biso   1.000  H
  H1020    1.0000 0.86316  0.98074  0.18543  Biso   1.000  H
  H1021    1.0000 0.88197  0.94424  0.19114  Biso   1.000  H
  C1102    1.0000 0.91443  0.96951  0.17628  Biso   1.000  C
  O57      1.0000 0.87018  0.12771  0.20656  Biso   1.000  O
  N120     1.0000 0.87989  0.07728  0.18107  Biso   1.000  N
  H1022    1.0000 0.92145  0.14210  0.19044  Biso   1.000  H
  H1023    1.0000 0.95518  0.11593  0.18663  Biso   1.000  H
  H1024    1.0000 0.80745  0.93302  0.22203  Biso   1.000  H
  H1025    1.0000 0.79577  0.97225  0.22873  Biso   1.000  H
  C1103    1.0000 0.80621  0.92187  0.23805  Biso   1.000  C
  H1026    1.0000 0.85596  0.06492  0.23343  Biso   1.000  H
  H1027    1.0000 0.86915  0.11773  0.22723  Biso   1.000  H
  C1104    1.0000 0.99069  0.89777  0.21035  Biso   1.000  C
  H1028    1.0000 0.02978  0.97554  0.20623  Biso   1.000  H
  H1029    1.0000 0.02787  0.96623  0.21883  Biso   1.000  H
  C1105    1.0000 0.48440  0.19178  0.16985  Biso   1.000  C
  H1030    1.0000 0.44679  0.12497  0.16100  Biso   1.000  H
  H1031    1.0000 0.52389  0.24718  0.18080  Biso   1.000  H
  C1106    1.0000 0.80820  0.29261  0.16985  Biso   1.000  C
  H1032    1.0000 0.87500  0.32179  0.16100  Biso   1.000  H
  H1033    1.0000 0.75278  0.27669  0.18080  Biso   1.000  H
  C1107    1.0000 0.93610  0.80979  0.21769  Biso   1.000  C
  H1034    1.0000 0.93504  0.79102  0.23343  Biso   1.000  H
  H1035    1.0000 0.88225  0.75143  0.22723  Biso   1.000  H
  H1036    1.0000 0.35688  0.19395  0.20703  Biso   1.000  H
  H1037    1.0000 0.34637  0.16743  0.19554  Biso   1.000  H
  C1108    1.0000 0.37481  0.24688  0.19488  Biso   1.000  C
  C1109    1.0000 0.08232  0.10644  0.18667  Biso   1.000  C
  C1110    1.0000 0.17747  0.10417  0.17213  Biso   1.000  C
  H1038    1.0000 0.13135  0.18804  0.24453  Biso   1.000  H
  H1039    1.0000 0.07757  0.16923  0.23833  Biso   1.000  H
  C1111    1.0000 0.12592  0.24973  0.23805  Biso   1.000  C
  C1112    1.0000 0.75650  0.53847  0.12551  Biso   1.000  C
  C1113    1.0000 0.70321  0.45350  0.13267  Biso   1.000  C
  H1040    1.0000 0.94325  0.96232  0.17764  Biso   1.000  H
  C1114    1.0000 0.87295  0.92558  0.16952  Biso   1.000  C
  H1041    1.0000 0.92907  0.00273  0.17223  Biso   1.000  H
  C1115    1.0000 0.82138  0.10748  0.20064  Biso   1.000  C
  C1116    1.0000 0.89582  0.07329  0.17213  Biso   1.000  C
  H1042    1.0000 0.81197  0.94334  0.24453  Biso   1.000  H
  H1043    1.0000 0.83075  0.90833  0.23833  Biso   1.000  H
  C1117    1.0000 0.75027  0.87618  0.23805  Biso   1.000  C
  C1118    1.0000 0.97663  0.86178  0.21859  Biso   1.000  C
  C1119    1.0000 0.96345  0.87981  0.20066  Biso   1.000  C
  C1120    1.0000 0.48919  0.22914  0.16120  Biso   1.000  C
  C1121    1.0000 0.77084  0.26002  0.16120  Biso   1.000  C
  C1122    1.0000 0.91018  0.79489  0.20782  Biso   1.000  C
  H1044    1.0000 0.37278  0.27324  0.19944  Biso   1.000  H
  H1045    1.0000 0.35978  0.24703  0.18784  Biso   1.000  H
  C1123    1.0000 0.43188  0.26202  0.19346  Biso   1.000  C
  H1046    1.0000 0.11757  0.13684  0.18543  Biso   1.000  H
  H1047    1.0000 0.06226  0.11802  0.19114  Biso   1.000  H
  C1124    1.0000 0.05509  0.08559  0.17628  Biso   1.000  C
  H1048    1.0000 0.15886  0.06764  0.17073  Biso   1.000  H
  C1125    1.0000 0.18226  0.14153  0.16348  Biso   1.000  C
  H1049    1.0000 0.11088  0.25544  0.23153  Biso   1.000  H
  H1050    1.0000 0.16415  0.27403  0.23783  Biso   1.000  H
  C1126    1.0000 0.10275  0.26303  0.24774  Biso   1.000  C
  O58      1.0000 0.79439  0.59089  0.12678  Biso   1.000  O
  C1127    1.0000 0.73058  0.52356  0.11565  Biso   1.000  C
  O59      1.0000 0.68884  0.41982  0.14117  Biso   1.000  O
  C1128    1.0000 0.67597  0.43555  0.12298  Biso   1.000  C
  H1051    1.0000 0.86078  0.89182  0.17324  Biso   1.000  H
  H1052    1.0000 0.84256  0.93094  0.16873  Biso   1.000  H
  C1129    1.0000 0.89262  0.92265  0.15870  Biso   1.000  C
  H1053    1.0000 0.79335  0.07631  0.20434  Biso   1.000  H
  H1054    1.0000 0.82576  0.09681  0.19344  Biso   1.000  H
  C1130    1.0000 0.80630  0.14942  0.19986  Biso   1.000  C
  H1055    1.0000 0.93235  0.09121  0.17073  Biso   1.000  H
  C1131    1.0000 0.85845  0.04071  0.16348  Biso   1.000  C
  H1056    1.0000 0.74458  0.85544  0.23153  Biso   1.000  H
  H1057    1.0000 0.72598  0.89014  0.23783  Biso   1.000  H
  C1132    1.0000 0.73695  0.83972  0.24774  Biso   1.000  C
  O60      1.0000 0.00508  0.87770  0.22802  Biso   1.000  O
  C1133    1.0000 0.92258  0.82904  0.19944  Biso   1.000  C
  O61      1.0000 0.97782  0.91350  0.19216  Biso   1.000  O
  N121     1.0000 0.46927  0.21322  0.15226  Biso   1.000  N
  H1058    1.0000 0.50780  0.26568  0.16260  Biso   1.000  H
  N122     1.0000 0.78677  0.25603  0.15226  Biso   1.000  N
  H1059    1.0000 0.73431  0.24210  0.16260  Biso   1.000  H
  O62      1.0000 0.87227  0.74243  0.20656  Biso   1.000  O
  H1060    1.0000 0.45105  0.29671  0.19023  Biso   1.000  H
  H1061    1.0000 0.44716  0.26264  0.20043  Biso   1.000  H
  H1062    1.0000 0.43406  0.23643  0.18883  Biso   1.000  H
  H1063    1.0000 0.01904  0.05672  0.17764  Biso   1.000  H
  H1064    1.0000 0.07367  0.07092  0.17223  Biso   1.000  H
  C1134    1.0000 0.05262  0.12706  0.16952  Biso   1.000  C
  C1135    1.0000 0.20649  0.19501  0.16546  Biso   1.000  C
  C1136    1.0000 0.16118  0.12275  0.15372  Biso   1.000  C
  H1065    1.0000 0.11077  0.29945  0.24724  Biso   1.000  H
  H1066    1.0000 0.06477  0.23972  0.24783  Biso   1.000  H
  H1067    1.0000 0.11806  0.25834  0.25424  Biso   1.000  H
  C1137    1.0000 0.77415  0.61944  0.13269  Biso   1.000  C
  C1138    1.0000 0.69003  0.47153  0.11474  Biso   1.000  C
  C1139    1.0000 0.74577  0.56147  0.10669  Biso   1.000  C
  C1140    1.0000 0.64253  0.41563  0.14667  Biso   1.000  C
  C1141    1.0000 0.63408  0.37976  0.12144  Biso   1.000  C
  H1068    1.0000 0.86455  0.89382  0.15473  Biso   1.000  H
  H1069    1.0000 0.90396  0.95563  0.15494  Biso   1.000  H
  H1070    1.0000 0.92226  0.91655  0.15943  Biso   1.000  H
  H1071    1.0000 0.80607  0.16292  0.20703  Biso   1.000  H
  H1072    1.0000 0.83256  0.17891  0.19554  Biso   1.000  H
  C1142    1.0000 0.75312  0.12790  0.19488  Biso   1.000  C
  C1143    1.0000 0.80497  0.01145  0.16546  Biso   1.000  C
  C1144    1.0000 0.87722  0.03840  0.15372  Biso   1.000  C
  H1073    1.0000 0.70056  0.81132  0.24724  Biso   1.000  H
  H1074    1.0000 0.76028  0.82505  0.24783  Biso   1.000  H
  H1075    1.0000 0.74168  0.85975  0.25424  Biso   1.000  H
  C1145    1.0000 0.04494  0.86209  0.22852  Biso   1.000  C
  C1146    1.0000 0.89155  0.81183  0.18918  Biso   1.000  C
  C1147    1.0000 0.02412  0.91768  0.18667  Biso   1.000  C
  C1148    1.0000 0.47848  0.25359  0.14415  Biso   1.000  C
  C1149    1.0000 0.74640  0.22489  0.14415  Biso   1.000  C
  C1150    1.0000 0.89253  0.71391  0.20064  Biso   1.000  C
  H1076    1.0000 0.03106  0.13922  0.17324  Biso   1.000  H
  H1077    1.0000 0.08838  0.15745  0.16873  Biso   1.000  H
  C1151    1.0000 0.03001  0.10738  0.15870  Biso   1.000  C
  H1078    1.0000 0.21986  0.20835  0.17234  Biso   1.000  H
  C1152    1.0000 0.21104  0.22857  0.15740  Biso   1.000  C
  H1079    1.0000 0.14277  0.08614  0.15253  Biso   1.000  H
  C1153    1.0000 0.16615  0.15593  0.14564  Biso   1.000  C
  H1080    1.0000 0.74301  0.61631  0.12900  Biso   1.000  H
  H1081    1.0000 0.76350  0.60438  0.13990  Biso   1.000  H
  C1154    1.0000 0.81610  0.67644  0.13348  Biso   1.000  C
  O63      1.0000 0.66160  0.45565  0.10531  Biso   1.000  O
  N123     1.0000 0.72541  0.59691  0.10854  Biso   1.000  N
  H1082    1.0000 0.73161  0.54230  0.09990  Biso   1.000  H
  H1083    1.0000 0.78441  0.58189  0.10610  Biso   1.000  H
  H1084    1.0000 0.64741  0.45092  0.14790  Biso   1.000  H
  H1085    1.0000 0.61091  0.39561  0.14220  Biso   1.000  H
  C1155    1.0000 0.63619  0.38845  0.15705  Biso   1.000  C
  N124     1.0000 0.58226  0.37511  0.12190  Biso   1.000  N
  H1086    1.0000 0.63690  0.35782  0.12710  Biso   1.000  H
  H1087    1.0000 0.63879  0.36709  0.11450  Biso   1.000  H
  H1088    1.0000 0.72676  0.09950  0.19944  Biso   1.000  H
  H1089    1.0000 0.75296  0.11273  0.18784  Biso   1.000  H
  C1156    1.0000 0.73798  0.16984  0.19346  Biso   1.000  C
  C1157    1.0000 0.77140  0.98246  0.15740  Biso   1.000  C
  H1090    1.0000 0.79166  0.01153  0.17234  Biso   1.000  H
  H1091    1.0000 0.91388  0.05663  0.15253  Biso   1.000  H
  C1158    1.0000 0.84408  0.01020  0.14564  Biso   1.000  C
  H1092    1.0000 0.06696  0.87442  0.22203  Biso   1.000  H
  H1093    1.0000 0.02776  0.82352  0.22873  Biso   1.000  H
  C1159    1.0000 0.07811  0.88431  0.23805  Biso   1.000  C
  N125     1.0000 0.92271  0.80259  0.18107  Biso   1.000  N
  H1094    1.0000 0.85785  0.77932  0.19044  Biso   1.000  H
  H1095    1.0000 0.88409  0.83925  0.18663  Biso   1.000  H
  H1096    1.0000 0.01927  0.88244  0.18543  Biso   1.000  H
  H1097    1.0000 0.05577  0.93775  0.19114  Biso   1.000  H
  C1160    1.0000 0.03049  0.94491  0.17628  Biso   1.000  C
  C1161    1.0000 0.49570  0.23978  0.13389  Biso   1.000  C
  H1098    1.0000 0.44599  0.25480  0.14290  Biso   1.000  H
  H1099    1.0000 0.50589  0.28849  0.14670  Biso   1.000  H
  C1162    1.0000 0.76021  0.25591  0.13389  Biso   1.000  C
  H1100    1.0000 0.74521  0.19121  0.14290  Biso   1.000  H
  H1101    1.0000 0.71148  0.21738  0.14670  Biso   1.000  H
  H1102    1.0000 0.92367  0.71704  0.20434  Biso   1.000  H
  H1103    1.0000 0.90316  0.72893  0.19344  Biso   1.000  H
  C1163    1.0000 0.85056  0.65688  0.19986  Biso   1.000  C
  H1104    1.0000 0.02926  0.13543  0.15473  Biso   1.000  H
  H1105    1.0000 0.05168  0.09604  0.15494  Biso   1.000  H
  H1106    1.0000 0.99425  0.07773  0.15943  Biso   1.000  H
  H1107    1.0000 0.22777  0.26515  0.15873  Biso   1.000  H
  C1164    1.0000 0.19147  0.20948  0.14736  Biso   1.000  C
  H1108    1.0000 0.15215  0.14223  0.13883  Biso   1.000  H
  H1109    1.0000 0.82959  0.69021  0.12630  Biso   1.000  H
  H1110    1.0000 0.84560  0.67968  0.13780  Biso   1.000  H
  C1165    1.0000 0.79461  0.70812  0.13846  Biso   1.000  C
  C1166    1.0000 0.62171  0.47122  0.10481  Biso   1.000  C
  C1167    1.0000 0.75736  0.64522  0.10860  Biso   1.000  C
  H1111    1.0000 0.62902  0.35242  0.15570  Biso   1.000  H
  H1112    1.0000 0.66938  0.40699  0.16110  Biso   1.000  H
  C1168    1.0000 0.59225  0.38594  0.16381  Biso   1.000  C
  C1169    1.0000 0.55057  0.35035  0.11468  Biso   1.000  C
  H1113    1.0000 0.70325  0.15431  0.19023  Biso   1.000  H
  H1114    1.0000 0.73735  0.18451  0.20043  Biso   1.000  H
  H1115    1.0000 0.76355  0.19761  0.18883  Biso   1.000  H
  H1116    1.0000 0.73485  0.96263  0.15873  Biso   1.000  H
  C1170    1.0000 0.79051  0.98199  0.14736  Biso   1.000  C
  H1117    1.0000 0.85776  0.00992  0.13883  Biso   1.000  H
  H1118    1.0000 0.05668  0.86863  0.24453  Biso   1.000  H
  H1119    1.0000 0.09167  0.92241  0.23833  Biso   1.000  H
  C1171    1.0000 0.12382  0.87410  0.23805  Biso   1.000  C
  C1172    1.0000 0.92667  0.82251  0.17213  Biso   1.000  C
  H1120    1.0000 0.03766  0.98094  0.17764  Biso   1.000  H
  C1173    1.0000 0.07440  0.94737  0.16952  Biso   1.000  C
  H1121    1.0000 0.99728  0.92633  0.17223  Biso   1.000  H
  C1174    1.0000 0.54648  0.24968  0.13267  Biso   1.000  C
  C1175    1.0000 0.46155  0.21803  0.12551  Biso   1.000  C
  C1176    1.0000 0.78196  0.24351  0.12551  Biso   1.000  C
  C1177    1.0000 0.75030  0.29679  0.13267  Biso   1.000  C
  H1122    1.0000 0.83709  0.64315  0.20703  Biso   1.000  H
  H1123    1.0000 0.82106  0.65363  0.19554  Biso   1.000  H
  C1178    1.0000 0.87205  0.62519  0.19488  Biso   1.000  C
  C1179    1.0000 0.20167  0.24676  0.13817  Biso   1.000  C
  H1124    1.0000 0.76618  0.70609  0.13390  Biso   1.000  H
  H1125    1.0000 0.77941  0.69310  0.14550  Biso   1.000  H
  C1180    1.0000 0.83653  0.76520  0.13987  Biso   1.000  C
  H1126    1.0000 0.59970  0.45890  0.11130  Biso   1.000  H
  H1127    1.0000 0.63890  0.50979  0.10460  Biso   1.000  H
  C1181    1.0000 0.58855  0.44900  0.09528  Biso   1.000  C
  H1128    1.0000 0.79289  0.65700  0.10690  Biso   1.000  H
  C1182    1.0000 0.74229  0.68426  0.11119  Biso   1.000  C
  H1129    1.0000 0.55851  0.36439  0.16010  Biso   1.000  H
  H1130    1.0000 0.59760  0.42170  0.16460  Biso   1.000  H
  C1183    1.0000 0.58932  0.36333  0.17463  Biso   1.000  C
  C1184    1.0000 0.49871  0.34643  0.11437  Biso   1.000  C
  H1131    1.0000 0.55979  0.33368  0.10930  Biso   1.000  H
  C1185    1.0000 0.75323  0.95492  0.13817  Biso   1.000  C
  H1132    1.0000 0.14458  0.88912  0.23153  Biso   1.000  H
  H1133    1.0000 0.10987  0.83585  0.23783  Biso   1.000  H
  C1186    1.0000 0.16024  0.89722  0.24774  Biso   1.000  C
  H1134    1.0000 0.90877  0.84113  0.17073  Biso   1.000  H
  C1187    1.0000 0.95928  0.81773  0.16348  Biso   1.000  C
  H1135    1.0000 0.10815  0.96893  0.17324  Biso   1.000  H
  H1136    1.0000 0.06906  0.91162  0.16873  Biso   1.000  H
  C1188    1.0000 0.07734  0.96998  0.15870  Biso   1.000  C
  C1189    1.0000 0.56442  0.24037  0.12298  Biso   1.000  C
  O64      1.0000 0.58016  0.26900  0.14117  Biso   1.000  O
  C1190    1.0000 0.47643  0.20700  0.11565  Biso   1.000  C
  O65      1.0000 0.40911  0.20348  0.12678  Biso   1.000  O
  C1191    1.0000 0.79298  0.26941  0.11565  Biso   1.000  C
  O66      1.0000 0.79648  0.20561  0.12678  Biso   1.000  O
  C1192    1.0000 0.75960  0.32406  0.12298  Biso   1.000  C
  O67      1.0000 0.73099  0.31115  0.14117  Biso   1.000  O
  H1137    1.0000 0.90048  0.62723  0.19944  Biso   1.000  H
  H1138    1.0000 0.88727  0.64025  0.18784  Biso   1.000  H
  C1193    1.0000 0.83015  0.56816  0.19346  Biso   1.000  C
  C1194    1.0000 0.16277  0.25771  0.13516  Biso   1.000  C
  C1195    1.0000 0.24894  0.26331  0.13315  Biso   1.000  C
  H1139    1.0000 0.82099  0.78440  0.14310  Biso   1.000  H
  H1140    1.0000 0.85119  0.78049  0.13290  Biso   1.000  H
  H1141    1.0000 0.86428  0.76739  0.14450  Biso   1.000  H
  H1142    1.0000 0.60998  0.46469  0.08880  Biso   1.000  H
  H1143    1.0000 0.57499  0.41090  0.09500  Biso   1.000  H
  C1196    1.0000 0.54284  0.45921  0.09529  Biso   1.000  C
  C1197    1.0000 0.69248  0.66967  0.11432  Biso   1.000  C
  C1198    1.0000 0.77897  0.73668  0.11073  Biso   1.000  C
  H1144    1.0000 0.56049  0.36259  0.17860  Biso   1.000  H
  H1145    1.0000 0.62231  0.38500  0.17840  Biso   1.000  H
  H1146    1.0000 0.58321  0.32762  0.17390  Biso   1.000  H
  C1199    1.0000 0.48365  0.36834  0.12250  Biso   1.000  C
  C1200    1.0000 0.46452  0.32230  0.10595  Biso   1.000  C
  C1201    1.0000 0.74228  0.90505  0.13516  Biso   1.000  C
  C1202    1.0000 0.73670  0.98563  0.13315  Biso   1.000  C
  H1147    1.0000 0.18868  0.88924  0.24724  Biso   1.000  H
  H1148    1.0000 0.17499  0.93525  0.24783  Biso   1.000  H
  H1149    1.0000 0.14027  0.88193  0.25424  Biso   1.000  H
  C1203    1.0000 0.98853  0.79352  0.16546  Biso   1.000  C
  C1204    1.0000 0.96159  0.83882  0.15372  Biso   1.000  C
  H1150    1.0000 0.10617  0.97073  0.15473  Biso   1.000  H
  H1151    1.0000 0.04437  0.94835  0.15494  Biso   1.000  H
  H1152    1.0000 0.08346  0.00574  0.15943  Biso   1.000  H
  C1205    1.0000 0.62024  0.25430  0.12144  Biso   1.000  C
  C1206    1.0000 0.52843  0.21846  0.11474  Biso   1.000  C
  C1207    1.0000 0.58436  0.22691  0.14667  Biso   1.000  C
  C1208    1.0000 0.43852  0.18431  0.10669  Biso   1.000  C
  C1209    1.0000 0.38056  0.15470  0.13269  Biso   1.000  C
  C1210    1.0000 0.81566  0.25419  0.10669  Biso   1.000  C
  C1211    1.0000 0.78152  0.30998  0.11474  Biso   1.000  C
  C1212    1.0000 0.84528  0.22583  0.13269  Biso   1.000  C
  C1213    1.0000 0.74566  0.36591  0.12144  Biso   1.000  C
  C1214    1.0000 0.77308  0.35747  0.14667  Biso   1.000  C
  H1153    1.0000 0.84569  0.54895  0.19023  Biso   1.000  H
  H1154    1.0000 0.81547  0.55282  0.20043  Biso   1.000  H
  H1155    1.0000 0.80238  0.56593  0.18883  Biso   1.000  H
  N126     1.0000 0.16519  0.28607  0.12640  Biso   1.000  N
  C1215    1.0000 0.11251  0.23675  0.14013  Biso   1.000  C
  N127     1.0000 0.26861  0.29750  0.12458  Biso   1.000  N
  C1216    1.0000 0.28681  0.24766  0.13562  Biso   1.000  C
  H1156    1.0000 0.52208  0.44419  0.10180  Biso   1.000  H
  H1157    1.0000 0.55680  0.49751  0.09550  Biso   1.000  H
  C1217    1.0000 0.50641  0.43609  0.08559  Biso   1.000  C
  H1158    1.0000 0.66710  0.63360  0.11500  Biso   1.000  H
  C1218    1.0000 0.67901  0.70730  0.11655  Biso   1.000  C
  H1159    1.0000 0.81399  0.74709  0.10890  Biso   1.000  H
  C1219    1.0000 0.76547  0.77478  0.11296  Biso   1.000  C
  C1220    1.0000 0.43626  0.36564  0.12210  Biso   1.000  C
  H1160    1.0000 0.50651  0.38520  0.12830  Biso   1.000  H
  C1221    1.0000 0.41677  0.31995  0.10547  Biso   1.000  C
  H1161    1.0000 0.47431  0.30712  0.10040  Biso   1.000  H
  N128     1.0000 0.71390  0.87911  0.12640  Biso   1.000  N
  C1222    1.0000 0.76325  0.87579  0.14013  Biso   1.000  C
  N129     1.0000 0.70248  0.97112  0.12458  Biso   1.000  N
  C1223    1.0000 0.75235  0.03914  0.13562  Biso   1.000  C
  C1224    1.0000 0.01751  0.78894  0.15740  Biso   1.000  C
  H1162    1.0000 0.98848  0.78014  0.17234  Biso   1.000  H
  H1163    1.0000 0.94336  0.85724  0.15253  Biso   1.000  H
  C1225    1.0000 0.98980  0.83385  0.14564  Biso   1.000  C
  N130     1.0000 0.62489  0.20716  0.12190  Biso   1.000  N
  H1164    1.0000 0.64219  0.27910  0.12710  Biso   1.000  H
  H1165    1.0000 0.63290  0.27170  0.11450  Biso   1.000  H
  O68      1.0000 0.54436  0.20595  0.10531  Biso   1.000  O
  H1166    1.0000 0.54908  0.19648  0.14790  Biso   1.000  H
  H1167    1.0000 0.60440  0.21530  0.14220  Biso   1.000  H
  C1226    1.0000 0.61158  0.24776  0.15705  Biso   1.000  C
  N131     1.0000 0.40309  0.12849  0.10854  Biso   1.000  N
  H1168    1.0000 0.45771  0.18928  0.09990  Biso   1.000  H
  H1169    1.0000 0.41811  0.20250  0.10610  Biso   1.000  H
  H1170    1.0000 0.38369  0.12669  0.12900  Biso   1.000  H
  H1171    1.0000 0.39559  0.15908  0.13990  Biso   1.000  H
  C1227    1.0000 0.32353  0.13964  0.13348  Biso   1.000  C
  N132     1.0000 0.87150  0.27461  0.10854  Biso   1.000  N
  H1172    1.0000 0.81070  0.26839  0.09990  Biso   1.000  H
  H1173    1.0000 0.79751  0.21558  0.10610  Biso   1.000  H
  O69      1.0000 0.79405  0.33841  0.10531  Biso   1.000  O
  H1174    1.0000 0.87330  0.25701  0.12900  Biso   1.000  H
  H1175    1.0000 0.84090  0.23651  0.13990  Biso   1.000  H
  C1228    1.0000 0.86036  0.18390  0.13348  Biso   1.000  C
  N133     1.0000 0.79282  0.41775  0.12190  Biso   1.000  N
  H1176    1.0000 0.72091  0.36310  0.12710  Biso   1.000  H
  H1177    1.0000 0.72829  0.36118  0.11450  Biso   1.000  H
  H1178    1.0000 0.80352  0.35261  0.14790  Biso   1.000  H
  H1179    1.0000 0.78470  0.38911  0.14220  Biso   1.000  H
  C1229    1.0000 0.75223  0.36380  0.15705  Biso   1.000  C
  H1180    1.0000 0.19248  0.30399  0.12220  Biso   1.000  H
  C1230    1.0000 0.11701  0.28118  0.12537  Biso   1.000  C
  C1231    1.0000 0.08395  0.25091  0.13403  Biso   1.000  C
  H1181    1.0000 0.10141  0.21672  0.14650  Biso   1.000  H
  C1232    1.0000 0.31684  0.30426  0.12201  Biso   1.000  C
  H1182    1.0000 0.28369  0.22399  0.14110  Biso   1.000  H
  C1233    1.0000 0.32766  0.27258  0.12880  Biso   1.000  C
  H1183    1.0000 0.47800  0.44411  0.08610  Biso   1.000  H
  H1184    1.0000 0.49169  0.39811  0.08550  Biso   1.000  H
  H1185    1.0000 0.52639  0.45139  0.07910  Biso   1.000  H
  H1186    1.0000 0.64418  0.69658  0.11870  Biso   1.000  H
  C1234    1.0000 0.71463  0.75964  0.11581  Biso   1.000  C
  H1187    1.0000 0.79100  0.81081  0.11250  Biso   1.000  H
  C1235    1.0000 0.40195  0.34201  0.11344  Biso   1.000  C
  H1188    1.0000 0.42609  0.38000  0.12780  Biso   1.000  H
  H1189    1.0000 0.39401  0.30309  0.09960  Biso   1.000  H
  C1236    1.0000 0.71882  0.83585  0.12537  Biso   1.000  C
  H1190    1.0000 0.69599  0.88850  0.12220  Biso   1.000  H
  C1237    1.0000 0.74909  0.83303  0.13403  Biso   1.000  C
  H1191    1.0000 0.78330  0.88470  0.14650  Biso   1.000  H
  C1238    1.0000 0.69572  0.01254  0.12201  Biso   1.000  C
  H1192    1.0000 0.77600  0.05968  0.14110  Biso   1.000  H
  C1239    1.0000 0.72741  0.05507  0.12880  Biso   1.000  C
  H1193    1.0000 0.03738  0.77224  0.15873  Biso   1.000  H
  C1240    1.0000 0.01803  0.80854  0.14736  Biso   1.000  C
  H1194    1.0000 0.99007  0.84782  0.13883  Biso   1.000  H
  C1241    1.0000 0.64968  0.20023  0.11468  Biso   1.000  C
  C1242    1.0000 0.52876  0.15048  0.10481  Biso   1.000  C
  H1195    1.0000 0.64761  0.27659  0.15570  Biso   1.000  H
  H1196    1.0000 0.59298  0.26239  0.16110  Biso   1.000  H
  C1243    1.0000 0.61404  0.20626  0.16381  Biso   1.000  C
  C1244    1.0000 0.35477  0.11214  0.10860  Biso   1.000  C
  H1197    1.0000 0.30979  0.13941  0.12630  Biso   1.000  H
  H1198    1.0000 0.32029  0.16589  0.13780  Biso   1.000  H
  C1245    1.0000 0.29185  0.08644  0.13846  Biso   1.000  C
  C1246    1.0000 0.88786  0.24261  0.10860  Biso   1.000  C
  C1247    1.0000 0.84951  0.37828  0.10481  Biso   1.000  C
  H1199    1.0000 0.86059  0.17040  0.12630  Biso   1.000  H
  H1200    1.0000 0.83409  0.15440  0.13780  Biso   1.000  H
  C1248    1.0000 0.91353  0.20541  0.13846  Biso   1.000  C
  C1249    1.0000 0.79976  0.44943  0.11468  Biso   1.000  C
  H1201    1.0000 0.72341  0.37100  0.15570  Biso   1.000  H
  H1202    1.0000 0.73759  0.33059  0.16110  Biso   1.000  H
  C1250    1.0000 0.79373  0.40777  0.16381  Biso   1.000  C
  C1251    1.0000 0.10128  0.30094  0.11701  Biso   1.000  C
  H1203    1.0000 0.04878  0.24250  0.13520  Biso   1.000  H
  C1252    1.0000 0.34955  0.33701  0.11396  Biso   1.000  C
  H1204    1.0000 0.35810  0.26929  0.12860  Biso   1.000  H
  C1253    1.0000 0.69907  0.80033  0.11701  Biso   1.000  C
  H1205    1.0000 0.75752  0.80631  0.13520  Biso   1.000  H
  C1254    1.0000 0.66299  0.01254  0.11396  Biso   1.000  C
  H1206    1.0000 0.73069  0.08879  0.12860  Biso   1.000  H
  C1255    1.0000 0.04506  0.79829  0.13817  Biso   1.000  C
  C1256    1.0000 0.65355  0.15228  0.11437  Biso   1.000  C
  H1207    1.0000 0.66630  0.22609  0.10930  Biso   1.000  H
  H1208    1.0000 0.54108  0.14077  0.11130  Biso   1.000  H
  H1209    1.0000 0.49018  0.12908  0.10460  Biso   1.000  H
  C1257    1.0000 0.55099  0.13952  0.09528  Biso   1.000  C
  H1210    1.0000 0.63560  0.19409  0.16010  Biso   1.000  H
  H1211    1.0000 0.57830  0.17590  0.16460  Biso   1.000  H
  C1258    1.0000 0.63667  0.22597  0.17463  Biso   1.000  C
  C1259    1.0000 0.31576  0.05804  0.11119  Biso   1.000  C
  H1212    1.0000 0.34299  0.13588  0.10690  Biso   1.000  H
  H1213    1.0000 0.29388  0.06007  0.13390  Biso   1.000  H
  H1214    1.0000 0.30688  0.08628  0.14550  Biso   1.000  H
  C1260    1.0000 0.23478  0.07130  0.13987  Biso   1.000  C
  C1261    1.0000 0.94195  0.25771  0.11119  Biso   1.000  C
  H1215    1.0000 0.86410  0.20709  0.10690  Biso   1.000  H
  H1216    1.0000 0.85921  0.40030  0.11130  Biso   1.000  H
  H1217    1.0000 0.87091  0.36110  0.10460  Biso   1.000  H
  C1262    1.0000 0.86044  0.41145  0.09528  Biso   1.000  C
  H1218    1.0000 0.93990  0.23381  0.13390  Biso   1.000  H
  H1219    1.0000 0.91370  0.22059  0.14550  Biso   1.000  H
  C1263    1.0000 0.92868  0.16348  0.13987  Biso   1.000  C
  H1220    1.0000 0.77390  0.44020  0.10930  Biso   1.000  H
  C1264    1.0000 0.84775  0.50130  0.11437  Biso   1.000  C
  H1221    1.0000 0.80588  0.44149  0.16010  Biso   1.000  H
  H1222    1.0000 0.82411  0.40241  0.16460  Biso   1.000  H
  C1265    1.0000 0.77404  0.41067  0.17463  Biso   1.000  C
  C1266    1.0000 0.13299  0.33204  0.10868  Biso   1.000  C
  C1267    1.0000 0.04502  0.28537  0.11581  Biso   1.000  C
  C1268    1.0000 0.33681  0.36513  0.10666  Biso   1.000  C
  C1269    1.0000 0.66797  0.80095  0.10868  Biso   1.000  C
  C1270    1.0000 0.63488  0.97170  0.10666  Biso   1.000  C
  C1271    1.0000 0.65795  0.05992  0.11344  Biso   1.000  C
  C1272    1.0000 0.01435  0.75104  0.13315  Biso   1.000  C
  C1273    1.0000 0.09494  0.83721  0.13516  Biso   1.000  C
  C1274    1.0000 0.63166  0.11527  0.12250  Biso   1.000  C
  C1275    1.0000 0.67769  0.14222  0.10595  Biso   1.000  C
  H1223    1.0000 0.53530  0.14527  0.08880  Biso   1.000  H
  H1224    1.0000 0.58909  0.16409  0.09500  Biso   1.000  H
  C1276    1.0000 0.54074  0.08358  0.09529  Biso   1.000  C
  H1225    1.0000 0.63739  0.19789  0.17860  Biso   1.000  H
  H1226    1.0000 0.61498  0.23728  0.17840  Biso   1.000  H
  H1227    1.0000 0.67241  0.25559  0.17390  Biso   1.000  H
  C1277    1.0000 0.33034  0.02283  0.11432  Biso   1.000  C
  C1278    1.0000 0.26333  0.04227  0.11073  Biso   1.000  C
  H1228    1.0000 0.21560  0.03660  0.14310  Biso   1.000  H
  H1229    1.0000 0.21950  0.07067  0.13290  Biso   1.000  H
  H1230    1.0000 0.23260  0.09688  0.14450  Biso   1.000  H
  C1279    1.0000 0.97719  0.30751  0.11432  Biso   1.000  C
  C1280    1.0000 0.95769  0.22102  0.11073  Biso   1.000  C
  H1231    1.0000 0.85470  0.39001  0.08880  Biso   1.000  H
  H1232    1.0000 0.83591  0.42498  0.09500  Biso   1.000  H
  C1281    1.0000 0.91641  0.45718  0.09529  Biso   1.000  C
  H1233    1.0000 0.96341  0.17901  0.14310  Biso   1.000  H
  H1234    1.0000 0.92931  0.14881  0.13290  Biso   1.000  H
  H1235    1.0000 0.90310  0.13570  0.14450  Biso   1.000  H
  C1282    1.0000 0.88468  0.51636  0.12250  Biso   1.000  C
  C1283    1.0000 0.85779  0.53549  0.10595  Biso   1.000  C
  H1236    1.0000 0.80210  0.43950  0.17860  Biso   1.000  H
  H1237    1.0000 0.76270  0.37769  0.17840  Biso   1.000  H
  H1238    1.0000 0.74442  0.41681  0.17390  Biso   1.000  H
  N134     1.0000 0.18609  0.35097  0.10753  Biso   1.000  N
  C1284    1.0000 0.11624  0.34937  0.09974  Biso   1.000  C
  C1285    1.0000 0.02826  0.32097  0.11655  Biso   1.000  C
  C1286    1.0000 0.00934  0.23455  0.11296  Biso   1.000  C
  N135     1.0000 0.29005  0.36302  0.10599  Biso   1.000  N
  C1287    1.0000 0.37170  0.39967  0.09867  Biso   1.000  C
  N136     1.0000 0.64906  0.83514  0.10753  Biso   1.000  N
  C1288    1.0000 0.65067  0.76688  0.09974  Biso   1.000  C
  N137     1.0000 0.63697  0.92703  0.10599  Biso   1.000  N
  C1289    1.0000 0.60033  0.97206  0.09867  Biso   1.000  C
  C1290    1.0000 0.63432  0.07060  0.12210  Biso   1.000  C
  C1291    1.0000 0.68005  0.09681  0.10547  Biso   1.000  C
  N138     1.0000 0.02887  0.73136  0.12458  Biso   1.000  N
  C1292    1.0000 0.96085  0.71321  0.13562  Biso   1.000  C
  N139     1.0000 0.12086  0.83479  0.12640  Biso   1.000  N
  C1293    1.0000 0.12421  0.88748  0.14013  Biso   1.000  C
  H1239    1.0000 0.61478  0.12129  0.12830  Biso   1.000  H
  H1240    1.0000 0.69288  0.16718  0.10040  Biso   1.000  H
  H1241    1.0000 0.55577  0.07787  0.10180  Biso   1.000  H
  H1242    1.0000 0.50251  0.05929  0.09550  Biso   1.000  H
  C1294    1.0000 0.56390  0.07028  0.08559  Biso   1.000  C
  C1295    1.0000 0.29270  0.97174  0.11655  Biso   1.000  C
  H1243    1.0000 0.36639  0.03347  0.11500  Biso   1.000  H
  C1296    1.0000 0.22520  0.99068  0.11296  Biso   1.000  C
  H1244    1.0000 0.25290  0.06688  0.10890  Biso   1.000  H
  H1245    1.0000 0.96650  0.33290  0.11500  Biso   1.000  H
  H1246    1.0000 0.93310  0.18601  0.10890  Biso   1.000  H
  H1247    1.0000 0.92210  0.47791  0.10180  Biso   1.000  H
  H1248    1.0000 0.94069  0.44321  0.09550  Biso   1.000  H
  C1297    1.0000 0.92970  0.49360  0.08559  Biso   1.000  C
  H1249    1.0000 0.87871  0.49352  0.12830  Biso   1.000  H
  C1298    1.0000 0.92941  0.56374  0.12210  Biso   1.000  C
  H1250    1.0000 0.83281  0.52571  0.10040  Biso   1.000  H
  C1299    1.0000 0.90322  0.58326  0.10547  Biso   1.000  C
  C1300    1.0000 0.20306  0.37902  0.09812  Biso   1.000  C
  C1301    1.0000 0.15783  0.37718  0.09348  Biso   1.000  C
  H1251    1.0000 0.08160  0.34240  0.09840  Biso   1.000  H
  H1252    1.0000 0.05237  0.35578  0.11870  Biso   1.000  H
  H1253    1.0000 0.01981  0.20901  0.11250  Biso   1.000  H
  H1254    1.0000 0.26271  0.34499  0.11010  Biso   1.000  H
  C1302    1.0000 0.29352  0.39447  0.09761  Biso   1.000  C
  H1255    1.0000 0.40690  0.40808  0.09760  Biso   1.000  H
  C1303    1.0000 0.34542  0.41798  0.09302  Biso   1.000  C
  C1304    1.0000 0.62097  0.82403  0.09812  Biso   1.000  C
  C1305    1.0000 0.62279  0.78065  0.09348  Biso   1.000  C
  H1256    1.0000 0.65759  0.73918  0.09840  Biso   1.000  H
  C1306    1.0000 0.60552  0.89902  0.09761  Biso   1.000  C
  H1257    1.0000 0.65499  0.91768  0.11010  Biso   1.000  H
  C1307    1.0000 0.58201  0.92742  0.09302  Biso   1.000  C
  H1258    1.0000 0.59189  0.99881  0.09760  Biso   1.000  H
  H1259    1.0000 0.61999  0.04607  0.12780  Biso   1.000  H
  H1260    1.0000 0.69692  0.09090  0.09960  Biso   1.000  H
  C1308    1.0000 0.98743  0.68317  0.12201  Biso   1.000  C
  C1309    1.0000 0.94491  0.67233  0.12880  Biso   1.000  C
  H1261    1.0000 0.94030  0.71630  0.14110  Biso   1.000  H
  H1262    1.0000 0.11148  0.80748  0.12220  Biso   1.000  H
  C1310    1.0000 0.16417  0.88298  0.12537  Biso   1.000  C
  C1311    1.0000 0.16694  0.91604  0.13403  Biso   1.000  C
  H1263    1.0000 0.11530  0.89859  0.14650  Biso   1.000  H
  H1264    1.0000 0.55591  0.03390  0.08610  Biso   1.000  H
  H1265    1.0000 0.60188  0.09360  0.08550  Biso   1.000  H
  H1266    1.0000 0.54860  0.07498  0.07910  Biso   1.000  H
  C1312    1.0000 0.24039  0.95500  0.11581  Biso   1.000  C
  H1267    1.0000 0.30340  0.94761  0.11870  Biso   1.000  H
  H1268    1.0000 0.18920  0.98019  0.11250  Biso   1.000  H
  H1269    1.0000 0.96609  0.52200  0.08610  Biso   1.000  H
  H1270    1.0000 0.90640  0.50831  0.08550  Biso   1.000  H
  H1271    1.0000 0.92499  0.47361  0.07910  Biso   1.000  H
  H1272    1.0000 0.95390  0.57391  0.12780  Biso   1.000  H
  C1313    1.0000 0.94009  0.59804  0.11344  Biso   1.000  C
  H1273    1.0000 0.90910  0.60599  0.09960  Biso   1.000  H
  C1314    1.0000 0.25239  0.40030  0.09374  Biso   1.000  C
  H1274    1.0000 0.15738  0.39330  0.08700  Biso   1.000  H
  H1275    1.0000 0.35842  0.44161  0.08720  Biso   1.000  H
  C1315    1.0000 0.59970  0.85208  0.09374  Biso   1.000  C
  H1276    1.0000 0.60669  0.76410  0.08700  Biso   1.000  H
  H1277    1.0000 0.55840  0.91678  0.08720  Biso   1.000  H
  C1316    1.0000 0.98744  0.65046  0.11396  Biso   1.000  C
  H1278    1.0000 0.91120  0.64190  0.12860  Biso   1.000  H
  C1317    1.0000 0.19964  0.89871  0.11701  Biso   1.000  C
  H1279    1.0000 0.19371  0.95121  0.13520  Biso   1.000  H
  C1318    1.0000 0.25993  0.42948  0.08353  Biso   1.000  C
  C1319    1.0000 0.57052  0.83045  0.08353  Biso   1.000  C
  C1320    1.0000 0.02832  0.66318  0.10666  Biso   1.000  C
  C1321    1.0000 0.19904  0.86702  0.10868  Biso   1.000  C
  C1322    1.0000 0.26959  0.41059  0.07419  Biso   1.000  C
  C1323    1.0000 0.25209  0.47247  0.08304  Biso   1.000  C
  C1324    1.0000 0.58940  0.85900  0.07419  Biso   1.000  C
  C1325    1.0000 0.52751  0.77959  0.08304  Biso   1.000  C
  N140     1.0000 0.07296  0.70992  0.10599  Biso   1.000  N
  C1326    1.0000 0.02794  0.62828  0.09867  Biso   1.000  C
  N141     1.0000 0.16486  0.81390  0.10753  Biso   1.000  N
  C1327    1.0000 0.23313  0.88377  0.09974  Biso   1.000  C
  H1280    1.0000 0.27589  0.38199  0.07440  Biso   1.000  H
  C1328    1.0000 0.27002  0.43320  0.06462  Biso   1.000  C
  H1281    1.0000 0.24691  0.48671  0.08940  Biso   1.000  H
  C1329    1.0000 0.25187  0.49438  0.07330  Biso   1.000  C
  C1330    1.0000 0.56680  0.83682  0.06462  Biso   1.000  C
  H1282    1.0000 0.61800  0.89390  0.07440  Biso   1.000  H
  C1331    1.0000 0.50562  0.75749  0.07330  Biso   1.000  C
  H1283    1.0000 0.51330  0.76019  0.08940  Biso   1.000  H
  H1284    1.0000 0.08232  0.73731  0.11010  Biso   1.000  H
  C1332    1.0000 0.10095  0.70648  0.09761  Biso   1.000  C
  H1285    1.0000 0.00121  0.59312  0.09760  Biso   1.000  H
  C1333    1.0000 0.07256  0.65457  0.09302  Biso   1.000  C
  C1334    1.0000 0.17595  0.79692  0.09812  Biso   1.000  C
  C1335    1.0000 0.21936  0.84214  0.09348  Biso   1.000  C
  H1286    1.0000 0.26081  0.91839  0.09840  Biso   1.000  H
  H1287    1.0000 0.27762  0.42060  0.05830  Biso   1.000  H
  C1336    1.0000 0.25957  0.47435  0.06396  Biso   1.000  C
  H1288    1.0000 0.24640  0.52348  0.07300  Biso   1.000  H
  C1337    1.0000 0.52565  0.78523  0.06396  Biso   1.000  C
  H1289    1.0000 0.57940  0.85701  0.05830  Biso   1.000  H
  H1290    1.0000 0.47650  0.72291  0.07300  Biso   1.000  H
  C1338    1.0000 0.14792  0.74763  0.09374  Biso   1.000  C
  H1291    1.0000 0.08321  0.64158  0.08720  Biso   1.000  H
  H1292    1.0000 0.23589  0.84261  0.08700  Biso   1.000  H
  C1339    1.0000 0.25960  0.49637  0.05350  Biso   1.000  C
  C1340    1.0000 0.50359  0.76320  0.05350  Biso   1.000  C
  C1341    1.0000 0.16955  0.74008  0.08353  Biso   1.000  C
  N142     1.0000 0.24942  0.53354  0.05240  Biso   1.000  N
  H1293    1.0000 0.26739  0.48268  0.04740  Biso   1.000  H
  N143     1.0000 0.46646  0.71591  0.05240  Biso   1.000  N
  H1294    1.0000 0.51730  0.78472  0.04740  Biso   1.000  H
  C1342    1.0000 0.14095  0.73038  0.07419  Biso   1.000  C
  C1343    1.0000 0.22039  0.74791  0.08304  Biso   1.000  C
  C1344    1.0000 0.25590  0.55556  0.04166  Biso   1.000  C
  C1345    1.0000 0.44445  0.70034  0.04166  Biso   1.000  C
  C1346    1.0000 0.16317  0.72995  0.06462  Biso   1.000  C
  H1295    1.0000 0.10610  0.72408  0.07440  Biso   1.000  H
  C1347    1.0000 0.24250  0.74810  0.07330  Biso   1.000  C
  H1296    1.0000 0.23979  0.75311  0.08940  Biso   1.000  H
  H1297    1.0000 0.26769  0.53741  0.03670  Biso   1.000  H
  H1298    1.0000 0.22201  0.55040  0.03910  Biso   1.000  H
  C1348    1.0000 0.29553  0.61295  0.04197  Biso   1.000  C
  C1349    1.0000 0.38706  0.68258  0.04197  Biso   1.000  C
  H1299    1.0000 0.46262  0.73030  0.03670  Biso   1.000  H
  H1300    1.0000 0.44959  0.67159  0.03910  Biso   1.000  H
  C1350    1.0000 0.21479  0.74044  0.06396  Biso   1.000  C
  H1301    1.0000 0.14300  0.72240  0.05830  Biso   1.000  H
  H1302    1.0000 0.27711  0.75362  0.07300  Biso   1.000  H
  C1351    1.0000 0.34876  0.63004  0.04218  Biso   1.000  C
  C1352    1.0000 0.28128  0.65125  0.04218  Biso   1.000  C
  C1353    1.0000 0.36997  0.71872  0.04218  Biso   1.000  C
  C1354    1.0000 0.23679  0.74040  0.05350  Biso   1.000  C
  O70      1.0000 0.36394  0.59210  0.04219  Biso   1.000  O
  O71      1.0000 0.22816  0.63607  0.04219  Biso   1.000  O
  C1355    1.0000 0.31742  0.70449  0.04197  Biso   1.000  C
  O72      1.0000 0.40791  0.77185  0.04219  Biso   1.000  O
  N144     1.0000 0.28408  0.75057  0.05240  Biso   1.000  N
  H1303    1.0000 0.21531  0.73261  0.04740  Biso   1.000  H
  C1356    1.0000 0.38184  0.58549  0.05260  Biso   1.000  C
  C1357    1.0000 0.20365  0.61815  0.05260  Biso   1.000  C
  C1358    1.0000 0.29966  0.74411  0.04166  Biso   1.000  C
  C1359    1.0000 0.41450  0.79634  0.05260  Biso   1.000  C
  H1304    1.0000 0.41440  0.61768  0.05460  Biso   1.000  H
  H1305    1.0000 0.35490  0.57848  0.05810  Biso   1.000  H
  C1360    1.0000 0.39167  0.54003  0.05192  Biso   1.000  C
  H1306    1.0000 0.20330  0.58560  0.05460  Biso   1.000  H
  H1307    1.0000 0.22360  0.64510  0.05810  Biso   1.000  H
  C1361    1.0000 0.14836  0.60833  0.05192  Biso   1.000  C
  H1308    1.0000 0.26970  0.73230  0.03670  Biso   1.000  H
  H1309    1.0000 0.32839  0.77799  0.03910  Biso   1.000  H
  H1310    1.0000 0.38229  0.79669  0.05460  Biso   1.000  H
  H1311    1.0000 0.42149  0.77639  0.05810  Biso   1.000  H
  C1362    1.0000 0.45997  0.85165  0.05192  Biso   1.000  C
  H1312    1.0000 0.36020  0.50901  0.04900  Biso   1.000  H
  H1313    1.0000 0.42111  0.54891  0.04700  Biso   1.000  H
  C1363    1.0000 0.40463  0.52693  0.06294  Biso   1.000  C
  H1314    1.0000 0.14878  0.63978  0.04900  Biso   1.000  H
  H1315    1.0000 0.12779  0.57892  0.04700  Biso   1.000  H
  C1364    1.0000 0.12229  0.59534  0.06294  Biso   1.000  C
  H1316    1.0000 0.49099  0.85122  0.04900  Biso   1.000  H
  H1317    1.0000 0.45110  0.87219  0.04700  Biso   1.000  H
  C1365    1.0000 0.47307  0.87770  0.06294  Biso   1.000  C
  H1318    1.0000 0.37570  0.51942  0.06790  Biso   1.000  H
  H1319    1.0000 0.43669  0.55771  0.06570  Biso   1.000  H
  C1366    1.0000 0.41317  0.47991  0.06261  Biso   1.000  C
  H1320    1.0000 0.14371  0.62429  0.06790  Biso   1.000  H
  H1321    1.0000 0.12101  0.56331  0.06570  Biso   1.000  H
  C1367    1.0000 0.06670  0.58682  0.06261  Biso   1.000  C
  H1322    1.0000 0.48059  0.85630  0.06790  Biso   1.000  H
  H1323    1.0000 0.44231  0.87899  0.06570  Biso   1.000  H
  C1368    1.0000 0.52010  0.93329  0.06261  Biso   1.000  C
  H1324    1.0000 0.42129  0.47298  0.06980  Biso   1.000  H
  H1325    1.0000 0.44230  0.48750  0.05780  Biso   1.000  H
  H1326    1.0000 0.38129  0.44908  0.06000  Biso   1.000  H
  H1327    1.0000 0.05171  0.57872  0.06980  Biso   1.000  H
  H1328    1.0000 0.04520  0.55771  0.05780  Biso   1.000  H
  H1329    1.0000 0.06780  0.61870  0.06000  Biso   1.000  H
  H1330    1.0000 0.52700  0.94831  0.06980  Biso   1.000  H
  H1331    1.0000 0.51250  0.95480  0.05780  Biso   1.000  H
  H1332    1.0000 0.55089  0.93219  0.06000  Biso   1.000  H
  C1369    1.0000 0.29967  0.55556  0.54166  Biso   1.000  C
  N145     1.0000 0.28411  0.53354  0.55240  Biso   1.000  N
  H1333    1.0000 0.26972  0.53741  0.53670  Biso   1.000  H
  H1334    1.0000 0.32839  0.55040  0.53910  Biso   1.000  H
  C1370    1.0000 0.31742  0.61295  0.54197  Biso   1.000  C
  C1371    1.0000 0.23677  0.49637  0.55350  Biso   1.000  C
  C1372    1.0000 0.36997  0.65125  0.54218  Biso   1.000  C
  C1373    1.0000 0.28128  0.63004  0.54218  Biso   1.000  C
  C1374    1.0000 0.21478  0.47435  0.56396  Biso   1.000  C
  H1335    1.0000 0.21529  0.48268  0.54740  Biso   1.000  H
  O73      1.0000 0.40791  0.63607  0.54219  Biso   1.000  O
  C1375    1.0000 0.38707  0.70449  0.54197  Biso   1.000  C
  O74      1.0000 0.22816  0.59210  0.54219  Biso   1.000  O
  C1376    1.0000 0.29552  0.68258  0.54197  Biso   1.000  C
  C1377    1.0000 0.16317  0.43320  0.56462  Biso   1.000  C
  C1378    1.0000 0.24251  0.49438  0.57330  Biso   1.000  C
  C1379    1.0000 0.41450  0.61815  0.55260  Biso   1.000  C
  C1380    1.0000 0.44445  0.74411  0.54166  Biso   1.000  C
  C1381    1.0000 0.34876  0.71872  0.54218  Biso   1.000  C
  C1382    1.0000 0.20365  0.58549  0.55260  Biso   1.000  C
  C1383    1.0000 0.25589  0.70034  0.54166  Biso   1.000  C
  C1384    1.0000 0.14099  0.41059  0.57419  Biso   1.000  C
  H1336    1.0000 0.14299  0.42060  0.55830  Biso   1.000  H
  C1385    1.0000 0.22038  0.47247  0.58304  Biso   1.000  C
  H1337    1.0000 0.27709  0.52348  0.57300  Biso   1.000  H
  H1338    1.0000 0.38231  0.58560  0.55460  Biso   1.000  H
  H1339    1.0000 0.42151  0.64510  0.55810  Biso   1.000  H
  C1386    1.0000 0.45997  0.60833  0.55192  Biso   1.000  C
  N146     1.0000 0.46648  0.75057  0.55240  Biso   1.000  N
  H1340    1.0000 0.46260  0.73230  0.53670  Biso   1.000  H
  H1341    1.0000 0.44960  0.77799  0.53910  Biso   1.000  H
  O75      1.0000 0.36394  0.77185  0.54219  Biso   1.000  O
  H1342    1.0000 0.20328  0.61768  0.55460  Biso   1.000  H
  H1343    1.0000 0.22359  0.57848  0.55810  Biso   1.000  H
  C1387    1.0000 0.14836  0.54003  0.55192  Biso   1.000  C
  N147     1.0000 0.24944  0.71591  0.55240  Biso   1.000  N
  H1344    1.0000 0.26769  0.73030  0.53670  Biso   1.000  H
  H1345    1.0000 0.22200  0.67159  0.53910  Biso   1.000  H
  C1388    1.0000 0.16955  0.42948  0.58353  Biso   1.000  C
  H1346    1.0000 0.10610  0.38199  0.57440  Biso   1.000  H
  H1347    1.0000 0.23980  0.48671  0.58940  Biso   1.000  H
  H1348    1.0000 0.49101  0.63978  0.54900  Biso   1.000  H
  H1349    1.0000 0.45112  0.57892  0.54700  Biso   1.000  H
  C1389    1.0000 0.47306  0.59534  0.56294  Biso   1.000  C
  C1390    1.0000 0.50361  0.74040  0.55350  Biso   1.000  C
  C1391    1.0000 0.38184  0.79634  0.55260  Biso   1.000  C
  H1350    1.0000 0.14881  0.50901  0.54900  Biso   1.000  H
  H1351    1.0000 0.12780  0.54891  0.54700  Biso   1.000  H
  C1392    1.0000 0.12230  0.52693  0.56294  Biso   1.000  C
  C1393    1.0000 0.25961  0.76320  0.55350  Biso   1.000  C
  C1394    1.0000 0.14791  0.40030  0.59374  Biso   1.000  C
  H1352    1.0000 0.48059  0.62429  0.56790  Biso   1.000  H
  H1353    1.0000 0.44230  0.56331  0.56570  Biso   1.000  H
  C1395    1.0000 0.52012  0.58682  0.56261  Biso   1.000  C
  C1396    1.0000 0.52565  0.74044  0.56396  Biso   1.000  C
  H1354    1.0000 0.51730  0.73261  0.54740  Biso   1.000  H
  H1355    1.0000 0.41440  0.79669  0.55460  Biso   1.000  H
  H1356    1.0000 0.35489  0.77639  0.55810  Biso   1.000  H
  C1397    1.0000 0.39168  0.85165  0.55192  Biso   1.000  C
  H1357    1.0000 0.14371  0.51942  0.56790  Biso   1.000  H
  H1358    1.0000 0.12102  0.55771  0.56570  Biso   1.000  H
  C1398    1.0000 0.06674  0.47991  0.56261  Biso   1.000  C
  C1399    1.0000 0.25958  0.78523  0.56396  Biso   1.000  C
  H1359    1.0000 0.26742  0.78472  0.54740  Biso   1.000  H
  C1400    1.0000 0.10096  0.39447  0.59761  Biso   1.000  C
  C1401    1.0000 0.17596  0.37902  0.59812  Biso   1.000  C
  H1360    1.0000 0.52701  0.57872  0.56980  Biso   1.000  H
  H1361    1.0000 0.51251  0.55771  0.55780  Biso   1.000  H
  H1362    1.0000 0.55090  0.61870  0.56000  Biso   1.000  H
  C1402    1.0000 0.56678  0.72995  0.56462  Biso   1.000  C
  C1403    1.0000 0.50560  0.74810  0.57330  Biso   1.000  C
  H1363    1.0000 0.36023  0.85122  0.54900  Biso   1.000  H
  H1364    1.0000 0.42109  0.87219  0.54700  Biso   1.000  H
  C1404    1.0000 0.40463  0.87770  0.56294  Biso   1.000  C
  H1365    1.0000 0.05169  0.47298  0.56980  Biso   1.000  H
  H1366    1.0000 0.04519  0.48750  0.55780  Biso   1.000  H
  H1367    1.0000 0.06779  0.44908  0.56000  Biso   1.000  H
  C1405    1.0000 0.27003  0.83682  0.56462  Biso   1.000  C
  C1406    1.0000 0.25187  0.75749  0.57330  Biso   1.000  C
  N148     1.0000 0.07297  0.36302  0.60599  Biso   1.000  N
  C1407    1.0000 0.07257  0.41798  0.59302  Biso   1.000  C
  N149     1.0000 0.16488  0.35097  0.60753  Biso   1.000  N
  C1408    1.0000 0.21935  0.37718  0.59348  Biso   1.000  C
  C1409    1.0000 0.58943  0.73038  0.57419  Biso   1.000  C
  H1368    1.0000 0.57941  0.72240  0.55830  Biso   1.000  H
  C1410    1.0000 0.52752  0.74791  0.58304  Biso   1.000  C
  H1369    1.0000 0.47651  0.75362  0.57300  Biso   1.000  H
  H1370    1.0000 0.37571  0.85630  0.56790  Biso   1.000  H
  H1371    1.0000 0.43668  0.87899  0.56570  Biso   1.000  H
  C1411    1.0000 0.41319  0.93329  0.56261  Biso   1.000  C
  C1412    1.0000 0.26960  0.85900  0.57419  Biso   1.000  C
  H1372    1.0000 0.27761  0.85701  0.55830  Biso   1.000  H
  C1413    1.0000 0.25208  0.77959  0.58304  Biso   1.000  C
  H1373    1.0000 0.24641  0.72291  0.57300  Biso   1.000  H
  H1374    1.0000 0.08228  0.34499  0.61010  Biso   1.000  H
  C1414    1.0000 0.02832  0.36513  0.60666  Biso   1.000  C
  C1415    1.0000 0.02798  0.39967  0.59867  Biso   1.000  C
  H1375    1.0000 0.08319  0.44161  0.58720  Biso   1.000  H
  C1416    1.0000 0.19905  0.33204  0.60868  Biso   1.000  C
  H1376    1.0000 0.23591  0.39330  0.58700  Biso   1.000  H
  C1417    1.0000 0.23312  0.34937  0.59974  Biso   1.000  C
  C1418    1.0000 0.57053  0.74008  0.58353  Biso   1.000  C
  H1377    1.0000 0.61799  0.72408  0.57440  Biso   1.000  H
  H1378    1.0000 0.51332  0.75311  0.58940  Biso   1.000  H
  H1379    1.0000 0.42131  0.94831  0.56980  Biso   1.000  H
  H1380    1.0000 0.44231  0.95480  0.55780  Biso   1.000  H
  H1381    1.0000 0.38130  0.93219  0.56000  Biso   1.000  H
  C1419    1.0000 0.25993  0.83045  0.58353  Biso   1.000  C
  H1382    1.0000 0.27590  0.89390  0.57440  Biso   1.000  H
  H1383    1.0000 0.24689  0.76019  0.58940  Biso   1.000  H
  C1420    1.0000 0.98746  0.33701  0.61396  Biso   1.000  C
  H1384    1.0000 0.00118  0.40808  0.59760  Biso   1.000  H
  C1421    1.0000 0.19966  0.30094  0.61701  Biso   1.000  C
  H1385    1.0000 0.26081  0.34240  0.59840  Biso   1.000  H
  C1422    1.0000 0.59971  0.74763  0.59374  Biso   1.000  C
  C1423    1.0000 0.25238  0.85208  0.59374  Biso   1.000  C
  C1424    1.0000 0.98742  0.30426  0.62201  Biso   1.000  C
  C1425    1.0000 0.94006  0.34201  0.61344  Biso   1.000  C
  C1426    1.0000 0.16417  0.28118  0.62537  Biso   1.000  C
  C1427    1.0000 0.24035  0.28537  0.61581  Biso   1.000  C
  C1428    1.0000 0.60553  0.70648  0.59761  Biso   1.000  C
  C1429    1.0000 0.62097  0.79692  0.59812  Biso   1.000  C
  C1430    1.0000 0.29350  0.89902  0.59761  Biso   1.000  C
  C1431    1.0000 0.20306  0.82403  0.59812  Biso   1.000  C
  N150     1.0000 0.02889  0.29750  0.62458  Biso   1.000  N
  C1432    1.0000 0.94491  0.27258  0.62880  Biso   1.000  C
  C1433    1.0000 0.92938  0.36564  0.62210  Biso   1.000  C
  C1434    1.0000 0.90318  0.31995  0.60547  Biso   1.000  C
  N151     1.0000 0.12088  0.28607  0.62640  Biso   1.000  N
  C1435    1.0000 0.16695  0.25091  0.63403  Biso   1.000  C
  C1436    1.0000 0.29271  0.32097  0.61655  Biso   1.000  C
  C1437    1.0000 0.22521  0.23455  0.61296  Biso   1.000  C
  N152     1.0000 0.63696  0.70992  0.60599  Biso   1.000  N
  C1438    1.0000 0.58201  0.65457  0.59302  Biso   1.000  C
  N153     1.0000 0.64904  0.81390  0.60753  Biso   1.000  N
  C1439    1.0000 0.62278  0.84214  0.59348  Biso   1.000  C
  N154     1.0000 0.29006  0.92703  0.60599  Biso   1.000  N
  C1440    1.0000 0.34541  0.92742  0.59302  Biso   1.000  C
  N155     1.0000 0.18608  0.83514  0.60753  Biso   1.000  N
  C1441    1.0000 0.15786  0.78065  0.59348  Biso   1.000  C
  C1442    1.0000 0.01437  0.26331  0.63315  Biso   1.000  C
  C1443    1.0000 0.96084  0.24766  0.63562  Biso   1.000  C
  H1386    1.0000 0.91119  0.26929  0.62860  Biso   1.000  H
  C1444    1.0000 0.88469  0.36834  0.62250  Biso   1.000  C
  H1387    1.0000 0.95391  0.38000  0.62780  Biso   1.000  H
  C1445    1.0000 0.85777  0.32230  0.60595  Biso   1.000  C
  H1388    1.0000 0.90908  0.30309  0.59960  Biso   1.000  H
  H1389    1.0000 0.11151  0.30399  0.62220  Biso   1.000  H
  C1446    1.0000 0.09494  0.25771  0.63516  Biso   1.000  C
  H1390    1.0000 0.19371  0.24250  0.63520  Biso   1.000  H
  C1447    1.0000 0.12423  0.23675  0.64013  Biso   1.000  C
  C1448    1.0000 0.33033  0.30751  0.61432  Biso   1.000  C
  H1391    1.0000 0.30341  0.35578  0.61870  Biso   1.000  H
  C1449    1.0000 0.26333  0.22102  0.61073  Biso   1.000  C
  H1392    1.0000 0.18920  0.20901  0.61250  Biso   1.000  H
  H1393    1.0000 0.65499  0.73731  0.61010  Biso   1.000  H
  C1450    1.0000 0.63486  0.66318  0.60666  Biso   1.000  C
  C1451    1.0000 0.60034  0.62828  0.59867  Biso   1.000  C
  H1394    1.0000 0.55838  0.64158  0.58720  Biso   1.000  H
  C1452    1.0000 0.66798  0.86702  0.60868  Biso   1.000  C
  H1395    1.0000 0.60672  0.84261  0.58700  Biso   1.000  H
  C1453    1.0000 0.65064  0.88377  0.59974  Biso   1.000  C
  H1396    1.0000 0.26269  0.91768  0.61010  Biso   1.000  H
  C1454    1.0000 0.33682  0.97170  0.60666  Biso   1.000  C
  C1455    1.0000 0.37172  0.97206  0.59867  Biso   1.000  C
  H1397    1.0000 0.35838  0.91678  0.58720  Biso   1.000  H
  C1456    1.0000 0.13298  0.80095  0.60868  Biso   1.000  C
  H1398    1.0000 0.15741  0.76410  0.58700  Biso   1.000  H
  C1457    1.0000 0.11621  0.76688  0.59974  Biso   1.000  C
  C1458    1.0000 0.04509  0.24676  0.63817  Biso   1.000  C
  H1399    1.0000 0.94030  0.22399  0.64110  Biso   1.000  H
  C1459    1.0000 0.84772  0.34643  0.61437  Biso   1.000  C
  H1400    1.0000 0.87869  0.38520  0.62830  Biso   1.000  H
  H1401    1.0000 0.83281  0.30712  0.60040  Biso   1.000  H
  H1402    1.0000 0.11530  0.21672  0.64650  Biso   1.000  H
  C1460    1.0000 0.31576  0.25771  0.61119  Biso   1.000  C
  H1403    1.0000 0.36640  0.33290  0.61500  Biso   1.000  H
  H1404    1.0000 0.25291  0.18601  0.60890  Biso   1.000  H
  C1461    1.0000 0.66303  0.65046  0.61396  Biso   1.000  C
  H1405    1.0000 0.59190  0.59312  0.59760  Biso   1.000  H
  C1462    1.0000 0.69907  0.89871  0.61701  Biso   1.000  C
  H1406    1.0000 0.65758  0.91839  0.59840  Biso   1.000  H
  C1463    1.0000 0.34955  0.01254  0.61396  Biso   1.000  C
  H1407    1.0000 0.40692  0.99881  0.59760  Biso   1.000  H
  C1464    1.0000 0.10126  0.80033  0.61701  Biso   1.000  C
  H1408    1.0000 0.08160  0.73918  0.59840  Biso   1.000  H
  C1465    1.0000 0.01801  0.20948  0.64736  Biso   1.000  C
  C1466    1.0000 0.79977  0.35035  0.61468  Biso   1.000  C
  C1467    1.0000 0.35476  0.24261  0.60860  Biso   1.000  C
  C1468    1.0000 0.69574  0.68317  0.62201  Biso   1.000  C
  C1469    1.0000 0.65796  0.59804  0.61344  Biso   1.000  C
  C1470    1.0000 0.71881  0.88298  0.62537  Biso   1.000  C
  C1471    1.0000 0.71461  0.95500  0.61581  Biso   1.000  C
  C1472    1.0000 0.31683  0.01254  0.62201  Biso   1.000  C
  C1473    1.0000 0.40197  0.05992  0.61344  Biso   1.000  C
  C1474    1.0000 0.11702  0.83585  0.62537  Biso   1.000  C
  C1475    1.0000 0.04501  0.75964  0.61581  Biso   1.000  C
  C1476    1.0000 0.01753  0.22857  0.65740  Biso   1.000  C
  C1477    1.0000 0.98978  0.15593  0.64564  Biso   1.000  C
  N156     1.0000 0.79285  0.37511  0.62190  Biso   1.000  N
  H1409    1.0000 0.77389  0.33368  0.60930  Biso   1.000  H
  N157     1.0000 0.40311  0.27461  0.60854  Biso   1.000  N
  H1410    1.0000 0.34299  0.20709  0.60690  Biso   1.000  H
  N158     1.0000 0.70249  0.73136  0.62458  Biso   1.000  N
  C1478    1.0000 0.72742  0.67233  0.62880  Biso   1.000  C
  C1479    1.0000 0.63433  0.56374  0.62210  Biso   1.000  C
  C1480    1.0000 0.68004  0.58326  0.60547  Biso   1.000  C
  N159     1.0000 0.71393  0.83479  0.62640  Biso   1.000  N
  C1481    1.0000 0.74910  0.91604  0.63403  Biso   1.000  C
  C1482    1.0000 0.67904  0.97174  0.61655  Biso   1.000  C
  C1483    1.0000 0.76548  0.99068  0.61296  Biso   1.000  C
  N160     1.0000 0.26864  0.97112  0.62458  Biso   1.000  N
  C1484    1.0000 0.32765  0.05507  0.62880  Biso   1.000  C
  C1485    1.0000 0.43627  0.07060  0.62210  Biso   1.000  C
  C1486    1.0000 0.41675  0.09681  0.60547  Biso   1.000  C
  N161     1.0000 0.16521  0.87911  0.62640  Biso   1.000  N
  C1487    1.0000 0.08394  0.83303  0.63403  Biso   1.000  C
  C1488    1.0000 0.02829  0.70730  0.61655  Biso   1.000  C
  C1489    1.0000 0.00932  0.77478  0.61296  Biso   1.000  C
  H1411    1.0000 0.03738  0.26515  0.65873  Biso   1.000  H
  C1490    1.0000 0.98852  0.19501  0.66546  Biso   1.000  C
  C1491    1.0000 0.96157  0.12275  0.65372  Biso   1.000  C
  H1412    1.0000 0.99008  0.14223  0.63883  Biso   1.000  H
  C1492    1.0000 0.74568  0.37976  0.62144  Biso   1.000  C
  C1493    1.0000 0.43853  0.25419  0.60669  Biso   1.000  C
  C1494    1.0000 0.73669  0.75104  0.63315  Biso   1.000  C
  C1495    1.0000 0.75236  0.71321  0.63562  Biso   1.000  C
  H1413    1.0000 0.73070  0.64190  0.62860  Biso   1.000  H
  C1496    1.0000 0.63168  0.51636  0.62250  Biso   1.000  C
  H1414    1.0000 0.62000  0.57391  0.62780  Biso   1.000  H
  C1497    1.0000 0.67770  0.53549  0.60595  Biso   1.000  C
  H1415    1.0000 0.69689  0.60599  0.59960  Biso   1.000  H
  H1416    1.0000 0.69600  0.80748  0.62220  Biso   1.000  H
  C1498    1.0000 0.74227  0.83721  0.63516  Biso   1.000  C
  H1417    1.0000 0.75750  0.95121  0.63520  Biso   1.000  H
  C1499    1.0000 0.76327  0.88748  0.64013  Biso   1.000  C
  H1418    1.0000 0.64421  0.94761  0.61870  Biso   1.000  H
  C1500    1.0000 0.69249  0.02283  0.61432  Biso   1.000  C
  H1419    1.0000 0.79100  0.98019  0.61250  Biso   1.000  H
  C1501    1.0000 0.77895  0.04227  0.61073  Biso   1.000  C
  C1502    1.0000 0.24893  0.98563  0.63315  Biso   1.000  C
  C1503    1.0000 0.28680  0.03914  0.63562  Biso   1.000  C
  H1420    1.0000 0.35810  0.08879  0.62860  Biso   1.000  H
  C1504    1.0000 0.48361  0.11527  0.62250  Biso   1.000  C
  H1421    1.0000 0.42608  0.04607  0.62780  Biso   1.000  H
  C1505    1.0000 0.46453  0.14222  0.60595  Biso   1.000  C
  H1422    1.0000 0.39398  0.09090  0.59960  Biso   1.000  H
  H1423    1.0000 0.19250  0.88850  0.62220  Biso   1.000  H
  C1506    1.0000 0.16277  0.90505  0.63516  Biso   1.000  C
  H1424    1.0000 0.04880  0.80631  0.63520  Biso   1.000  H
  C1507    1.0000 0.11253  0.87579  0.64013  Biso   1.000  C
  H1425    1.0000 0.05240  0.69658  0.61870  Biso   1.000  H
  C1508    1.0000 0.97719  0.66967  0.61432  Biso   1.000  C
  H1426    1.0000 0.01981  0.81081  0.61250  Biso   1.000  H
  C1509    1.0000 0.95771  0.73668  0.61073  Biso   1.000  C
  C1510    1.0000 0.95927  0.14153  0.66348  Biso   1.000  C
  H1427    1.0000 0.98848  0.20835  0.67234  Biso   1.000  H
  H1428    1.0000 0.94337  0.08614  0.65253  Biso   1.000  H
  C1511    1.0000 0.75958  0.43555  0.62298  Biso   1.000  C
  H1429    1.0000 0.72092  0.35782  0.62710  Biso   1.000  H
  H1430    1.0000 0.72830  0.36709  0.61450  Biso   1.000  H
  C1512    1.0000 0.47643  0.26941  0.61565  Biso   1.000  C
  H1431    1.0000 0.45769  0.26839  0.59990  Biso   1.000  H
  H1432    1.0000 0.41808  0.21558  0.60610  Biso   1.000  H
  C1513    1.0000 0.75323  0.79829  0.63817  Biso   1.000  C
  H1433    1.0000 0.77600  0.71630  0.64110  Biso   1.000  H
  C1514    1.0000 0.65356  0.50130  0.61437  Biso   1.000  C
  H1434    1.0000 0.61481  0.49352  0.62830  Biso   1.000  H
  H1435    1.0000 0.69290  0.52571  0.60040  Biso   1.000  H
  H1436    1.0000 0.78330  0.89859  0.64650  Biso   1.000  H
  C1515    1.0000 0.74228  0.05804  0.61119  Biso   1.000  C
  H1437    1.0000 0.66709  0.03347  0.61500  Biso   1.000  H
  H1438    1.0000 0.81398  0.06688  0.60890  Biso   1.000  H
  C1516    1.0000 0.20170  0.95492  0.63817  Biso   1.000  C
  H1439    1.0000 0.28369  0.05968  0.64110  Biso   1.000  H
  C1517    1.0000 0.49873  0.15228  0.61437  Biso   1.000  C
  H1440    1.0000 0.50651  0.12129  0.62830  Biso   1.000  H
  H1441    1.0000 0.47430  0.16718  0.60040  Biso   1.000  H
  H1442    1.0000 0.10141  0.88470  0.64650  Biso   1.000  H
  C1518    1.0000 0.94197  0.68426  0.61119  Biso   1.000  C
  H1443    1.0000 0.96651  0.63360  0.61500  Biso   1.000  H
  H1444    1.0000 0.93310  0.74709  0.60890  Biso   1.000  H
  C1519    1.0000 0.92671  0.10417  0.67213  Biso   1.000  C
  C1520    1.0000 0.75030  0.45350  0.63267  Biso   1.000  C
  C1521    1.0000 0.78150  0.47153  0.61474  Biso   1.000  C
  C1522    1.0000 0.46155  0.24351  0.62551  Biso   1.000  C
  C1523    1.0000 0.52845  0.30998  0.61474  Biso   1.000  C
  C1524    1.0000 0.79051  0.80854  0.64736  Biso   1.000  C
  C1525    1.0000 0.64968  0.44943  0.61468  Biso   1.000  C
  C1526    1.0000 0.75737  0.11214  0.60860  Biso   1.000  C
  C1527    1.0000 0.19148  0.98199  0.64736  Biso   1.000  C
  C1528    1.0000 0.55055  0.20023  0.61468  Biso   1.000  C
  C1529    1.0000 0.88786  0.64522  0.60860  Biso   1.000  C
  N162     1.0000 0.92271  0.12009  0.68107  Biso   1.000  N
  H1445    1.0000 0.90878  0.06764  0.67073  Biso   1.000  H
  O76      1.0000 0.73098  0.41982  0.64117  Biso   1.000  O
  C1530    1.0000 0.76020  0.50428  0.63389  Biso   1.000  C
  O77      1.0000 0.79406  0.45565  0.60531  Biso   1.000  O
  C1531    1.0000 0.79298  0.52356  0.61565  Biso   1.000  C
  O78      1.0000 0.40913  0.20561  0.62678  Biso   1.000  O
  C1532    1.0000 0.49570  0.25591  0.63389  Biso   1.000  C
  O79      1.0000 0.54437  0.33841  0.60531  Biso   1.000  O
  C1533    1.0000 0.56446  0.32406  0.62298  Biso   1.000  C
  C1534    1.0000 0.77143  0.78894  0.65740  Biso   1.000  C
  C1535    1.0000 0.84405  0.83385  0.64564  Biso   1.000  C
  N163     1.0000 0.62492  0.41775  0.62190  Biso   1.000  N
  H1446    1.0000 0.66630  0.44020  0.60930  Biso   1.000  H
  N164     1.0000 0.72540  0.12849  0.60854  Biso   1.000  N
  H1447    1.0000 0.79289  0.13588  0.60690  Biso   1.000  H
  C1536    1.0000 0.21106  0.98246  0.65740  Biso   1.000  C
  C1537    1.0000 0.16612  0.01020  0.64564  Biso   1.000  C
  N165     1.0000 0.58227  0.20716  0.62190  Biso   1.000  N
  H1448    1.0000 0.55979  0.22609  0.60930  Biso   1.000  H
  N166     1.0000 0.87149  0.59691  0.60854  Biso   1.000  N
  H1449    1.0000 0.86410  0.65700  0.60690  Biso   1.000  H
  C1538    1.0000 0.89155  0.07972  0.68918  Biso   1.000  C
  C1539    1.0000 0.77310  0.41563  0.64667  Biso   1.000  C
  C1540    1.0000 0.78197  0.53847  0.62551  Biso   1.000  C
  C1541    1.0000 0.74638  0.52149  0.64415  Biso   1.000  C
  C1542    1.0000 0.84951  0.47122  0.60481  Biso   1.000  C
  C1543    1.0000 0.81570  0.56147  0.60669  Biso   1.000  C
  C1544    1.0000 0.38055  0.22583  0.63269  Biso   1.000  C
  C1545    1.0000 0.54649  0.29679  0.63267  Biso   1.000  C
  C1546    1.0000 0.47849  0.22489  0.64415  Biso   1.000  C
  C1547    1.0000 0.52876  0.37828  0.60481  Biso   1.000  C
  C1548    1.0000 0.62025  0.36591  0.62144  Biso   1.000  C
  C1549    1.0000 0.80499  0.79352  0.66546  Biso   1.000  C
  H1450    1.0000 0.73486  0.77224  0.65873  Biso   1.000  H
  C1550    1.0000 0.87723  0.83882  0.65372  Biso   1.000  C
  H1451    1.0000 0.85774  0.84782  0.63883  Biso   1.000  H
  C1551    1.0000 0.74579  0.18431  0.60669  Biso   1.000  C
  H1452    1.0000 0.22777  0.96263  0.65873  Biso   1.000  H
  C1552    1.0000 0.20648  0.01145  0.66546  Biso   1.000  C
  C1553    1.0000 0.16118  0.03840  0.65372  Biso   1.000  C
  H1453    1.0000 0.15216  0.00992  0.63883  Biso   1.000  H
  C1554    1.0000 0.63406  0.25430  0.62144  Biso   1.000  C
  C1555    1.0000 0.92257  0.09353  0.69944  Biso   1.000  C
  H1454    1.0000 0.85786  0.07855  0.69044  Biso   1.000  H
  H1455    1.0000 0.88406  0.04483  0.68663  Biso   1.000  H
  H1456    1.0000 0.80351  0.45092  0.64790  Biso   1.000  H
  H1457    1.0000 0.78470  0.39561  0.64220  Biso   1.000  H
  C1556    1.0000 0.75226  0.38845  0.65705  Biso   1.000  C
  O80      1.0000 0.79649  0.59089  0.62678  Biso   1.000  O
  N167     1.0000 0.78677  0.53072  0.65226  Biso   1.000  N
  H1458    1.0000 0.74519  0.55400  0.64290  Biso   1.000  H
  H1459    1.0000 0.71152  0.49411  0.64670  Biso   1.000  H
  H1460    1.0000 0.85920  0.45890  0.61130  Biso   1.000  H
  H1461    1.0000 0.87089  0.50979  0.60460  Biso   1.000  H
  C1557    1.0000 0.86045  0.44900  0.59528  Biso   1.000  C
  H1462    1.0000 0.81069  0.54230  0.59990  Biso   1.000  H
  H1463    1.0000 0.79748  0.58189  0.60610  Biso   1.000  H
  H1464    1.0000 0.38370  0.25701  0.62900  Biso   1.000  H
  H1465    1.0000 0.39561  0.23651  0.63990  Biso   1.000  H
  C1558    1.0000 0.32354  0.18390  0.63348  Biso   1.000  C
  O81      1.0000 0.58016  0.31115  0.64117  Biso   1.000  O
  N168     1.0000 0.46926  0.25603  0.65226  Biso   1.000  N
  H1466    1.0000 0.44600  0.19121  0.64290  Biso   1.000  H
  H1467    1.0000 0.50591  0.21738  0.64670  Biso   1.000  H
  H1468    1.0000 0.54109  0.40030  0.61130  Biso   1.000  H
  H1469    1.0000 0.49019  0.36110  0.60460  Biso   1.000  H
  C1559    1.0000 0.55101  0.41145  0.59528  Biso   1.000  C
  H1470    1.0000 0.64218  0.36310  0.62710  Biso   1.000  H
  H1471    1.0000 0.63289  0.36118  0.61450  Biso   1.000  H
  C1560    1.0000 0.85846  0.81773  0.66348  Biso   1.000  C
  H1472    1.0000 0.79166  0.78014  0.67234  Biso   1.000  H
  H1473    1.0000 0.91388  0.85724  0.65253  Biso   1.000  H
  C1561    1.0000 0.73058  0.20700  0.61565  Biso   1.000  C
  H1474    1.0000 0.73157  0.18928  0.59990  Biso   1.000  H
  H1475    1.0000 0.78439  0.20250  0.60610  Biso   1.000  H
  C1562    1.0000 0.18226  0.04071  0.66348  Biso   1.000  C
  H1476    1.0000 0.21987  0.01153  0.67234  Biso   1.000  H
  H1477    1.0000 0.14275  0.05663  0.65253  Biso   1.000  H
  C1563    1.0000 0.67595  0.24037  0.62298  Biso   1.000  C
  H1478    1.0000 0.63691  0.27910  0.62710  Biso   1.000  H
  H1479    1.0000 0.63880  0.27170  0.61450  Biso   1.000  H
  C1564    1.0000 0.91017  0.11528  0.70782  Biso   1.000  C
  C1565    1.0000 0.96346  0.08364  0.70066  Biso   1.000  C
  H1480    1.0000 0.72340  0.35242  0.65570  Biso   1.000  H
  H1481    1.0000 0.73761  0.40699  0.66110  Biso   1.000  H
  C1566    1.0000 0.79369  0.38594  0.66381  Biso   1.000  C
  C1567    1.0000 0.84529  0.61944  0.63269  Biso   1.000  C
  C1568    1.0000 0.77082  0.51081  0.66120  Biso   1.000  C
  H1482    1.0000 0.85471  0.46469  0.58880  Biso   1.000  H
  H1483    1.0000 0.83591  0.41090  0.59500  Biso   1.000  H
  C1569    1.0000 0.91637  0.45921  0.59529  Biso   1.000  C
  H1484    1.0000 0.30981  0.17040  0.62630  Biso   1.000  H
  H1485    1.0000 0.32031  0.15440  0.63780  Biso   1.000  H
  C1570    1.0000 0.29188  0.20541  0.63846  Biso   1.000  C
  C1571    1.0000 0.58438  0.35747  0.64667  Biso   1.000  C
  C1572    1.0000 0.48918  0.26002  0.66120  Biso   1.000  C
  H1486    1.0000 0.53531  0.39001  0.58880  Biso   1.000  H
  H1487    1.0000 0.58908  0.42498  0.59500  Biso   1.000  H
  C1573    1.0000 0.54077  0.45718  0.59529  Biso   1.000  C
  C1574    1.0000 0.89584  0.82251  0.67213  Biso   1.000  C
  C1575    1.0000 0.75649  0.21803  0.62551  Biso   1.000  C
  C1576    1.0000 0.69003  0.21846  0.61474  Biso   1.000  C
  C1577    1.0000 0.17748  0.07329  0.67213  Biso   1.000  C
  C1578    1.0000 0.70320  0.24968  0.63267  Biso   1.000  C
  O82      1.0000 0.87229  0.12983  0.70656  Biso   1.000  O
  C1579    1.0000 0.93608  0.12631  0.71769  Biso   1.000  C
  O83      1.0000 0.97782  0.06431  0.69216  Biso   1.000  O
  C1580    1.0000 0.99071  0.09295  0.71035  Biso   1.000  C
  H1488    1.0000 0.80588  0.36439  0.66010  Biso   1.000  H
  H1489    1.0000 0.82410  0.42170  0.66460  Biso   1.000  H
  C1581    1.0000 0.77402  0.36333  0.67463  Biso   1.000  C
  H1490    1.0000 0.87330  0.61631  0.62900  Biso   1.000  H
  H1491    1.0000 0.84088  0.60438  0.63990  Biso   1.000  H
  C1582    1.0000 0.86034  0.67644  0.63348  Biso   1.000  C
  H1492    1.0000 0.73431  0.49219  0.66260  Biso   1.000  H
  C1583    1.0000 0.80820  0.51558  0.66985  Biso   1.000  C
  H1493    1.0000 0.92211  0.44419  0.60180  Biso   1.000  H
  H1494    1.0000 0.94071  0.49751  0.59550  Biso   1.000  H
  C1584    1.0000 0.92968  0.43609  0.58559  Biso   1.000  C
  H1495    1.0000 0.29392  0.23381  0.63390  Biso   1.000  H
  H1496    1.0000 0.30689  0.22059  0.64550  Biso   1.000  H
  C1585    1.0000 0.23480  0.16348  0.63987  Biso   1.000  C
  H1497    1.0000 0.54910  0.35261  0.64790  Biso   1.000  H
  H1498    1.0000 0.60441  0.38911  0.64220  Biso   1.000  H
  C1586    1.0000 0.61157  0.36380  0.65705  Biso   1.000  C
  H1499    1.0000 0.50780  0.24210  0.66260  Biso   1.000  H
  C1587    1.0000 0.48440  0.29261  0.66985  Biso   1.000  C
  H1500    1.0000 0.55581  0.47791  0.60180  Biso   1.000  H
  H1501    1.0000 0.50252  0.44321  0.59550  Biso   1.000  H
  C1588    1.0000 0.56389  0.49360  0.58559  Biso   1.000  C
  N169     1.0000 0.87989  0.80259  0.68107  Biso   1.000  N
  H1502    1.0000 0.93235  0.84113  0.67073  Biso   1.000  H
  O84      1.0000 0.79437  0.20348  0.62678  Biso   1.000  O
  C1589    1.0000 0.74409  0.23978  0.63389  Biso   1.000  C
  O85      1.0000 0.66158  0.20595  0.60531  Biso   1.000  O
  N170     1.0000 0.19739  0.07728  0.68107  Biso   1.000  N
  H1503    1.0000 0.15886  0.09121  0.67073  Biso   1.000  H
  O86      1.0000 0.68884  0.26900  0.64117  Biso   1.000  O
  C1590    1.0000 0.89251  0.17862  0.70064  Biso   1.000  C
  C1591    1.0000 0.97663  0.11485  0.71859  Biso   1.000  C
  C1592    1.0000 0.92087  0.14900  0.72664  Biso   1.000  C
  C1593    1.0000 0.02412  0.10644  0.68667  Biso   1.000  C
  C1594    1.0000 0.03260  0.07902  0.71189  Biso   1.000  C
  H1504    1.0000 0.80210  0.36259  0.67860  Biso   1.000  H
  H1505    1.0000 0.76270  0.38500  0.67840  Biso   1.000  H
  H1506    1.0000 0.74440  0.32762  0.67390  Biso   1.000  H
  H1507    1.0000 0.86062  0.69021  0.62630  Biso   1.000  H
  H1508    1.0000 0.83408  0.67968  0.63780  Biso   1.000  H
  C1595    1.0000 0.91352  0.70812  0.63846  Biso   1.000  C
  C1596    1.0000 0.86169  0.53984  0.66787  Biso   1.000  C
  C1597    1.0000 0.78943  0.49450  0.67961  Biso   1.000  C
  H1509    1.0000 0.96611  0.44411  0.58610  Biso   1.000  H
  H1510    1.0000 0.90642  0.39811  0.58550  Biso   1.000  H
  H1511    1.0000 0.92500  0.45139  0.57910  Biso   1.000  H
  H1512    1.0000 0.21560  0.17901  0.64310  Biso   1.000  H
  H1513    1.0000 0.21950  0.14881  0.63290  Biso   1.000  H
  H1514    1.0000 0.23260  0.13570  0.64450  Biso   1.000  H
  H1515    1.0000 0.64759  0.37100  0.65570  Biso   1.000  H
  H1516    1.0000 0.59300  0.33059  0.66110  Biso   1.000  H
  C1598    1.0000 0.61404  0.40777  0.66381  Biso   1.000  C
  C1599    1.0000 0.46017  0.32187  0.66787  Biso   1.000  C
  C1600    1.0000 0.50548  0.29491  0.67961  Biso   1.000  C
  H1517    1.0000 0.55590  0.52200  0.58610  Biso   1.000  H
  H1518    1.0000 0.60191  0.50831  0.58550  Biso   1.000  H
  H1519    1.0000 0.54861  0.47361  0.57910  Biso   1.000  H
  C1601    1.0000 0.92028  0.81183  0.68918  Biso   1.000  C
  C1602    1.0000 0.77415  0.15470  0.63269  Biso   1.000  C
  C1603    1.0000 0.77511  0.25359  0.64415  Biso   1.000  C
  C1604    1.0000 0.62172  0.15048  0.60481  Biso   1.000  C
  C1605    1.0000 0.18816  0.10842  0.68918  Biso   1.000  C
  C1606    1.0000 0.64256  0.22691  0.64667  Biso   1.000  C
  H1520    1.0000 0.92366  0.20662  0.70434  Biso   1.000  H
  H1521    1.0000 0.90316  0.17423  0.69344  Biso   1.000  H
  C1607    1.0000 0.85055  0.19368  0.69986  Biso   1.000  C
  O87      1.0000 0.00508  0.12737  0.72802  Biso   1.000  O
  N171     1.0000 0.94126  0.20482  0.72479  Biso   1.000  N
  H1522    1.0000 0.93508  0.14403  0.73343  Biso   1.000  H
  H1523    1.0000 0.88228  0.13085  0.72723  Biso   1.000  H
  H1524    1.0000 0.01926  0.13684  0.68543  Biso   1.000  H
  H1525    1.0000 0.05576  0.11802  0.69114  Biso   1.000  H
  C1608    1.0000 0.03050  0.08559  0.67628  Biso   1.000  C
  N172     1.0000 0.08439  0.12616  0.71143  Biso   1.000  N
  H1526    1.0000 0.02975  0.05422  0.70623  Biso   1.000  H
  H1527    1.0000 0.02788  0.06165  0.71883  Biso   1.000  H
  H1528    1.0000 0.93991  0.70609  0.63390  Biso   1.000  H
  H1529    1.0000 0.91370  0.69310  0.64550  Biso   1.000  H
  C1609    1.0000 0.92867  0.76520  0.63987  Biso   1.000  C
  H1530    1.0000 0.87502  0.55321  0.66100  Biso   1.000  H
  C1610    1.0000 0.89523  0.54437  0.67594  Biso   1.000  C
  H1531    1.0000 0.75279  0.47611  0.68080  Biso   1.000  H
  C1611    1.0000 0.82260  0.49947  0.68769  Biso   1.000  C
  H1532    1.0000 0.63561  0.44149  0.66010  Biso   1.000  H
  H1533    1.0000 0.57830  0.40241  0.66460  Biso   1.000  H
  C1612    1.0000 0.63663  0.41067  0.67463  Biso   1.000  C
  H1534    1.0000 0.44679  0.32179  0.66100  Biso   1.000  H
  C1613    1.0000 0.45560  0.35085  0.67594  Biso   1.000  C
  H1535    1.0000 0.52390  0.27669  0.68080  Biso   1.000  H
  C1614    1.0000 0.50054  0.32312  0.68769  Biso   1.000  C
  C1615    1.0000 0.90646  0.82904  0.69944  Biso   1.000  C
  H1536    1.0000 0.92147  0.77932  0.69044  Biso   1.000  H
  H1537    1.0000 0.95516  0.83925  0.68663  Biso   1.000  H
  H1538    1.0000 0.74300  0.12669  0.62900  Biso   1.000  H
  H1539    1.0000 0.76350  0.15908  0.63990  Biso   1.000  H
  C1616    1.0000 0.81611  0.13964  0.63348  Biso   1.000  C
  N173     1.0000 0.74395  0.21322  0.65226  Biso   1.000  N
  H1540    1.0000 0.80882  0.25480  0.64290  Biso   1.000  H
  H1541    1.0000 0.78260  0.28849  0.64670  Biso   1.000  H
  H1542    1.0000 0.59969  0.14077  0.61130  Biso   1.000  H
  H1543    1.0000 0.63890  0.12908  0.60460  Biso   1.000  H
  C1617    1.0000 0.58853  0.13952  0.59528  Biso   1.000  C
  C1618    1.0000 0.17096  0.07740  0.69944  Biso   1.000  C
  H1544    1.0000 0.22066  0.14210  0.69044  Biso   1.000  H
  H1545    1.0000 0.16075  0.11593  0.68663  Biso   1.000  H
  H1546    1.0000 0.64740  0.19648  0.64790  Biso   1.000  H
  H1547    1.0000 0.61090  0.21530  0.64220  Biso   1.000  H
  C1619    1.0000 0.63618  0.24776  0.65705  Biso   1.000  C
  H1548    1.0000 0.83707  0.19395  0.70703  Biso   1.000  H
  H1549    1.0000 0.82106  0.16743  0.69554  Biso   1.000  H
  C1620    1.0000 0.87207  0.24688  0.69488  Biso   1.000  C
  C1621    1.0000 0.04494  0.18284  0.72852  Biso   1.000  C
  C1622    1.0000 0.90929  0.22118  0.72474  Biso   1.000  C
  H1550    1.0000 0.03768  0.05672  0.67764  Biso   1.000  H
  C1623    1.0000 0.07444  0.12706  0.66952  Biso   1.000  C
  H1551    1.0000 0.99725  0.07092  0.67223  Biso   1.000  H
  C1624    1.0000 0.11612  0.13312  0.71866  Biso   1.000  C
  H1552    1.0000 0.96341  0.78440  0.64310  Biso   1.000  H
  H1553    1.0000 0.92931  0.78049  0.63290  Biso   1.000  H
  H1554    1.0000 0.90311  0.76739  0.64450  Biso   1.000  H
  H1555    1.0000 0.93182  0.56112  0.67460  Biso   1.000  H
  C1625    1.0000 0.87617  0.52481  0.68597  Biso   1.000  C
  H1556    1.0000 0.80891  0.48550  0.69450  Biso   1.000  H
  H1557    1.0000 0.63739  0.43950  0.67860  Biso   1.000  H
  H1558    1.0000 0.61499  0.37769  0.67840  Biso   1.000  H
  H1559    1.0000 0.67239  0.41681  0.67390  Biso   1.000  H
  H1560    1.0000 0.43888  0.37069  0.67460  Biso   1.000  H
  C1626    1.0000 0.47519  0.35136  0.68597  Biso   1.000  C
  H1561    1.0000 0.51450  0.32339  0.69450  Biso   1.000  H
  C1627    1.0000 0.88471  0.79489  0.70782  Biso   1.000  C
  C1628    1.0000 0.91636  0.87981  0.70066  Biso   1.000  C
  H1562    1.0000 0.82961  0.13941  0.62630  Biso   1.000  H
  H1563    1.0000 0.84560  0.16589  0.63780  Biso   1.000  H
  C1629    1.0000 0.79459  0.08644  0.63846  Biso   1.000  C
  C1630    1.0000 0.73995  0.22914  0.66120  Biso   1.000  C
  H1564    1.0000 0.60997  0.14527  0.58880  Biso   1.000  H
  H1565    1.0000 0.57500  0.16409  0.59500  Biso   1.000  H
  C1631    1.0000 0.54284  0.08358  0.59529  Biso   1.000  C
  C1632    1.0000 0.20511  0.08980  0.70782  Biso   1.000  C
  C1633    1.0000 0.12017  0.03652  0.70066  Biso   1.000  C
  H1566    1.0000 0.62898  0.27659  0.65570  Biso   1.000  H
  H1567    1.0000 0.66941  0.26239  0.66110  Biso   1.000  H
  C1634    1.0000 0.59222  0.20626  0.66381  Biso   1.000  C
  H1568    1.0000 0.90046  0.27324  0.69944  Biso   1.000  H
  H1569    1.0000 0.88725  0.24703  0.68784  Biso   1.000  H
  C1635    1.0000 0.83014  0.26202  0.69346  Biso   1.000  C
  H1570    1.0000 0.06697  0.19254  0.72203  Biso   1.000  H
  H1571    1.0000 0.02776  0.20424  0.72873  Biso   1.000  H
  C1636    1.0000 0.07813  0.19379  0.73805  Biso   1.000  C
  H1572    1.0000 0.87377  0.19743  0.72643  Biso   1.000  H
  C1637    1.0000 0.92438  0.27528  0.72214  Biso   1.000  C
  H1573    1.0000 0.10816  0.13922  0.67324  Biso   1.000  H
  H1574    1.0000 0.06907  0.15745  0.66873  Biso   1.000  H
  C1638    1.0000 0.07737  0.10738  0.65870  Biso   1.000  C
  H1575    1.0000 0.10687  0.10722  0.72404  Biso   1.000  H
  C1639    1.0000 0.16795  0.18108  0.71897  Biso   1.000  C
  C1640    1.0000 0.91342  0.53502  0.69516  Biso   1.000  C
  C1641    1.0000 0.46498  0.37843  0.69516  Biso   1.000  C
  O88      1.0000 0.87017  0.74243  0.70656  Biso   1.000  O
  C1642    1.0000 0.87369  0.80979  0.71769  Biso   1.000  C
  O89      1.0000 0.93568  0.91350  0.69216  Biso   1.000  O
  C1643    1.0000 0.90708  0.89777  0.71035  Biso   1.000  C
  H1576    1.0000 0.76620  0.06007  0.63390  Biso   1.000  H
  H1577    1.0000 0.77940  0.08628  0.64550  Biso   1.000  H
  C1644    1.0000 0.83652  0.07130  0.63987  Biso   1.000  C
  H1578    1.0000 0.75788  0.26568  0.66260  Biso   1.000  H
  C1645    1.0000 0.70738  0.19178  0.66985  Biso   1.000  C
  H1579    1.0000 0.52210  0.07787  0.60180  Biso   1.000  H
  H1580    1.0000 0.55678  0.05929  0.59550  Biso   1.000  H
  C1646    1.0000 0.50638  0.07028  0.58559  Biso   1.000  C
  O90      1.0000 0.25753  0.12771  0.70656  Biso   1.000  O
  C1647    1.0000 0.19023  0.06391  0.71769  Biso   1.000  C
  O91      1.0000 0.08650  0.02217  0.69216  Biso   1.000  O
  C1648    1.0000 0.10222  0.00930  0.71035  Biso   1.000  C
  H1581    1.0000 0.55849  0.19409  0.66010  Biso   1.000  H
  H1582    1.0000 0.59761  0.17590  0.66460  Biso   1.000  H
  C1649    1.0000 0.58931  0.22597  0.67463  Biso   1.000  C
  H1583    1.0000 0.84566  0.29671  0.69023  Biso   1.000  H
  H1584    1.0000 0.81548  0.26264  0.70043  Biso   1.000  H
  H1585    1.0000 0.80237  0.23643  0.68883  Biso   1.000  H
  H1586    1.0000 0.05669  0.18804  0.74453  Biso   1.000  H
  H1587    1.0000 0.09166  0.16923  0.73833  Biso   1.000  H
  C1650    1.0000 0.12382  0.24973  0.73805  Biso   1.000  C
  C1651    1.0000 0.97419  0.31052  0.71902  Biso   1.000  C
  C1652    1.0000 0.88771  0.29104  0.72260  Biso   1.000  C
  H1588    1.0000 0.10617  0.13543  0.65473  Biso   1.000  H
  H1589    1.0000 0.04436  0.09604  0.65494  Biso   1.000  H
  H1590    1.0000 0.08348  0.07773  0.65943  Biso   1.000  H
  C1653    1.0000 0.18305  0.21805  0.71084  Biso   1.000  C
  C1654    1.0000 0.20213  0.19109  0.72738  Biso   1.000  C
  C1655    1.0000 0.92438  0.49610  0.69817  Biso   1.000  C
  C1656    1.0000 0.92997  0.58228  0.70018  Biso   1.000  C
  C1657    1.0000 0.50389  0.42827  0.69817  Biso   1.000  C
  C1658    1.0000 0.41773  0.34769  0.70018  Biso   1.000  C
  C1659    1.0000 0.82138  0.71391  0.70064  Biso   1.000  C
  C1660    1.0000 0.88516  0.86178  0.71859  Biso   1.000  C
  C1661    1.0000 0.85096  0.77185  0.72664  Biso   1.000  C
  C1662    1.0000 0.89356  0.91768  0.68667  Biso   1.000  C
  C1663    1.0000 0.92100  0.95359  0.71189  Biso   1.000  C
  H1591    1.0000 0.82100  0.03660  0.64310  Biso   1.000  H
  H1592    1.0000 0.85118  0.07067  0.63290  Biso   1.000  H
  H1593    1.0000 0.86428  0.09688  0.64450  Biso   1.000  H
  C1664    1.0000 0.67814  0.13831  0.66787  Biso   1.000  C
  C1665    1.0000 0.70508  0.21056  0.67961  Biso   1.000  C
  H1594    1.0000 0.47799  0.03390  0.58610  Biso   1.000  H
  H1595    1.0000 0.49171  0.09360  0.58550  Biso   1.000  H
  H1596    1.0000 0.52638  0.07498  0.57910  Biso   1.000  H
  C1666    1.0000 0.28611  0.10748  0.70064  Biso   1.000  C
  C1667    1.0000 0.13820  0.02334  0.71859  Biso   1.000  C
  C1668    1.0000 0.22812  0.07912  0.72664  Biso   1.000  C
  C1669    1.0000 0.08229  0.97589  0.68667  Biso   1.000  C
  C1670    1.0000 0.04641  0.96740  0.71189  Biso   1.000  C
  H1597    1.0000 0.56049  0.19789  0.67860  Biso   1.000  H
  H1598    1.0000 0.62230  0.23728  0.67840  Biso   1.000  H
  H1599    1.0000 0.58318  0.25559  0.67390  Biso   1.000  H
  H1600    1.0000 0.14456  0.25544  0.73153  Biso   1.000  H
  H1601    1.0000 0.10988  0.27403  0.73783  Biso   1.000  H
  C1671    1.0000 0.16028  0.26303  0.74774  Biso   1.000  C
  H1602    1.0000 0.99957  0.29984  0.71833  Biso   1.000  H
  C1672    1.0000 0.98764  0.36161  0.71678  Biso   1.000  C
  H1603    1.0000 0.85268  0.26644  0.72443  Biso   1.000  H
  C1673    1.0000 0.90120  0.34268  0.72038  Biso   1.000  C
  H1604    1.0000 0.16015  0.21202  0.70504  Biso   1.000  H
  C1674    1.0000 0.23038  0.26272  0.71123  Biso   1.000  C
  H1605    1.0000 0.19236  0.16614  0.73293  Biso   1.000  H
  C1675    1.0000 0.24992  0.23655  0.72786  Biso   1.000  C
  N174     1.0000 0.95273  0.49853  0.70693  Biso   1.000  N
  C1676    1.0000 0.90338  0.44583  0.69321  Biso   1.000  C
  N175     1.0000 0.96417  0.60196  0.70875  Biso   1.000  N
  C1677    1.0000 0.91429  0.62011  0.69772  Biso   1.000  C
  N176     1.0000 0.50144  0.45421  0.70693  Biso   1.000  N
  C1678    1.0000 0.55413  0.45753  0.69321  Biso   1.000  C
  N177     1.0000 0.39802  0.36220  0.70875  Biso   1.000  N
  C1679    1.0000 0.37986  0.29417  0.69772  Biso   1.000  C
  H1606    1.0000 0.79337  0.71704  0.70434  Biso   1.000  H
  H1607    1.0000 0.82578  0.72893  0.69344  Biso   1.000  H
  C1680    1.0000 0.80632  0.65688  0.69986  Biso   1.000  C
  O92      1.0000 0.87262  0.87770  0.72802  Biso   1.000  O
  N178     1.0000 0.79518  0.73645  0.72479  Biso   1.000  N
  H1608    1.0000 0.85597  0.79102  0.73343  Biso   1.000  H
  H1609    1.0000 0.86918  0.75143  0.72723  Biso   1.000  H
  H1610    1.0000 0.86316  0.88244  0.68543  Biso   1.000  H
  H1611    1.0000 0.88198  0.93775  0.69114  Biso   1.000  H
  C1681    1.0000 0.91442  0.94491  0.67628  Biso   1.000  C
  N179     1.0000 0.87383  0.95825  0.71143  Biso   1.000  N
  H1612    1.0000 0.94576  0.97554  0.70623  Biso   1.000  H
  H1613    1.0000 0.93836  0.96623  0.71883  Biso   1.000  H
  H1614    1.0000 0.67818  0.12497  0.66100  Biso   1.000  H
  C1682    1.0000 0.64913  0.10475  0.67594  Biso   1.000  C
  H1615    1.0000 0.72329  0.24718  0.68080  Biso   1.000  H
  C1683    1.0000 0.67688  0.17739  0.68769  Biso   1.000  C
  H1616    1.0000 0.28295  0.07631  0.70434  Biso   1.000  H
  H1617    1.0000 0.27105  0.09681  0.69344  Biso   1.000  H
  C1684    1.0000 0.34312  0.14942  0.69986  Biso   1.000  C
  O93      1.0000 0.12231  0.99494  0.72802  Biso   1.000  O
  N180     1.0000 0.26355  0.05870  0.72479  Biso   1.000  N
  H1618    1.0000 0.20896  0.06492  0.73343  Biso   1.000  H
  H1619    1.0000 0.24858  0.11773  0.72723  Biso   1.000  H
  H1620    1.0000 0.11758  0.98074  0.68543  Biso   1.000  H
  H1621    1.0000 0.06227  0.94424  0.69114  Biso   1.000  H
  C1685    1.0000 0.05509  0.96951  0.67628  Biso   1.000  C
  N181     1.0000 0.04175  0.91561  0.71143  Biso   1.000  N
  H1622    1.0000 0.02447  0.97022  0.70623  Biso   1.000  H
  H1623    1.0000 0.03377  0.97213  0.71883  Biso   1.000  H
  H1624    1.0000 0.18869  0.29945  0.74724  Biso   1.000  H
  H1625    1.0000 0.17494  0.23972  0.74783  Biso   1.000  H
  H1626    1.0000 0.14028  0.25834  0.75424  Biso   1.000  H
  H1627    1.0000 0.02247  0.38575  0.71463  Biso   1.000  H
  C1686    1.0000 0.95207  0.37835  0.71753  Biso   1.000  C
  H1628    1.0000 0.87566  0.35312  0.72084  Biso   1.000  H
  H1629    1.0000 0.24058  0.28725  0.70553  Biso   1.000  H
  C1687    1.0000 0.26469  0.27340  0.71989  Biso   1.000  C
  H1630    1.0000 0.27268  0.24242  0.73373  Biso   1.000  H
  H1631    1.0000 0.97065  0.52583  0.71113  Biso   1.000  H
  C1688    1.0000 0.94786  0.45037  0.70796  Biso   1.000  C
  C1689    1.0000 0.91756  0.41728  0.69930  Biso   1.000  C
  H1632    1.0000 0.88336  0.43472  0.68683  Biso   1.000  H
  C1690    1.0000 0.97094  0.65019  0.71132  Biso   1.000  C
  H1633    1.0000 0.89066  0.61702  0.69223  Biso   1.000  H
  C1691    1.0000 0.93924  0.66099  0.70453  Biso   1.000  C
  H1634    1.0000 0.47415  0.44482  0.71113  Biso   1.000  H
  C1692    1.0000 0.54966  0.49751  0.70796  Biso   1.000  C
  C1693    1.0000 0.58272  0.50029  0.69930  Biso   1.000  C
  H1635    1.0000 0.56527  0.44865  0.68683  Biso   1.000  H
  C1694    1.0000 0.34983  0.32077  0.71132  Biso   1.000  C
  H1636    1.0000 0.38297  0.27363  0.69223  Biso   1.000  H
  C1695    1.0000 0.33900  0.27825  0.70453  Biso   1.000  C
  H1637    1.0000 0.80606  0.64315  0.70703  Biso   1.000  H
  H1638    1.0000 0.83257  0.65363  0.69554  Biso   1.000  H
  C1696    1.0000 0.75314  0.62519  0.69488  Biso   1.000  C
  C1697    1.0000 0.81715  0.86209  0.72852  Biso   1.000  C
  C1698    1.0000 0.77880  0.68809  0.72474  Biso   1.000  C
  H1639    1.0000 0.94328  0.98094  0.67764  Biso   1.000  H
  H1640    1.0000 0.92905  0.92633  0.67223  Biso   1.000  H
  C1699    1.0000 0.87297  0.94737  0.66952  Biso   1.000  C
  C1700    1.0000 0.86690  0.98301  0.71866  Biso   1.000  C
  H1641    1.0000 0.62928  0.06817  0.67460  Biso   1.000  H
  C1701    1.0000 0.64864  0.12384  0.68597  Biso   1.000  C
  H1642    1.0000 0.67658  0.19108  0.69450  Biso   1.000  H
  H1643    1.0000 0.35685  0.16292  0.70703  Biso   1.000  H
  H1644    1.0000 0.34635  0.17891  0.69554  Biso   1.000  H
  C1702    1.0000 0.37478  0.12790  0.69488  Biso   1.000  C
  C1703    1.0000 0.13792  0.95508  0.72852  Biso   1.000  C
  C1704    1.0000 0.31190  0.09070  0.72474  Biso   1.000  C
  H1645    1.0000 0.01907  0.96232  0.67764  Biso   1.000  H
  C1705    1.0000 0.05264  0.92558  0.66952  Biso   1.000  C
  H1646    1.0000 0.07366  0.00273  0.67223  Biso   1.000  H
  C1706    1.0000 0.01698  0.88388  0.71866  Biso   1.000  C
  C1707    1.0000 0.96759  0.43461  0.71633  Biso   1.000  C
  C1708    1.0000 0.31710  0.32077  0.71937  Biso   1.000  C
  H1647    1.0000 0.90918  0.38215  0.69813  Biso   1.000  H
  C1709    1.0000 0.00365  0.68289  0.71937  Biso   1.000  C
  H1648    1.0000 0.93596  0.69142  0.70473  Biso   1.000  H
  C1710    1.0000 0.56540  0.53299  0.71633  Biso   1.000  C
  H1649    1.0000 0.61788  0.52704  0.69813  Biso   1.000  H
  H1650    1.0000 0.30856  0.24453  0.70473  Biso   1.000  H
  H1651    1.0000 0.72675  0.62723  0.69944  Biso   1.000  H
  H1652    1.0000 0.75298  0.64025  0.68784  Biso   1.000  H
  C1711    1.0000 0.73801  0.56816  0.69346  Biso   1.000  C
  H1653    1.0000 0.80746  0.87442  0.72203  Biso   1.000  H
  H1654    1.0000 0.79576  0.82352  0.72873  Biso   1.000  H
  C1712    1.0000 0.80621  0.88431  0.73805  Biso   1.000  C
  H1655    1.0000 0.80255  0.67632  0.72643  Biso   1.000  H
  C1713    1.0000 0.72471  0.64909  0.72214  Biso   1.000  C
  H1656    1.0000 0.86078  0.96893  0.67324  Biso   1.000  H
  H1657    1.0000 0.84256  0.91162  0.66873  Biso   1.000  H
  C1714    1.0000 0.89264  0.96998  0.65870  Biso   1.000  C
  H1658    1.0000 0.89276  0.99963  0.72404  Biso   1.000  H
  C1715    1.0000 0.81894  0.98688  0.71897  Biso   1.000  C
  C1716    1.0000 0.62157  0.08656  0.69516  Biso   1.000  C
  H1659    1.0000 0.37274  0.09950  0.69944  Biso   1.000  H
  H1660    1.0000 0.35977  0.11273  0.68784  Biso   1.000  H
  C1717    1.0000 0.43186  0.16984  0.69346  Biso   1.000  C
  H1661    1.0000 0.12556  0.93302  0.72203  Biso   1.000  H
  H1662    1.0000 0.17648  0.97225  0.72873  Biso   1.000  H
  C1718    1.0000 0.11565  0.92187  0.73805  Biso   1.000  C
  H1663    1.0000 0.32366  0.12622  0.72643  Biso   1.000  H
  C1719    1.0000 0.35090  0.07560  0.72214  Biso   1.000  C
  H1664    1.0000 0.03105  0.89182  0.67324  Biso   1.000  H
  H1665    1.0000 0.08838  0.93094  0.66873  Biso   1.000  H
  C1720    1.0000 0.03003  0.92265  0.65870  Biso   1.000  C
  H1666    1.0000 0.00036  0.89311  0.72404  Biso   1.000  H
  C1721    1.0000 0.01312  0.83205  0.71897  Biso   1.000  C
  C1722    1.0000 0.99870  0.46633  0.72466  Biso   1.000  C
  C1723    1.0000 0.32985  0.36165  0.72668  Biso   1.000  C
  C1724    1.0000 0.03180  0.67014  0.72668  Biso   1.000  C
  C1725    1.0000 0.00872  0.73531  0.71989  Biso   1.000  C
  C1726    1.0000 0.53368  0.53236  0.72466  Biso   1.000  C
  C1727    1.0000 0.62167  0.57371  0.71753  Biso   1.000  C
  H1667    1.0000 0.70326  0.54895  0.69023  Biso   1.000  H
  H1668    1.0000 0.73735  0.55282  0.70043  Biso   1.000  H
  H1669    1.0000 0.76355  0.56593  0.68883  Biso   1.000  H
  H1670    1.0000 0.81195  0.86863  0.74453  Biso   1.000  H
  H1671    1.0000 0.83074  0.92241  0.73833  Biso   1.000  H
  C1728    1.0000 0.75028  0.87410  0.73805  Biso   1.000  C
  C1729    1.0000 0.68949  0.66368  0.71902  Biso   1.000  C
  C1730    1.0000 0.70897  0.59667  0.72260  Biso   1.000  C
  H1672    1.0000 0.86456  0.97073  0.65473  Biso   1.000  H
  H1673    1.0000 0.90398  0.94835  0.65494  Biso   1.000  H
  H1674    1.0000 0.92227  0.00574  0.65943  Biso   1.000  H
  C1731    1.0000 0.78199  0.96501  0.71084  Biso   1.000  C
  C1732    1.0000 0.80888  0.01102  0.72738  Biso   1.000  C
  C1733    1.0000 0.57171  0.07560  0.69817  Biso   1.000  C
  C1734    1.0000 0.65229  0.07001  0.70018  Biso   1.000  C
  H1675    1.0000 0.45106  0.15431  0.69023  Biso   1.000  H
  H1676    1.0000 0.44716  0.18451  0.70043  Biso   1.000  H
  H1677    1.0000 0.43406  0.19761  0.68883  Biso   1.000  H
  H1678    1.0000 0.13137  0.94334  0.74453  Biso   1.000  H
  H1679    1.0000 0.07758  0.90833  0.73833  Biso   1.000  H
  C1735    1.0000 0.12591  0.87618  0.73805  Biso   1.000  C
  C1736    1.0000 0.33633  0.02581  0.71902  Biso   1.000  C
  C1737    1.0000 0.40333  0.11230  0.72260  Biso   1.000  C
  H1680    1.0000 0.02927  0.89382  0.65473  Biso   1.000  H
  H1681    1.0000 0.05167  0.95563  0.65494  Biso   1.000  H
  H1682    1.0000 0.99429  0.91655  0.65943  Biso   1.000  H
  C1738    1.0000 0.03497  0.81695  0.71084  Biso   1.000  C
  C1739    1.0000 0.98898  0.79786  0.72738  Biso   1.000  C
  N182     1.0000 0.01762  0.51942  0.72580  Biso   1.000  N
  C1740    1.0000 0.01602  0.44955  0.73359  Biso   1.000  C
  N183     1.0000 0.37660  0.40628  0.72735  Biso   1.000  N
  C1741    1.0000 0.29495  0.36130  0.73466  Biso   1.000  C
  N184     1.0000 0.02970  0.62339  0.72735  Biso   1.000  N
  C1742    1.0000 0.06632  0.70503  0.73466  Biso   1.000  C
  C1743    1.0000 0.03235  0.76962  0.71123  Biso   1.000  C
  C1744    1.0000 0.98664  0.75010  0.72786  Biso   1.000  C
  N185     1.0000 0.48059  0.49821  0.72580  Biso   1.000  N
  C1745    1.0000 0.55046  0.56648  0.73359  Biso   1.000  C
  C1746    1.0000 0.63839  0.62605  0.71678  Biso   1.000  C
  C1747    1.0000 0.65734  0.55853  0.72038  Biso   1.000  C
  H1683    1.0000 0.74455  0.88912  0.73153  Biso   1.000  H
  H1684    1.0000 0.72597  0.83585  0.73783  Biso   1.000  H
  C1748    1.0000 0.73698  0.89722  0.74774  Biso   1.000  C
  H1685    1.0000 0.70017  0.69975  0.71833  Biso   1.000  H
  H1686    1.0000 0.73356  0.58623  0.72443  Biso   1.000  H
  H1687    1.0000 0.78797  0.94812  0.70504  Biso   1.000  H
  C1749    1.0000 0.73728  0.96767  0.71123  Biso   1.000  C
  H1688    1.0000 0.83387  0.02624  0.73293  Biso   1.000  H
  C1750    1.0000 0.76348  0.01337  0.72786  Biso   1.000  C
  N186     1.0000 0.54578  0.04724  0.70693  Biso   1.000  N
  C1751    1.0000 0.54244  0.09661  0.69321  Biso   1.000  C
  N187     1.0000 0.63777  0.03582  0.70875  Biso   1.000  N
  C1752    1.0000 0.70583  0.08570  0.69772  Biso   1.000  C
  H1689    1.0000 0.11086  0.85544  0.73153  Biso   1.000  H
  H1690    1.0000 0.16416  0.89014  0.73783  Biso   1.000  H
  C1753    1.0000 0.10276  0.83972  0.74774  Biso   1.000  C
  H1691    1.0000 0.30026  0.00042  0.71833  Biso   1.000  H
  C1754    1.0000 0.37395  0.01235  0.71678  Biso   1.000  C
  H1692    1.0000 0.41375  0.14731  0.72443  Biso   1.000  H
  C1755    1.0000 0.44145  0.09876  0.72038  Biso   1.000  C
  H1693    1.0000 0.05187  0.83984  0.70504  Biso   1.000  H
  H1694    1.0000 0.97378  0.80764  0.73293  Biso   1.000  H
  C1756    1.0000 0.04569  0.53639  0.73521  Biso   1.000  C
  C1757    1.0000 0.04388  0.49117  0.73985  Biso   1.000  C
  H1695    1.0000 0.00908  0.41493  0.73494  Biso   1.000  H
  H1696    1.0000 0.40397  0.41563  0.72323  Biso   1.000  H
  C1758    1.0000 0.37315  0.43429  0.73572  Biso   1.000  C
  H1697    1.0000 0.25976  0.33454  0.73573  Biso   1.000  H
  C1759    1.0000 0.32125  0.40589  0.74031  Biso   1.000  C
  H1698    1.0000 0.01169  0.59605  0.72323  Biso   1.000  H
  C1760    1.0000 0.06113  0.62684  0.73572  Biso   1.000  C
  H1699    1.0000 0.07477  0.74024  0.73573  Biso   1.000  H
  C1761    1.0000 0.08465  0.67875  0.74031  Biso   1.000  C
  H1700    1.0000 0.04667  0.75945  0.70553  Biso   1.000  H
  H1701    1.0000 0.96977  0.72733  0.73373  Biso   1.000  H
  C1762    1.0000 0.46360  0.50928  0.73521  Biso   1.000  C
  C1763    1.0000 0.50882  0.55271  0.73985  Biso   1.000  C
  H1702    1.0000 0.58506  0.59413  0.73494  Biso   1.000  H
  H1703    1.0000 0.61425  0.63673  0.71463  Biso   1.000  H
  H1704    1.0000 0.64687  0.52255  0.72084  Biso   1.000  H
  H1705    1.0000 0.70057  0.88924  0.74724  Biso   1.000  H
  H1706    1.0000 0.76026  0.93525  0.74783  Biso   1.000  H
  H1707    1.0000 0.74166  0.88193  0.75424  Biso   1.000  H
  H1708    1.0000 0.71275  0.95332  0.70553  Biso   1.000  H
  C1764    1.0000 0.72660  0.99130  0.71989  Biso   1.000  C
  H1709    1.0000 0.75757  0.03023  0.73373  Biso   1.000  H
  H1710    1.0000 0.55515  0.02933  0.71113  Biso   1.000  H
  C1765    1.0000 0.50249  0.05213  0.70796  Biso   1.000  C
  C1766    1.0000 0.49970  0.08241  0.69930  Biso   1.000  C
  H1711    1.0000 0.55137  0.11664  0.68683  Biso   1.000  H
  C1767    1.0000 0.67924  0.02905  0.71132  Biso   1.000  C
  H1712    1.0000 0.72635  0.10932  0.69223  Biso   1.000  H
  C1768    1.0000 0.72174  0.06074  0.70453  Biso   1.000  C
  H1713    1.0000 0.11075  0.81132  0.74724  Biso   1.000  H
  H1714    1.0000 0.06477  0.82505  0.74783  Biso   1.000  H
  H1715    1.0000 0.11806  0.85975  0.75424  Biso   1.000  H
  H1716    1.0000 0.36325  0.97753  0.71463  Biso   1.000  H
  C1769    1.0000 0.42630  0.04795  0.71753  Biso   1.000  C
  H1717    1.0000 0.47746  0.12431  0.72084  Biso   1.000  H
  C1770    1.0000 0.06696  0.58572  0.73959  Biso   1.000  C
  H1718    1.0000 0.05996  0.49074  0.74634  Biso   1.000  H
  C1771    1.0000 0.41427  0.48124  0.73959  Biso   1.000  C
  H1719    1.0000 0.30827  0.41653  0.74613  Biso   1.000  H
  H1720    1.0000 0.10828  0.69173  0.74613  Biso   1.000  H
  H1721    1.0000 0.50927  0.56925  0.74634  Biso   1.000  H
  C1772    1.0000 0.67922  0.99635  0.71937  Biso   1.000  C
  C1773    1.0000 0.46700  0.03238  0.71633  Biso   1.000  C
  H1722    1.0000 0.47295  0.09082  0.69813  Biso   1.000  H
  H1723    1.0000 0.75547  0.06402  0.70473  Biso   1.000  H
  C1774    1.0000 0.09615  0.59327  0.74981  Biso   1.000  C
  C1775    1.0000 0.40673  0.50287  0.74981  Biso   1.000  C
  C1776    1.0000 0.63836  0.96822  0.72668  Biso   1.000  C
  C1777    1.0000 0.46761  0.00128  0.72466  Biso   1.000  C
  C1778    1.0000 0.07723  0.60293  0.75915  Biso   1.000  C
  C1779    1.0000 0.13914  0.58541  0.75029  Biso   1.000  C
  C1780    1.0000 0.39706  0.47431  0.75915  Biso   1.000  C
  C1781    1.0000 0.41457  0.55372  0.75029  Biso   1.000  C
  N188     1.0000 0.59369  0.97030  0.72735  Biso   1.000  N
  C1782    1.0000 0.63870  0.93368  0.73466  Biso   1.000  C
  N189     1.0000 0.50180  0.98238  0.72580  Biso   1.000  N
  C1783    1.0000 0.43355  0.98399  0.73359  Biso   1.000  C
  H1724    1.0000 0.04867  0.60923  0.75893  Biso   1.000  H
  C1784    1.0000 0.09987  0.60336  0.76872  Biso   1.000  C
  H1725    1.0000 0.15336  0.58025  0.74393  Biso   1.000  H
  C1785    1.0000 0.16106  0.58521  0.76004  Biso   1.000  C
  H1726    1.0000 0.39076  0.43942  0.75893  Biso   1.000  H
  C1786    1.0000 0.39665  0.49653  0.76872  Biso   1.000  C
  H1727    1.0000 0.41977  0.57313  0.74393  Biso   1.000  H
  C1787    1.0000 0.41478  0.57582  0.76004  Biso   1.000  C
  H1728    1.0000 0.58438  0.98833  0.72323  Biso   1.000  H
  C1788    1.0000 0.56572  0.93888  0.73572  Biso   1.000  C
  H1729    1.0000 0.66547  0.92523  0.73573  Biso   1.000  H
  C1789    1.0000 0.59409  0.91533  0.74031  Biso   1.000  C
  C1790    1.0000 0.49070  0.95430  0.73521  Biso   1.000  C
  C1791    1.0000 0.44731  0.95613  0.73985  Biso   1.000  C
  H1730    1.0000 0.40587  0.99095  0.73494  Biso   1.000  H
  H1731    1.0000 0.08725  0.61091  0.77503  Biso   1.000  H
  C1792    1.0000 0.14103  0.59292  0.76938  Biso   1.000  C
  H1732    1.0000 0.19017  0.57974  0.76033  Biso   1.000  H
  H1733    1.0000 0.38906  0.47635  0.77503  Biso   1.000  H
  C1793    1.0000 0.40708  0.54809  0.76938  Biso   1.000  C
  H1734    1.0000 0.42027  0.61044  0.76033  Biso   1.000  H
  C1794    1.0000 0.51877  0.93305  0.73959  Biso   1.000  C
  H1735    1.0000 0.58348  0.89175  0.74613  Biso   1.000  H
  H1736    1.0000 0.43074  0.94002  0.74634  Biso   1.000  H
  C1795    1.0000 0.16307  0.59296  0.77983  Biso   1.000  C
  C1796    1.0000 0.40705  0.57011  0.77983  Biso   1.000  C
  C1797    1.0000 0.49713  0.90387  0.74981  Biso   1.000  C
  N190     1.0000 0.20018  0.58275  0.78094  Biso   1.000  N
  H1737    1.0000 0.14938  0.60074  0.78593  Biso   1.000  H
  N191     1.0000 0.41723  0.61745  0.78094  Biso   1.000  N
  H1738    1.0000 0.39926  0.54864  0.78593  Biso   1.000  H
  C1798    1.0000 0.52568  0.92277  0.75915  Biso   1.000  C
  C1799    1.0000 0.44630  0.86088  0.75029  Biso   1.000  C
  C1800    1.0000 0.22221  0.58920  0.79167  Biso   1.000  C
  C1801    1.0000 0.41079  0.63302  0.79167  Biso   1.000  C
  H1739    1.0000 0.56056  0.95132  0.75893  Biso   1.000  H
  C1802    1.0000 0.50348  0.90012  0.76872  Biso   1.000  C
  H1740    1.0000 0.42688  0.84664  0.74393  Biso   1.000  H
  C1803    1.0000 0.42414  0.83894  0.76004  Biso   1.000  C
  H1741    1.0000 0.20406  0.60102  0.79663  Biso   1.000  H
  H1742    1.0000 0.21706  0.55533  0.79423  Biso   1.000  H
  C1804    1.0000 0.27961  0.62887  0.79136  Biso   1.000  C
  H1743    1.0000 0.39899  0.60305  0.79663  Biso   1.000  H
  H1744    1.0000 0.44466  0.66173  0.79423  Biso   1.000  H
  C1805    1.0000 0.37114  0.65074  0.79136  Biso   1.000  C
  H1745    1.0000 0.52369  0.91275  0.77503  Biso   1.000  H
  C1806    1.0000 0.45189  0.85900  0.76938  Biso   1.000  C
  H1746    1.0000 0.38957  0.80983  0.76033  Biso   1.000  H
  C1807    1.0000 0.29669  0.68207  0.79115  Biso   1.000  C
  C1808    1.0000 0.31792  0.61463  0.79115  Biso   1.000  C
  C1809    1.0000 0.38540  0.70331  0.79115  Biso   1.000  C
  C1810    1.0000 0.42989  0.83694  0.77983  Biso   1.000  C
  O94      1.0000 0.25877  0.69729  0.79114  Biso   1.000  O
  C1811    1.0000 0.34926  0.72041  0.79136  Biso   1.000  C
  O95      1.0000 0.30272  0.56147  0.79114  Biso   1.000  O
  O96      1.0000 0.43852  0.74126  0.79114  Biso   1.000  O
  N192     1.0000 0.38256  0.79982  0.78094  Biso   1.000  N
  H1747    1.0000 0.45137  0.85063  0.78593  Biso   1.000  H
  C1812    1.0000 0.25216  0.71516  0.78073  Biso   1.000  C
  C1813    1.0000 0.36701  0.77779  0.79167  Biso   1.000  C
  C1814    1.0000 0.28482  0.53698  0.78073  Biso   1.000  C
  C1815    1.0000 0.46301  0.74783  0.78073  Biso   1.000  C
  H1748    1.0000 0.28437  0.74775  0.77873  Biso   1.000  H
  H1749    1.0000 0.24517  0.68825  0.77523  Biso   1.000  H
  C1816    1.0000 0.20669  0.72498  0.78141  Biso   1.000  C
  H1750    1.0000 0.39696  0.79594  0.79663  Biso   1.000  H
  H1751    1.0000 0.33827  0.78292  0.79423  Biso   1.000  H
  H1752    1.0000 0.25226  0.53663  0.77873  Biso   1.000  H
  H1753    1.0000 0.31177  0.55693  0.77523  Biso   1.000  H
  C1817    1.0000 0.27500  0.48171  0.78141  Biso   1.000  C
  H1754    1.0000 0.46338  0.71563  0.77873  Biso   1.000  H
  H1755    1.0000 0.44307  0.75483  0.77523  Biso   1.000  H
  C1818    1.0000 0.51832  0.79332  0.78141  Biso   1.000  C
  H1756    1.0000 0.17565  0.69353  0.78433  Biso   1.000  H
  H1757    1.0000 0.21556  0.75444  0.78633  Biso   1.000  H
  C1819    1.0000 0.19360  0.73797  0.77040  Biso   1.000  C
  H1758    1.0000 0.30645  0.48214  0.78433  Biso   1.000  H
  H1759    1.0000 0.24557  0.46113  0.78633  Biso   1.000  H
  C1820    1.0000 0.26202  0.45561  0.77040  Biso   1.000  C
  H1760    1.0000 0.51787  0.82434  0.78433  Biso   1.000  H
  H1761    1.0000 0.53888  0.78444  0.78633  Biso   1.000  H
  C1821    1.0000 0.54436  0.80639  0.77040  Biso   1.000  C
  H1762    1.0000 0.18607  0.70902  0.76543  Biso   1.000  H
  H1763    1.0000 0.22438  0.77005  0.76763  Biso   1.000  H
  C1822    1.0000 0.14654  0.74650  0.77072  Biso   1.000  C
  H1764    1.0000 0.29097  0.47705  0.76543  Biso   1.000  H
  H1765    1.0000 0.22997  0.45432  0.76763  Biso   1.000  H
  C1823    1.0000 0.25349  0.40007  0.77072  Biso   1.000  C
  H1766    1.0000 0.52297  0.81394  0.76543  Biso   1.000  H
  H1767    1.0000 0.54566  0.77564  0.76763  Biso   1.000  H
  C1824    1.0000 0.59994  0.85345  0.77072  Biso   1.000  C
  H1768    1.0000 0.13967  0.75464  0.76354  Biso   1.000  H
  H1769    1.0000 0.15417  0.77564  0.77554  Biso   1.000  H
  H1770    1.0000 0.11576  0.71462  0.77333  Biso   1.000  H
  H1771    1.0000 0.24537  0.38504  0.76354  Biso   1.000  H
  H1772    1.0000 0.22437  0.37855  0.77554  Biso   1.000  H
  H1773    1.0000 0.28536  0.40112  0.77333  Biso   1.000  H
  H1774    1.0000 0.61497  0.86033  0.76354  Biso   1.000  H
  H1775    1.0000 0.62147  0.84582  0.77554  Biso   1.000  H
  H1776    1.0000 0.59887  0.88424  0.77333  Biso   1.000  H
  O97      1.0000 0.56149  0.30274  0.70886  Biso   1.000  O
  C1825    1.0000 0.61461  0.31792  0.70885  Biso   1.000  C
  C1826    1.0000 0.53698  0.28482  0.71927  Biso   1.000  C
  C1827    1.0000 0.62887  0.27962  0.70864  Biso   1.000  C
  C1828    1.0000 0.65075  0.37116  0.70864  Biso   1.000  C
  H1777    1.0000 0.53663  0.25228  0.72127  Biso   1.000  H
  H1778    1.0000 0.55693  0.31177  0.72477  Biso   1.000  H
  C1829    1.0000 0.48170  0.27500  0.71859  Biso   1.000  C
  C1830    1.0000 0.58923  0.22223  0.70833  Biso   1.000  C
  C1831    1.0000 0.68210  0.29671  0.70885  Biso   1.000  C
  C1832    1.0000 0.63300  0.41078  0.70833  Biso   1.000  C
  C1833    1.0000 0.70330  0.38540  0.70885  Biso   1.000  C
  H1779    1.0000 0.48211  0.30645  0.71567  Biso   1.000  H
  H1780    1.0000 0.46113  0.24559  0.71367  Biso   1.000  H
  C1834    1.0000 0.45562  0.26202  0.72960  Biso   1.000  C
  N193     1.0000 0.58276  0.20021  0.71906  Biso   1.000  N
  H1781    1.0000 0.60102  0.20408  0.70337  Biso   1.000  H
  H1782    1.0000 0.55535  0.21707  0.70577  Biso   1.000  H
  O98      1.0000 0.69728  0.25877  0.70886  Biso   1.000  O
  C1835    1.0000 0.72039  0.34925  0.70864  Biso   1.000  C
  N194     1.0000 0.61742  0.41724  0.71906  Biso   1.000  N
  H1783    1.0000 0.60304  0.39897  0.70337  Biso   1.000  H
  H1784    1.0000 0.66172  0.44466  0.70577  Biso   1.000  H
  O99      1.0000 0.74125  0.43852  0.70886  Biso   1.000  O
  H1785    1.0000 0.47704  0.29096  0.73457  Biso   1.000  H
  H1786    1.0000 0.45434  0.22998  0.73237  Biso   1.000  H
  C1836    1.0000 0.40003  0.25349  0.72928  Biso   1.000  C
  C1837    1.0000 0.59294  0.16305  0.72017  Biso   1.000  C
  C1838    1.0000 0.71518  0.25216  0.71927  Biso   1.000  C
  C1839    1.0000 0.77779  0.36701  0.70833  Biso   1.000  C
  C1840    1.0000 0.57012  0.40707  0.72017  Biso   1.000  C
  C1841    1.0000 0.74783  0.46301  0.71927  Biso   1.000  C
  H1787    1.0000 0.38502  0.24535  0.73646  Biso   1.000  H
  H1788    1.0000 0.37854  0.22438  0.72446  Biso   1.000  H
  H1789    1.0000 0.40114  0.28537  0.72667  Biso   1.000  H
  C1842    1.0000 0.59290  0.14102  0.73062  Biso   1.000  C
  H1790    1.0000 0.60073  0.14935  0.71407  Biso   1.000  H
  H1791    1.0000 0.74774  0.28435  0.72127  Biso   1.000  H
  H1792    1.0000 0.68823  0.24516  0.72477  Biso   1.000  H
  C1843    1.0000 0.72501  0.20670  0.71859  Biso   1.000  C
  N195     1.0000 0.79980  0.38258  0.71906  Biso   1.000  N
  H1793    1.0000 0.79595  0.39697  0.70337  Biso   1.000  H
  H1794    1.0000 0.78292  0.33826  0.70577  Biso   1.000  H
  C1844    1.0000 0.54812  0.40711  0.73062  Biso   1.000  C
  H1795    1.0000 0.54865  0.39928  0.71407  Biso   1.000  H
  H1796    1.0000 0.71562  0.46336  0.72127  Biso   1.000  H
  H1797    1.0000 0.75483  0.44306  0.72477  Biso   1.000  H
  C1845    1.0000 0.79331  0.51832  0.71859  Biso   1.000  C
  C1846    1.0000 0.60336  0.09987  0.73128  Biso   1.000  C
  C1847    1.0000 0.58520  0.16105  0.73996  Biso   1.000  C
  H1798    1.0000 0.69354  0.17568  0.71567  Biso   1.000  H
  H1799    1.0000 0.75445  0.21558  0.71367  Biso   1.000  H
  C1848    1.0000 0.73797  0.19360  0.72960  Biso   1.000  C
  C1849    1.0000 0.83693  0.42987  0.72017  Biso   1.000  C
  C1850    1.0000 0.49650  0.39662  0.73128  Biso   1.000  C
  C1851    1.0000 0.57584  0.41477  0.73996  Biso   1.000  C
  H1800    1.0000 0.82431  0.51785  0.71567  Biso   1.000  H
  H1801    1.0000 0.78444  0.53886  0.71367  Biso   1.000  H
  C1852    1.0000 0.80640  0.54437  0.72960  Biso   1.000  C
  C1853    1.0000 0.60293  0.07726  0.74085  Biso   1.000  C
  H1802    1.0000 0.61095  0.08727  0.72497  Biso   1.000  H
  C1854    1.0000 0.58543  0.13914  0.74971  Biso   1.000  C
  H1803    1.0000 0.57973  0.19016  0.73967  Biso   1.000  H
  H1804    1.0000 0.70902  0.18605  0.73457  Biso   1.000  H
  H1805    1.0000 0.77003  0.22438  0.73237  Biso   1.000  H
  C1855    1.0000 0.74649  0.14654  0.72928  Biso   1.000  C
  C1856    1.0000 0.85899  0.45190  0.73062  Biso   1.000  C
  H1806    1.0000 0.85062  0.45135  0.71407  Biso   1.000  H
  C1857    1.0000 0.47429  0.39705  0.74085  Biso   1.000  C
  H1807    1.0000 0.47633  0.38907  0.72497  Biso   1.000  H
  C1858    1.0000 0.55372  0.41458  0.74971  Biso   1.000  C
  H1808    1.0000 0.61042  0.42025  0.73967  Biso   1.000  H
  H1809    1.0000 0.81393  0.52298  0.73457  Biso   1.000  H
  H1810    1.0000 0.77564  0.54566  0.73237  Biso   1.000  H
  C1859    1.0000 0.85344  0.59996  0.72928  Biso   1.000  C
  C1860    1.0000 0.59327  0.09615  0.75019  Biso   1.000  C
  H1811    1.0000 0.60923  0.04866  0.74107  Biso   1.000  H
  H1812    1.0000 0.58025  0.15338  0.75607  Biso   1.000  H
  H1813    1.0000 0.75463  0.13965  0.73646  Biso   1.000  H
  H1814    1.0000 0.77564  0.15417  0.72446  Biso   1.000  H
  H1815    1.0000 0.71463  0.11575  0.72667  Biso   1.000  H
  C1861    1.0000 0.90013  0.50349  0.73128  Biso   1.000  C
  C1862    1.0000 0.83895  0.42416  0.73996  Biso   1.000  C
  C1863    1.0000 0.50289  0.40675  0.75019  Biso   1.000  C
  H1816    1.0000 0.43943  0.39075  0.74107  Biso   1.000  H
  H1817    1.0000 0.57313  0.41978  0.75607  Biso   1.000  H
  H1818    1.0000 0.86034  0.61498  0.73646  Biso   1.000  H
  H1819    1.0000 0.84584  0.62148  0.72446  Biso   1.000  H
  H1820    1.0000 0.88423  0.59887  0.72667  Biso   1.000  H
  C1864    1.0000 0.58572  0.06697  0.76041  Biso   1.000  C
  C1865    1.0000 0.92274  0.52567  0.74085  Biso   1.000  C
  H1821    1.0000 0.91273  0.52368  0.72497  Biso   1.000  H
  C1866    1.0000 0.86084  0.44626  0.74971  Biso   1.000  C
  H1822    1.0000 0.80984  0.38958  0.73967  Biso   1.000  H
  C1867    1.0000 0.48126  0.41430  0.76041  Biso   1.000  C
  C1868    1.0000 0.62685  0.06114  0.76428  Biso   1.000  C
  C1869    1.0000 0.53640  0.04569  0.76479  Biso   1.000  C
  C1870    1.0000 0.90385  0.49712  0.75019  Biso   1.000  C
  H1823    1.0000 0.95133  0.56057  0.74107  Biso   1.000  H
  H1824    1.0000 0.84664  0.42686  0.75607  Biso   1.000  H
  C1871    1.0000 0.43429  0.37315  0.76428  Biso   1.000  C
  C1872    1.0000 0.50929  0.46359  0.76479  Biso   1.000  C
  N196     1.0000 0.62339  0.02969  0.77265  Biso   1.000  N
  C1873    1.0000 0.67875  0.08465  0.75969  Biso   1.000  C
  N197     1.0000 0.51942  0.01764  0.77420  Biso   1.000  N
  C1874    1.0000 0.49117  0.04385  0.76015  Biso   1.000  C
  C1875    1.0000 0.93303  0.51875  0.76041  Biso   1.000  C
  N198     1.0000 0.40630  0.37659  0.77265  Biso   1.000  N
  C1876    1.0000 0.40589  0.32124  0.75969  Biso   1.000  C
  N199     1.0000 0.49820  0.48057  0.77420  Biso   1.000  N
  C1877    1.0000 0.55270  0.50881  0.76015  Biso   1.000  C
  H1825    1.0000 0.59604  0.01166  0.77677  Biso   1.000  H
  C1878    1.0000 0.67015  0.03180  0.77332  Biso   1.000  C
  C1879    1.0000 0.70503  0.06635  0.76534  Biso   1.000  C
  H1826    1.0000 0.69175  0.10828  0.75387  Biso   1.000  H
  C1880    1.0000 0.46632  0.99871  0.77534  Biso   1.000  C
  H1827    1.0000 0.49072  0.05997  0.75366  Biso   1.000  H
  C1881    1.0000 0.44956  0.01600  0.76641  Biso   1.000  C
  C1882    1.0000 0.93885  0.56569  0.76428  Biso   1.000  C
  C1883    1.0000 0.95431  0.49070  0.76479  Biso   1.000  C
  H1828    1.0000 0.41565  0.40398  0.77677  Biso   1.000  H
  C1884    1.0000 0.36165  0.32985  0.77332  Biso   1.000  C
  C1885    1.0000 0.36128  0.29495  0.76534  Biso   1.000  C
  H1829    1.0000 0.41654  0.30825  0.75387  Biso   1.000  H
  C1886    1.0000 0.53238  0.53369  0.77534  Biso   1.000  C
  H1830    1.0000 0.56923  0.50928  0.75366  Biso   1.000  H
  C1887    1.0000 0.56646  0.55044  0.76641  Biso   1.000  C
  C1888    1.0000 0.68286  0.00364  0.78063  Biso   1.000  C
  H1831    1.0000 0.74024  0.07476  0.76427  Biso   1.000  H
  C1889    1.0000 0.43461  0.96761  0.78367  Biso   1.000  C
  H1832    1.0000 0.41493  0.00908  0.76506  Biso   1.000  H
  N200     1.0000 0.97030  0.59370  0.77265  Biso   1.000  N
  C1890    1.0000 0.91535  0.59409  0.75969  Biso   1.000  C
  N201     1.0000 0.98239  0.50181  0.77420  Biso   1.000  N
  C1891    1.0000 0.95613  0.44732  0.76015  Biso   1.000  C
  C1892    1.0000 0.32077  0.31713  0.78063  Biso   1.000  C
  H1833    1.0000 0.33455  0.25979  0.76427  Biso   1.000  H
  C1893    1.0000 0.53298  0.56538  0.78367  Biso   1.000  C
  H1834    1.0000 0.59414  0.58506  0.76506  Biso   1.000  H
  C1894    1.0000 0.73529  0.00868  0.78011  Biso   1.000  C
  C1895    1.0000 0.65020  0.97097  0.78868  Biso   1.000  C
  C1896    1.0000 0.45035  0.94786  0.79204  Biso   1.000  C
  C1897    1.0000 0.37835  0.95204  0.78247  Biso   1.000  C
  H1835    1.0000 0.98833  0.58435  0.77677  Biso   1.000  H
  C1898    1.0000 0.96822  0.63838  0.77332  Biso   1.000  C
  C1899    1.0000 0.93365  0.63869  0.76534  Biso   1.000  C
  H1836    1.0000 0.89173  0.58345  0.75387  Biso   1.000  H
  C1900    1.0000 0.00131  0.46762  0.77534  Biso   1.000  C
  H1837    1.0000 0.94003  0.43077  0.75366  Biso   1.000  H
  C1901    1.0000 0.98400  0.43355  0.76641  Biso   1.000  C
  C1902    1.0000 0.32076  0.34984  0.78868  Biso   1.000  C
  C1903    1.0000 0.27342  0.26472  0.78011  Biso   1.000  C
  C1904    1.0000 0.49750  0.54965  0.79204  Biso   1.000  C
  C1905    1.0000 0.57373  0.62167  0.78247  Biso   1.000  C
  C1906    1.0000 0.76959  0.03231  0.78877  Biso   1.000  C
  C1907    1.0000 0.75010  0.98662  0.77214  Biso   1.000  C
  N202     1.0000 0.60196  0.96421  0.79125  Biso   1.000  N
  C1908    1.0000 0.66100  0.93925  0.79547  Biso   1.000  C
  N203     1.0000 0.49853  0.95274  0.79307  Biso   1.000  N
  C1909    1.0000 0.41729  0.91758  0.80070  Biso   1.000  C
  C1910    1.0000 0.36161  0.98768  0.78322  Biso   1.000  C
  C1911    1.0000 0.34268  0.90123  0.77962  Biso   1.000  C
  C1912    1.0000 0.99633  0.67921  0.78063  Biso   1.000  C
  H1838    1.0000 0.92523  0.66548  0.76427  Biso   1.000  H
  C1913    1.0000 0.03240  0.46700  0.78367  Biso   1.000  C
  H1839    1.0000 0.99092  0.40585  0.76506  Biso   1.000  H
  N204     1.0000 0.36220  0.39803  0.79125  Biso   1.000  N
  C1914    1.0000 0.27825  0.33900  0.79547  Biso   1.000  C
  C1915    1.0000 0.26274  0.23041  0.78877  Biso   1.000  C
  C1916    1.0000 0.23654  0.24989  0.77214  Biso   1.000  C
  N205     1.0000 0.45420  0.50146  0.79307  Biso   1.000  N
  C1917    1.0000 0.50028  0.58271  0.80070  Biso   1.000  C
  C1918    1.0000 0.62604  0.63841  0.78322  Biso   1.000  C
  C1919    1.0000 0.55851  0.65731  0.77962  Biso   1.000  C
  C1920    1.0000 0.81698  0.03501  0.78916  Biso   1.000  C
  H1840    1.0000 0.75943  0.04667  0.79447  Biso   1.000  H
  C1921    1.0000 0.79786  0.98897  0.77262  Biso   1.000  C
  H1841    1.0000 0.72734  0.96976  0.76627  Biso   1.000  H
  C1922    1.0000 0.58227  0.92998  0.79982  Biso   1.000  C
  C1923    1.0000 0.62015  0.91433  0.80228  Biso   1.000  C
  H1842    1.0000 0.69144  0.93596  0.79527  Biso   1.000  H
  H1843    1.0000 0.52581  0.97066  0.78887  Biso   1.000  H
  C1924    1.0000 0.49610  0.92438  0.80183  Biso   1.000  C
  H1844    1.0000 0.38212  0.90917  0.80187  Biso   1.000  H
  C1925    1.0000 0.44585  0.90342  0.80679  Biso   1.000  C
  H1845    1.0000 0.38571  0.02245  0.78537  Biso   1.000  H
  C1926    1.0000 0.31052  0.97418  0.78098  Biso   1.000  C
  C1927    1.0000 0.29102  0.88769  0.77740  Biso   1.000  C
  H1846    1.0000 0.35315  0.87568  0.77916  Biso   1.000  H
  C1928    1.0000 0.99128  0.72659  0.78011  Biso   1.000  C
  C1929    1.0000 0.02905  0.67921  0.78868  Biso   1.000  C
  C1930    1.0000 0.05216  0.50252  0.79204  Biso   1.000  C
  C1931    1.0000 0.04797  0.42631  0.78247  Biso   1.000  C
  C1932    1.0000 0.34768  0.41771  0.79982  Biso   1.000  C
  C1933    1.0000 0.29418  0.37988  0.80228  Biso   1.000  C
  H1847    1.0000 0.24453  0.30857  0.79527  Biso   1.000  H
  C1934    1.0000 0.21802  0.18304  0.78916  Biso   1.000  C
  H1848    1.0000 0.28724  0.24058  0.79447  Biso   1.000  H
  C1935    1.0000 0.19113  0.20216  0.77262  Biso   1.000  C
  H1849    1.0000 0.24243  0.27266  0.76627  Biso   1.000  H
  H1850    1.0000 0.44482  0.47416  0.78887  Biso   1.000  H
  C1936    1.0000 0.42828  0.50389  0.80183  Biso   1.000  C
  H1851    1.0000 0.52704  0.61788  0.80187  Biso   1.000  H
  C1937    1.0000 0.45754  0.55415  0.80679  Biso   1.000  C
  C1938    1.0000 0.66368  0.68950  0.78098  Biso   1.000  C
  H1852    1.0000 0.63673  0.61428  0.78537  Biso   1.000  H
  C1939    1.0000 0.59668  0.70898  0.77740  Biso   1.000  C
  H1853    1.0000 0.52253  0.64686  0.77916  Biso   1.000  H
  C1940    1.0000 0.83205  0.01310  0.78103  Biso   1.000  C
  H1854    1.0000 0.83985  0.05187  0.79496  Biso   1.000  H
  H1855    1.0000 0.80765  0.97379  0.76707  Biso   1.000  H
  C1941    1.0000 0.53501  0.91343  0.80484  Biso   1.000  C
  H1856    1.0000 0.61702  0.89066  0.80777  Biso   1.000  H
  H1857    1.0000 0.43475  0.88339  0.81317  Biso   1.000  H
  C1942    1.0000 0.27529  0.92438  0.77786  Biso   1.000  C
  H1858    1.0000 0.29984  0.99957  0.78167  Biso   1.000  H
  H1859    1.0000 0.26644  0.85268  0.77557  Biso   1.000  H
  C1943    1.0000 0.96766  0.73727  0.78877  Biso   1.000  C
  C1944    1.0000 0.01339  0.76348  0.77214  Biso   1.000  C
  N206     1.0000 0.03581  0.63779  0.79125  Biso   1.000  N
  C1945    1.0000 0.06077  0.72178  0.79547  Biso   1.000  C
  N207     1.0000 0.04723  0.54578  0.79307  Biso   1.000  N
  C1946    1.0000 0.08243  0.49970  0.80070  Biso   1.000  C
  C1947    1.0000 0.01235  0.37397  0.78322  Biso   1.000  C
  C1948    1.0000 0.09880  0.44145  0.77962  Biso   1.000  C
  C1949    1.0000 0.37839  0.46496  0.80484  Biso   1.000  C
  H1860    1.0000 0.27364  0.38297  0.80777  Biso   1.000  H
  C1950    1.0000 0.18108  0.16797  0.78103  Biso   1.000  C
  H1861    1.0000 0.21203  0.16015  0.79496  Biso   1.000  H
  H1862    1.0000 0.16615  0.19238  0.76707  Biso   1.000  H
  H1863    1.0000 0.44863  0.56526  0.81317  Biso   1.000  H
  C1951    1.0000 0.64910  0.72471  0.77786  Biso   1.000  C
  H1864    1.0000 0.69974  0.70018  0.78167  Biso   1.000  H
  H1865    1.0000 0.58623  0.73355  0.77557  Biso   1.000  H
  C1952    1.0000 0.88389  0.01698  0.78134  Biso   1.000  C
  C1953    1.0000 0.52482  0.87619  0.81403  Biso   1.000  C
  C1954    1.0000 0.22121  0.90932  0.77526  Biso   1.000  C
  C1955    1.0000 0.96501  0.78198  0.78916  Biso   1.000  C
  H1866    1.0000 0.95335  0.71278  0.79447  Biso   1.000  H
  C1956    1.0000 0.01103  0.80889  0.77262  Biso   1.000  C
  H1867    1.0000 0.03025  0.75757  0.76627  Biso   1.000  H
  C1957    1.0000 0.07004  0.65230  0.79982  Biso   1.000  C
  C1958    1.0000 0.08568  0.70582  0.80228  Biso   1.000  C
  H1868    1.0000 0.06402  0.75546  0.79527  Biso   1.000  H
  H1869    1.0000 0.02933  0.55517  0.78887  Biso   1.000  H
  C1959    1.0000 0.07561  0.57172  0.80183  Biso   1.000  C
  H1870    1.0000 0.09085  0.47298  0.80187  Biso   1.000  H
  C1960    1.0000 0.09659  0.54246  0.80679  Biso   1.000  C
  H1871    1.0000 0.97751  0.36325  0.78537  Biso   1.000  H
  C1961    1.0000 0.02582  0.33634  0.78098  Biso   1.000  C
  C1962    1.0000 0.11231  0.40335  0.77740  Biso   1.000  C
  H1872    1.0000 0.12434  0.47748  0.77916  Biso   1.000  H
  C1963    1.0000 0.35135  0.47517  0.81403  Biso   1.000  C
  C1964    1.0000 0.13309  0.11610  0.78134  Biso   1.000  C
  C1965    1.0000 0.68810  0.77881  0.77526  Biso   1.000  C
  N208     1.0000 0.91558  0.04174  0.78857  Biso   1.000  N
  H1873    1.0000 0.89312  0.00035  0.77596  Biso   1.000  H
  C1966    1.0000 0.54439  0.89528  0.82406  Biso   1.000  C
  C1967    1.0000 0.49948  0.82260  0.81231  Biso   1.000  C
  N209     1.0000 0.20484  0.94128  0.77521  Biso   1.000  N
  H1874    1.0000 0.19744  0.87376  0.77357  Biso   1.000  H
  C1968    1.0000 0.98688  0.81895  0.78103  Biso   1.000  C
  H1875    1.0000 0.94812  0.78796  0.79496  Biso   1.000  H
  H1876    1.0000 0.02621  0.83385  0.76707  Biso   1.000  H
  C1969    1.0000 0.08656  0.62159  0.80484  Biso   1.000  C
  H1877    1.0000 0.10933  0.72635  0.80777  Biso   1.000  H
  H1878    1.0000 0.11663  0.55138  0.81317  Biso   1.000  H
  C1970    1.0000 0.07563  0.35093  0.77786  Biso   1.000  C
  H1879    1.0000 0.00043  0.30027  0.78167  Biso   1.000  H
  H1880    1.0000 0.14732  0.41376  0.77557  Biso   1.000  H
  C1971    1.0000 0.35085  0.45561  0.82406  Biso   1.000  C
  C1972    1.0000 0.32313  0.50052  0.81231  Biso   1.000  C
  N210     1.0000 0.12614  0.08438  0.78857  Biso   1.000  N
  H1881    1.0000 0.10723  0.10687  0.77596  Biso   1.000  H
  N211     1.0000 0.73643  0.79516  0.77521  Biso   1.000  N
  H1882    1.0000 0.67633  0.80256  0.77357  Biso   1.000  H
  C1973    1.0000 0.96742  0.04643  0.78811  Biso   1.000  C
  C1974    1.0000 0.53984  0.86172  0.83213  Biso   1.000  C
  H1883    1.0000 0.56110  0.93182  0.82540  Biso   1.000  H
  C1975    1.0000 0.49452  0.78942  0.82039  Biso   1.000  C
  H1884    1.0000 0.48549  0.80891  0.80550  Biso   1.000  H
  C1976    1.0000 0.14901  0.92090  0.77336  Biso   1.000  C
  C1977    1.0000 0.98302  0.86691  0.78134  Biso   1.000  C
  C1978    1.0000 0.12384  0.64866  0.81403  Biso   1.000  C
  C1979    1.0000 0.09070  0.31189  0.77526  Biso   1.000  C
  C1980    1.0000 0.32185  0.46015  0.83213  Biso   1.000  C
  H1885    1.0000 0.37072  0.43891  0.82540  Biso   1.000  H
  C1981    1.0000 0.29492  0.50549  0.82039  Biso   1.000  C
  H1886    1.0000 0.32341  0.51449  0.80550  Biso   1.000  H
  C1982    1.0000 0.07900  0.03259  0.78811  Biso   1.000  C
  C1983    1.0000 0.77186  0.85098  0.77336  Biso   1.000  C
  H1887    1.0000 0.97022  0.02445  0.79377  Biso   1.000  H
  H1888    1.0000 0.97213  0.03376  0.78117  Biso   1.000  H
  C1984    1.0000 0.00930  0.10222  0.78965  Biso   1.000  C
  C1985    1.0000 0.51559  0.80820  0.83015  Biso   1.000  C
  H1889    1.0000 0.55320  0.87502  0.83900  Biso   1.000  H
  H1890    1.0000 0.47611  0.75281  0.81920  Biso   1.000  H
  C1986    1.0000 0.12632  0.93608  0.78231  Biso   1.000  C
  H1891    1.0000 0.14403  0.93506  0.76657  Biso   1.000  H
  H1892    1.0000 0.13086  0.88229  0.77277  Biso   1.000  H
  N212     1.0000 0.95822  0.87383  0.78857  Biso   1.000  N
  H1893    1.0000 0.99964  0.89276  0.77596  Biso   1.000  H
  C1987    1.0000 0.10473  0.64913  0.82406  Biso   1.000  C
  C1988    1.0000 0.17741  0.67687  0.81231  Biso   1.000  C
  N213     1.0000 0.05875  0.26358  0.77521  Biso   1.000  N
  H1894    1.0000 0.12623  0.32367  0.77357  Biso   1.000  H
  C1989    1.0000 0.29261  0.48440  0.83015  Biso   1.000  C
  H1895    1.0000 0.32182  0.44681  0.83900  Biso   1.000  H
  H1896    1.0000 0.27669  0.52391  0.81920  Biso   1.000  H
  H1897    1.0000 0.05425  0.02977  0.79377  Biso   1.000  H
  H1898    1.0000 0.06163  0.02785  0.78117  Biso   1.000  H
  C1990    1.0000 0.09293  0.99073  0.78965  Biso   1.000  C
  C1991    1.0000 0.80978  0.87371  0.78231  Biso   1.000  C
  H1899    1.0000 0.79104  0.85595  0.76657  Biso   1.000  H
  H1900    1.0000 0.75144  0.86917  0.77277  Biso   1.000  H
  C1992    1.0000 0.03654  0.12017  0.79934  Biso   1.000  C
  C1993    1.0000 0.02337  0.13821  0.78141  Biso   1.000  C
  C1994    1.0000 0.51080  0.77084  0.83880  Biso   1.000  C
  C1995    1.0000 0.11530  0.91018  0.79218  Biso   1.000  C
  C1996    1.0000 0.11486  0.97665  0.78141  Biso   1.000  C
  C1997    1.0000 0.95357  0.92097  0.78811  Biso   1.000  C
  C1998    1.0000 0.13832  0.67816  0.83213  Biso   1.000  C
  H1901    1.0000 0.06819  0.62930  0.82540  Biso   1.000  H
  C1999    1.0000 0.21055  0.70507  0.82039  Biso   1.000  C
  H1902    1.0000 0.19110  0.67659  0.80550  Biso   1.000  H
  C2000    1.0000 0.07911  0.22814  0.77336  Biso   1.000  C
  C2001    1.0000 0.26000  0.48918  0.83880  Biso   1.000  C
  C2002    1.0000 0.08364  0.96346  0.79934  Biso   1.000  C
  C2003    1.0000 0.79488  0.88470  0.79218  Biso   1.000  C
  C2004    1.0000 0.86177  0.88513  0.78141  Biso   1.000  C
  O100     1.0000 0.02217  0.08649  0.80784  Biso   1.000  O
  C2005    1.0000 0.07741  0.17095  0.80056  Biso   1.000  C
  O101     1.0000 0.99493  0.12232  0.77198  Biso   1.000  O
  C2006    1.0000 0.06392  0.19023  0.78231  Biso   1.000  C
  N214     1.0000 0.53072  0.78676  0.84774  Biso   1.000  N
  H1903    1.0000 0.49220  0.73431  0.83740  Biso   1.000  H
  O102     1.0000 0.12982  0.87228  0.79344  Biso   1.000  O
  C2007    1.0000 0.09355  0.92258  0.80056  Biso   1.000  C
  O103     1.0000 0.12738  0.00509  0.77198  Biso   1.000  O
  C2008    1.0000 0.89778  0.90708  0.78965  Biso   1.000  C
  H1904    1.0000 0.97553  0.94577  0.79377  Biso   1.000  H
  H1905    1.0000 0.96624  0.93838  0.78117  Biso   1.000  H
  C2009    1.0000 0.19181  0.70742  0.83015  Biso   1.000  C
  H1906    1.0000 0.12499  0.67820  0.83900  Biso   1.000  H
  H1907    1.0000 0.24721  0.72330  0.81920  Biso   1.000  H
  H1908    1.0000 0.06495  0.20897  0.76657  Biso   1.000  H
  H1909    1.0000 0.11774  0.24856  0.77277  Biso   1.000  H
  N215     1.0000 0.25604  0.46927  0.84774  Biso   1.000  N
  H1910    1.0000 0.24211  0.50780  0.83740  Biso   1.000  H
  O104     1.0000 0.06434  0.97786  0.80784  Biso   1.000  O
  O105     1.0000 0.74245  0.87015  0.79344  Biso   1.000  O
  C2010    1.0000 0.82903  0.90645  0.80056  Biso   1.000  C
  O106     1.0000 0.87770  0.87262  0.77198  Biso   1.000  O
  C2011    1.0000 0.97587  0.08231  0.81333  Biso   1.000  C
  C2012    1.0000 0.08981  0.20510  0.79218  Biso   1.000  C
  C2013    1.0000 0.10844  0.18816  0.81082  Biso   1.000  C
  C2014    1.0000 0.95505  0.13789  0.77148  Biso   1.000  C
  C2015    1.0000 0.52151  0.74639  0.85585  Biso   1.000  C
  C2016    1.0000 0.17862  0.89250  0.79936  Biso   1.000  C
  C2017    1.0000 0.07973  0.89156  0.81082  Biso   1.000  C
  C2018    1.0000 0.18283  0.04491  0.77148  Biso   1.000  C
  C2019    1.0000 0.87982  0.91635  0.79934  Biso   1.000  C
  C2020    1.0000 0.22915  0.73997  0.83880  Biso   1.000  C
  C2021    1.0000 0.22488  0.47850  0.85585  Biso   1.000  C
  C2022    1.0000 0.10642  0.02414  0.81333  Biso   1.000  C
  C2023    1.0000 0.71391  0.82141  0.79936  Biso   1.000  C
  C2024    1.0000 0.81183  0.92030  0.81082  Biso   1.000  C
  C2025    1.0000 0.86211  0.81719  0.77148  Biso   1.000  C
  H1911    1.0000 0.98072  0.11755  0.81457  Biso   1.000  H
  H1912    1.0000 0.94424  0.06228  0.80886  Biso   1.000  H
  C2026    1.0000 0.96951  0.05508  0.82372  Biso   1.000  C
  O107     1.0000 0.12773  0.25756  0.79344  Biso   1.000  O
  N216     1.0000 0.07729  0.19739  0.81893  Biso   1.000  N
  H1913    1.0000 0.14214  0.22067  0.80956  Biso   1.000  H
  H1914    1.0000 0.11593  0.16078  0.81337  Biso   1.000  H
  H1915    1.0000 0.93303  0.12557  0.77797  Biso   1.000  H
  H1916    1.0000 0.97223  0.17646  0.77127  Biso   1.000  H
  C2027    1.0000 0.92189  0.11567  0.76195  Biso   1.000  C
  C2028    1.0000 0.50432  0.76024  0.86611  Biso   1.000  C
  H1917    1.0000 0.55403  0.74522  0.85710  Biso   1.000  H
  H1918    1.0000 0.49411  0.71150  0.85330  Biso   1.000  H
  H1919    1.0000 0.20664  0.92368  0.79566  Biso   1.000  H
  H1920    1.0000 0.17423  0.90318  0.80656  Biso   1.000  H
  C2029    1.0000 0.19370  0.85057  0.80014  Biso   1.000  C
  N217     1.0000 0.12010  0.92270  0.81893  Biso   1.000  N
  H1921    1.0000 0.07854  0.85788  0.80956  Biso   1.000  H
  H1922    1.0000 0.04483  0.88409  0.81337  Biso   1.000  H
  H1923    1.0000 0.19254  0.06697  0.77797  Biso   1.000  H
  H1924    1.0000 0.20425  0.02777  0.77127  Biso   1.000  H
  C2030    1.0000 0.19378  0.07812  0.76195  Biso   1.000  C
  O108     1.0000 0.91350  0.93568  0.80784  Biso   1.000  O
  N218     1.0000 0.21323  0.74396  0.84774  Biso   1.000  N
  H1925    1.0000 0.26569  0.75788  0.83740  Biso   1.000  H
  C2031    1.0000 0.25592  0.49571  0.86611  Biso   1.000  C
  H1926    1.0000 0.19118  0.44599  0.85710  Biso   1.000  H
  H1927    1.0000 0.21740  0.50588  0.85330  Biso   1.000  H
  H1928    1.0000 0.13685  0.01929  0.81457  Biso   1.000  H
  H1929    1.0000 0.11804  0.05578  0.80886  Biso   1.000  H
  C2032    1.0000 0.08557  0.03047  0.82372  Biso   1.000  C
  H1930    1.0000 0.71703  0.79336  0.79566  Biso   1.000  H
  H1931    1.0000 0.72892  0.82575  0.80656  Biso   1.000  H
  C2033    1.0000 0.65687  0.80631  0.80014  Biso   1.000  C
  N219     1.0000 0.80261  0.87989  0.81893  Biso   1.000  N
  H1932    1.0000 0.77932  0.92148  0.80956  Biso   1.000  H
  H1933    1.0000 0.83922  0.95516  0.81337  Biso   1.000  H
  H1934    1.0000 0.87444  0.80748  0.77797  Biso   1.000  H
  H1935    1.0000 0.82351  0.79575  0.77127  Biso   1.000  H
  C2034    1.0000 0.88433  0.80619  0.76195  Biso   1.000  C
  H1936    1.0000 0.96233  0.01905  0.82236  Biso   1.000  H
  C2035    1.0000 0.92559  0.05261  0.83048  Biso   1.000  C
  H1937    1.0000 0.00272  0.07366  0.82777  Biso   1.000  H
  C2036    1.0000 0.10748  0.28611  0.79936  Biso   1.000  C
  C2037    1.0000 0.07333  0.17748  0.82787  Biso   1.000  C
  H1938    1.0000 0.94331  0.13136  0.75547  Biso   1.000  H
  H1939    1.0000 0.90832  0.07757  0.76167  Biso   1.000  H
  C2038    1.0000 0.87617  0.12588  0.76195  Biso   1.000  C
  C2039    1.0000 0.53845  0.78195  0.87449  Biso   1.000  C
  C2040    1.0000 0.45353  0.75035  0.86733  Biso   1.000  C
  H1940    1.0000 0.19393  0.83707  0.79297  Biso   1.000  H
  H1941    1.0000 0.16743  0.82107  0.80446  Biso   1.000  H
  C2041    1.0000 0.24687  0.87208  0.80512  Biso   1.000  C
  C2042    1.0000 0.10418  0.92669  0.82787  Biso   1.000  C
  H1942    1.0000 0.18804  0.05668  0.75547  Biso   1.000  H
  H1943    1.0000 0.16924  0.09165  0.76167  Biso   1.000  H
  C2043    1.0000 0.24972  0.12381  0.76195  Biso   1.000  C
  C2044    1.0000 0.91769  0.89358  0.81333  Biso   1.000  C
  C2045    1.0000 0.25361  0.77513  0.85585  Biso   1.000  C
  C2046    1.0000 0.24352  0.46156  0.87449  Biso   1.000  C
  C2047    1.0000 0.29679  0.54649  0.86733  Biso   1.000  C
  H1944    1.0000 0.05674  0.03767  0.82236  Biso   1.000  H
  C2048    1.0000 0.12706  0.07444  0.83048  Biso   1.000  C
  H1945    1.0000 0.07093  0.99726  0.82777  Biso   1.000  H
  H1946    1.0000 0.64313  0.80608  0.79297  Biso   1.000  H
  H1947    1.0000 0.65363  0.83256  0.80446  Biso   1.000  H
  C2049    1.0000 0.62518  0.75311  0.80512  Biso   1.000  C
  C2050    1.0000 0.82255  0.89585  0.82787  Biso   1.000  C
  H1948    1.0000 0.86866  0.81198  0.75547  Biso   1.000  H
  H1949    1.0000 0.92243  0.83076  0.76167  Biso   1.000  H
  C2051    1.0000 0.87410  0.75029  0.76195  Biso   1.000  C
  H1950    1.0000 0.89184  0.03106  0.82676  Biso   1.000  H
  H1951    1.0000 0.93093  0.08837  0.83127  Biso   1.000  H
  C2052    1.0000 0.92265  0.03000  0.84130  Biso   1.000  C
  H1952    1.0000 0.07635  0.28298  0.79566  Biso   1.000  H
  H1953    1.0000 0.09684  0.27105  0.80656  Biso   1.000  H
  C2053    1.0000 0.14943  0.34311  0.80014  Biso   1.000  C
  H1954    1.0000 0.09122  0.15886  0.82927  Biso   1.000  H
  C2054    1.0000 0.04072  0.18225  0.83652  Biso   1.000  C
  H1955    1.0000 0.85542  0.11086  0.76847  Biso   1.000  H
  H1956    1.0000 0.89014  0.16418  0.76217  Biso   1.000  H
  C2055    1.0000 0.83975  0.10276  0.75226  Biso   1.000  C
  O109     1.0000 0.59088  0.79651  0.87322  Biso   1.000  O
  C2056    1.0000 0.52357  0.79298  0.88435  Biso   1.000  C
  O110     1.0000 0.41985  0.73102  0.85883  Biso   1.000  O
  C2057    1.0000 0.43557  0.75962  0.87702  Biso   1.000  C
  H1957    1.0000 0.27323  0.90048  0.80056  Biso   1.000  H
  H1958    1.0000 0.24704  0.88726  0.81216  Biso   1.000  H
  C2058    1.0000 0.26201  0.83015  0.80654  Biso   1.000  C
  H1959    1.0000 0.06764  0.90878  0.82927  Biso   1.000  H
  C2059    1.0000 0.14154  0.95928  0.83652  Biso   1.000  C
  H1960    1.0000 0.25543  0.14458  0.76847  Biso   1.000  H
  H1961    1.0000 0.27403  0.10988  0.76217  Biso   1.000  H
  C2060    1.0000 0.26304  0.16027  0.75226  Biso   1.000  C
  H1962    1.0000 0.88242  0.86315  0.81457  Biso   1.000  H
  H1963    1.0000 0.93773  0.88197  0.80886  Biso   1.000  H
  C2061    1.0000 0.94492  0.91443  0.82372  Biso   1.000  C
  C2062    1.0000 0.23978  0.74407  0.86611  Biso   1.000  C
  H1964    1.0000 0.25480  0.80881  0.85710  Biso   1.000  H
  H1965    1.0000 0.28852  0.78261  0.85330  Biso   1.000  H
  O111     1.0000 0.20560  0.40910  0.87322  Biso   1.000  O
  C2063    1.0000 0.26943  0.47646  0.88435  Biso   1.000  C
  O112     1.0000 0.31116  0.58017  0.85883  Biso   1.000  O
  C2064    1.0000 0.32403  0.56444  0.87702  Biso   1.000  C
  H1966    1.0000 0.13922  0.10816  0.82676  Biso   1.000  H
  H1967    1.0000 0.15745  0.06908  0.83127  Biso   1.000  H
  C2065    1.0000 0.10737  0.07734  0.84130  Biso   1.000  C
  H1968    1.0000 0.62723  0.72678  0.80056  Biso   1.000  H
  H1969    1.0000 0.64021  0.75295  0.81216  Biso   1.000  H
  C2066    1.0000 0.56814  0.73801  0.80654  Biso   1.000  C
  H1970    1.0000 0.84113  0.93235  0.82927  Biso   1.000  H
  C2067    1.0000 0.81776  0.85850  0.83652  Biso   1.000  C
  H1971    1.0000 0.88913  0.74458  0.76847  Biso   1.000  H
  H1972    1.0000 0.83584  0.72596  0.76217  Biso   1.000  H
  C2068    1.0000 0.89724  0.73695  0.75226  Biso   1.000  C
  H1973    1.0000 0.89382  0.02926  0.84527  Biso   1.000  H
  H1974    1.0000 0.95564  0.05168  0.84506  Biso   1.000  H
  H1975    1.0000 0.91655  0.99429  0.84057  Biso   1.000  H
  H1976    1.0000 0.16292  0.35688  0.79297  Biso   1.000  H
  H1977    1.0000 0.17894  0.34636  0.80446  Biso   1.000  H
  C2069    1.0000 0.12794  0.37479  0.80512  Biso   1.000  C
  C2070    1.0000 0.01148  0.20651  0.83454  Biso   1.000  C
  C2071    1.0000 0.03841  0.16117  0.84628  Biso   1.000  C
  H1978    1.0000 0.81134  0.11078  0.75276  Biso   1.000  H
  H1979    1.0000 0.82503  0.06478  0.75217  Biso   1.000  H
  H1980    1.0000 0.85973  0.11806  0.74576  Biso   1.000  H
  C2072    1.0000 0.61944  0.84529  0.86731  Biso   1.000  C
  C2073    1.0000 0.47156  0.78152  0.88526  Biso   1.000  C
  C2074    1.0000 0.56149  0.81571  0.89331  Biso   1.000  C
  C2075    1.0000 0.41566  0.77311  0.85333  Biso   1.000  C
  C2076    1.0000 0.37976  0.74569  0.87856  Biso   1.000  C
  H1981    1.0000 0.29675  0.84568  0.80977  Biso   1.000  H
  H1982    1.0000 0.26264  0.81548  0.79957  Biso   1.000  H
  H1983    1.0000 0.23644  0.80237  0.81117  Biso   1.000  H
  C2077    1.0000 0.19503  0.98854  0.83454  Biso   1.000  C
  C2078    1.0000 0.12277  0.96159  0.84628  Biso   1.000  C
  H1984    1.0000 0.29943  0.18867  0.75276  Biso   1.000  H
  H1985    1.0000 0.23973  0.17498  0.75217  Biso   1.000  H
  H1986    1.0000 0.25833  0.14028  0.74576  Biso   1.000  H
  H1987    1.0000 0.98095  0.94326  0.82236  Biso   1.000  H
  H1988    1.0000 0.92632  0.92906  0.82777  Biso   1.000  H
  C2079    1.0000 0.94739  0.87297  0.83048  Biso   1.000  C
  C2080    1.0000 0.21805  0.75651  0.87449  Biso   1.000  C
  C2081    1.0000 0.24969  0.70319  0.86733  Biso   1.000  C
  C2082    1.0000 0.22586  0.38058  0.86731  Biso   1.000  C
  C2083    1.0000 0.30996  0.52845  0.88526  Biso   1.000  C
  C2084    1.0000 0.25422  0.43852  0.89331  Biso   1.000  C
  C2085    1.0000 0.35746  0.58435  0.85333  Biso   1.000  C
  C2086    1.0000 0.36593  0.62026  0.87856  Biso   1.000  C
  H1989    1.0000 0.13544  0.10617  0.84527  Biso   1.000  H
  H1990    1.0000 0.09603  0.04436  0.84506  Biso   1.000  H
  H1991    1.0000 0.07775  0.08348  0.84057  Biso   1.000  H
  H1992    1.0000 0.54894  0.70327  0.80977  Biso   1.000  H
  H1993    1.0000 0.55285  0.73738  0.79957  Biso   1.000  H
  H1994    1.0000 0.56594  0.76355  0.81117  Biso   1.000  H
  C2087    1.0000 0.79351  0.80498  0.83454  Biso   1.000  C
  C2088    1.0000 0.83881  0.87723  0.84628  Biso   1.000  C
  H1995    1.0000 0.88925  0.70057  0.75276  Biso   1.000  H
  H1996    1.0000 0.93522  0.76027  0.75217  Biso   1.000  H
  H1997    1.0000 0.88194  0.74165  0.74576  Biso   1.000  H
  H1998    1.0000 0.09952  0.37276  0.80056  Biso   1.000  H
  H1999    1.0000 0.11274  0.35977  0.81216  Biso   1.000  H
  C2089    1.0000 0.16986  0.43187  0.80654  Biso   1.000  C
  C2090    1.0000 0.98248  0.21104  0.84260  Biso   1.000  C
  H2000    1.0000 0.01153  0.21989  0.82766  Biso   1.000  H
  H2001    1.0000 0.05665  0.14278  0.84747  Biso   1.000  H
  C2091    1.0000 0.01020  0.16614  0.85436  Biso   1.000  C
  H2002    1.0000 0.61630  0.87330  0.87100  Biso   1.000  H
  H2003    1.0000 0.60441  0.84090  0.86010  Biso   1.000  H
  C2092    1.0000 0.67646  0.86035  0.86652  Biso   1.000  C
  O113     1.0000 0.45565  0.79408  0.89469  Biso   1.000  O
  N220     1.0000 0.59690  0.87150  0.89146  Biso   1.000  N
  H2004    1.0000 0.54229  0.81071  0.90010  Biso   1.000  H
  H2005    1.0000 0.58190  0.79752  0.89390  Biso   1.000  H
  H2006    1.0000 0.45091  0.80351  0.85210  Biso   1.000  H
  H2007    1.0000 0.39562  0.78473  0.85780  Biso   1.000  H
  C2093    1.0000 0.38843  0.75226  0.84295  Biso   1.000  C
  N221     1.0000 0.37511  0.79283  0.87810  Biso   1.000  N
  H2008    1.0000 0.35782  0.72093  0.87290  Biso   1.000  H
  H2009    1.0000 0.36711  0.72832  0.88550  Biso   1.000  H
  C2094    1.0000 0.22859  0.01753  0.84260  Biso   1.000  C
  H2010    1.0000 0.20836  0.98850  0.82766  Biso   1.000  H
  H2011    1.0000 0.08614  0.94340  0.84747  Biso   1.000  H
  C2095    1.0000 0.15593  0.98983  0.85436  Biso   1.000  C
  H2012    1.0000 0.96893  0.86076  0.82676  Biso   1.000  H
  H2013    1.0000 0.91163  0.84257  0.83127  Biso   1.000  H
  C2096    1.0000 0.97000  0.89265  0.84130  Biso   1.000  C
  O114     1.0000 0.20351  0.79438  0.87322  Biso   1.000  O
  C2097    1.0000 0.20701  0.73058  0.88435  Biso   1.000  C
  O115     1.0000 0.26901  0.68884  0.85883  Biso   1.000  O
  C2098    1.0000 0.24042  0.67597  0.87702  Biso   1.000  C
  H2014    1.0000 0.25700  0.38371  0.87100  Biso   1.000  H
  H2015    1.0000 0.23649  0.39561  0.86010  Biso   1.000  H
  C2099    1.0000 0.18390  0.32355  0.86652  Biso   1.000  C
  O116     1.0000 0.33842  0.54437  0.89469  Biso   1.000  O
  N222     1.0000 0.27460  0.40312  0.89146  Biso   1.000  N
  H2016    1.0000 0.26838  0.45769  0.90010  Biso   1.000  H
  H2017    1.0000 0.21559  0.41810  0.89390  Biso   1.000  H
  H2018    1.0000 0.35261  0.54911  0.85210  Biso   1.000  H
  H2019    1.0000 0.38909  0.60438  0.85780  Biso   1.000  H
  C2100    1.0000 0.36382  0.61158  0.84295  Biso   1.000  C
  N223     1.0000 0.41775  0.62492  0.87810  Biso   1.000  N
  H2020    1.0000 0.36311  0.64221  0.87290  Biso   1.000  H
  H2021    1.0000 0.36120  0.63290  0.88550  Biso   1.000  H
  H2022    1.0000 0.78015  0.79168  0.82766  Biso   1.000  H
  C2101    1.0000 0.78895  0.77142  0.84260  Biso   1.000  C
  H2023    1.0000 0.85722  0.91385  0.84747  Biso   1.000  H
  C2102    1.0000 0.83385  0.84406  0.85436  Biso   1.000  C
  H2024    1.0000 0.15433  0.45108  0.80977  Biso   1.000  H
  H2025    1.0000 0.18452  0.44716  0.79957  Biso   1.000  H
  H2026    1.0000 0.19762  0.43406  0.81117  Biso   1.000  H
  H2027    1.0000 0.96261  0.22775  0.84127  Biso   1.000  H
  C2103    1.0000 0.98198  0.19149  0.85264  Biso   1.000  C
  H2028    1.0000 0.00992  0.15217  0.86117  Biso   1.000  H
  H2029    1.0000 0.69022  0.86062  0.87370  Biso   1.000  H
  H2030    1.0000 0.67970  0.83410  0.86220  Biso   1.000  H
  C2104    1.0000 0.70815  0.91355  0.86154  Biso   1.000  C
  C2105    1.0000 0.47124  0.84951  0.89519  Biso   1.000  C
  C2106    1.0000 0.64524  0.88789  0.89140  Biso   1.000  C
  H2031    1.0000 0.35240  0.72343  0.84430  Biso   1.000  H
  H2032    1.0000 0.40703  0.73763  0.83890  Biso   1.000  H
  C2107    1.0000 0.38596  0.79373  0.83619  Biso   1.000  C
  C2108    1.0000 0.35033  0.79979  0.88532  Biso   1.000  C
  H2033    1.0000 0.26514  0.03736  0.84127  Biso   1.000  H
  C2109    1.0000 0.20950  0.01803  0.85264  Biso   1.000  C
  H2034    1.0000 0.14223  0.99006  0.86117  Biso   1.000  H
  H2035    1.0000 0.97073  0.86456  0.84527  Biso   1.000  H
  H2036    1.0000 0.94832  0.90395  0.84506  Biso   1.000  H
  H2037    1.0000 0.00575  0.92226  0.84057  Biso   1.000  H
  C2110    1.0000 0.15471  0.77416  0.86731  Biso   1.000  C
  C2111    1.0000 0.21847  0.69001  0.88526  Biso   1.000  C
  C2112    1.0000 0.18433  0.74579  0.89331  Biso   1.000  C
  C2113    1.0000 0.22693  0.64256  0.85333  Biso   1.000  C
  C2114    1.0000 0.25433  0.63407  0.87856  Biso   1.000  C
  H2038    1.0000 0.17043  0.30982  0.87370  Biso   1.000  H
  H2039    1.0000 0.15439  0.32030  0.86220  Biso   1.000  H
  C2115    1.0000 0.20539  0.29186  0.86154  Biso   1.000  C
  C2116    1.0000 0.37828  0.52877  0.89519  Biso   1.000  C
  C2117    1.0000 0.24263  0.35477  0.89140  Biso   1.000  C
  H2040    1.0000 0.37100  0.64761  0.84430  Biso   1.000  H
  H2041    1.0000 0.33061  0.59300  0.83890  Biso   1.000  H
  C2118    1.0000 0.40774  0.61404  0.83619  Biso   1.000  C
  C2119    1.0000 0.44944  0.64968  0.88532  Biso   1.000  C
  H2042    1.0000 0.77224  0.73488  0.84127  Biso   1.000  H
  C2120    1.0000 0.80853  0.79051  0.85264  Biso   1.000  C
  H2043    1.0000 0.84784  0.85775  0.86117  Biso   1.000  H
  C2121    1.0000 0.95494  0.20170  0.86183  Biso   1.000  C
  H2044    1.0000 0.70612  0.93991  0.86610  Biso   1.000  H
  H2045    1.0000 0.69311  0.91370  0.85450  Biso   1.000  H
  C2122    1.0000 0.76521  0.92869  0.86013  Biso   1.000  C
  H2046    1.0000 0.45891  0.85921  0.88870  Biso   1.000  H
  H2047    1.0000 0.50982  0.87091  0.89540  Biso   1.000  H
  C2123    1.0000 0.44900  0.86046  0.90472  Biso   1.000  C
  H2048    1.0000 0.65700  0.86410  0.89310  Biso   1.000  H
  C2124    1.0000 0.68423  0.94195  0.88881  Biso   1.000  C
  H2049    1.0000 0.36439  0.80589  0.83990  Biso   1.000  H
  H2050    1.0000 0.42172  0.82412  0.83540  Biso   1.000  H
  C2125    1.0000 0.36335  0.77405  0.82537  Biso   1.000  C
  H2051    1.0000 0.33369  0.77389  0.89070  Biso   1.000  H
  C2126    1.0000 0.34646  0.84775  0.88563  Biso   1.000  C
  C2127    1.0000 0.24677  0.04506  0.86183  Biso   1.000  C
  H2052    1.0000 0.12671  0.74302  0.87100  Biso   1.000  H
  H2053    1.0000 0.15911  0.76352  0.86010  Biso   1.000  H
  C2128    1.0000 0.13963  0.81609  0.86652  Biso   1.000  C
  O117     1.0000 0.20595  0.66157  0.89469  Biso   1.000  O
  N224     1.0000 0.12851  0.72541  0.89146  Biso   1.000  N
  H2054    1.0000 0.18929  0.73159  0.90010  Biso   1.000  H
  H2055    1.0000 0.20249  0.78440  0.89390  Biso   1.000  H
  H2056    1.0000 0.19650  0.64741  0.85210  Biso   1.000  H
  H2057    1.0000 0.21531  0.61091  0.85780  Biso   1.000  H
  C2129    1.0000 0.24776  0.63618  0.84295  Biso   1.000  C
  N225     1.0000 0.20719  0.58228  0.87810  Biso   1.000  N
  H2058    1.0000 0.27908  0.63689  0.87290  Biso   1.000  H
  H2059    1.0000 0.27170  0.63881  0.88550  Biso   1.000  H
  H2060    1.0000 0.23381  0.29390  0.86610  Biso   1.000  H
  H2061    1.0000 0.22059  0.30688  0.85450  Biso   1.000  H
  C2130    1.0000 0.16349  0.23483  0.86013  Biso   1.000  C
  H2062    1.0000 0.40030  0.54109  0.88870  Biso   1.000  H
  H2063    1.0000 0.36109  0.49019  0.89540  Biso   1.000  H
  C2131    1.0000 0.41144  0.55098  0.90472  Biso   1.000  C
  H2064    1.0000 0.20710  0.34299  0.89310  Biso   1.000  H
  C2132    1.0000 0.25772  0.31576  0.88881  Biso   1.000  C
  H2065    1.0000 0.44149  0.63560  0.83990  Biso   1.000  H
  H2066    1.0000 0.40240  0.57829  0.83540  Biso   1.000  H
  C2133    1.0000 0.41068  0.63665  0.82537  Biso   1.000  C
  H2067    1.0000 0.44021  0.66631  0.89070  Biso   1.000  H
  C2134    1.0000 0.50128  0.65355  0.88563  Biso   1.000  C
  C2135    1.0000 0.79832  0.75323  0.86183  Biso   1.000  C
  C2136    1.0000 0.90505  0.16277  0.86484  Biso   1.000  C
  C2137    1.0000 0.98564  0.24895  0.86685  Biso   1.000  C
  H2068    1.0000 0.78441  0.96342  0.85690  Biso   1.000  H
  H2069    1.0000 0.78050  0.92931  0.86710  Biso   1.000  H
  H2070    1.0000 0.76739  0.90310  0.85550  Biso   1.000  H
  H2071    1.0000 0.46469  0.85471  0.91120  Biso   1.000  H
  H2072    1.0000 0.41090  0.83590  0.90500  Biso   1.000  H
  C2138    1.0000 0.45925  0.91640  0.90471  Biso   1.000  C
  C2139    1.0000 0.66967  0.97719  0.88568  Biso   1.000  C
  C2140    1.0000 0.73667  0.95771  0.88927  Biso   1.000  C
  H2073    1.0000 0.36260  0.80210  0.82140  Biso   1.000  H
  H2074    1.0000 0.38501  0.76271  0.82160  Biso   1.000  H
  H2075    1.0000 0.32758  0.74440  0.82610  Biso   1.000  H
  C2141    1.0000 0.36834  0.88472  0.87750  Biso   1.000  C
  C2142    1.0000 0.32230  0.85777  0.89405  Biso   1.000  C
  C2143    1.0000 0.25771  0.09494  0.86484  Biso   1.000  C
  C2144    1.0000 0.26329  0.01436  0.86685  Biso   1.000  C
  H2076    1.0000 0.13940  0.82959  0.87370  Biso   1.000  H
  H2077    1.0000 0.16590  0.84559  0.86220  Biso   1.000  H
  C2145    1.0000 0.08648  0.79461  0.86154  Biso   1.000  C
  C2146    1.0000 0.15050  0.62175  0.89519  Biso   1.000  C
  C2147    1.0000 0.11214  0.75737  0.89140  Biso   1.000  C
  H2078    1.0000 0.27658  0.62899  0.84430  Biso   1.000  H
  H2079    1.0000 0.26240  0.66940  0.83890  Biso   1.000  H
  C2148    1.0000 0.20628  0.59225  0.83619  Biso   1.000  C
  C2149    1.0000 0.20024  0.55055  0.88532  Biso   1.000  C
  H2080    1.0000 0.17900  0.21558  0.85690  Biso   1.000  H
  H2081    1.0000 0.14881  0.21949  0.86710  Biso   1.000  H
  H2082    1.0000 0.13571  0.23260  0.85550  Biso   1.000  H
  H2083    1.0000 0.39001  0.53530  0.91120  Biso   1.000  H
  H2084    1.0000 0.42501  0.58909  0.90500  Biso   1.000  H
  C2150    1.0000 0.45715  0.54077  0.90471  Biso   1.000  C
  C2151    1.0000 0.30753  0.33036  0.88568  Biso   1.000  C
  C2152    1.0000 0.22104  0.26335  0.88927  Biso   1.000  C
  H2085    1.0000 0.43951  0.63740  0.82140  Biso   1.000  H
  H2086    1.0000 0.37769  0.61498  0.82160  Biso   1.000  H
  H2087    1.0000 0.41680  0.67241  0.82610  Biso   1.000  H
  C2153    1.0000 0.51636  0.63169  0.87750  Biso   1.000  C
  C2154    1.0000 0.53549  0.67773  0.89405  Biso   1.000  C
  C2155    1.0000 0.83723  0.74227  0.86484  Biso   1.000  C
  C2156    1.0000 0.75106  0.73668  0.86685  Biso   1.000  C
  N226     1.0000 0.87913  0.16520  0.87360  Biso   1.000  N
  C2157    1.0000 0.87579  0.11250  0.85987  Biso   1.000  C
  N227     1.0000 0.97112  0.26863  0.87542  Biso   1.000  N
  C2158    1.0000 0.03915  0.28678  0.86438  Biso   1.000  C
  H2088    1.0000 0.44422  0.92212  0.89820  Biso   1.000  H
  H2089    1.0000 0.49748  0.94070  0.90450  Biso   1.000  H
  C2159    1.0000 0.43609  0.92970  0.91441  Biso   1.000  C
  C2160    1.0000 0.70731  0.02828  0.88345  Biso   1.000  C
  H2090    1.0000 0.63361  0.96651  0.88500  Biso   1.000  H
  C2161    1.0000 0.77481  0.00935  0.88704  Biso   1.000  C
  H2091    1.0000 0.74709  0.93311  0.89110  Biso   1.000  H
  H2092    1.0000 0.38523  0.87873  0.87170  Biso   1.000  H
  C2162    1.0000 0.36567  0.92939  0.87790  Biso   1.000  C
  H2093    1.0000 0.30711  0.83281  0.89960  Biso   1.000  H
  C2163    1.0000 0.31996  0.90322  0.89453  Biso   1.000  C
  N228     1.0000 0.28610  0.12088  0.87360  Biso   1.000  N
  C2164    1.0000 0.23674  0.12420  0.85987  Biso   1.000  C
  N229     1.0000 0.29752  0.02887  0.87542  Biso   1.000  N
  C2165    1.0000 0.24767  0.96088  0.86438  Biso   1.000  C
  H2094    1.0000 0.06012  0.76621  0.86610  Biso   1.000  H
  H2095    1.0000 0.08629  0.77940  0.85450  Biso   1.000  H
  C2166    1.0000 0.07131  0.83651  0.86013  Biso   1.000  C
  H2096    1.0000 0.14079  0.59969  0.88870  Biso   1.000  H
  H2097    1.0000 0.12908  0.63888  0.89540  Biso   1.000  H
  C2167    1.0000 0.13955  0.58854  0.90472  Biso   1.000  C
  H2098    1.0000 0.13589  0.79289  0.89310  Biso   1.000  H
  C2168    1.0000 0.05806  0.74231  0.88881  Biso   1.000  C
  H2099    1.0000 0.19411  0.55850  0.83990  Biso   1.000  H
  H2100    1.0000 0.17590  0.59761  0.83540  Biso   1.000  H
  C2169    1.0000 0.22596  0.58932  0.82537  Biso   1.000  C
  H2101    1.0000 0.22610  0.55979  0.89070  Biso   1.000  H
  C2170    1.0000 0.15227  0.49872  0.88563  Biso   1.000  C
  H2102    1.0000 0.47791  0.55580  0.89820  Biso   1.000  H
  H2103    1.0000 0.44321  0.50252  0.90450  Biso   1.000  H
  C2171    1.0000 0.49358  0.56389  0.91441  Biso   1.000  C
  H2104    1.0000 0.33290  0.36638  0.88500  Biso   1.000  H
  C2172    1.0000 0.32100  0.29272  0.88345  Biso   1.000  C
  H2105    1.0000 0.18601  0.25290  0.89110  Biso   1.000  H
  C2173    1.0000 0.23453  0.22521  0.88704  Biso   1.000  C
  H2106    1.0000 0.49348  0.61479  0.87170  Biso   1.000  H
  C2174    1.0000 0.56373  0.63435  0.87790  Biso   1.000  C
  H2107    1.0000 0.52570  0.69291  0.89960  Biso   1.000  H
  C2175    1.0000 0.58323  0.68004  0.89453  Biso   1.000  C
  N230     1.0000 0.83480  0.71391  0.87360  Biso   1.000  N
  C2176    1.0000 0.88750  0.76328  0.85987  Biso   1.000  C
  N231     1.0000 0.73139  0.70249  0.87542  Biso   1.000  N
  C2177    1.0000 0.71320  0.75237  0.86438  Biso   1.000  C
  H2108    1.0000 0.88851  0.19250  0.87780  Biso   1.000  H
  C2178    1.0000 0.83584  0.11704  0.87463  Biso   1.000  C
  C2179    1.0000 0.83305  0.08395  0.86597  Biso   1.000  C
  H2109    1.0000 0.88470  0.10140  0.85350  Biso   1.000  H
  C2180    1.0000 0.01257  0.31682  0.87799  Biso   1.000  C
  H2110    1.0000 0.05969  0.28369  0.85890  Biso   1.000  H
  C2181    1.0000 0.05508  0.32766  0.87120  Biso   1.000  C
  H2111    1.0000 0.44410  0.96612  0.91390  Biso   1.000  H
  H2112    1.0000 0.39813  0.90643  0.91450  Biso   1.000  H
  H2113    1.0000 0.45139  0.92501  0.92090  Biso   1.000  H
  H2114    1.0000 0.69661  0.05242  0.88130  Biso   1.000  H
  C2182    1.0000 0.75962  0.04503  0.88419  Biso   1.000  C
  H2115    1.0000 0.81080  0.01979  0.88750  Biso   1.000  H
  H2116    1.0000 0.38000  0.95392  0.87220  Biso   1.000  H
  C2183    1.0000 0.34205  0.94007  0.88656  Biso   1.000  C
  H2117    1.0000 0.30310  0.90913  0.90040  Biso   1.000  H
  H2118    1.0000 0.30400  0.11149  0.87780  Biso   1.000  H
  C2184    1.0000 0.28117  0.16414  0.87463  Biso   1.000  C
  C2185    1.0000 0.25090  0.16696  0.86597  Biso   1.000  C
  H2119    1.0000 0.21670  0.11528  0.85350  Biso   1.000  H
  C2186    1.0000 0.30428  0.98744  0.87799  Biso   1.000  C
  H2120    1.0000 0.22400  0.94031  0.85890  Biso   1.000  H
  C2187    1.0000 0.27258  0.94492  0.87120  Biso   1.000  C
  H2121    1.0000 0.03660  0.82102  0.85690  Biso   1.000  H
  H2122    1.0000 0.07071  0.85122  0.86710  Biso   1.000  H
  H2123    1.0000 0.09689  0.86428  0.85550  Biso   1.000  H
  H2124    1.0000 0.14531  0.61001  0.91120  Biso   1.000  H
  H2125    1.0000 0.16409  0.57500  0.90500  Biso   1.000  H
  C2188    1.0000 0.08361  0.54285  0.90471  Biso   1.000  C
  C2189    1.0000 0.02281  0.69248  0.88568  Biso   1.000  C
  C2190    1.0000 0.04231  0.77897  0.88927  Biso   1.000  C
  H2126    1.0000 0.19789  0.56049  0.82140  Biso   1.000  H
  H2127    1.0000 0.23730  0.62230  0.82160  Biso   1.000  H
  H2128    1.0000 0.25560  0.58322  0.82610  Biso   1.000  H
  C2191    1.0000 0.11531  0.48362  0.87750  Biso   1.000  C
  C2192    1.0000 0.14222  0.46453  0.89405  Biso   1.000  C
  H2129    1.0000 0.52201  0.55591  0.91390  Biso   1.000  H
  H2130    1.0000 0.50832  0.60192  0.91450  Biso   1.000  H
  H2131    1.0000 0.47360  0.54860  0.92090  Biso   1.000  H
  H2132    1.0000 0.35581  0.30340  0.88130  Biso   1.000  H
  C2193    1.0000 0.28538  0.24038  0.88419  Biso   1.000  C
  H2133    1.0000 0.20901  0.18922  0.88750  Biso   1.000  H
  H2134    1.0000 0.57390  0.61999  0.87220  Biso   1.000  H
  C2194    1.0000 0.59804  0.65797  0.88656  Biso   1.000  C
  H2135    1.0000 0.60599  0.69690  0.90040  Biso   1.000  H
  H2136    1.0000 0.80751  0.69600  0.87780  Biso   1.000  H
  C2195    1.0000 0.88298  0.71880  0.87463  Biso   1.000  C
  C2196    1.0000 0.91604  0.74908  0.86597  Biso   1.000  C
  H2137    1.0000 0.89860  0.78331  0.85350  Biso   1.000  H
  C2197    1.0000 0.68315  0.69572  0.87799  Biso   1.000  C
  H2138    1.0000 0.71631  0.77599  0.85890  Biso   1.000  H
  C2198    1.0000 0.67233  0.72741  0.87120  Biso   1.000  C
  C2199    1.0000 0.80035  0.10128  0.88299  Biso   1.000  C
  H2139    1.0000 0.80629  0.04878  0.86480  Biso   1.000  H
  C2200    1.0000 0.01258  0.34956  0.88604  Biso   1.000  C
  H2140    1.0000 0.08880  0.35809  0.87140  Biso   1.000  H
  C2201    1.0000 0.33700  0.98744  0.88604  Biso   1.000  C
  C2202    1.0000 0.30093  0.19966  0.88299  Biso   1.000  C
  H2141    1.0000 0.24250  0.19371  0.86480  Biso   1.000  H
  H2142    1.0000 0.26931  0.91120  0.87140  Biso   1.000  H
  H2143    1.0000 0.07791  0.52211  0.89820  Biso   1.000  H
  H2144    1.0000 0.05932  0.55681  0.90450  Biso   1.000  H
  C2203    1.0000 0.07029  0.50639  0.91441  Biso   1.000  C
  C2204    1.0000 0.97173  0.67902  0.88345  Biso   1.000  C
  H2145    1.0000 0.03349  0.66709  0.88500  Biso   1.000  H
  C2205    1.0000 0.99067  0.76547  0.88704  Biso   1.000  C
  H2146    1.0000 0.06691  0.81402  0.89110  Biso   1.000  H
  H2147    1.0000 0.12130  0.50651  0.87170  Biso   1.000  H
  C2206    1.0000 0.07061  0.43629  0.87790  Biso   1.000  C
  H2148    1.0000 0.16720  0.47431  0.89960  Biso   1.000  H
  C2207    1.0000 0.09679  0.41677  0.89453  Biso   1.000  C
  C2208    1.0000 0.65047  0.66302  0.88604  Biso   1.000  C
  C2209    1.0000 0.89871  0.69905  0.88299  Biso   1.000  C
  H2149    1.0000 0.95121  0.75749  0.86480  Biso   1.000  H
  H2150    1.0000 0.64189  0.73069  0.87140  Biso   1.000  H
  C2210    1.0000 0.80095  0.13296  0.89132  Biso   1.000  C
  C2211    1.0000 0.97168  0.33681  0.89334  Biso   1.000  C
  C2212    1.0000 0.05990  0.40194  0.88656  Biso   1.000  C
  C2213    1.0000 0.36513  0.02832  0.89334  Biso   1.000  C
  C2214    1.0000 0.33202  0.19904  0.89132  Biso   1.000  C
  H2151    1.0000 0.03390  0.47799  0.91390  Biso   1.000  H
  H2152    1.0000 0.09359  0.49168  0.91450  Biso   1.000  H
  H2153    1.0000 0.07502  0.52642  0.92090  Biso   1.000  H
  H2154    1.0000 0.94762  0.64420  0.88130  Biso   1.000  H
  C2215    1.0000 0.95498  0.71462  0.88419  Biso   1.000  C
  H2155    1.0000 0.98020  0.79102  0.88750  Biso   1.000  H
  H2156    1.0000 0.04611  0.42612  0.87220  Biso   1.000  H
  H2157    1.0000 0.09090  0.39400  0.90040  Biso   1.000  H
  C2216    1.0000 0.66320  0.63489  0.89334  Biso   1.000  C
  C2217    1.0000 0.86702  0.66799  0.89132  Biso   1.000  C
  N232     1.0000 0.83513  0.18609  0.89247  Biso   1.000  N
  C2218    1.0000 0.76686  0.11622  0.90026  Biso   1.000  C
  N233     1.0000 0.92703  0.29006  0.89401  Biso   1.000  N
  C2219    1.0000 0.97205  0.37170  0.90133  Biso   1.000  C
  N234     1.0000 0.36302  0.07296  0.89401  Biso   1.000  N
  C2220    1.0000 0.39968  0.02797  0.90133  Biso   1.000  C
  N235     1.0000 0.35096  0.16488  0.89247  Biso   1.000  N
  C2221    1.0000 0.34935  0.23315  0.90026  Biso   1.000  C
  N236     1.0000 0.70994  0.63697  0.89401  Biso   1.000  N
  C2222    1.0000 0.62831  0.60035  0.90133  Biso   1.000  C
  N237     1.0000 0.81392  0.64905  0.89247  Biso   1.000  N
  C2223    1.0000 0.88377  0.65066  0.90026  Biso   1.000  C
  C2224    1.0000 0.82404  0.20306  0.90188  Biso   1.000  C
  C2225    1.0000 0.78063  0.15784  0.90652  Biso   1.000  C
  H2158    1.0000 0.73919  0.08160  0.90160  Biso   1.000  H
  H2159    1.0000 0.91767  0.26268  0.88990  Biso   1.000  H
  C2226    1.0000 0.89904  0.29351  0.90239  Biso   1.000  C
  H2160    1.0000 0.99880  0.40691  0.90240  Biso   1.000  H
  C2227    1.0000 0.92743  0.34542  0.90698  Biso   1.000  C
  H2161    1.0000 0.34500  0.08231  0.88990  Biso   1.000  H
  C2228    1.0000 0.39448  0.10096  0.90239  Biso   1.000  C
  H2162    1.0000 0.40812  0.00121  0.90240  Biso   1.000  H
  C2229    1.0000 0.41798  0.07256  0.90698  Biso   1.000  C
  C2230    1.0000 0.37902  0.17596  0.90188  Biso   1.000  C
  C2231    1.0000 0.37722  0.21938  0.90652  Biso   1.000  C
  H2163    1.0000 0.34241  0.26080  0.90160  Biso   1.000  H
  H2164    1.0000 0.73728  0.65500  0.88990  Biso   1.000  H
  C2232    1.0000 0.70650  0.60555  0.90239  Biso   1.000  C
  H2165    1.0000 0.59309  0.59190  0.90240  Biso   1.000  H
  C2233    1.0000 0.65458  0.58201  0.90698  Biso   1.000  C
  C2234    1.0000 0.79693  0.62097  0.90188  Biso   1.000  C
  C2235    1.0000 0.84216  0.62281  0.90652  Biso   1.000  C
  H2166    1.0000 0.91840  0.65758  0.90160  Biso   1.000  H
  C2236    1.0000 0.85209  0.25239  0.90626  Biso   1.000  C
  H2167    1.0000 0.76412  0.15741  0.91300  Biso   1.000  H
  H2168    1.0000 0.91679  0.35840  0.91280  Biso   1.000  H
  C2237    1.0000 0.40030  0.14791  0.90626  Biso   1.000  C
  H2169    1.0000 0.44160  0.08321  0.91280  Biso   1.000  H
  H2170    1.0000 0.39330  0.23588  0.91300  Biso   1.000  H
  C2238    1.0000 0.74762  0.59973  0.90626  Biso   1.000  C
  H2171    1.0000 0.64160  0.55842  0.91280  Biso   1.000  H
  H2172    1.0000 0.84261  0.60669  0.91300  Biso   1.000  H
  C2239    1.0000 0.83044  0.25990  0.91647  Biso   1.000  C
  C2240    1.0000 0.42947  0.16954  0.91647  Biso   1.000  C
  C2241    1.0000 0.74008  0.57054  0.91647  Biso   1.000  C
  C2242    1.0000 0.85904  0.26960  0.92581  Biso   1.000  C
  C2243    1.0000 0.77961  0.25208  0.91696  Biso   1.000  C
  C2244    1.0000 0.41059  0.14098  0.92581  Biso   1.000  C
  C2245    1.0000 0.47248  0.22039  0.91696  Biso   1.000  C
  C2246    1.0000 0.73042  0.58944  0.92581  Biso   1.000  C
  C2247    1.0000 0.74790  0.52751  0.91696  Biso   1.000  C
  H2173    1.0000 0.89390  0.27590  0.92560  Biso   1.000  H
  C2248    1.0000 0.83683  0.27004  0.93538  Biso   1.000  C
  H2174    1.0000 0.76022  0.24692  0.91060  Biso   1.000  H
  C2249    1.0000 0.75749  0.25188  0.92670  Biso   1.000  C
  H2175    1.0000 0.38200  0.10609  0.92560  Biso   1.000  H
  C2250    1.0000 0.43320  0.16316  0.93538  Biso   1.000  C
  H2176    1.0000 0.48669  0.23980  0.91060  Biso   1.000  H
  C2251    1.0000 0.49438  0.24250  0.92670  Biso   1.000  C
  H2177    1.0000 0.72410  0.61799  0.92560  Biso   1.000  H
  C2252    1.0000 0.72997  0.56679  0.93538  Biso   1.000  C
  H2178    1.0000 0.75310  0.51331  0.91060  Biso   1.000  H
  C2253    1.0000 0.74813  0.50561  0.92670  Biso   1.000  C
  H2179    1.0000 0.85700  0.27759  0.94170  Biso   1.000  H
  C2254    1.0000 0.78521  0.25955  0.93604  Biso   1.000  C
  H2180    1.0000 0.72291  0.24641  0.92700  Biso   1.000  H
  H2181    1.0000 0.42062  0.14302  0.94170  Biso   1.000  H
  C2255    1.0000 0.47434  0.21476  0.93604  Biso   1.000  C
  H2182    1.0000 0.52351  0.27712  0.92700  Biso   1.000  H
  H2183    1.0000 0.72238  0.57938  0.94170  Biso   1.000  H
  C2256    1.0000 0.74044  0.52567  0.93604  Biso   1.000  C
  H2184    1.0000 0.75360  0.47650  0.92700  Biso   1.000  H
  C2257    1.0000 0.76321  0.25959  0.94650  Biso   1.000  C
  C2258    1.0000 0.49640  0.23678  0.94650  Biso   1.000  C
  C2259    1.0000 0.74039  0.50361  0.94650  Biso   1.000  C
  N238     1.0000 0.71591  0.24942  0.94760  Biso   1.000  N
  H2185    1.0000 0.78470  0.26741  0.95260  Biso   1.000  H
  N239     1.0000 0.53355  0.28412  0.94760  Biso   1.000  N
  H2186    1.0000 0.48271  0.21531  0.95260  Biso   1.000  H
  N240     1.0000 0.75059  0.46649  0.94760  Biso   1.000  N
  H2187    1.0000 0.73260  0.51730  0.95260  Biso   1.000  H
  C2260    1.0000 0.70033  0.25587  0.95834  Biso   1.000  C
  C2261    1.0000 0.55556  0.29969  0.95834  Biso   1.000  C
  C2262    1.0000 0.74412  0.44446  0.95834  Biso   1.000  C
  H2188    1.0000 0.73029  0.26769  0.96330  Biso   1.000  H
  H2189    1.0000 0.67161  0.22200  0.96090  Biso   1.000  H
  C2263    1.0000 0.68258  0.29550  0.95803  Biso   1.000  C
  H2190    1.0000 0.53738  0.26968  0.96330  Biso   1.000  H
  H2191    1.0000 0.55041  0.32840  0.96090  Biso   1.000  H
  C2264    1.0000 0.61294  0.31741  0.95803  Biso   1.000  C
  H2192    1.0000 0.73232  0.46262  0.96330  Biso   1.000  H
  H2193    1.0000 0.77798  0.44959  0.96090  Biso   1.000  H
  C2265    1.0000 0.70448  0.38708  0.95803  Biso   1.000  C
  C2266    1.0000 0.71872  0.34874  0.95782  Biso   1.000  C
  C2267    1.0000 0.63003  0.28126  0.95782  Biso   1.000  C
  C2268    1.0000 0.65125  0.36998  0.95782  Biso   1.000  C
  O118     1.0000 0.77186  0.36396  0.95781  Biso   1.000  O
  O119     1.0000 0.59208  0.22814  0.95781  Biso   1.000  O
  O120     1.0000 0.63607  0.40793  0.95781  Biso   1.000  O
  C2269    1.0000 0.79635  0.38184  0.94740  Biso   1.000  C
  C2270    1.0000 0.58550  0.20365  0.94740  Biso   1.000  C
  C2271    1.0000 0.61815  0.41450  0.94740  Biso   1.000  C
  H2194    1.0000 0.79670  0.41438  0.94540  Biso   1.000  H
  H2195    1.0000 0.77640  0.35488  0.94190  Biso   1.000  H
  C2272    1.0000 0.85163  0.39165  0.94808  Biso   1.000  C
  H2196    1.0000 0.61771  0.20330  0.94540  Biso   1.000  H
  H2197    1.0000 0.57850  0.22360  0.94190  Biso   1.000  H
  C2273    1.0000 0.54004  0.14838  0.94808  Biso   1.000  C
  H2198    1.0000 0.58559  0.38231  0.94540  Biso   1.000  H
  H2199    1.0000 0.64510  0.42150  0.94190  Biso   1.000  H
  C2274    1.0000 0.60834  0.45999  0.94808  Biso   1.000  C
  H2200    1.0000 0.85122  0.36020  0.95100  Biso   1.000  H
  H2201    1.0000 0.87222  0.42111  0.95300  Biso   1.000  H
  C2275    1.0000 0.87771  0.40464  0.93706  Biso   1.000  C
  H2202    1.0000 0.50902  0.14881  0.95100  Biso   1.000  H
  H2203    1.0000 0.54889  0.12780  0.95300  Biso   1.000  H
  C2276    1.0000 0.52693  0.12228  0.93706  Biso   1.000  C
  H2204    1.0000 0.63981  0.49102  0.95100  Biso   1.000  H
  H2205    1.0000 0.57890  0.45111  0.95300  Biso   1.000  H
  C2277    1.0000 0.59536  0.47306  0.93706  Biso   1.000  C
  H2206    1.0000 0.85629  0.37569  0.93210  Biso   1.000  H
  H2207    1.0000 0.87901  0.43672  0.93430  Biso   1.000  H
  C2278    1.0000 0.93329  0.41317  0.93739  Biso   1.000  C
  H2208    1.0000 0.51940  0.14368  0.93210  Biso   1.000  H
  H2209    1.0000 0.55768  0.12099  0.93430  Biso   1.000  H
  C2279    1.0000 0.47991  0.06674  0.93739  Biso   1.000  C
  H2210    1.0000 0.62431  0.48061  0.93210  Biso   1.000  H
  H2211    1.0000 0.56332  0.44231  0.93430  Biso   1.000  H
  C2280    1.0000 0.58684  0.52012  0.93739  Biso   1.000  C
  H2212    1.0000 0.94830  0.42131  0.93020  Biso   1.000  H
  H2213    1.0000 0.95481  0.44231  0.94220  Biso   1.000  H
  H2214    1.0000 0.93219  0.38129  0.94000  Biso   1.000  H
  H2215    1.0000 0.47301  0.05171  0.93020  Biso   1.000  H
  H2216    1.0000 0.48749  0.04518  0.94220  Biso   1.000  H
  H2217    1.0000 0.44910  0.06779  0.94000  Biso   1.000  H
  H2218    1.0000 0.57870  0.52700  0.93020  Biso   1.000  H
  H2219    1.0000 0.55769  0.51249  0.94220  Biso   1.000  H
  H2220    1.0000 0.61870  0.55091  0.94000  Biso   1.000  H
  O121     1.0000 0.10517  0.07456  0.12447  Biso   1.000  O
  C2281    1.0000 0.05207  0.03665  0.12449  Biso   1.000  C
  C2282    1.0000 0.12968  0.08117  0.11407  Biso   1.000  C
  C2283    1.0000 0.01591  0.05371  0.12470  Biso   1.000  C
  C2284    1.0000 0.03783  0.98412  0.12470  Biso   1.000  C
  H2221    1.0000 0.13005  0.04898  0.11207  Biso   1.000  H
  H2222    1.0000 0.10974  0.08817  0.10857  Biso   1.000  H
  C2285    1.0000 0.18499  0.12667  0.11475  Biso   1.000  C
  C2286    1.0000 0.03368  0.11114  0.12501  Biso   1.000  C
  C2287    1.0000 0.96336  0.01541  0.12449  Biso   1.000  C
  C2288    1.0000 0.98459  0.94797  0.12449  Biso   1.000  C
  C2289    1.0000 0.07746  0.96636  0.12501  Biso   1.000  C
  H2223    1.0000 0.18452  0.15765  0.11767  Biso   1.000  H
  H2224    1.0000 0.20555  0.11779  0.11967  Biso   1.000  H
  C2290    1.0000 0.21103  0.13973  0.10372  Biso   1.000  C
  N241     1.0000 0.04921  0.13312  0.11427  Biso   1.000  N
  H2225    1.0000 0.06361  0.12925  0.12997  Biso   1.000  H
  H2226    1.0000 0.00494  0.11626  0.12757  Biso   1.000  H
  C2291    1.0000 0.94628  0.96221  0.12470  Biso   1.000  C
  O122     1.0000 0.92542  0.03059  0.12447  Biso   1.000  O
  O123     1.0000 0.96941  0.89485  0.12447  Biso   1.000  O
  N242     1.0000 0.08390  0.95079  0.11427  Biso   1.000  N
  H2227    1.0000 0.06566  0.93639  0.12997  Biso   1.000  H
  H2228    1.0000 0.11133  0.99507  0.12757  Biso   1.000  H
  H2229    1.0000 0.18964  0.14728  0.09877  Biso   1.000  H
  H2230    1.0000 0.21233  0.10898  0.10097  Biso   1.000  H
  C2292    1.0000 0.26661  0.18679  0.10406  Biso   1.000  C
  C2293    1.0000 0.09656  0.17028  0.11317  Biso   1.000  C
  C2294    1.0000 0.88888  0.92255  0.12501  Biso   1.000  C
  C2295    1.0000 0.91883  0.04851  0.11407  Biso   1.000  C
  C2296    1.0000 0.95149  0.87032  0.11407  Biso   1.000  C
  C2297    1.0000 0.07372  0.90346  0.11317  Biso   1.000  C
  H2231    1.0000 0.28164  0.19368  0.09687  Biso   1.000  H
  H2232    1.0000 0.28814  0.17916  0.10886  Biso   1.000  H
  H2233    1.0000 0.26554  0.21758  0.10667  Biso   1.000  H
  C2298    1.0000 0.11857  0.19235  0.10271  Biso   1.000  C
  H2234    1.0000 0.11804  0.18397  0.11927  Biso   1.000  H
  N243     1.0000 0.86685  0.91609  0.11427  Biso   1.000  N
  H2235    1.0000 0.87075  0.93440  0.12997  Biso   1.000  H
  H2236    1.0000 0.88373  0.88867  0.12757  Biso   1.000  H
  H2237    1.0000 0.95102  0.08105  0.11207  Biso   1.000  H
  H2238    1.0000 0.91182  0.02155  0.10857  Biso   1.000  H
  C2299    1.0000 0.87336  0.05833  0.11475  Biso   1.000  C
  H2239    1.0000 0.91893  0.86997  0.11207  Biso   1.000  H
  H2240    1.0000 0.97844  0.89027  0.10857  Biso   1.000  H
  C2300    1.0000 0.94167  0.81505  0.11475  Biso   1.000  C
  C2301    1.0000 0.07375  0.88143  0.10271  Biso   1.000  C
  H2241    1.0000 0.06593  0.88198  0.11927  Biso   1.000  H
  C2302    1.0000 0.17015  0.23346  0.10204  Biso   1.000  C
  C2303    1.0000 0.09081  0.17228  0.09336  Biso   1.000  C
  C2304    1.0000 0.82974  0.92630  0.11317  Biso   1.000  C
  H2242    1.0000 0.84232  0.02687  0.11767  Biso   1.000  H
  H2243    1.0000 0.88223  0.08778  0.11967  Biso   1.000  H
  C2305    1.0000 0.86027  0.07131  0.10372  Biso   1.000  C
  H2244    1.0000 0.97312  0.81548  0.11767  Biso   1.000  H
  H2245    1.0000 0.91224  0.79447  0.11967  Biso   1.000  H
  C2306    1.0000 0.92869  0.78896  0.10372  Biso   1.000  C
  C2307    1.0000 0.06332  0.82987  0.10204  Biso   1.000  C
  C2308    1.0000 0.08147  0.90921  0.09336  Biso   1.000  C
  C2309    1.0000 0.19233  0.25607  0.09247  Biso   1.000  C
  H2246    1.0000 0.19034  0.24606  0.10837  Biso   1.000  H
  C2310    1.0000 0.11295  0.19418  0.08363  Biso   1.000  C
  H2247    1.0000 0.05624  0.14317  0.09367  Biso   1.000  H
  C2311    1.0000 0.80770  0.92626  0.10271  Biso   1.000  C
  H2248    1.0000 0.81605  0.93409  0.11927  Biso   1.000  H
  H2249    1.0000 0.85274  0.04237  0.09877  Biso   1.000  H
  H2250    1.0000 0.89103  0.10335  0.10097  Biso   1.000  H
  C2312    1.0000 0.81321  0.07984  0.10406  Biso   1.000  C
  H2251    1.0000 0.95764  0.81039  0.09877  Biso   1.000  H
  H2252    1.0000 0.89664  0.78766  0.10097  Biso   1.000  H
  C2313    1.0000 0.92016  0.73341  0.10406  Biso   1.000  C
  C2314    1.0000 0.06373  0.80765  0.09247  Biso   1.000  C
  H2253    1.0000 0.05574  0.80969  0.10837  Biso   1.000  H
  C2315    1.0000 0.08124  0.88706  0.08363  Biso   1.000  C
  H2254    1.0000 0.08694  0.94379  0.09367  Biso   1.000  H
  C2316    1.0000 0.16380  0.23721  0.08313  Biso   1.000  C
  H2255    1.0000 0.22723  0.28467  0.09227  Biso   1.000  H
  H2256    1.0000 0.09355  0.17998  0.07727  Biso   1.000  H
  C2317    1.0000 0.76654  0.93671  0.10204  Biso   1.000  C
  C2318    1.0000 0.82773  0.91856  0.09336  Biso   1.000  C
  H2257    1.0000 0.80634  0.08798  0.09687  Biso   1.000  H
  H2258    1.0000 0.82084  0.10898  0.10886  Biso   1.000  H
  H2259    1.0000 0.78243  0.04796  0.10667  Biso   1.000  H
  H2260    1.0000 0.91204  0.71839  0.09687  Biso   1.000  H
  H2261    1.0000 0.89104  0.71189  0.10886  Biso   1.000  H
  H2262    1.0000 0.95203  0.73446  0.10667  Biso   1.000  H
  C2319    1.0000 0.07340  0.83621  0.08313  Biso   1.000  C
  H2263    1.0000 0.05743  0.77276  0.09227  Biso   1.000  H
  H2264    1.0000 0.08644  0.90647  0.07727  Biso   1.000  H
  C2320    1.0000 0.18542  0.26636  0.07293  Biso   1.000  C
  C2321    1.0000 0.74390  0.93628  0.09247  Biso   1.000  C
  H2265    1.0000 0.75394  0.94430  0.10837  Biso   1.000  H
  C2322    1.0000 0.80581  0.91875  0.08363  Biso   1.000  C
  H2266    1.0000 0.85684  0.91308  0.09367  Biso   1.000  H
  C2323    1.0000 0.08095  0.81458  0.07293  Biso   1.000  C
  C2324    1.0000 0.23239  0.27223  0.06906  Biso   1.000  C
  C2325    1.0000 0.15737  0.28764  0.06855  Biso   1.000  C
  C2326    1.0000 0.76282  0.92661  0.08313  Biso   1.000  C
  H2267    1.0000 0.71534  0.94257  0.09227  Biso   1.000  H
  H2268    1.0000 0.82003  0.91359  0.07727  Biso   1.000  H
  C2327    1.0000 0.03982  0.76764  0.06906  Biso   1.000  C
  C2328    1.0000 0.13027  0.84263  0.06855  Biso   1.000  C
  N244     1.0000 0.26036  0.30364  0.06067  Biso   1.000  N
  C2329    1.0000 0.26076  0.24868  0.07365  Biso   1.000  C
  N245     1.0000 0.16847  0.31573  0.05914  Biso   1.000  N
  C2330    1.0000 0.11398  0.28948  0.07319  Biso   1.000  C
  C2331    1.0000 0.73364  0.91906  0.07293  Biso   1.000  C
  C2332    1.0000 0.98792  0.73924  0.07365  Biso   1.000  C
  N246     1.0000 0.04329  0.73967  0.06067  Biso   1.000  N
  N247     1.0000 0.14726  0.83156  0.05914  Biso   1.000  N
  C2333    1.0000 0.17549  0.88605  0.07319  Biso   1.000  C
  H2269    1.0000 0.25105  0.32167  0.05657  Biso   1.000  H
  C2334    1.0000 0.30503  0.30156  0.06000  Biso   1.000  C
  C2335    1.0000 0.30537  0.26702  0.06800  Biso   1.000  C
  H2270    1.0000 0.25014  0.22505  0.07947  Biso   1.000  H
  C2336    1.0000 0.13428  0.33462  0.05798  Biso   1.000  C
  H2271    1.0000 0.09742  0.27336  0.07966  Biso   1.000  H
  C2337    1.0000 0.10023  0.31733  0.06693  Biso   1.000  C
  C2338    1.0000 0.72780  0.96018  0.06906  Biso   1.000  C
  C2339    1.0000 0.71236  0.86974  0.06855  Biso   1.000  C
  C2340    1.0000 0.96162  0.69464  0.06800  Biso   1.000  C
  H2272    1.0000 0.97494  0.74988  0.07947  Biso   1.000  H
  C2341    1.0000 0.99652  0.69499  0.06000  Biso   1.000  C
  H2273    1.0000 0.07064  0.74898  0.05657  Biso   1.000  H
  C2342    1.0000 0.20037  0.86575  0.05798  Biso   1.000  C
  H2274    1.0000 0.17594  0.90259  0.07966  Biso   1.000  H
  C2343    1.0000 0.21714  0.89982  0.06693  Biso   1.000  C
  C2344    1.0000 0.34589  0.32969  0.05271  Biso   1.000  C
  H2275    1.0000 0.33215  0.25857  0.06907  Biso   1.000  H
  C2345    1.0000 0.13367  0.36572  0.04965  Biso   1.000  C
  H2276    1.0000 0.07252  0.32425  0.06826  Biso   1.000  H
  N248     1.0000 0.69637  0.95673  0.06067  Biso   1.000  N
  C2346    1.0000 0.75132  0.01209  0.07365  Biso   1.000  C
  N249     1.0000 0.68429  0.85276  0.05914  Biso   1.000  N
  C2347    1.0000 0.71055  0.82451  0.07319  Biso   1.000  C
  H2277    1.0000 0.92643  0.66788  0.06907  Biso   1.000  H
  C2348    1.0000 0.98377  0.65411  0.05271  Biso   1.000  C
  C2349    1.0000 0.23207  0.86633  0.04965  Biso   1.000  C
  H2278    1.0000 0.25173  0.92747  0.06826  Biso   1.000  H
  C2350    1.0000 0.34591  0.36239  0.04466  Biso   1.000  C
  C2351    1.0000 0.39327  0.32464  0.05323  Biso   1.000  C
  C2352    1.0000 0.16916  0.38547  0.04130  Biso   1.000  C
  C2353    1.0000 0.09297  0.38129  0.05086  Biso   1.000  C
  H2279    1.0000 0.67836  0.92939  0.05657  Biso   1.000  H
  C2354    1.0000 0.69847  0.00348  0.06000  Biso   1.000  C
  C2355    1.0000 0.73299  0.03838  0.06800  Biso   1.000  C
  H2280    1.0000 0.77495  0.02507  0.07947  Biso   1.000  H
  C2356    1.0000 0.66537  0.79967  0.05798  Biso   1.000  C
  H2281    1.0000 0.72663  0.82408  0.07966  Biso   1.000  H
  C2357    1.0000 0.68269  0.78289  0.06693  Biso   1.000  C
  C2358    1.0000 0.93136  0.60674  0.05323  Biso   1.000  C
  C2359    1.0000 0.01650  0.65411  0.04466  Biso   1.000  C
  C2360    1.0000 0.21633  0.83085  0.04130  Biso   1.000  C
  C2361    1.0000 0.28834  0.90705  0.05086  Biso   1.000  C
  N250     1.0000 0.30444  0.36916  0.04209  Biso   1.000  N
  C2362    1.0000 0.38841  0.39408  0.03786  Biso   1.000  C
  C2363    1.0000 0.40395  0.30102  0.04457  Biso   1.000  C
  C2364    1.0000 0.43015  0.34671  0.06120  Biso   1.000  C
  N251     1.0000 0.21245  0.38058  0.04027  Biso   1.000  N
  C2365    1.0000 0.16638  0.41575  0.03264  Biso   1.000  C
  C2366    1.0000 0.04062  0.34569  0.05012  Biso   1.000  C
  C2367    1.0000 0.10814  0.43214  0.05370  Biso   1.000  C
  C2368    1.0000 0.67032  0.01623  0.05271  Biso   1.000  C
  H2282    1.0000 0.74145  0.07358  0.06907  Biso   1.000  H
  C2369    1.0000 0.63426  0.76795  0.04965  Biso   1.000  C
  H2283    1.0000 0.67575  0.74827  0.06826  Biso   1.000  H
  C2370    1.0000 0.89706  0.59606  0.04457  Biso   1.000  C
  C2371    1.0000 0.91659  0.56989  0.06120  Biso   1.000  C
  N252     1.0000 0.06469  0.69554  0.04209  Biso   1.000  N
  C2372    1.0000 0.00567  0.61159  0.03786  Biso   1.000  C
  N253     1.0000 0.16811  0.78755  0.04027  Biso   1.000  N
  C2373    1.0000 0.24939  0.83363  0.03264  Biso   1.000  C
  C2374    1.0000 0.30506  0.95939  0.05012  Biso   1.000  C
  C2375    1.0000 0.32401  0.89188  0.05370  Biso   1.000  C
  C2376    1.0000 0.31896  0.40335  0.03352  Biso   1.000  C
  C2377    1.0000 0.37250  0.41904  0.03104  Biso   1.000  C
  H2284    1.0000 0.42214  0.39737  0.03807  Biso   1.000  H
  C2378    1.0000 0.44864  0.29832  0.04416  Biso   1.000  C
  H2285    1.0000 0.37942  0.28666  0.03887  Biso   1.000  H
  C2379    1.0000 0.47555  0.34436  0.06071  Biso   1.000  C
  H2286    1.0000 0.42425  0.36357  0.06707  Biso   1.000  H
  H2287    1.0000 0.22182  0.36267  0.04447  Biso   1.000  H
  C2380    1.0000 0.23838  0.40895  0.03151  Biso   1.000  C
  H2288    1.0000 0.13962  0.42416  0.03147  Biso   1.000  H
  C2381    1.0000 0.20912  0.42995  0.02653  Biso   1.000  C
  C2382    1.0000 0.00300  0.35915  0.05234  Biso   1.000  C
  H2289    1.0000 0.02992  0.31087  0.04797  Biso   1.000  H
  C2383    1.0000 0.07000  0.44564  0.05594  Biso   1.000  C
  H2290    1.0000 0.14413  0.45765  0.05417  Biso   1.000  H
  C2384    1.0000 0.63761  0.98353  0.04466  Biso   1.000  C
  C2385    1.0000 0.67537  0.06861  0.05323  Biso   1.000  C
  C2386    1.0000 0.61453  0.78371  0.04130  Biso   1.000  C
  C2387    1.0000 0.61874  0.71170  0.05086  Biso   1.000  C
  C2388    1.0000 0.84972  0.55139  0.04416  Biso   1.000  C
  H2291    1.0000 0.90725  0.62059  0.03887  Biso   1.000  H
  C2389    1.0000 0.86880  0.52444  0.06071  Biso   1.000  C
  H2292    1.0000 0.93937  0.57580  0.06707  Biso   1.000  H
  C2390    1.0000 0.08440  0.68103  0.03352  Biso   1.000  C
  H2293    1.0000 0.97523  0.57787  0.03807  Biso   1.000  H
  C2391    1.0000 0.04653  0.62751  0.03104  Biso   1.000  C
  H2294    1.0000 0.14084  0.77820  0.04447  Biso   1.000  H
  C2392    1.0000 0.17056  0.76161  0.03151  Biso   1.000  C
  H2295    1.0000 0.28455  0.86039  0.03147  Biso   1.000  H
  C2393    1.0000 0.22080  0.79087  0.02653  Biso   1.000  C
  C2394    1.0000 0.35616  0.99703  0.05234  Biso   1.000  C
  H2296    1.0000 0.28092  0.97007  0.04797  Biso   1.000  H
  C2395    1.0000 0.37564  0.93002  0.05594  Biso   1.000  C
  H2297    1.0000 0.31354  0.85589  0.05417  Biso   1.000  H
  C2396    1.0000 0.28824  0.41990  0.02850  Biso   1.000  C
  H2298    1.0000 0.39302  0.44267  0.02556  Biso   1.000  H
  C2397    1.0000 0.48561  0.32022  0.05230  Biso   1.000  C
  H2299    1.0000 0.45464  0.28146  0.03836  Biso   1.000  H
  H2300    1.0000 0.50054  0.35958  0.06627  Biso   1.000  H
  H2301    1.0000 0.21805  0.44998  0.02017  Biso   1.000  H
  C2398    1.0000 0.01759  0.40898  0.05548  Biso   1.000  C
  H2302    1.0000 0.96693  0.33376  0.05167  Biso   1.000  H
  H2303    1.0000 0.08042  0.48065  0.05777  Biso   1.000  H
  N254     1.0000 0.63084  0.93530  0.04209  Biso   1.000  N
  C2399    1.0000 0.60593  0.99437  0.03786  Biso   1.000  C
  C2400    1.0000 0.69900  0.10292  0.04457  Biso   1.000  C
  C2401    1.0000 0.65331  0.08344  0.06120  Biso   1.000  C
  N255     1.0000 0.61942  0.83191  0.04027  Biso   1.000  N
  C2402    1.0000 0.58423  0.75062  0.03264  Biso   1.000  C
  C2403    1.0000 0.65431  0.69495  0.05012  Biso   1.000  C
  C2404    1.0000 0.56787  0.67602  0.05370  Biso   1.000  C
  C2405    1.0000 0.83462  0.51442  0.05230  Biso   1.000  C
  H2304    1.0000 0.82682  0.54536  0.03836  Biso   1.000  H
  H2305    1.0000 0.85903  0.49948  0.06627  Biso   1.000  H
  C2406    1.0000 0.13165  0.71177  0.02850  Biso   1.000  C
  H2306    1.0000 0.04964  0.60698  0.02556  Biso   1.000  H
  H2307    1.0000 0.23194  0.78199  0.02017  Biso   1.000  H
  H2308    1.0000 0.36682  0.03306  0.05167  Biso   1.000  H
  C2407    1.0000 0.39138  0.98244  0.05548  Biso   1.000  C
  H2309    1.0000 0.40023  0.91957  0.05777  Biso   1.000  H
  C2408    1.0000 0.31532  0.45718  0.01930  Biso   1.000  C
  C2409    1.0000 0.53357  0.31635  0.05199  Biso   1.000  C
  C2410    1.0000 0.97857  0.42404  0.05806  Biso   1.000  C
  C2411    1.0000 0.59664  0.91562  0.03352  Biso   1.000  C
  C2412    1.0000 0.58099  0.95349  0.03104  Biso   1.000  C
  H2310    1.0000 0.60263  0.02476  0.03807  Biso   1.000  H
  C2413    1.0000 0.70165  0.15029  0.04416  Biso   1.000  C
  H2311    1.0000 0.71332  0.09275  0.03887  Biso   1.000  H
  C2414    1.0000 0.65565  0.13120  0.06071  Biso   1.000  C
  H2312    1.0000 0.63644  0.06067  0.06707  Biso   1.000  H
  H2313    1.0000 0.63732  0.85917  0.04447  Biso   1.000  H
  C2415    1.0000 0.59105  0.82944  0.03151  Biso   1.000  C
  H2314    1.0000 0.57585  0.71549  0.03147  Biso   1.000  H
  C2416    1.0000 0.57007  0.77922  0.02653  Biso   1.000  C
  C2417    1.0000 0.64086  0.64386  0.05234  Biso   1.000  C
  H2315    1.0000 0.68914  0.71909  0.04797  Biso   1.000  H
  C2418    1.0000 0.55438  0.62438  0.05594  Biso   1.000  C
  H2316    1.0000 0.54233  0.68647  0.05417  Biso   1.000  H
  C2419    1.0000 0.78279  0.46646  0.05199  Biso   1.000  C
  C2420    1.0000 0.14186  0.68470  0.01930  Biso   1.000  C
  C2421    1.0000 0.44547  0.02144  0.05806  Biso   1.000  C
  C2422    1.0000 0.31580  0.43809  0.00928  Biso   1.000  C
  C2423    1.0000 0.34355  0.51073  0.02102  Biso   1.000  C
  N256     1.0000 0.54050  0.29159  0.04477  Biso   1.000  N
  H2317    1.0000 0.55944  0.33298  0.05736  Biso   1.000  H
  N257     1.0000 0.93024  0.39208  0.05813  Biso   1.000  N
  H2318    1.0000 0.99034  0.45956  0.05977  Biso   1.000  H
  C2424    1.0000 0.58009  0.86837  0.02850  Biso   1.000  C
  H2319    1.0000 0.55735  0.95040  0.02556  Biso   1.000  H
  C2425    1.0000 0.67979  0.16539  0.05230  Biso   1.000  C
  H2320    1.0000 0.71854  0.17318  0.03836  Biso   1.000  H
  H2321    1.0000 0.64045  0.14098  0.06627  Biso   1.000  H
  H2322    1.0000 0.55003  0.76807  0.02017  Biso   1.000  H
  C2426    1.0000 0.59105  0.60862  0.05548  Biso   1.000  C
  H2323    1.0000 0.66624  0.63319  0.05167  Biso   1.000  H
  H2324    1.0000 0.51935  0.59978  0.05777  Biso   1.000  H
  N258     1.0000 0.75106  0.45950  0.04477  Biso   1.000  N
  H2325    1.0000 0.77354  0.44057  0.05736  Biso   1.000  H
  C2427    1.0000 0.12227  0.68420  0.00928  Biso   1.000  C
  C2428    1.0000 0.16721  0.65646  0.02102  Biso   1.000  C
  N259     1.0000 0.46183  0.06975  0.05813  Biso   1.000  N
  H2326    1.0000 0.46923  0.00966  0.05977  Biso   1.000  H
  C2429    1.0000 0.34481  0.47165  0.00120  Biso   1.000  C
  H2327    1.0000 0.29597  0.40155  0.00793  Biso   1.000  H
  C2430    1.0000 0.37176  0.54390  0.01294  Biso   1.000  C
  H2328    1.0000 0.34325  0.52442  0.02783  Biso   1.000  H
  C2431    1.0000 0.58767  0.28693  0.04523  Biso   1.000  C
  C2432    1.0000 0.89480  0.41247  0.05997  Biso   1.000  C
  C2433    1.0000 0.54284  0.85816  0.01930  Biso   1.000  C
  C2434    1.0000 0.68365  0.21723  0.05199  Biso   1.000  C
  C2435    1.0000 0.57598  0.55456  0.05806  Biso   1.000  C
  C2436    1.0000 0.69927  0.41236  0.04523  Biso   1.000  C
  C2437    1.0000 0.12685  0.65521  0.00120  Biso   1.000  C
  H2329    1.0000 0.10555  0.70403  0.00793  Biso   1.000  H
  C2438    1.0000 0.17215  0.62826  0.01294  Biso   1.000  C
  H2330    1.0000 0.18117  0.65673  0.02783  Biso   1.000  H
  C2439    1.0000 0.51763  0.10519  0.05997  Biso   1.000  C
  C2440    1.0000 0.37405  0.52513  0.00318  Biso   1.000  C
  H2331    1.0000 0.34487  0.45835  0.99434  Biso   1.000  H
  H2332    1.0000 0.38996  0.58052  0.01413  Biso   1.000  H
  C2441    1.0000 0.57375  0.23111  0.04369  Biso   1.000  C
  H2333    1.0000 0.61243  0.30888  0.03957  Biso   1.000  H
  H2334    1.0000 0.60503  0.29957  0.05217  Biso   1.000  H
  C2442    1.0000 0.85690  0.39725  0.05101  Biso   1.000  C
  H2335    1.0000 0.87564  0.39827  0.06677  Biso   1.000  H
  H2336    1.0000 0.91525  0.45108  0.06057  Biso   1.000  H
  C2443    1.0000 0.56192  0.87775  0.00928  Biso   1.000  C
  C2444    1.0000 0.48927  0.83281  0.02102  Biso   1.000  C
  N260     1.0000 0.70842  0.24895  0.04477  Biso   1.000  N
  H2337    1.0000 0.66703  0.22646  0.05736  Biso   1.000  H
  N261     1.0000 0.60793  0.53817  0.05813  Biso   1.000  N
  H2338    1.0000 0.54044  0.53077  0.05977  Biso   1.000  H
  C2445    1.0000 0.65738  0.42629  0.04369  Biso   1.000  C
  H2339    1.0000 0.69642  0.38756  0.03957  Biso   1.000  H
  H2340    1.0000 0.69455  0.39499  0.05217  Biso   1.000  H
  H2341    1.0000 0.11346  0.65513  0.99434  Biso   1.000  H
  C2446    1.0000 0.15107  0.62595  0.00318  Biso   1.000  C
  H2342    1.0000 0.19058  0.61003  0.01413  Biso   1.000  H
  C2447    1.0000 0.54037  0.14313  0.05101  Biso   1.000  C
  H2343    1.0000 0.52264  0.12436  0.06677  Biso   1.000  H
  H2344    1.0000 0.53585  0.08477  0.06057  Biso   1.000  H
  C2448    1.0000 0.40662  0.56249  0.99453  Biso   1.000  C
  C2449    1.0000 0.58303  0.21316  0.03400  Biso   1.000  C
  C2450    1.0000 0.55183  0.19512  0.05193  Biso   1.000  C
  C2451    1.0000 0.87180  0.42318  0.04116  Biso   1.000  C
  C2452    1.0000 0.80487  0.35668  0.05193  Biso   1.000  C
  C2453    1.0000 0.52836  0.87318  0.00120  Biso   1.000  C
  H2345    1.0000 0.59849  0.89446  0.00793  Biso   1.000  H
  C2454    1.0000 0.45610  0.82784  0.01294  Biso   1.000  C
  H2346    1.0000 0.47558  0.81884  0.02783  Biso   1.000  H
  C2455    1.0000 0.71308  0.30074  0.04523  Biso   1.000  C
  C2456    1.0000 0.58754  0.48234  0.05997  Biso   1.000  C
  C2457    1.0000 0.63015  0.41702  0.03400  Biso   1.000  C
  C2458    1.0000 0.64330  0.44819  0.05193  Biso   1.000  C
  C2459    1.0000 0.15585  0.59336  0.99453  Biso   1.000  C
  C2460    1.0000 0.55138  0.12823  0.04116  Biso   1.000  C
  N262     1.0000 0.41062  0.54656  0.98559  Biso   1.000  N
  H2347    1.0000 0.42455  0.59902  0.99593  Biso   1.000  H
  O124     1.0000 0.60235  0.24684  0.02550  Biso   1.000  O
  C2461    1.0000 0.57313  0.16238  0.03278  Biso   1.000  C
  O125     1.0000 0.53929  0.21104  0.06136  Biso   1.000  O
  O126     1.0000 0.92420  0.46105  0.03988  Biso   1.000  O
  C2462    1.0000 0.83763  0.41074  0.03278  Biso   1.000  C
  O127     1.0000 0.78896  0.32824  0.06136  Biso   1.000  O
  C2463    1.0000 0.76889  0.34264  0.04369  Biso   1.000  C
  H2348    1.0000 0.54169  0.88656  0.99434  Biso   1.000  H
  C2464    1.0000 0.47487  0.84892  0.00318  Biso   1.000  C
  H2349    1.0000 0.41946  0.80945  0.01413  Biso   1.000  H
  H2350    1.0000 0.69115  0.30356  0.03957  Biso   1.000  H
  H2351    1.0000 0.70044  0.30548  0.05217  Biso   1.000  H
  C2465    1.0000 0.60275  0.45966  0.05101  Biso   1.000  C
  H2352    1.0000 0.60175  0.47738  0.06677  Biso   1.000  H
  H2353    1.0000 0.54895  0.46419  0.06057  Biso   1.000  H
  O128     1.0000 0.64449  0.39765  0.02550  Biso   1.000  O
  C2466    1.0000 0.58924  0.42687  0.03278  Biso   1.000  C
  O129     1.0000 0.67175  0.46071  0.06136  Biso   1.000  O
  N263     1.0000 0.13594  0.58937  0.98559  Biso   1.000  N
  H2354    1.0000 0.17447  0.57545  0.99593  Biso   1.000  H
  O130     1.0000 0.53684  0.07577  0.03988  Biso   1.000  O
  C2467    1.0000 0.44178  0.58693  0.97748  Biso   1.000  C
  C2468    1.0000 0.56023  0.25102  0.01999  Biso   1.000  C
  C2469    1.0000 0.58695  0.14517  0.02252  Biso   1.000  C
  C2470    1.0000 0.48382  0.19544  0.06186  Biso   1.000  C
  C2471    1.0000 0.95278  0.44083  0.03398  Biso   1.000  C
  C2472    1.0000 0.78684  0.36987  0.03400  Biso   1.000  C
  C2473    1.0000 0.85485  0.44180  0.02252  Biso   1.000  C
  C2474    1.0000 0.80459  0.28842  0.06186  Biso   1.000  C
  C2475    1.0000 0.43749  0.84415  0.99453  Biso   1.000  C
  C2476    1.0000 0.57684  0.44862  0.04116  Biso   1.000  C
  C2477    1.0000 0.69079  0.43978  0.01999  Biso   1.000  C
  C2478    1.0000 0.55822  0.41307  0.02252  Biso   1.000  C
  C2479    1.0000 0.71161  0.51618  0.06186  Biso   1.000  C
  C2480    1.0000 0.14517  0.55823  0.97748  Biso   1.000  C
  C2481    1.0000 0.48806  0.04726  0.03398  Biso   1.000  C
  C2482    1.0000 0.41076  0.57313  0.96722  Biso   1.000  C
  H2355    1.0000 0.47549  0.58815  0.97624  Biso   1.000  H
  H2356    1.0000 0.44927  0.62183  0.98003  Biso   1.000  H
  H2357    1.0000 0.52983  0.21578  0.01877  Biso   1.000  H
  H2358    1.0000 0.54863  0.27105  0.02446  Biso   1.000  H
  C2483    1.0000 0.58109  0.27825  0.00962  Biso   1.000  C
  N264     1.0000 0.54656  0.13594  0.01441  Biso   1.000  N
  H2359    1.0000 0.58814  0.11266  0.02376  Biso   1.000  H
  H2360    1.0000 0.62181  0.17255  0.01997  Biso   1.000  H
  H2361    1.0000 0.47413  0.20776  0.05537  Biso   1.000  H
  H2362    1.0000 0.46244  0.15687  0.06207  Biso   1.000  H
  C2484    1.0000 0.47288  0.21766  0.07139  Biso   1.000  C
  C2485    1.0000 0.00979  0.48276  0.03318  Biso   1.000  C
  H2363    1.0000 0.94962  0.40965  0.03766  Biso   1.000  H
  H2364    1.0000 0.93772  0.43015  0.02676  Biso   1.000  H
  O131     1.0000 0.75317  0.35551  0.02550  Biso   1.000  O
  N265     1.0000 0.86406  0.41063  0.01441  Biso   1.000  N
  H2365    1.0000 0.88735  0.47549  0.02376  Biso   1.000  H
  H2366    1.0000 0.82742  0.44928  0.01997  Biso   1.000  H
  H2367    1.0000 0.79223  0.26636  0.05537  Biso   1.000  H
  H2368    1.0000 0.84314  0.30555  0.06207  Biso   1.000  H
  C2486    1.0000 0.78232  0.25521  0.07139  Biso   1.000  C
  N266     1.0000 0.45344  0.86406  0.98559  Biso   1.000  N
  H2369    1.0000 0.40098  0.82553  0.99593  Biso   1.000  H
  O132     1.0000 0.53896  0.46318  0.03988  Biso   1.000  O
  H2370    1.0000 0.68593  0.47018  0.01877  Biso   1.000  H
  H2371    1.0000 0.72243  0.45136  0.02446  Biso   1.000  H
  C2487    1.0000 0.69717  0.41893  0.00962  Biso   1.000  C
  N267     1.0000 0.58938  0.45344  0.01441  Biso   1.000  N
  H2372    1.0000 0.52453  0.41189  0.02376  Biso   1.000  H
  H2373    1.0000 0.55073  0.37817  0.01997  Biso   1.000  H
  H2374    1.0000 0.73364  0.52588  0.05537  Biso   1.000  H
  H2375    1.0000 0.69443  0.53758  0.06207  Biso   1.000  H
  C2488    1.0000 0.74480  0.52714  0.07139  Biso   1.000  C
  C2489    1.0000 0.16237  0.58926  0.96722  Biso   1.000  C
  H2376    1.0000 0.11267  0.52455  0.97624  Biso   1.000  H
  H2377    1.0000 0.17260  0.55076  0.98003  Biso   1.000  H
  H2378    1.0000 0.46005  0.05038  0.03766  Biso   1.000  H
  H2379    1.0000 0.49245  0.06228  0.02676  Biso   1.000  H
  C2490    1.0000 0.47299  0.99022  0.03318  Biso   1.000  C
  C2491    1.0000 0.42316  0.55138  0.95884  Biso   1.000  C
  C2492    1.0000 0.36987  0.58302  0.96600  Biso   1.000  C
  H2380    1.0000 0.60995  0.31428  0.01096  Biso   1.000  H
  H2381    1.0000 0.59572  0.25967  0.00557  Biso   1.000  H
  C2493    1.0000 0.53964  0.28071  0.00286  Biso   1.000  C
  C2494    1.0000 0.56251  0.15585  0.00547  Biso   1.000  C
  H2382    1.0000 0.47862  0.20197  0.07787  Biso   1.000  H
  H2383    1.0000 0.49742  0.25576  0.07167  Biso   1.000  H
  C2495    1.0000 0.41696  0.20745  0.07137  Biso   1.000  C
  H2384    1.0000 0.02352  0.49626  0.04037  Biso   1.000  H
  H2385    1.0000 0.01302  0.51226  0.02886  Biso   1.000  H
  C2496    1.0000 0.04147  0.46129  0.02820  Biso   1.000  C
  C2497    1.0000 0.74897  0.30923  0.01999  Biso   1.000  C
  C2498    1.0000 0.84415  0.40664  0.00547  Biso   1.000  C
  H2386    1.0000 0.79804  0.27669  0.07787  Biso   1.000  H
  H2387    1.0000 0.74425  0.24167  0.07167  Biso   1.000  H
  C2499    1.0000 0.79258  0.20952  0.07137  Biso   1.000  C
  C2500    1.0000 0.41305  0.85483  0.97748  Biso   1.000  C
  C2501    1.0000 0.55918  0.51196  0.03398  Biso   1.000  C
  H2388    1.0000 0.70435  0.39006  0.01096  Biso   1.000  H
  H2389    1.0000 0.66392  0.40426  0.00557  Biso   1.000  H
  C2502    1.0000 0.74111  0.46040  0.00286  Biso   1.000  C
  C2503    1.0000 0.59338  0.43751  0.00547  Biso   1.000  C
  H2390    1.0000 0.72336  0.52138  0.07787  Biso   1.000  H
  H2391    1.0000 0.75833  0.50257  0.07167  Biso   1.000  H
  C2504    1.0000 0.79049  0.58307  0.07137  Biso   1.000  C
  C2505    1.0000 0.12822  0.57685  0.95884  Biso   1.000  C
  C2506    1.0000 0.21316  0.63013  0.96600  Biso   1.000  C
  H2392    1.0000 0.47273  0.97649  0.04037  Biso   1.000  H
  H2393    1.0000 0.49925  0.98697  0.02886  Biso   1.000  H
  C2507    1.0000 0.41981  0.95853  0.02820  Biso   1.000  C
  O133     1.0000 0.46104  0.53682  0.96012  Biso   1.000  O
  C2508    1.0000 0.39725  0.54034  0.94899  Biso   1.000  C
  O134     1.0000 0.35551  0.60235  0.97450  Biso   1.000  O
  C2509    1.0000 0.34264  0.57375  0.95631  Biso   1.000  C
  H2394    1.0000 0.52745  0.30227  0.00656  Biso   1.000  H
  H2395    1.0000 0.50923  0.24496  0.00207  Biso   1.000  H
  C2510    1.0000 0.55931  0.30333  0.99204  Biso   1.000  C
  H2396    1.0000 0.59902  0.17447  0.00407  Biso   1.000  H
  C2511    1.0000 0.52513  0.15108  0.99682  Biso   1.000  C
  H2397    1.0000 0.41122  0.22247  0.06487  Biso   1.000  H
  H2398    1.0000 0.39262  0.16915  0.07117  Biso   1.000  H
  C2512    1.0000 0.40365  0.23056  0.08108  Biso   1.000  C
  H2399    1.0000 0.03943  0.43289  0.03276  Biso   1.000  H
  H2400    1.0000 0.02644  0.44607  0.02116  Biso   1.000  H
  C2513    1.0000 0.09853  0.50318  0.02680  Biso   1.000  C
  H2401    1.0000 0.78425  0.31408  0.01877  Biso   1.000  H
  H2402    1.0000 0.72894  0.27759  0.02446  Biso   1.000  H
  C2514    1.0000 0.72176  0.30286  0.00962  Biso   1.000  C
  C2515    1.0000 0.84893  0.37405  0.99682  Biso   1.000  C
  H2403    1.0000 0.82553  0.42455  0.00407  Biso   1.000  H
  H2404    1.0000 0.77754  0.18879  0.06487  Biso   1.000  H
  H2405    1.0000 0.83083  0.22348  0.07117  Biso   1.000  H
  C2516    1.0000 0.76944  0.17306  0.08108  Biso   1.000  C
  C2517    1.0000 0.42687  0.83762  0.96722  Biso   1.000  C
  H2406    1.0000 0.41186  0.88734  0.97624  Biso   1.000  H
  H2407    1.0000 0.37819  0.82745  0.98003  Biso   1.000  H
  H2408    1.0000 0.59033  0.53997  0.03766  Biso   1.000  H
  H2409    1.0000 0.56983  0.50758  0.02676  Biso   1.000  H
  C2518    1.0000 0.51722  0.52702  0.03318  Biso   1.000  C
  C2519    1.0000 0.74404  0.44072  0.99204  Biso   1.000  C
  H2410    1.0000 0.77484  0.47256  0.00656  Biso   1.000  H
  H2411    1.0000 0.73574  0.49079  0.00207  Biso   1.000  H
  C2520    1.0000 0.62595  0.47487  0.99682  Biso   1.000  C
  H2412    1.0000 0.57545  0.40098  0.00407  Biso   1.000  H
  H2413    1.0000 0.81123  0.58879  0.06487  Biso   1.000  H
  H2414    1.0000 0.77655  0.60737  0.07117  Biso   1.000  H
  C2521    1.0000 0.82695  0.59638  0.08108  Biso   1.000  C
  O135     1.0000 0.07580  0.53895  0.96012  Biso   1.000  O
  C2522    1.0000 0.14310  0.60275  0.94899  Biso   1.000  C
  O136     1.0000 0.24683  0.64449  0.97450  Biso   1.000  O
  C2523    1.0000 0.23113  0.65740  0.95631  Biso   1.000  C
  H2415    1.0000 0.39342  0.96057  0.03276  Biso   1.000  H
  H2416    1.0000 0.41965  0.97359  0.02116  Biso   1.000  H
  C2524    1.0000 0.40468  0.90150  0.02680  Biso   1.000  C
  C2525    1.0000 0.44084  0.48808  0.96602  Biso   1.000  C
  C2526    1.0000 0.35670  0.55181  0.94807  Biso   1.000  C
  C2527    1.0000 0.41246  0.51766  0.94003  Biso   1.000  C
  C2528    1.0000 0.30923  0.56026  0.98001  Biso   1.000  C
  C2529    1.0000 0.30073  0.58764  0.95477  Biso   1.000  C
  H2417    1.0000 0.53123  0.30407  0.98807  Biso   1.000  H
  H2418    1.0000 0.57063  0.28165  0.98826  Biso   1.000  H
  H2419    1.0000 0.58894  0.33908  0.99277  Biso   1.000  H
  C2530    1.0000 0.47164  0.12682  0.99880  Biso   1.000  C
  C2531    1.0000 0.54390  0.17216  0.98706  Biso   1.000  C
  H2420    1.0000 0.36724  0.22258  0.08056  Biso   1.000  H
  H2421    1.0000 0.42691  0.26855  0.08117  Biso   1.000  H
  H2422    1.0000 0.40833  0.21527  0.08756  Biso   1.000  H
  H2423    1.0000 0.11773  0.48765  0.02357  Biso   1.000  H
  H2424    1.0000 0.11383  0.51785  0.03377  Biso   1.000  H
  H2425    1.0000 0.10073  0.53096  0.02217  Biso   1.000  H
  H2426    1.0000 0.68574  0.29566  0.01096  Biso   1.000  H
  H2427    1.0000 0.74033  0.33607  0.00557  Biso   1.000  H
  C2532    1.0000 0.71931  0.25893  0.00286  Biso   1.000  C
  C2533    1.0000 0.87315  0.34479  0.99880  Biso   1.000  C
  C2534    1.0000 0.82785  0.37174  0.98706  Biso   1.000  C
  H2428    1.0000 0.77743  0.14466  0.08056  Biso   1.000  H
  H2429    1.0000 0.73142  0.15835  0.08117  Biso   1.000  H
  H2430    1.0000 0.78472  0.19305  0.08756  Biso   1.000  H
  C2535    1.0000 0.44864  0.87181  0.95884  Biso   1.000  C
  C2536    1.0000 0.41699  0.78688  0.96600  Biso   1.000  C
  H2431    1.0000 0.50374  0.52729  0.04037  Biso   1.000  H
  H2432    1.0000 0.48773  0.50077  0.02886  Biso   1.000  H
  C2537    1.0000 0.53874  0.58022  0.02820  Biso   1.000  C
  H2433    1.0000 0.77284  0.46877  0.98807  Biso   1.000  H
  H2434    1.0000 0.71103  0.42938  0.98826  Biso   1.000  H
  H2435    1.0000 0.75015  0.41107  0.99277  Biso   1.000  H
  C2538    1.0000 0.65521  0.52839  0.99880  Biso   1.000  C
  C2539    1.0000 0.62824  0.45610  0.98706  Biso   1.000  C
  H2436    1.0000 0.85536  0.63279  0.08056  Biso   1.000  H
  H2437    1.0000 0.84162  0.57306  0.08117  Biso   1.000  H
  H2438    1.0000 0.80695  0.59168  0.08756  Biso   1.000  H
  C2540    1.0000 0.04722  0.55917  0.96602  Biso   1.000  C
  C2541    1.0000 0.19513  0.64332  0.94807  Biso   1.000  C
  C2542    1.0000 0.10522  0.58757  0.94003  Biso   1.000  C
  C2543    1.0000 0.25105  0.69081  0.98001  Biso   1.000  C
  C2544    1.0000 0.28694  0.69930  0.95477  Biso   1.000  C
  H2439    1.0000 0.36994  0.88229  0.02357  Biso   1.000  H
  H2440    1.0000 0.40402  0.88617  0.03377  Biso   1.000  H
  H2441    1.0000 0.43022  0.89927  0.02217  Biso   1.000  H
  H2442    1.0000 0.40967  0.46003  0.96234  Biso   1.000  H
  H2443    1.0000 0.43017  0.49242  0.97324  Biso   1.000  H
  C2545    1.0000 0.48278  0.47298  0.96682  Biso   1.000  C
  O137     1.0000 0.32825  0.53929  0.93864  Biso   1.000  O
  N268     1.0000 0.39207  0.46183  0.94187  Biso   1.000  N
  H2444    1.0000 0.39825  0.52262  0.93323  Biso   1.000  H
  H2445    1.0000 0.45107  0.53585  0.93943  Biso   1.000  H
  H2446    1.0000 0.31407  0.52982  0.98123  Biso   1.000  H
  H2447    1.0000 0.27757  0.54864  0.97554  Biso   1.000  H
  C2546    1.0000 0.30285  0.58111  0.99038  Biso   1.000  C
  N269     1.0000 0.24894  0.54050  0.95523  Biso   1.000  N
  H2448    1.0000 0.30358  0.61244  0.96043  Biso   1.000  H
  H2449    1.0000 0.30547  0.60505  0.94783  Biso   1.000  H
  H2450    1.0000 0.45833  0.11348  0.00566  Biso   1.000  H
  C2547    1.0000 0.43810  0.12228  0.99072  Biso   1.000  C
  H2451    1.0000 0.58056  0.19059  0.98587  Biso   1.000  H
  C2548    1.0000 0.51073  0.16719  0.97898  Biso   1.000  C
  C2549    1.0000 0.69670  0.25599  0.99204  Biso   1.000  C
  H2452    1.0000 0.69772  0.22517  0.00656  Biso   1.000  H
  H2453    1.0000 0.75505  0.26428  0.00207  Biso   1.000  H
  C2550    1.0000 0.87773  0.31580  0.99072  Biso   1.000  C
  H2454    1.0000 0.88654  0.34487  0.00566  Biso   1.000  H
  H2455    1.0000 0.80942  0.38997  0.98587  Biso   1.000  H
  C2551    1.0000 0.83279  0.34354  0.97898  Biso   1.000  C
  O138     1.0000 0.46316  0.92423  0.96012  Biso   1.000  O
  C2552    1.0000 0.45965  0.85690  0.94899  Biso   1.000  C
  O139     1.0000 0.39765  0.75316  0.97450  Biso   1.000  O
  C2553    1.0000 0.42625  0.76889  0.95631  Biso   1.000  C
  H2456    1.0000 0.56713  0.60659  0.03276  Biso   1.000  H
  H2457    1.0000 0.55393  0.58038  0.02116  Biso   1.000  H
  C2554    1.0000 0.49681  0.59536  0.02680  Biso   1.000  C
  C2555    1.0000 0.68420  0.56191  0.99072  Biso   1.000  C
  H2458    1.0000 0.65515  0.54169  0.00566  Biso   1.000  H
  H2459    1.0000 0.61004  0.41948  0.98587  Biso   1.000  H
  C2556    1.0000 0.65645  0.48927  0.97898  Biso   1.000  C
  C2557    1.0000 0.99021  0.51724  0.96682  Biso   1.000  C
  H2460    1.0000 0.05038  0.59035  0.96234  Biso   1.000  H
  H2461    1.0000 0.06228  0.56985  0.97324  Biso   1.000  H
  O140     1.0000 0.21104  0.67176  0.93864  Biso   1.000  O
  N270     1.0000 0.06978  0.60795  0.94187  Biso   1.000  N
  H2462    1.0000 0.12436  0.60173  0.93323  Biso   1.000  H
  H2463    1.0000 0.08477  0.54896  0.93943  Biso   1.000  H
  H2464    1.0000 0.21577  0.68596  0.98123  Biso   1.000  H
  H2465    1.0000 0.27108  0.72245  0.97554  Biso   1.000  H
  C2558    1.0000 0.27824  0.69714  0.99038  Biso   1.000  C
  N271     1.0000 0.29160  0.75109  0.95523  Biso   1.000  N
  H2466    1.0000 0.30885  0.69644  0.96043  Biso   1.000  H
  H2467    1.0000 0.29958  0.69456  0.94783  Biso   1.000  H
  H2468    1.0000 0.49628  0.47275  0.95963  Biso   1.000  H
  H2469    1.0000 0.51227  0.49923  0.97114  Biso   1.000  H
  C2559    1.0000 0.46126  0.41978  0.97180  Biso   1.000  C
  C2560    1.0000 0.28839  0.48382  0.93814  Biso   1.000  C
  C2561    1.0000 0.42404  0.44548  0.94194  Biso   1.000  C
  H2470    1.0000 0.29565  0.60994  0.98904  Biso   1.000  H
  H2471    1.0000 0.33608  0.59574  0.99443  Biso   1.000  H
  C2562    1.0000 0.25891  0.53964  0.99714  Biso   1.000  C
  C2563    1.0000 0.21723  0.53358  0.94801  Biso   1.000  C
  H2472    1.0000 0.40153  0.10558  0.99207  Biso   1.000  H
  C2564    1.0000 0.45716  0.14184  0.98070  Biso   1.000  C
  H2473    1.0000 0.52442  0.18116  0.97217  Biso   1.000  H
  H2474    1.0000 0.69594  0.22716  0.98807  Biso   1.000  H
  H2475    1.0000 0.71834  0.28897  0.98826  Biso   1.000  H
  H2476    1.0000 0.66094  0.24985  0.99277  Biso   1.000  H
  H2477    1.0000 0.89445  0.29597  0.99207  Biso   1.000  H
  C2565    1.0000 0.85816  0.31533  0.98070  Biso   1.000  C
  H2478    1.0000 0.81883  0.34327  0.97217  Biso   1.000  H
  C2566    1.0000 0.51196  0.95278  0.96602  Biso   1.000  C
  C2567    1.0000 0.44819  0.80492  0.94807  Biso   1.000  C
  C2568    1.0000 0.48237  0.89481  0.94003  Biso   1.000  C
  C2569    1.0000 0.43977  0.74898  0.98001  Biso   1.000  C
  C2570    1.0000 0.41235  0.71310  0.95477  Biso   1.000  C
  H2479    1.0000 0.51235  0.63010  0.02357  Biso   1.000  H
  H2480    1.0000 0.48215  0.59598  0.03377  Biso   1.000  H
  H2481    1.0000 0.46905  0.56977  0.02217  Biso   1.000  H
  H2482    1.0000 0.70405  0.59849  0.99207  Biso   1.000  H
  C2571    1.0000 0.68468  0.54282  0.98070  Biso   1.000  C
  H2483    1.0000 0.65675  0.47558  0.97217  Biso   1.000  H
  H2484    1.0000 0.97648  0.50374  0.95963  Biso   1.000  H
  H2485    1.0000 0.98698  0.48774  0.97114  Biso   1.000  H
  C2572    1.0000 0.95855  0.53875  0.97180  Biso   1.000  C
  C2573    1.0000 0.19543  0.71162  0.93814  Biso   1.000  C
  C2574    1.0000 0.02145  0.57599  0.94194  Biso   1.000  C
  H2486    1.0000 0.31426  0.70434  0.98904  Biso   1.000  H
  H2487    1.0000 0.25967  0.66393  0.99443  Biso   1.000  H
  C2575    1.0000 0.28071  0.74111  0.99714  Biso   1.000  C
  C2576    1.0000 0.31635  0.78277  0.94801  Biso   1.000  C
  H2488    1.0000 0.43287  0.39341  0.96724  Biso   1.000  H
  H2489    1.0000 0.44607  0.41962  0.97884  Biso   1.000  H
  C2577    1.0000 0.50321  0.40468  0.97320  Biso   1.000  C
  H2490    1.0000 0.26636  0.47412  0.94463  Biso   1.000  H
  H2491    1.0000 0.30557  0.46242  0.93793  Biso   1.000  H
  C2578    1.0000 0.25520  0.47286  0.92861  Biso   1.000  C
  H2492    1.0000 0.45956  0.46923  0.94023  Biso   1.000  H
  C2579    1.0000 0.40895  0.39138  0.94452  Biso   1.000  C
  C2580    1.0000 0.25598  0.55932  0.00796  Biso   1.000  C
  H2493    1.0000 0.22516  0.52744  0.99344  Biso   1.000  H
  H2494    1.0000 0.26428  0.50924  0.99793  Biso   1.000  H
  H2495    1.0000 0.22646  0.55943  0.94264  Biso   1.000  H
  C2581    1.0000 0.16540  0.48562  0.94770  Biso   1.000  C
  C2582    1.0000 0.41991  0.13163  0.97150  Biso   1.000  C
  C2583    1.0000 0.86837  0.28826  0.97150  Biso   1.000  C
  H2496    1.0000 0.53997  0.94965  0.96234  Biso   1.000  H
  H2497    1.0000 0.50757  0.93776  0.97324  Biso   1.000  H
  C2584    1.0000 0.52701  0.00978  0.96682  Biso   1.000  C
  O141     1.0000 0.46073  0.78899  0.93864  Biso   1.000  O
  N272     1.0000 0.53817  0.93025  0.94187  Biso   1.000  N
  H2498    1.0000 0.47736  0.87564  0.93323  Biso   1.000  H
  H2499    1.0000 0.46415  0.91523  0.93943  Biso   1.000  H
  H2500    1.0000 0.47018  0.78426  0.98123  Biso   1.000  H
  H2501    1.0000 0.45137  0.72895  0.97554  Biso   1.000  H
  C2585    1.0000 0.41893  0.72179  0.99038  Biso   1.000  C
  N273     1.0000 0.45952  0.70845  0.95523  Biso   1.000  N
  H2502    1.0000 0.38759  0.69116  0.96043  Biso   1.000  H
  H2503    1.0000 0.39497  0.70043  0.94783  Biso   1.000  H
  C2586    1.0000 0.71176  0.58010  0.97150  Biso   1.000  C
  H2504    1.0000 0.96059  0.56715  0.96724  Biso   1.000  H
  H2505    1.0000 0.97356  0.55393  0.97884  Biso   1.000  H
  C2587    1.0000 0.90147  0.49682  0.97320  Biso   1.000  C
  H2506    1.0000 0.20777  0.73364  0.94463  Biso   1.000  H
  H2507    1.0000 0.15686  0.69445  0.93793  Biso   1.000  H
  C2588    1.0000 0.21768  0.74479  0.92861  Biso   1.000  C
  C2589    1.0000 0.98243  0.59105  0.94452  Biso   1.000  C
  H2508    1.0000 0.00966  0.54044  0.94023  Biso   1.000  H
  H2509    1.0000 0.30228  0.77483  0.99344  Biso   1.000  H
  H2510    1.0000 0.24497  0.73575  0.99793  Biso   1.000  H
  C2590    1.0000 0.30330  0.74401  0.00796  Biso   1.000  C
  H2511    1.0000 0.33297  0.77354  0.94264  Biso   1.000  H
  C2591    1.0000 0.32023  0.83465  0.94770  Biso   1.000  C
  H2512    1.0000 0.48767  0.36994  0.97643  Biso   1.000  H
  H2513    1.0000 0.51785  0.40402  0.96623  Biso   1.000  H
  H2514    1.0000 0.53095  0.43023  0.97783  Biso   1.000  H
  H2515    1.0000 0.27664  0.47862  0.92213  Biso   1.000  H
  H2516    1.0000 0.24167  0.49743  0.92833  Biso   1.000  H
  C2592    1.0000 0.20951  0.41693  0.92863  Biso   1.000  C
  C2593    1.0000 0.35916  0.35617  0.94766  Biso   1.000  C
  C2594    1.0000 0.44562  0.37562  0.94406  Biso   1.000  C
  H2517    1.0000 0.22716  0.53123  0.01193  Biso   1.000  H
  H2518    1.0000 0.28897  0.57062  0.01174  Biso   1.000  H
  H2519    1.0000 0.24985  0.58893  0.00723  Biso   1.000  H
  C2595    1.0000 0.15030  0.44865  0.95584  Biso   1.000  C
  C2596    1.0000 0.13120  0.47556  0.93929  Biso   1.000  C
  C2597    1.0000 0.40895  0.17056  0.96849  Biso   1.000  C
  C2598    1.0000 0.40336  0.08438  0.96648  Biso   1.000  C
  C2599    1.0000 0.82944  0.23839  0.96849  Biso   1.000  C
  C2600    1.0000 0.91560  0.31897  0.96648  Biso   1.000  C
  H2520    1.0000 0.52729  0.02355  0.95963  Biso   1.000  H
  H2521    1.0000 0.50075  0.01303  0.97114  Biso   1.000  H
  C2601    1.0000 0.58019  0.04147  0.97180  Biso   1.000  C
  C2602    1.0000 0.51620  0.80460  0.93814  Biso   1.000  C
  C2603    1.0000 0.55453  0.97856  0.94194  Biso   1.000  C
  H2522    1.0000 0.39007  0.68576  0.98904  Biso   1.000  H
  H2523    1.0000 0.40428  0.74033  0.99443  Biso   1.000  H
  C2604    1.0000 0.46036  0.71929  0.99714  Biso   1.000  C
  C2605    1.0000 0.46645  0.68369  0.94801  Biso   1.000  C
  C2606    1.0000 0.76162  0.59105  0.96849  Biso   1.000  C
  C2607    1.0000 0.68104  0.59665  0.96648  Biso   1.000  C
  H2524    1.0000 0.88227  0.51235  0.97643  Biso   1.000  H
  H2525    1.0000 0.88617  0.48215  0.96623  Biso   1.000  H
  H2526    1.0000 0.89927  0.46904  0.97783  Biso   1.000  H
  H2527    1.0000 0.20198  0.72335  0.92213  Biso   1.000  H
  H2528    1.0000 0.25577  0.75836  0.92833  Biso   1.000  H
  C2608    1.0000 0.20744  0.79052  0.92863  Biso   1.000  C
  C2609    1.0000 0.99700  0.64085  0.94766  Biso   1.000  C
  C2610    1.0000 0.93000  0.55436  0.94406  Biso   1.000  C
  H2529    1.0000 0.30406  0.77284  0.01193  Biso   1.000  H
  H2530    1.0000 0.28166  0.71103  0.01174  Biso   1.000  H
  H2531    1.0000 0.33906  0.75015  0.00723  Biso   1.000  H
  C2611    1.0000 0.29835  0.84971  0.95584  Biso   1.000  C
  C2612    1.0000 0.34437  0.86884  0.93929  Biso   1.000  C
  H2532    1.0000 0.18877  0.41121  0.93513  Biso   1.000  H
  H2533    1.0000 0.22345  0.39263  0.92883  Biso   1.000  H
  C2613    1.0000 0.17305  0.40362  0.91892  Biso   1.000  C
  H2534    1.0000 0.33376  0.36681  0.94833  Biso   1.000  H
  C2614    1.0000 0.34569  0.30505  0.94988  Biso   1.000  C
  H2535    1.0000 0.48065  0.40022  0.94223  Biso   1.000  H
  C2615    1.0000 0.43213  0.32398  0.94630  Biso   1.000  C
  H2536    1.0000 0.17318  0.45464  0.96164  Biso   1.000  H
  C2616    1.0000 0.10294  0.40394  0.95543  Biso   1.000  C
  H2537    1.0000 0.14097  0.50052  0.93373  Biso   1.000  H
  C2617    1.0000 0.08343  0.43015  0.93880  Biso   1.000  C
  N274     1.0000 0.38060  0.16813  0.95973  Biso   1.000  N
  C2618    1.0000 0.42995  0.22082  0.97347  Biso   1.000  C
  N275     1.0000 0.36916  0.06470  0.95791  Biso   1.000  N
  C2619    1.0000 0.41903  0.04655  0.96896  Biso   1.000  C
  N276     1.0000 0.83189  0.21245  0.95973  Biso   1.000  N
  C2620    1.0000 0.77920  0.20913  0.97347  Biso   1.000  C
  N277     1.0000 0.93531  0.30446  0.95791  Biso   1.000  N
  C2621    1.0000 0.95347  0.37249  0.96896  Biso   1.000  C
  H2538    1.0000 0.60658  0.03943  0.96724  Biso   1.000  H
  H2539    1.0000 0.58037  0.02644  0.97884  Biso   1.000  H
  C2622    1.0000 0.59534  0.09854  0.97320  Biso   1.000  C
  H2540    1.0000 0.52587  0.79224  0.94463  Biso   1.000  H
  H2541    1.0000 0.53756  0.84313  0.93793  Biso   1.000  H
  C2623    1.0000 0.52712  0.78234  0.92861  Biso   1.000  C
  H2542    1.0000 0.53077  0.99034  0.94023  Biso   1.000  H
  C2624    1.0000 0.60862  0.01756  0.94452  Biso   1.000  C
  H2543    1.0000 0.47255  0.69773  0.99344  Biso   1.000  H
  H2544    1.0000 0.49077  0.75504  0.99793  Biso   1.000  H
  C2625    1.0000 0.44071  0.69671  0.00796  Biso   1.000  C
  H2545    1.0000 0.44058  0.66706  0.94264  Biso   1.000  H
  C2626    1.0000 0.51439  0.67978  0.94770  Biso   1.000  C
  N278     1.0000 0.78755  0.61942  0.95973  Biso   1.000  N
  C2627    1.0000 0.79090  0.57009  0.97347  Biso   1.000  C
  N279     1.0000 0.69556  0.63084  0.95791  Biso   1.000  N
  C2628    1.0000 0.62752  0.58100  0.96896  Biso   1.000  C
  H2546    1.0000 0.22248  0.81125  0.93513  Biso   1.000  H
  H2547    1.0000 0.16919  0.77656  0.92883  Biso   1.000  H
  C2629    1.0000 0.23056  0.82694  0.91892  Biso   1.000  C
  C2630    1.0000 0.95938  0.65431  0.94988  Biso   1.000  C
  H2548    1.0000 0.03307  0.66624  0.94833  Biso   1.000  H
  H2549    1.0000 0.91958  0.51935  0.94223  Biso   1.000  H
  C2631    1.0000 0.89188  0.56790  0.94630  Biso   1.000  C
  H2550    1.0000 0.28148  0.82686  0.96164  Biso   1.000  H
  C2632    1.0000 0.30100  0.89708  0.95543  Biso   1.000  C
  H2551    1.0000 0.35957  0.85906  0.93373  Biso   1.000  H
  C2633    1.0000 0.34671  0.91660  0.93880  Biso   1.000  C
  H2552    1.0000 0.14466  0.36724  0.91944  Biso   1.000  H
  H2553    1.0000 0.15838  0.42694  0.91883  Biso   1.000  H
  H2554    1.0000 0.19305  0.40832  0.91244  Biso   1.000  H
  H2555    1.0000 0.31088  0.28095  0.95203  Biso   1.000  H
  C2634    1.0000 0.38128  0.28834  0.94914  Biso   1.000  C
  H2556    1.0000 0.45767  0.31353  0.94583  Biso   1.000  H
  H2557    1.0000 0.09277  0.37945  0.96113  Biso   1.000  H
  C2635    1.0000 0.06864  0.39326  0.94677  Biso   1.000  C
  H2558    1.0000 0.06065  0.42424  0.93293  Biso   1.000  H
  H2559    1.0000 0.36268  0.14083  0.95553  Biso   1.000  H
  C2636    1.0000 0.38547  0.21629  0.95870  Biso   1.000  C
  C2637    1.0000 0.41577  0.24938  0.96736  Biso   1.000  C
  H2560    1.0000 0.44997  0.23193  0.97983  Biso   1.000  H
  C2638    1.0000 0.36241  0.01651  0.95534  Biso   1.000  C
  H2561    1.0000 0.44267  0.04964  0.97444  Biso   1.000  H
  C2639    1.0000 0.39409  0.00567  0.96214  Biso   1.000  C
  H2562    1.0000 0.85918  0.22184  0.95553  Biso   1.000  H
  C2640    1.0000 0.78369  0.16919  0.95870  Biso   1.000  C
  C2641    1.0000 0.75061  0.16637  0.96736  Biso   1.000  C
  H2563    1.0000 0.76808  0.21805  0.97983  Biso   1.000  H
  C2642    1.0000 0.98350  0.34589  0.95534  Biso   1.000  C
  H2564    1.0000 0.95036  0.39302  0.97444  Biso   1.000  H
  C2643    1.0000 0.99433  0.38841  0.96214  Biso   1.000  C
  H2565    1.0000 0.63008  0.11775  0.97643  Biso   1.000  H
  H2566    1.0000 0.59598  0.11383  0.96623  Biso   1.000  H
  H2567    1.0000 0.56978  0.10073  0.97783  Biso   1.000  H
  H2568    1.0000 0.52138  0.79803  0.92213  Biso   1.000  H
  H2569    1.0000 0.50258  0.74424  0.92833  Biso   1.000  H
  C2644    1.0000 0.58306  0.79259  0.92863  Biso   1.000  C
  C2645    1.0000 0.64386  0.00301  0.94766  Biso   1.000  C
  C2646    1.0000 0.62438  0.07002  0.94406  Biso   1.000  C
  H2570    1.0000 0.46877  0.69593  0.01193  Biso   1.000  H
  H2571    1.0000 0.42937  0.71835  0.01174  Biso   1.000  H
  H2572    1.0000 0.41107  0.66096  0.00723  Biso   1.000  H
  C2647    1.0000 0.55136  0.70168  0.95584  Biso   1.000  C
  C2648    1.0000 0.52445  0.65564  0.93929  Biso   1.000  C
  H2573    1.0000 0.77818  0.63733  0.95553  Biso   1.000  H
  C2649    1.0000 0.83084  0.61453  0.95870  Biso   1.000  C
  C2650    1.0000 0.83362  0.58425  0.96736  Biso   1.000  C
  H2574    1.0000 0.78197  0.55006  0.97983  Biso   1.000  H
  C2651    1.0000 0.65411  0.63765  0.95534  Biso   1.000  C
  H2575    1.0000 0.60698  0.55733  0.97444  Biso   1.000  H
  C2652    1.0000 0.61159  0.60592  0.96214  Biso   1.000  C
  H2576    1.0000 0.22257  0.85534  0.91944  Biso   1.000  H
  H2577    1.0000 0.26858  0.84165  0.91883  Biso   1.000  H
  H2578    1.0000 0.21528  0.80695  0.91244  Biso   1.000  H
  H2579    1.0000 0.97010  0.68916  0.95203  Biso   1.000  H
  C2653    1.0000 0.90703  0.61871  0.94914  Biso   1.000  C
  H2580    1.0000 0.85587  0.54235  0.94583  Biso   1.000  H
  H2581    1.0000 0.28668  0.90725  0.96113  Biso   1.000  H
  C2654    1.0000 0.32463  0.93139  0.94677  Biso   1.000  C
  H2582    1.0000 0.36356  0.93933  0.93293  Biso   1.000  H
  C2655    1.0000 0.36574  0.23205  0.95035  Biso   1.000  C
  C2656    1.0000 0.01623  0.34589  0.94729  Biso   1.000  C
  H2583    1.0000 0.42417  0.28455  0.96853  Biso   1.000  H
  C2657    1.0000 0.32970  0.98380  0.94729  Biso   1.000  C
  H2584    1.0000 0.39737  0.97524  0.96193  Biso   1.000  H
  C2658    1.0000 0.76793  0.13367  0.95035  Biso   1.000  C
  H2585    1.0000 0.71545  0.13961  0.96853  Biso   1.000  H
  H2586    1.0000 0.02477  0.42213  0.96193  Biso   1.000  H
  H2587    1.0000 0.58878  0.77753  0.93513  Biso   1.000  H
  H2588    1.0000 0.60738  0.83085  0.92883  Biso   1.000  H
  C2659    1.0000 0.59635  0.76944  0.91892  Biso   1.000  C
  H2589    1.0000 0.63318  0.96694  0.94833  Biso   1.000  H
  C2660    1.0000 0.69494  0.04061  0.94988  Biso   1.000  C
  H2590    1.0000 0.59977  0.08043  0.94223  Biso   1.000  H
  C2661    1.0000 0.67599  0.10812  0.94630  Biso   1.000  C
  H2591    1.0000 0.54536  0.71854  0.96164  Biso   1.000  H
  C2662    1.0000 0.59607  0.69902  0.95543  Biso   1.000  C
  H2592    1.0000 0.49948  0.64046  0.93373  Biso   1.000  H
  C2663    1.0000 0.56985  0.65329  0.93880  Biso   1.000  C
  C2664    1.0000 0.86633  0.63428  0.95035  Biso   1.000  C
  H2593    1.0000 0.86038  0.57584  0.96853  Biso   1.000  H
  C2665    1.0000 0.65413  0.67035  0.94729  Biso   1.000  C
  H2594    1.0000 0.57786  0.60263  0.96193  Biso   1.000  H
  C2666    1.0000 0.33465  0.20037  0.94202  Biso   1.000  C
  C2667    1.0000 0.00348  0.30501  0.94000  Biso   1.000  C
  C2668    1.0000 0.30153  0.99652  0.94000  Biso   1.000  C
  C2669    1.0000 0.79965  0.13429  0.94202  Biso   1.000  C
  C2670    1.0000 0.71166  0.09295  0.94914  Biso   1.000  C
  H2595    1.0000 0.63278  0.77745  0.91944  Biso   1.000  H
  H2596    1.0000 0.57309  0.73145  0.91883  Biso   1.000  H
  H2597    1.0000 0.59167  0.78473  0.91244  Biso   1.000  H
  H2598    1.0000 0.71908  0.02993  0.95203  Biso   1.000  H
  H2599    1.0000 0.68648  0.14415  0.94583  Biso   1.000  H
  H2600    1.0000 0.62058  0.71334  0.96113  Biso   1.000  H
  C2671    1.0000 0.60675  0.67539  0.94677  Biso   1.000  C
  H2601    1.0000 0.57575  0.63643  0.93293  Biso   1.000  H
  C2672    1.0000 0.86572  0.66538  0.94202  Biso   1.000  C
  C2673    1.0000 0.69499  0.69847  0.94000  Biso   1.000  C
  N280     1.0000 0.31571  0.14724  0.94086  Biso   1.000  N
  C2674    1.0000 0.31731  0.21711  0.93307  Biso   1.000  C
  N281     1.0000 0.95673  0.26037  0.93933  Biso   1.000  N
  C2675    1.0000 0.03838  0.30536  0.93200  Biso   1.000  C
  C2676    1.0000 0.26703  0.96166  0.93200  Biso   1.000  C
  N282     1.0000 0.30363  0.04327  0.93933  Biso   1.000  N
  N283     1.0000 0.85274  0.16844  0.94086  Biso   1.000  N
  C2677    1.0000 0.78288  0.10022  0.93307  Biso   1.000  C
  N284     1.0000 0.83155  0.68431  0.94086  Biso   1.000  N
  C2678    1.0000 0.89979  0.68271  0.93307  Biso   1.000  C
  N285     1.0000 0.73964  0.69636  0.93933  Biso   1.000  N
  C2679    1.0000 0.69465  0.73302  0.93200  Biso   1.000  C
  C2680    1.0000 0.28764  0.13026  0.93145  Biso   1.000  C
  C2681    1.0000 0.28945  0.17549  0.92681  Biso   1.000  C
  H2602    1.0000 0.32425  0.25173  0.93174  Biso   1.000  H
  H2603    1.0000 0.92936  0.25102  0.94343  Biso   1.000  H
  C2682    1.0000 0.96018  0.23236  0.93094  Biso   1.000  C
  H2604    1.0000 0.07357  0.33212  0.93093  Biso   1.000  H
  C2683    1.0000 0.01208  0.26076  0.92635  Biso   1.000  C
  H2605    1.0000 0.25857  0.92646  0.93093  Biso   1.000  H
  C2684    1.0000 0.24868  0.98791  0.92635  Biso   1.000  C
  H2606    1.0000 0.32166  0.07065  0.94343  Biso   1.000  H
  C2685    1.0000 0.27220  0.03982  0.93094  Biso   1.000  C
  C2686    1.0000 0.86973  0.15737  0.93145  Biso   1.000  C
  C2687    1.0000 0.82453  0.11399  0.92681  Biso   1.000  C
  H2607    1.0000 0.74827  0.07253  0.93174  Biso   1.000  H
  C2688    1.0000 0.84263  0.71236  0.93145  Biso   1.000  C
  C2689    1.0000 0.88604  0.71056  0.92681  Biso   1.000  C
  H2608    1.0000 0.92748  0.67575  0.93174  Biso   1.000  H
  H2609    1.0000 0.74895  0.67833  0.94343  Biso   1.000  H
  C2690    1.0000 0.76763  0.72781  0.93094  Biso   1.000  C
  H2610    1.0000 0.66787  0.74147  0.93093  Biso   1.000  H
  C2691    1.0000 0.73924  0.75132  0.92635  Biso   1.000  C
  C2692    1.0000 0.26636  0.08094  0.92707  Biso   1.000  C
  H2611    1.0000 0.27337  0.17592  0.92034  Biso   1.000  H
  C2693    1.0000 0.91905  0.18542  0.92707  Biso   1.000  C
  H2612    1.0000 0.02506  0.25012  0.92053  Biso   1.000  H
  H2613    1.0000 0.22507  0.97496  0.92053  Biso   1.000  H
  H2614    1.0000 0.82408  0.09744  0.92034  Biso   1.000  H
  C2694    1.0000 0.81458  0.73364  0.92707  Biso   1.000  C
  H2615    1.0000 0.90258  0.72664  0.92034  Biso   1.000  H
  H2616    1.0000 0.74986  0.77495  0.92053  Biso   1.000  H
  C2695    1.0000 0.23720  0.07343  0.91687  Biso   1.000  C
  C2696    1.0000 0.92660  0.16379  0.91687  Biso   1.000  C
  C2697    1.0000 0.83622  0.76282  0.91687  Biso   1.000  C
  C2698    1.0000 0.25610  0.06372  0.90753  Biso   1.000  C
  C2699    1.0000 0.19419  0.08125  0.91637  Biso   1.000  C
  C2700    1.0000 0.93627  0.19235  0.90753  Biso   1.000  C
  C2701    1.0000 0.91876  0.11294  0.91637  Biso   1.000  C
  C2702    1.0000 0.80767  0.74393  0.90753  Biso   1.000  C
  C2703    1.0000 0.88705  0.80582  0.91637  Biso   1.000  C
  H2617    1.0000 0.28466  0.05743  0.90773  Biso   1.000  H
  C2704    1.0000 0.23346  0.06329  0.89796  Biso   1.000  C
  H2618    1.0000 0.17999  0.08645  0.92273  Biso   1.000  H
  C2705    1.0000 0.17227  0.08144  0.90664  Biso   1.000  C
  H2619    1.0000 0.94257  0.22724  0.90773  Biso   1.000  H
  C2706    1.0000 0.93670  0.17017  0.89796  Biso   1.000  C
  H2620    1.0000 0.91356  0.09353  0.92273  Biso   1.000  H
  C2707    1.0000 0.91854  0.09083  0.90664  Biso   1.000  C
  H2621    1.0000 0.77277  0.71533  0.90773  Biso   1.000  H
  C2708    1.0000 0.82985  0.76654  0.89796  Biso   1.000  C
  H2622    1.0000 0.90647  0.82005  0.92273  Biso   1.000  H
  C2709    1.0000 0.90919  0.82772  0.90664  Biso   1.000  C
  H2623    1.0000 0.24608  0.05574  0.89163  Biso   1.000  H
  C2710    1.0000 0.19232  0.07378  0.89729  Biso   1.000  C
  H2624    1.0000 0.14316  0.08692  0.90633  Biso   1.000  H
  H2625    1.0000 0.94428  0.19035  0.89163  Biso   1.000  H
  C2711    1.0000 0.92625  0.11857  0.89729  Biso   1.000  C
  H2626    1.0000 0.91308  0.05625  0.90633  Biso   1.000  H
  H2627    1.0000 0.80966  0.75394  0.89163  Biso   1.000  H
  C2712    1.0000 0.88145  0.80769  0.89729  Biso   1.000  C
  H2628    1.0000 0.94378  0.85687  0.90633  Biso   1.000  H
  C2713    1.0000 0.17028  0.07374  0.88683  Biso   1.000  C
  C2714    1.0000 0.92628  0.09654  0.88683  Biso   1.000  C
  C2715    1.0000 0.90344  0.82972  0.88683  Biso   1.000  C
  N286     1.0000 0.13315  0.08391  0.88573  Biso   1.000  N
  H2629    1.0000 0.18395  0.06591  0.88073  Biso   1.000  H
  N287     1.0000 0.91612  0.04925  0.88573  Biso   1.000  N
  H2630    1.0000 0.93407  0.11802  0.88073  Biso   1.000  H
  N288     1.0000 0.95079  0.86688  0.88573  Biso   1.000  N
  H2631    1.0000 0.88198  0.81606  0.88073  Biso   1.000  H
  C2716    1.0000 0.11112  0.07745  0.87499  Biso   1.000  C
  C2717    1.0000 0.92256  0.03368  0.87499  Biso   1.000  C
  C2718    1.0000 0.96634  0.88890  0.87499  Biso   1.000  C
  H2632    1.0000 0.12927  0.06564  0.87003  Biso   1.000  H
  H2633    1.0000 0.11627  0.11133  0.87243  Biso   1.000  H
  C2719    1.0000 0.05374  0.03783  0.87530  Biso   1.000  C
  H2634    1.0000 0.93436  0.06365  0.87003  Biso   1.000  H
  H2635    1.0000 0.88867  0.00493  0.87243  Biso   1.000  H
  C2720    1.0000 0.96219  0.01592  0.87530  Biso   1.000  C
  H2636    1.0000 0.93639  0.87075  0.87003  Biso   1.000  H
  H2637    1.0000 0.99506  0.88374  0.87243  Biso   1.000  H
  C2721    1.0000 0.98409  0.94629  0.87530  Biso   1.000  C
  C2722    1.0000 0.03664  0.98459  0.87551  Biso   1.000  C
  C2723    1.0000 0.01543  0.05207  0.87551  Biso   1.000  C
  C2724    1.0000 0.94795  0.96339  0.87551  Biso   1.000  C
  O142     1.0000 0.07458  0.96941  0.87553  Biso   1.000  O
  O143     1.0000 0.03061  0.10519  0.87553  Biso   1.000  O
  O144     1.0000 0.89483  0.92544  0.87553  Biso   1.000  O
  C2725    1.0000 0.08117  0.95149  0.88593  Biso   1.000  C
  C2726    1.0000 0.04851  0.12968  0.88593  Biso   1.000  C
  C2727    1.0000 0.87032  0.91883  0.88593  Biso   1.000  C
  H2638    1.0000 0.04898  0.91895  0.88793  Biso   1.000  H
  H2639    1.0000 0.08818  0.97845  0.89143  Biso   1.000  H
  C2728    1.0000 0.12664  0.94167  0.88525  Biso   1.000  C
  H2640    1.0000 0.08107  0.13003  0.88793  Biso   1.000  H
  H2641    1.0000 0.02156  0.10973  0.89143  Biso   1.000  H
  C2729    1.0000 0.05835  0.18499  0.88525  Biso   1.000  C
  H2642    1.0000 0.86997  0.95106  0.88793  Biso   1.000  H
  H2643    1.0000 0.89028  0.91187  0.89143  Biso   1.000  H
  C2730    1.0000 0.81503  0.87337  0.88525  Biso   1.000  C
  H2644    1.0000 0.15770  0.97316  0.88233  Biso   1.000  H
  H2645    1.0000 0.11779  0.91226  0.88033  Biso   1.000  H
  C2731    1.0000 0.13973  0.92869  0.89628  Biso   1.000  C
  H2646    1.0000 0.02688  0.18452  0.88233  Biso   1.000  H
  H2647    1.0000 0.08776  0.20553  0.88033  Biso   1.000  H
  C2732    1.0000 0.07131  0.21104  0.89628  Biso   1.000  C
  H2648    1.0000 0.81548  0.84235  0.88233  Biso   1.000  H
  H2649    1.0000 0.79447  0.88225  0.88033  Biso   1.000  H
  C2733    1.0000 0.78897  0.86027  0.89628  Biso   1.000  C
  H2650    1.0000 0.14726  0.95763  0.90123  Biso   1.000  H
  H2651    1.0000 0.10897  0.89665  0.89903  Biso   1.000  H
  C2734    1.0000 0.18679  0.92016  0.89594  Biso   1.000  C
  H2652    1.0000 0.04238  0.18965  0.90123  Biso   1.000  H
  H2653    1.0000 0.10336  0.21234  0.89903  Biso   1.000  H
  C2735    1.0000 0.07986  0.26663  0.89594  Biso   1.000  C
  H2654    1.0000 0.81038  0.85276  0.90123  Biso   1.000  H
  H2655    1.0000 0.78769  0.89105  0.89903  Biso   1.000  H
  C2736    1.0000 0.73341  0.81325  0.89594  Biso   1.000  C
  H2656    1.0000 0.19368  0.91206  0.90313  Biso   1.000  H
  H2657    1.0000 0.17918  0.89105  0.89114  Biso   1.000  H
  H2658    1.0000 0.21757  0.95204  0.89333  Biso   1.000  H
  H2659    1.0000 0.08796  0.28161  0.90313  Biso   1.000  H
  H2660    1.0000 0.10898  0.28815  0.89114  Biso   1.000  H
  H2661    1.0000 0.04797  0.26554  0.89333  Biso   1.000  H
  H2662    1.0000 0.71838  0.80636  0.90313  Biso   1.000  H
  H2663    1.0000 0.71186  0.82084  0.89114  Biso   1.000  H
  H2664    1.0000 0.73448  0.78246  0.89333  Biso   1.000  H
