data_image0
_cell_length_a       16.864
_cell_length_b       18.652
_cell_length_c       16.034
_cell_angle_alpha    104.59
_cell_angle_beta     117.93
_cell_angle_gamma    101.76

_symmetry_space_group_name_H-M    "P 1"
_symmetry_int_tables_number       1

loop_
  _symmetry_equiv_pos_as_xyz
  'x, y, z'

loop_
  _atom_site_label
  _atom_site_occupancy
  _atom_site_fract_x
  _atom_site_fract_y
  _atom_site_fract_z
  _atom_site_thermal_displace_type
  _atom_site_B_iso_or_equiv
  _atom_site_type_symbol
  C1       1.0000 0.76303  0.84872  0.17474  Biso   1.000  C
  O1       1.0000 0.70750  0.76324  0.10637  Biso   1.000  O
  O2       1.0000 0.70749  0.76318  0.10637  Biso   1.000  O
  C2       1.0000 0.69937  0.88987  0.12733  Biso   1.000  C
  H1       1.0000 0.82315  0.86726  0.17851  Biso   1.000  H
  H2       1.0000 0.77772  0.85812  0.24357  Biso   1.000  H
  C3       1.0000 0.69936  0.88981  0.12733  Biso   1.000  C
  H3       1.0000 0.82314  0.86720  0.17851  Biso   1.000  H
  H4       1.0000 0.73653  0.87402  0.11161  Biso   1.000  H
  H5       1.0000 0.76092  0.87121  0.21721  Biso   1.000  H
  C4       1.0000 0.72228  0.72185  0.16757  Biso   1.000  C
  C5       1.0000 0.72233  0.72179  0.16757  Biso   1.000  C
  C6       1.0000 0.71305  0.84573  0.14352  Biso   1.000  C
  O3       1.0000 0.61796  0.85646  0.12363  Biso   1.000  O
  O4       1.0000 0.61795  0.85640  0.12363  Biso   1.000  O
  H6       1.0000 0.72926  0.94694  0.16903  Biso   1.000  H
  H7       1.0000 0.68503  0.88104  0.05873  Biso   1.000  H
  C7       1.0000 0.65433  0.69397  0.18954  Biso   1.000  C
  C8       1.0000 0.65432  0.69392  0.18954  Biso   1.000  C
  C9       1.0000 0.80529  0.70312  0.20379  Biso   1.000  C
  C10      1.0000 0.60868  0.85992  0.20557  Biso   1.000  C
  C11      1.0000 0.67520  0.65243  0.25289  Biso   1.000  C
  C12      1.0000 0.56205  0.71142  0.14552  Biso   1.000  C
  C13      1.0000 0.82154  0.66273  0.26592  Biso   1.000  C
  O5       1.0000 0.87212  0.73204  0.18183  Biso   1.000  O
  C14      1.0000 0.57883  0.79203  0.21882  Biso   1.000  C
  C15      1.0000 0.62762  0.93474  0.27347  Biso   1.000  C
  C16      1.0000 0.75902  0.63483  0.29290  Biso   1.000  C
  H8       1.0000 0.63100  0.63521  0.26970  Biso   1.000  H
  H9       1.0000 0.55028  0.71801  0.08247  Biso   1.000  H
  C17      1.0000 0.47161  0.64321  0.11292  Biso   1.000  C
  H10      1.0000 0.55034  0.71801  0.08247  Biso   1.000  H
  O6       1.0000 0.90282  0.64025  0.29482  Biso   1.000  O
  C18      1.0000 0.85270  0.67853  0.08741  Biso   1.000  C
  C19      1.0000 0.85276  0.67853  0.08741  Biso   1.000  C
  C20      1.0000 0.56509  0.79886  0.29891  Biso   1.000  C
  C21      1.0000 0.56514  0.79880  0.29891  Biso   1.000  C
  C22      1.0000 0.61108  0.93781  0.35047  Biso   1.000  C
  O7       1.0000 0.65960  0.00265  0.26137  Biso   1.000  O
  O8       1.0000 0.65966  0.00265  0.26137  Biso   1.000  O
  C23      1.0000 0.77997  0.59256  0.36427  Biso   1.000  C
  C24      1.0000 0.78001  0.59250  0.36427  Biso   1.000  C
  H11      1.0000 0.46912  0.59361  0.07199  Biso   1.000  H
  H12      1.0000 0.47758  0.63845  0.17427  Biso   1.000  H
  C25      1.0000 0.37748  0.65322  0.05187  Biso   1.000  C
  H13      1.0000 0.47763  0.63840  0.17427  Biso   1.000  H
  C26      1.0000 0.37754  0.65322  0.05187  Biso   1.000  C
  C27      1.0000 0.99670  0.68097  0.35240  Biso   1.000  C
  C28      1.0000 0.99669  0.68091  0.35240  Biso   1.000  C
  H14      1.0000 0.78651  0.66503  0.03230  Biso   1.000  H
  H15      1.0000 0.86012  0.62951  0.09373  Biso   1.000  H
  C29      1.0000 0.92139  0.71662  0.06166  Biso   1.000  C
  C30      1.0000 0.58024  0.87105  0.36682  Biso   1.000  C
  H16      1.0000 0.54482  0.75251  0.30746  Biso   1.000  H
  O9       1.0000 0.62098  0.01221  0.41121  Biso   1.000  O
  O10      1.0000 0.62097  0.01215  0.41121  Biso   1.000  O
  C31      1.0000 0.58235  0.02149  0.18822  Biso   1.000  C
  C32      1.0000 0.69283  0.52076  0.33051  Biso   1.000  C
  C33      1.0000 0.69282  0.52070  0.33051  Biso   1.000  C
  C34      1.0000 0.83333  0.65217  0.47442  Biso   1.000  C
  H17      1.0000 0.82658  0.57022  0.36026  Biso   1.000  H
  C35      1.0000 0.83331  0.65212  0.47442  Biso   1.000  C
  H18      1.0000 0.37902  0.70153  0.09427  Biso   1.000  H
  C36      1.0000 0.28879  0.58644  0.01488  Biso   1.000  C
  H19      1.0000 0.37901  0.70148  0.09427  Biso   1.000  H
  C37      1.0000 0.28883  0.58638  0.01488  Biso   1.000  C
  H20      1.0000 0.37336  0.66104  0.99260  Biso   1.000  H
  C38      1.0000 0.99267  0.72436  0.42979  Biso   1.000  C
  C39      1.0000 0.99272  0.72430  0.42979  Biso   1.000  C
  C40      1.0000 0.99990  0.71264  0.43210  Biso   1.000  C
  H21      1.0000 0.01910  0.71282  0.32280  Biso   1.000  H
  H22      1.0000 0.03417  0.64793  0.37098  Biso   1.000  H
  H23      1.0000 0.03423  0.64793  0.37098  Biso   1.000  H
  H24      1.0000 0.06421  0.72215  0.44520  Biso   1.000  H
  C41      1.0000 0.99003  0.79276  0.12132  Biso   1.000  C
  C42      1.0000 0.99002  0.79271  0.12132  Biso   1.000  C
  C43      1.0000 0.91308  0.67250  0.97279  Biso   1.000  C
  C44      1.0000 0.91309  0.67256  0.97279  Biso   1.000  C
  C45      1.0000 0.56591  0.87744  0.45430  Biso   1.000  C
  C46      1.0000 0.70165  0.07688  0.47573  Biso   1.000  C
  C47      1.0000 0.72315  0.04698  0.52089  Biso   1.000  C
  H25      1.0000 0.54225  0.97621  0.12201  Biso   1.000  H
  H26      1.0000 0.54163  0.03175  0.21328  Biso   1.000  H
  C48      1.0000 0.62462  0.09186  0.17628  Biso   1.000  C
  C49      1.0000 0.62468  0.09186  0.17628  Biso   1.000  C
  C50      1.0000 0.65400  0.45465  0.22553  Biso   1.000  C
  H27      1.0000 0.64148  0.53874  0.32619  Biso   1.000  H
  H28      1.0000 0.71121  0.49867  0.38231  Biso   1.000  H
  H29      1.0000 0.64153  0.53874  0.32619  Biso   1.000  H
  H30      1.0000 0.71120  0.49862  0.38231  Biso   1.000  H
  C51      1.0000 0.93230  0.69202  0.52868  Biso   1.000  C
  C52      1.0000 0.78513  0.67277  0.52313  Biso   1.000  C
  C53      1.0000 0.78511  0.67272  0.52313  Biso   1.000  C
  H31      1.0000 0.29312  0.57760  0.07369  Biso   1.000  H
  H32      1.0000 0.28574  0.53832  0.97048  Biso   1.000  H
  C54      1.0000 0.19399  0.59972  0.95522  Biso   1.000  C
  C55      1.0000 0.19401  0.59978  0.95522  Biso   1.000  C
  O11      1.0000 0.98431  0.67316  0.48659  Biso   1.000  O
  O12      1.0000 0.98430  0.67311  0.48659  Biso   1.000  O
  H33      1.0000 0.93698  0.73966  0.40296  Biso   1.000  H
  H34      1.0000 0.93696  0.73960  0.40296  Biso   1.000  H
  H35      1.0000 0.99168  0.76321  0.44798  Biso   1.000  H
  H36      1.0000 0.05069  0.77256  0.47588  Biso   1.000  H
  H37      1.0000 0.05068  0.77250  0.47588  Biso   1.000  H
  H38      1.0000 0.99746  0.82212  0.18252  Biso   1.000  H
  C56      1.0000 0.04865  0.82685  0.09242  Biso   1.000  C
  C57      1.0000 0.04863  0.82680  0.09242  Biso   1.000  C
  H39      1.0000 0.86823  0.62010  0.93310  Biso   1.000  H
  C58      1.0000 0.96956  0.70485  0.94250  Biso   1.000  C
  H40      1.0000 0.86830  0.62016  0.93310  Biso   1.000  H
  C59      1.0000 0.66079  0.88768  0.54779  Biso   1.000  C
  C60      1.0000 0.66078  0.88762  0.54779  Biso   1.000  C
  H41      1.0000 0.55478  0.92701  0.47226  Biso   1.000  H
  C61      1.0000 0.47853  0.81003  0.42670  Biso   1.000  C
  C62      1.0000 0.77522  0.05417  0.55697  Biso   1.000  C
  H42      1.0000 0.68855  0.11979  0.50902  Biso   1.000  H
  H43      1.0000 0.72753  0.09480  0.43850  Biso   1.000  H
  H44      1.0000 0.72752  0.09475  0.43850  Biso   1.000  H
  H45      1.0000 0.75125  0.10447  0.54371  Biso   1.000  H
  O13      1.0000 0.71800  0.03078  0.60036  Biso   1.000  O
  H46      1.0000 0.76675  0.02487  0.51057  Biso   1.000  H
  C63      1.0000 0.55997  0.11906  0.11400  Biso   1.000  C
  C64      1.0000 0.72336  0.13250  0.22430  Biso   1.000  C
  C65      1.0000 0.72335  0.13245  0.22430  Biso   1.000  C
  C66      1.0000 0.57241  0.38314  0.19061  Biso   1.000  C
  C67      1.0000 0.57240  0.38309  0.19061  Biso   1.000  C
  H47      1.0000 0.63431  0.47695  0.17389  Biso   1.000  H
  H48      1.0000 0.70661  0.43872  0.22962  Biso   1.000  H
  H49      1.0000 0.63430  0.47689  0.17389  Biso   1.000  H
  C68      1.0000 0.98229  0.74897  0.62850  Biso   1.000  C
  C69      1.0000 0.98228  0.74891  0.62850  Biso   1.000  C
  H50      1.0000 0.71829  0.64663  0.48667  Biso   1.000  H
  C70      1.0000 0.83259  0.72997  0.62271  Biso   1.000  C
  C71      1.0000 0.83257  0.72992  0.62271  Biso   1.000  C
  H51      1.0000 0.19895  0.64913  0.99938  Biso   1.000  H
  H52      1.0000 0.18997  0.60765  0.89610  Biso   1.000  H
  C72      1.0000 0.10223  0.53673  0.91807  Biso   1.000  C
  C73      1.0000 0.03862  0.78162  0.00331  Biso   1.000  C
  C74      1.0000 0.12633  0.90775  0.15801  Biso   1.000  C
  C75      1.0000 0.12632  0.90769  0.15801  Biso   1.000  C
  H53      1.0000 0.96185  0.67519  0.88107  Biso   1.000  H
  H54      1.0000 0.96186  0.67525  0.88107  Biso   1.000  H
  C76      1.0000 0.67949  0.82186  0.56891  Biso   1.000  C
  C77      1.0000 0.73280  0.96217  0.61639  Biso   1.000  C
  C78      1.0000 0.73279  0.96212  0.61639  Biso   1.000  C
  H55      1.0000 0.48620  0.75988  0.40512  Biso   1.000  H
  H56      1.0000 0.47771  0.81665  0.48821  Biso   1.000  H
  C79      1.0000 0.38369  0.80462  0.34431  Biso   1.000  C
  H57      1.0000 0.48625  0.75982  0.40512  Biso   1.000  H
  H58      1.0000 0.78793  0.01002  0.52583  Biso   1.000  H
  H59      1.0000 0.83574  0.09933  0.60822  Biso   1.000  H
  H60      1.0000 0.78798  0.00997  0.52583  Biso   1.000  H
  H61      1.0000 0.83573  0.09927  0.60822  Biso   1.000  H
  H62      1.0000 0.49375  0.09310  0.08270  Biso   1.000  H
  C80      1.0000 0.59399  0.18530  0.09827  Biso   1.000  C
  H63      1.0000 0.49379  0.09304  0.08270  Biso   1.000  H
  C81      1.0000 0.59397  0.18524  0.09827  Biso   1.000  C
  C82      1.0000 0.75680  0.19971  0.21012  Biso   1.000  C
  H64      1.0000 0.76734  0.11451  0.26638  Biso   1.000  H
  C83      1.0000 0.75679  0.19966  0.21012  Biso   1.000  C
  H65      1.0000 0.76733  0.11445  0.26638  Biso   1.000  H
  C84      1.0000 0.48028  0.37121  0.17620  Biso   1.000  C
  H66      1.0000 0.55749  0.34902  0.12433  Biso   1.000  H
  H67      1.0000 0.60067  0.35761  0.23678  Biso   1.000  H
  H68      1.0000 0.55755  0.34902  0.12433  Biso   1.000  H
  C85      1.0000 0.93407  0.76884  0.67767  Biso   1.000  C
  O14      1.0000 0.08111  0.79068  0.68029  Biso   1.000  O
  O15      1.0000 0.08110  0.79063  0.68029  Biso   1.000  O
  C86      1.0000 0.77988  0.75648  0.67351  Biso   1.000  C
  C87      1.0000 0.77987  0.75642  0.67351  Biso   1.000  C
  H69      1.0000 0.04967  0.55405  0.88700  Biso   1.000  H
  H70      1.0000 0.10520  0.52654  0.97503  Biso   1.000  H
  H71      1.0000 0.09204  0.48870  0.86797  Biso   1.000  H
  H72      1.0000 0.09205  0.48875  0.86797  Biso   1.000  H
  H73      1.0000 0.07868  0.80293  0.98381  Biso   1.000  H
  H74      1.0000 0.07869  0.80299  0.98381  Biso   1.000  H
  H75      1.0000 0.18857  0.90271  0.19246  Biso   1.000  H
  H76      1.0000 0.12653  0.93590  0.11477  Biso   1.000  H
  O16      1.0000 0.11293  0.95264  0.23301  Biso   1.000  O
  H77      1.0000 0.18863  0.90271  0.19246  Biso   1.000  H
  C88      1.0000 0.76239  0.83116  0.65501  Biso   1.000  C
  H78      1.0000 0.63394  0.77054  0.52282  Biso   1.000  H
  C89      1.0000 0.81481  0.97249  0.70172  Biso   1.000  C
  C90      1.0000 0.81480  0.97243  0.70172  Biso   1.000  C
  H79      1.0000 0.38312  0.79754  0.28203  Biso   1.000  H
  H80      1.0000 0.37410  0.85383  0.36550  Biso   1.000  H
  C91      1.0000 0.30011  0.73295  0.32219  Biso   1.000  C
  C92      1.0000 0.30009  0.73289  0.32219  Biso   1.000  C
  H81      1.0000 0.55028  0.20246  0.05442  Biso   1.000  H
  C93      1.0000 0.69149  0.22580  0.14691  Biso   1.000  C
  C94      1.0000 0.69147  0.22575  0.14691  Biso   1.000  C
  C95      1.0000 0.86147  0.24459  0.25852  Biso   1.000  C
  H82      1.0000 0.48412  0.38862  0.24072  Biso   1.000  H
  H83      1.0000 0.43471  0.31641  0.13250  Biso   1.000  H
  C96      1.0000 0.45738  0.43071  0.11916  Biso   1.000  C
  O17      1.0000 0.98738  0.82178  0.77749  Biso   1.000  O
  O18      1.0000 0.98736  0.82173  0.77749  Biso   1.000  O
  C97      1.0000 0.13850  0.75548  0.74149  Biso   1.000  C
  C98      1.0000 0.13849  0.75542  0.74149  Biso   1.000  C
  H84      1.0000 0.82550  0.77456  0.74789  Biso   1.000  H
  C99      1.0000 0.69103  0.69104  0.64453  Biso   1.000  C
  C100     1.0000 0.18516  0.02757  0.29829  Biso   1.000  C
  C101     1.0000 0.83125  0.90605  0.72207  Biso   1.000  C
  C102     1.0000 0.83131  0.90605  0.72207  Biso   1.000  C
  O19      1.0000 0.88705  0.04743  0.76700  Biso   1.000  O
  O20      1.0000 0.88704  0.04737  0.76700  Biso   1.000  O
  H85      1.0000 0.31026  0.68392  0.30176  Biso   1.000  H
  H86      1.0000 0.30089  0.74034  0.38477  Biso   1.000  H
  C103     1.0000 0.20650  0.72584  0.24156  Biso   1.000  C
  H87      1.0000 0.31032  0.68392  0.30176  Biso   1.000  H
  C104     1.0000 0.20649  0.72579  0.24156  Biso   1.000  C
  H88      1.0000 0.71369  0.27086  0.13720  Biso   1.000  H
  H89      1.0000 0.87384  0.24475  0.20526  Biso   1.000  H
  H90      1.0000 0.87925  0.29956  0.30138  Biso   1.000  H
  O21      1.0000 0.91886  0.20938  0.31972  Biso   1.000  O
  H91      1.0000 0.42402  0.45902  0.14098  Biso   1.000  H
  H92      1.0000 0.41702  0.40042  0.04586  Biso   1.000  H
  H93      1.0000 0.51701  0.46802  0.13697  Biso   1.000  H
  H94      1.0000 0.41701  0.40037  0.04586  Biso   1.000  H
  C105     1.0000 0.98619  0.91262  0.79236  Biso   1.000  C
  C106     1.0000 0.01637  0.89696  0.79028  Biso   1.000  C
  C107     1.0000 0.24317  0.80035  0.78990  Biso   1.000  C
  H95      1.0000 0.12608  0.75523  0.79468  Biso   1.000  H
  H96      1.0000 0.12067  0.70043  0.69856  Biso   1.000  H
  H97      1.0000 0.65477  0.71515  0.66688  Biso   1.000  H
  H98      1.0000 0.65022  0.66355  0.56999  Biso   1.000  H
  C108     1.0000 0.71210  0.63065  0.68993  Biso   1.000  C
  C109     1.0000 0.26717  0.03789  0.38362  Biso   1.000  C
  C110     1.0000 0.16862  0.09399  0.27787  Biso   1.000  C
  C111     1.0000 0.16861  0.09394  0.27787  Biso   1.000  C
  O22      1.0000 0.91019  0.91876  0.81526  Biso   1.000  O
  C112     1.0000 0.87364  0.09231  0.84200  Biso   1.000  C
  H99      1.0000 0.20733  0.72457  0.18121  Biso   1.000  H
  H100     1.0000 0.19192  0.77164  0.26499  Biso   1.000  H
  C113     1.0000 0.12624  0.64605  0.21343  Biso   1.000  C
  H101     1.0000 0.20732  0.72451  0.18121  Biso   1.000  H
  C114     1.0000 0.01768  0.25109  0.37152  Biso   1.000  C
  H102     1.0000 0.97902  0.90105  0.72500  Biso   1.000  H
  H103     1.0000 0.97050  0.92095  0.73001  Biso   1.000  H
  C115     1.0000 0.00519  0.94706  0.86566  Biso   1.000  C
  H104     1.0000 0.04909  0.95287  0.84878  Biso   1.000  H
  H105     1.0000 0.08387  0.91568  0.81256  Biso   1.000  H
  H106     1.0000 0.08386  0.91562  0.81256  Biso   1.000  H
  C116     1.0000 0.30849  0.77426  0.85310  Biso   1.000  C
  C117     1.0000 0.27661  0.86756  0.77571  Biso   1.000  C
  H107     1.0000 0.74457  0.65674  0.76400  Biso   1.000  H
  H108     1.0000 0.75641  0.61258  0.67621  Biso   1.000  H
  C118     1.0000 0.62325  0.55812  0.64908  Biso   1.000  C
  H109     1.0000 0.75640  0.61252  0.67621  Biso   1.000  H
  C119     1.0000 0.62330  0.55812  0.64908  Biso   1.000  C
  O23      1.0000 0.28193  0.96926  0.39957  Biso   1.000  O
  O24      1.0000 0.28192  0.96921  0.39957  Biso   1.000  O
  C120     1.0000 0.33912  0.11238  0.45222  Biso   1.000  C
  C121     1.0000 0.33918  0.11238  0.45222  Biso   1.000  C
  C122     1.0000 0.23758  0.16890  0.34500  Biso   1.000  C
  O25      1.0000 0.08975  0.08128  0.18468  Biso   1.000  O
  C123     1.0000 0.23757  0.16885  0.34500  Biso   1.000  C
  C124     1.0000 0.95133  0.17321  0.90760  Biso   1.000  C
  H110     1.0000 0.81130  0.09733  0.80747  Biso   1.000  H
  H111     1.0000 0.87339  0.06409  0.88517  Biso   1.000  H
  H112     1.0000 0.81129  0.09727  0.80747  Biso   1.000  H
  H113     1.0000 0.06721  0.63452  0.15023  Biso   1.000  H
  H114     1.0000 0.11502  0.65272  0.26769  Biso   1.000  H
  H115     1.0000 0.14805  0.60264  0.20503  Biso   1.000  H
  C125     1.0000 0.06763  0.30796  0.47126  Biso   1.000  C
  C126     1.0000 0.06586  0.23120  0.32226  Biso   1.000  C
  C127     1.0000 0.06585  0.23115  0.32226  Biso   1.000  C
  H116     1.0000 0.03466  0.93934  0.92949  Biso   1.000  H
  H117     1.0000 0.03142  0.00315  0.87992  Biso   1.000  H
  H118     1.0000 0.03141  0.00309  0.87992  Biso   1.000  H
  C128     1.0000 0.40595  0.81474  0.90166  Biso   1.000  C
  H119     1.0000 0.28628  0.72915  0.86281  Biso   1.000  H
  C129     1.0000 0.37525  0.90818  0.82366  Biso   1.000  C
  H120     1.0000 0.23260  0.88553  0.73355  Biso   1.000  H
  C130     1.0000 0.37530  0.90813  0.82366  Biso   1.000  C
  H121     1.0000 0.57347  0.57635  0.64938  Biso   1.000  H
  H122     1.0000 0.59871  0.52588  0.57809  Biso   1.000  H
  C131     1.0000 0.64128  0.50635  0.70912  Biso   1.000  C
  H123     1.0000 0.59870  0.52582  0.57809  Biso   1.000  H
  C132     1.0000 0.22470  0.94582  0.44297  Biso   1.000  C
  C133     1.0000 0.27683  0.95308  0.47912  Biso   1.000  C
  C134     1.0000 0.32048  0.17820  0.43110  Biso   1.000  C
  C135     1.0000 0.43407  0.12262  0.54571  Biso   1.000  C
  C136     1.0000 0.43405  0.12257  0.54571  Biso   1.000  C
  C137     1.0000 0.22003  0.24359  0.32650  Biso   1.000  C
  C138     1.0000 0.22009  0.24359  0.32650  Biso   1.000  C
  C139     1.0000 0.99474  0.05298  0.13427  Biso   1.000  C
  C140     1.0000 0.01373  0.08737  0.20757  Biso   1.000  C
  C141     1.0000 0.96136  0.21844  0.99670  Biso   1.000  C
  C142     1.0000 0.96134  0.21838  0.99670  Biso   1.000  C
  C143     1.0000 0.00995  0.20730  0.87869  Biso   1.000  C
  O26      1.0000 0.01566  0.32690  0.51342  Biso   1.000  O
  C144     1.0000 0.16665  0.34789  0.52560  Biso   1.000  C
  C145     1.0000 0.16733  0.27009  0.37730  Biso   1.000  C
  C146     1.0000 0.16739  0.27009  0.37730  Biso   1.000  C
  O27      1.0000 0.01260  0.17828  0.22252  Biso   1.000  O
  C147     1.0000 0.44000  0.88095  0.88601  Biso   1.000  C
  H124     1.0000 0.44970  0.79760  0.94560  Biso   1.000  H
  H125     1.0000 0.44968  0.79754  0.94560  Biso   1.000  H
  C148     1.0000 0.41762  0.97858  0.81179  Biso   1.000  C
  C149     1.0000 0.41761  0.97852  0.81179  Biso   1.000  C
  H126     1.0000 0.65957  0.53693  0.77826  Biso   1.000  H
  H127     1.0000 0.69528  0.49228  0.71459  Biso   1.000  H
  C150     1.0000 0.55298  0.42917  0.66017  Biso   1.000  C
  H128     1.0000 0.69526  0.49223  0.71459  Biso   1.000  H
  C151     1.0000 0.55297  0.42911  0.66017  Biso   1.000  C
  C152     1.0000 0.29831  0.92312  0.52429  Biso   1.000  C
  H129     1.0000 0.21198  0.99004  0.47418  Biso   1.000  H
  H130     1.0000 0.16423  0.90074  0.39179  Biso   1.000  H
  H131     1.0000 0.23318  0.97517  0.48937  Biso   1.000  H
  H132     1.0000 0.24871  0.89554  0.45630  Biso   1.000  H
  O28      1.0000 0.37899  0.98786  0.58880  Biso   1.000  O
  H133     1.0000 0.36603  0.22947  0.47719  Biso   1.000  H
  C153     1.0000 0.41973  0.12901  0.63320  Biso   1.000  C
  H134     1.0000 0.44514  0.07297  0.52768  Biso   1.000  H
  C154     1.0000 0.52144  0.19003  0.57331  Biso   1.000  C
  C155     1.0000 0.52143  0.18998  0.57331  Biso   1.000  C
  H135     1.0000 0.17447  0.22551  0.25212  Biso   1.000  H
  C156     1.0000 0.30893  0.30897  0.35548  Biso   1.000  C
  H136     1.0000 0.17446  0.22545  0.25212  Biso   1.000  H
  H137     1.0000 0.96849  0.99692  0.12009  Biso   1.000  H
  H138     1.0000 0.96855  0.99692  0.12009  Biso   1.000  H
  C157     1.0000 0.98355  0.10310  0.20973  Biso   1.000  C
  H139     1.0000 0.96530  0.06066  0.07053  Biso   1.000  H
  C158     1.0000 0.98360  0.10305  0.20973  Biso   1.000  C
  H140     1.0000 0.95088  0.04720  0.15123  Biso   1.000  H
  H141     1.0000 0.02095  0.09902  0.27501  Biso   1.000  H
  H142     1.0000 0.02094  0.09896  0.27501  Biso   1.000  H
  H143     1.0000 0.02947  0.07911  0.27000  Biso   1.000  H
  H144     1.0000 0.92129  0.19708  0.01620  Biso   1.000  H
  H145     1.0000 0.92130  0.19713  0.01620  Biso   1.000  H
  C159     1.0000 0.03040  0.29516  0.05751  Biso   1.000  C
  C160     1.0000 0.03041  0.29521  0.05751  Biso   1.000  C
  C161     1.0000 0.07854  0.28342  0.93827  Biso   1.000  C
  H146     1.0000 0.00252  0.17794  0.81749  Biso   1.000  H
  H147     1.0000 0.00251  0.17788  0.81749  Biso   1.000  H
  C162     1.0000 0.00724  0.27571  0.57022  Biso   1.000  C
  C163     1.0000 0.00008  0.28742  0.56791  Biso   1.000  C
  C164     1.0000 0.21485  0.32729  0.47688  Biso   1.000  C
  C165     1.0000 0.21991  0.40748  0.63566  Biso   1.000  C
  H148     1.0000 0.50617  0.90696  0.91731  Biso   1.000  H
  H149     1.0000 0.50623  0.90696  0.91731  Biso   1.000  H
  O29      1.0000 0.34026  0.99733  0.73856  Biso   1.000  O
  H150     1.0000 0.45830  0.96823  0.78666  Biso   1.000  H
  H151     1.0000 0.45772  0.02379  0.87800  Biso   1.000  H
  H152     1.0000 0.56457  0.40366  0.70750  Biso   1.000  H
  H153     1.0000 0.54251  0.39366  0.59790  Biso   1.000  H
  H154     1.0000 0.49672  0.44206  0.64460  Biso   1.000  H
  H155     1.0000 0.54249  0.39361  0.59790  Biso   1.000  H
  H156     1.0000 0.31142  0.88028  0.49099  Biso   1.000  H
  H157     1.0000 0.27244  0.90526  0.56151  Biso   1.000  H
  H158     1.0000 0.31141  0.88022  0.49099  Biso   1.000  H
  C166     1.0000 0.38878  0.06217  0.64946  Biso   1.000  C
  C167     1.0000 0.38884  0.06217  0.64946  Biso   1.000  C
  C168     1.0000 0.43482  0.20121  0.70110  Biso   1.000  C
  H159     1.0000 0.51372  0.24018  0.59489  Biso   1.000  H
  H160     1.0000 0.52226  0.18341  0.51180  Biso   1.000  H
  C169     1.0000 0.61627  0.19539  0.65570  Biso   1.000  C
  H161     1.0000 0.52225  0.18336  0.51180  Biso   1.000  H
  H162     1.0000 0.34520  0.28492  0.33313  Biso   1.000  H
  H163     1.0000 0.34976  0.33651  0.43002  Biso   1.000  H
  C170     1.0000 0.28787  0.36941  0.31009  Biso   1.000  C
  H164     1.0000 0.34519  0.28486  0.33313  Biso   1.000  H
  H165     1.0000 0.34974  0.33646  0.43002  Biso   1.000  H
  C171     1.0000 0.28786  0.36935  0.31009  Biso   1.000  C
  H166     1.0000 0.91606  0.08436  0.18738  Biso   1.000  H
  C172     1.0000 0.08688  0.32751  0.02722  Biso   1.000  C
  H167     1.0000 0.03808  0.32479  0.11887  Biso   1.000  H
  C173     1.0000 0.14722  0.32153  0.91261  Biso   1.000  C
  C174     1.0000 0.14721  0.32148  0.91261  Biso   1.000  C
  C175     1.0000 0.00328  0.31909  0.64761  Biso   1.000  C
  H168     1.0000 0.94928  0.22750  0.52413  Biso   1.000  H
  H169     1.0000 0.93576  0.27791  0.55481  Biso   1.000  H
  H170     1.0000 0.06296  0.26038  0.59697  Biso   1.000  H
  H171     1.0000 0.00824  0.23677  0.55196  Biso   1.000  H
  H172     1.0000 0.28165  0.35341  0.51326  Biso   1.000  H
  H173     1.0000 0.28164  0.35336  0.51326  Biso   1.000  H
  C176     1.0000 0.24096  0.36523  0.70712  Biso   1.000  C
  C177     1.0000 0.24095  0.36518  0.70712  Biso   1.000  C
  H174     1.0000 0.17336  0.42982  0.63967  Biso   1.000  H
  C178     1.0000 0.30714  0.47930  0.66950  Biso   1.000  C
  H175     1.0000 0.17335  0.42976  0.63967  Biso   1.000  H
  C179     1.0000 0.37231  0.06530  0.72646  Biso   1.000  C
  C180     1.0000 0.42115  0.20803  0.78119  Biso   1.000  C
  C181     1.0000 0.42113  0.20798  0.78119  Biso   1.000  C
  H176     1.0000 0.45510  0.24747  0.69247  Biso   1.000  H
  H177     1.0000 0.61685  0.20252  0.71798  Biso   1.000  H
  H178     1.0000 0.62587  0.14623  0.63451  Biso   1.000  H
  C182     1.0000 0.69987  0.26712  0.67783  Biso   1.000  C
  H179     1.0000 0.61684  0.20247  0.71798  Biso   1.000  H
  H180     1.0000 0.62586  0.14618  0.63451  Biso   1.000  H
  H181     1.0000 0.25539  0.34327  0.23601  Biso   1.000  H
  H182     1.0000 0.24356  0.38748  0.32381  Biso   1.000  H
  C183     1.0000 0.37662  0.44186  0.35086  Biso   1.000  C
  C184     1.0000 0.37668  0.44186  0.35086  Biso   1.000  C
  H183     1.0000 0.13167  0.37991  0.06692  Biso   1.000  H
  O30      1.0000 0.12785  0.26802  0.81818  Biso   1.000  O
  H184     1.0000 0.21347  0.33504  0.96772  Biso   1.000  H
  H185     1.0000 0.13984  0.37049  0.90629  Biso   1.000  H
  O31      1.0000 0.12784  0.26797  0.81818  Biso   1.000  O
  O32      1.0000 0.09716  0.35981  0.70519  Biso   1.000  O
  H186     1.0000 0.98086  0.28719  0.67721  Biso   1.000  H
  H187     1.0000 0.96571  0.35211  0.62896  Biso   1.000  H
  H188     1.0000 0.96575  0.35205  0.62896  Biso   1.000  H
  C185     1.0000 0.32478  0.34763  0.74712  Biso   1.000  C
  C186     1.0000 0.32477  0.34758  0.74712  Biso   1.000  C
  C187     1.0000 0.17843  0.33733  0.73409  Biso   1.000  C
  C188     1.0000 0.17842  0.33727  0.73409  Biso   1.000  C
  H189     1.0000 0.35844  0.46132  0.67382  Biso   1.000  H
  H190     1.0000 0.28876  0.50139  0.61770  Biso   1.000  H
  C189     1.0000 0.34597  0.54542  0.77448  Biso   1.000  C
  C190     1.0000 0.39119  0.14012  0.79437  Biso   1.000  C
  C191     1.0000 0.39124  0.14007  0.79437  Biso   1.000  C
  C192     1.0000 0.43793  0.28864  0.85449  Biso   1.000  C
  C193     1.0000 0.43791  0.28859  0.85449  Biso   1.000  C
  H191     1.0000 0.68962  0.31612  0.69817  Biso   1.000  H
  H192     1.0000 0.69905  0.25970  0.61516  Biso   1.000  H
  C194     1.0000 0.79343  0.27419  0.75837  Biso   1.000  C
  H193     1.0000 0.68960  0.31606  0.69817  Biso   1.000  H
  H194     1.0000 0.42650  0.42372  0.35063  Biso   1.000  H
  H195     1.0000 0.40126  0.47419  0.42193  Biso   1.000  H
  C195     1.0000 0.35869  0.49371  0.29089  Biso   1.000  C
  H196     1.0000 0.42649  0.42366  0.35063  Biso   1.000  H
  C196     1.0000 0.35868  0.49366  0.29089  Biso   1.000  C
  C197     1.0000 0.19468  0.29694  0.79622  Biso   1.000  C
  C198     1.0000 0.19467  0.29688  0.79622  Biso   1.000  C
  C199     1.0000 0.34565  0.30609  0.81048  Biso   1.000  C
  H197     1.0000 0.36896  0.36479  0.73032  Biso   1.000  H
  H198     1.0000 0.36566  0.52312  0.82612  Biso   1.000  H
  H199     1.0000 0.29336  0.56134  0.77040  Biso   1.000  H
  C200     1.0000 0.42757  0.61692  0.80940  Biso   1.000  C
  H200     1.0000 0.29335  0.56128  0.77040  Biso   1.000  H
  O33      1.0000 0.38201  0.14360  0.87638  Biso   1.000  O
  H201     1.0000 0.44960  0.28203  0.91746  Biso   1.000  H
  C201     1.0000 0.52835  0.35679  0.88709  Biso   1.000  C
  H202     1.0000 0.44958  0.28197  0.91746  Biso   1.000  H
  H203     1.0000 0.79265  0.27550  0.81880  Biso   1.000  H
  H204     1.0000 0.80805  0.22842  0.73502  Biso   1.000  H
  C202     1.0000 0.87374  0.35401  0.78658  Biso   1.000  C
  H205     1.0000 0.34035  0.46306  0.22168  Biso   1.000  H
  H206     1.0000 0.30470  0.50778  0.28542  Biso   1.000  H
  C203     1.0000 0.44695  0.57087  0.33976  Biso   1.000  C
  C204     1.0000 0.27759  0.27819  0.83237  Biso   1.000  C
  C205     1.0000 0.27765  0.27819  0.83237  Biso   1.000  C
  H207     1.0000 0.44242  0.65104  0.87569  Biso   1.000  H
  H208     1.0000 0.39929  0.64240  0.76323  Biso   1.000  H
  C206     1.0000 0.51968  0.62880  0.82381  Biso   1.000  C
  H209     1.0000 0.44247  0.65099  0.87569  Biso   1.000  H
  C207     1.0000 0.30061  0.11020  0.87268  Biso   1.000  C
  C208     1.0000 0.28692  0.15433  0.85649  Biso   1.000  C
  H210     1.0000 0.53085  0.40646  0.92802  Biso   1.000  H
  H211     1.0000 0.52229  0.36159  0.82566  Biso   1.000  H
  C209     1.0000 0.62240  0.34682  0.94806  Biso   1.000  C
  H212     1.0000 0.53084  0.40640  0.92802  Biso   1.000  H
  C210     1.0000 0.62238  0.34676  0.94806  Biso   1.000  C
  H213     1.0000 0.93276  0.36549  0.84979  Biso   1.000  H
  H214     1.0000 0.88494  0.34729  0.73232  Biso   1.000  H
  H215     1.0000 0.85192  0.39743  0.79498  Biso   1.000  H
  H216     1.0000 0.85191  0.39737  0.79498  Biso   1.000  H
  H217     1.0000 0.43540  0.59640  0.29251  Biso   1.000  H
  H218     1.0000 0.45747  0.60640  0.40212  Biso   1.000  H
  H219     1.0000 0.50326  0.55800  0.35541  Biso   1.000  H
  H220     1.0000 0.43539  0.59635  0.29251  Biso   1.000  H
  H221     1.0000 0.50325  0.55795  0.35541  Biso   1.000  H
  O34      1.0000 0.29243  0.23680  0.89357  Biso   1.000  O
  H222     1.0000 0.51586  0.61144  0.75930  Biso   1.000  H
  H223     1.0000 0.56527  0.68365  0.86751  Biso   1.000  H
  C211     1.0000 0.54255  0.56933  0.88077  Biso   1.000  C
  H224     1.0000 0.51584  0.61139  0.75930  Biso   1.000  H
  H225     1.0000 0.56525  0.68360  0.86751  Biso   1.000  H
  C212     1.0000 0.54254  0.56928  0.88077  Biso   1.000  C
  C213     1.0000 0.23693  0.15129  0.82528  Biso   1.000  C
  H226     1.0000 0.27071  0.05312  0.83098  Biso   1.000  H
  H227     1.0000 0.31494  0.11903  0.94128  Biso   1.000  H
  H228     1.0000 0.27070  0.05307  0.83098  Biso   1.000  H
  H229     1.0000 0.31493  0.11897  0.94128  Biso   1.000  H
  H230     1.0000 0.26345  0.12605  0.88840  Biso   1.000  H
  H231     1.0000 0.23904  0.12880  0.78281  Biso   1.000  H
  H232     1.0000 0.62091  0.29851  0.90567  Biso   1.000  H
  C214     1.0000 0.71109  0.41360  0.98506  Biso   1.000  C
  H233     1.0000 0.62660  0.33897  0.00741  Biso   1.000  H
  H234     1.0000 0.62661  0.33902  0.00741  Biso   1.000  H
  H235     1.0000 0.57591  0.54101  0.85896  Biso   1.000  H
  H236     1.0000 0.58291  0.59962  0.95407  Biso   1.000  H
  H237     1.0000 0.48293  0.53202  0.86297  Biso   1.000  H
  H238     1.0000 0.48291  0.53197  0.86297  Biso   1.000  H
  H239     1.0000 0.17683  0.13280  0.82150  Biso   1.000  H
  H240     1.0000 0.22222  0.14192  0.75637  Biso   1.000  H
  H241     1.0000 0.22221  0.14187  0.75637  Biso   1.000  H
  H242     1.0000 0.70684  0.42241  0.92633  Biso   1.000  H
  H243     1.0000 0.71418  0.46166  0.02946  Biso   1.000  H
  C215     1.0000 0.80597  0.40029  0.04479  Biso   1.000  C
  H244     1.0000 0.71419  0.46172  0.02946  Biso   1.000  H
  H245     1.0000 0.80097  0.35085  0.00055  Biso   1.000  H
  H246     1.0000 0.80999  0.39236  0.10391  Biso   1.000  H
  C216     1.0000 0.89769  0.46326  0.08187  Biso   1.000  C
  H247     1.0000 0.80099  0.35091  0.00055  Biso   1.000  H
  H248     1.0000 0.81000  0.39242  0.10391  Biso   1.000  H
  C217     1.0000 0.89770  0.46331  0.08187  Biso   1.000  C
  H249     1.0000 0.95029  0.44596  0.11301  Biso   1.000  H
  H250     1.0000 0.89476  0.47347  0.02499  Biso   1.000  H
  H251     1.0000 0.90788  0.51129  0.13197  Biso   1.000  H
  H252     1.0000 0.95031  0.44602  0.11301  Biso   1.000  H
  H253     1.0000 0.89477  0.47352  0.02499  Biso   1.000  H
  C218     1.0000 0.76303  0.84872  0.17474  Biso   1.000  C
  O35      1.0000 0.70750  0.76324  0.10637  Biso   1.000  O
  O36      1.0000 0.70749  0.76318  0.10637  Biso   1.000  O
  H254     1.0000 0.77772  0.85812  0.24357  Biso   1.000  H
  C219     1.0000 0.69937  0.88987  0.12733  Biso   1.000  C
  H255     1.0000 0.82315  0.86726  0.17851  Biso   1.000  H
  C220     1.0000 0.69936  0.88981  0.12733  Biso   1.000  C
  H256     1.0000 0.82314  0.86720  0.17851  Biso   1.000  H
  H257     1.0000 0.73653  0.87402  0.11161  Biso   1.000  H
  H258     1.0000 0.76092  0.87121  0.21721  Biso   1.000  H
  C221     1.0000 0.72228  0.72185  0.16757  Biso   1.000  C
  C222     1.0000 0.72233  0.72179  0.16757  Biso   1.000  C
  C223     1.0000 0.71305  0.84573  0.14352  Biso   1.000  C
  O37      1.0000 0.61796  0.85646  0.12363  Biso   1.000  O
  O38      1.0000 0.61795  0.85640  0.12363  Biso   1.000  O
  H259     1.0000 0.72926  0.94694  0.16903  Biso   1.000  H
  H260     1.0000 0.68503  0.88104  0.05873  Biso   1.000  H
  C224     1.0000 0.65433  0.69397  0.18954  Biso   1.000  C
  C225     1.0000 0.65432  0.69392  0.18954  Biso   1.000  C
  C226     1.0000 0.80529  0.70312  0.20379  Biso   1.000  C
  C227     1.0000 0.60868  0.85992  0.20557  Biso   1.000  C
  C228     1.0000 0.67520  0.65243  0.25289  Biso   1.000  C
  C229     1.0000 0.56205  0.71142  0.14552  Biso   1.000  C
  C230     1.0000 0.82154  0.66273  0.26592  Biso   1.000  C
  O39      1.0000 0.87212  0.73204  0.18183  Biso   1.000  O
  C231     1.0000 0.57883  0.79203  0.21882  Biso   1.000  C
  C232     1.0000 0.62762  0.93474  0.27347  Biso   1.000  C
  C233     1.0000 0.75902  0.63483  0.29290  Biso   1.000  C
  H261     1.0000 0.63100  0.63521  0.26970  Biso   1.000  H
  C234     1.0000 0.47161  0.64321  0.11292  Biso   1.000  C
  H262     1.0000 0.55028  0.71801  0.08247  Biso   1.000  H
  H263     1.0000 0.55034  0.71801  0.08247  Biso   1.000  H
  O40      1.0000 0.90282  0.64025  0.29482  Biso   1.000  O
  C235     1.0000 0.85270  0.67853  0.08741  Biso   1.000  C
  C236     1.0000 0.85276  0.67853  0.08741  Biso   1.000  C
  C237     1.0000 0.56509  0.79886  0.29891  Biso   1.000  C
  C238     1.0000 0.56514  0.79880  0.29891  Biso   1.000  C
  C239     1.0000 0.61108  0.93781  0.35047  Biso   1.000  C
  O41      1.0000 0.65960  0.00265  0.26137  Biso   1.000  O
  O42      1.0000 0.65966  0.00265  0.26137  Biso   1.000  O
  C240     1.0000 0.77997  0.59256  0.36427  Biso   1.000  C
  C241     1.0000 0.78001  0.59250  0.36427  Biso   1.000  C
  H264     1.0000 0.46912  0.59361  0.07199  Biso   1.000  H
  H265     1.0000 0.47758  0.63845  0.17427  Biso   1.000  H
  C242     1.0000 0.37748  0.65322  0.05187  Biso   1.000  C
  H266     1.0000 0.47763  0.63840  0.17427  Biso   1.000  H
  C243     1.0000 0.37754  0.65322  0.05187  Biso   1.000  C
  C244     1.0000 0.99670  0.68097  0.35240  Biso   1.000  C
  C245     1.0000 0.99669  0.68091  0.35240  Biso   1.000  C
  H267     1.0000 0.78651  0.66503  0.03230  Biso   1.000  H
  H268     1.0000 0.86012  0.62951  0.09373  Biso   1.000  H
  C246     1.0000 0.92139  0.71662  0.06166  Biso   1.000  C
  C247     1.0000 0.58024  0.87105  0.36682  Biso   1.000  C
  H269     1.0000 0.54482  0.75251  0.30746  Biso   1.000  H
  O43      1.0000 0.62098  0.01221  0.41121  Biso   1.000  O
  O44      1.0000 0.62097  0.01215  0.41121  Biso   1.000  O
  C248     1.0000 0.58235  0.02149  0.18822  Biso   1.000  C
  C249     1.0000 0.69283  0.52076  0.33051  Biso   1.000  C
  C250     1.0000 0.69282  0.52070  0.33051  Biso   1.000  C
  H270     1.0000 0.82658  0.57022  0.36026  Biso   1.000  H
  C251     1.0000 0.83333  0.65217  0.47442  Biso   1.000  C
  C252     1.0000 0.83331  0.65212  0.47442  Biso   1.000  C
  H271     1.0000 0.37902  0.70153  0.09427  Biso   1.000  H
  C253     1.0000 0.28879  0.58644  0.01488  Biso   1.000  C
  H272     1.0000 0.37901  0.70148  0.09427  Biso   1.000  H
  C254     1.0000 0.28883  0.58638  0.01488  Biso   1.000  C
  H273     1.0000 0.37336  0.66104  0.99260  Biso   1.000  H
  C255     1.0000 0.99267  0.72436  0.42979  Biso   1.000  C
  C256     1.0000 0.99272  0.72430  0.42979  Biso   1.000  C
  C257     1.0000 0.99990  0.71264  0.43210  Biso   1.000  C
  H274     1.0000 0.01910  0.71282  0.32280  Biso   1.000  H
  H275     1.0000 0.03417  0.64793  0.37098  Biso   1.000  H
  H276     1.0000 0.03423  0.64793  0.37098  Biso   1.000  H
  H277     1.0000 0.06421  0.72215  0.44520  Biso   1.000  H
  C258     1.0000 0.99003  0.79276  0.12132  Biso   1.000  C
  C259     1.0000 0.99002  0.79271  0.12132  Biso   1.000  C
  C260     1.0000 0.91308  0.67250  0.97279  Biso   1.000  C
  C261     1.0000 0.91309  0.67256  0.97279  Biso   1.000  C
  C262     1.0000 0.56591  0.87744  0.45430  Biso   1.000  C
  C263     1.0000 0.70165  0.07688  0.47573  Biso   1.000  C
  C264     1.0000 0.72315  0.04698  0.52089  Biso   1.000  C
  H278     1.0000 0.54225  0.97621  0.12201  Biso   1.000  H
  H279     1.0000 0.54163  0.03175  0.21328  Biso   1.000  H
  C265     1.0000 0.62462  0.09186  0.17628  Biso   1.000  C
  C266     1.0000 0.62468  0.09186  0.17628  Biso   1.000  C
  C267     1.0000 0.65400  0.45465  0.22553  Biso   1.000  C
  H280     1.0000 0.64148  0.53874  0.32619  Biso   1.000  H
  H281     1.0000 0.71121  0.49867  0.38231  Biso   1.000  H
  H282     1.0000 0.64153  0.53874  0.32619  Biso   1.000  H
  H283     1.0000 0.71120  0.49862  0.38231  Biso   1.000  H
  C268     1.0000 0.93230  0.69202  0.52868  Biso   1.000  C
  C269     1.0000 0.78513  0.67277  0.52313  Biso   1.000  C
  C270     1.0000 0.78511  0.67272  0.52313  Biso   1.000  C
  H284     1.0000 0.29312  0.57760  0.07369  Biso   1.000  H
  H285     1.0000 0.28574  0.53832  0.97048  Biso   1.000  H
  C271     1.0000 0.19399  0.59972  0.95522  Biso   1.000  C
  C272     1.0000 0.19401  0.59978  0.95522  Biso   1.000  C
  O45      1.0000 0.98431  0.67316  0.48659  Biso   1.000  O
  O46      1.0000 0.98430  0.67311  0.48659  Biso   1.000  O
  H286     1.0000 0.93698  0.73966  0.40296  Biso   1.000  H
  H287     1.0000 0.93696  0.73960  0.40296  Biso   1.000  H
  H288     1.0000 0.99168  0.76321  0.44798  Biso   1.000  H
  H289     1.0000 0.05069  0.77256  0.47588  Biso   1.000  H
  H290     1.0000 0.05068  0.77250  0.47588  Biso   1.000  H
  H291     1.0000 0.99746  0.82212  0.18252  Biso   1.000  H
  C273     1.0000 0.04865  0.82685  0.09242  Biso   1.000  C
  C274     1.0000 0.04863  0.82680  0.09242  Biso   1.000  C
  H292     1.0000 0.86823  0.62010  0.93310  Biso   1.000  H
  C275     1.0000 0.96956  0.70485  0.94250  Biso   1.000  C
  H293     1.0000 0.86830  0.62016  0.93310  Biso   1.000  H
  C276     1.0000 0.66079  0.88768  0.54779  Biso   1.000  C
  C277     1.0000 0.66078  0.88762  0.54779  Biso   1.000  C
  H294     1.0000 0.55478  0.92701  0.47226  Biso   1.000  H
  C278     1.0000 0.47853  0.81003  0.42670  Biso   1.000  C
  C279     1.0000 0.77522  0.05417  0.55697  Biso   1.000  C
  H295     1.0000 0.68855  0.11979  0.50902  Biso   1.000  H
  H296     1.0000 0.72753  0.09480  0.43850  Biso   1.000  H
  H297     1.0000 0.72752  0.09475  0.43850  Biso   1.000  H
  H298     1.0000 0.75125  0.10447  0.54371  Biso   1.000  H
  O47      1.0000 0.71800  0.03078  0.60036  Biso   1.000  O
  H299     1.0000 0.76675  0.02487  0.51057  Biso   1.000  H
  C280     1.0000 0.55997  0.11906  0.11400  Biso   1.000  C
  C281     1.0000 0.72336  0.13250  0.22430  Biso   1.000  C
  C282     1.0000 0.72335  0.13245  0.22430  Biso   1.000  C
  C283     1.0000 0.57241  0.38314  0.19061  Biso   1.000  C
  C284     1.0000 0.57240  0.38309  0.19061  Biso   1.000  C
  H300     1.0000 0.70661  0.43872  0.22962  Biso   1.000  H
  H301     1.0000 0.63431  0.47695  0.17389  Biso   1.000  H
  H302     1.0000 0.63430  0.47689  0.17389  Biso   1.000  H
  C285     1.0000 0.98229  0.74897  0.62850  Biso   1.000  C
  C286     1.0000 0.98228  0.74891  0.62850  Biso   1.000  C
  H303     1.0000 0.71829  0.64663  0.48667  Biso   1.000  H
  C287     1.0000 0.83259  0.72997  0.62271  Biso   1.000  C
  C288     1.0000 0.83257  0.72992  0.62271  Biso   1.000  C
  H304     1.0000 0.19895  0.64913  0.99938  Biso   1.000  H
  H305     1.0000 0.18997  0.60765  0.89610  Biso   1.000  H
  C289     1.0000 0.10223  0.53673  0.91807  Biso   1.000  C
  C290     1.0000 0.03862  0.78162  0.00331  Biso   1.000  C
  C291     1.0000 0.12633  0.90775  0.15801  Biso   1.000  C
  C292     1.0000 0.12632  0.90769  0.15801  Biso   1.000  C
  H306     1.0000 0.96185  0.67519  0.88107  Biso   1.000  H
  H307     1.0000 0.96186  0.67525  0.88107  Biso   1.000  H
  C293     1.0000 0.67949  0.82186  0.56891  Biso   1.000  C
  C294     1.0000 0.73280  0.96217  0.61639  Biso   1.000  C
  C295     1.0000 0.73279  0.96212  0.61639  Biso   1.000  C
  H308     1.0000 0.47771  0.81665  0.48821  Biso   1.000  H
  C296     1.0000 0.38369  0.80462  0.34431  Biso   1.000  C
  H309     1.0000 0.48620  0.75988  0.40512  Biso   1.000  H
  H310     1.0000 0.48625  0.75982  0.40512  Biso   1.000  H
  H311     1.0000 0.78793  0.01002  0.52583  Biso   1.000  H
  H312     1.0000 0.83574  0.09933  0.60822  Biso   1.000  H
  H313     1.0000 0.78798  0.00997  0.52583  Biso   1.000  H
  H314     1.0000 0.83573  0.09927  0.60822  Biso   1.000  H
  H315     1.0000 0.49375  0.09310  0.08270  Biso   1.000  H
  C297     1.0000 0.59399  0.18530  0.09827  Biso   1.000  C
  H316     1.0000 0.49379  0.09304  0.08270  Biso   1.000  H
  C298     1.0000 0.59397  0.18524  0.09827  Biso   1.000  C
  C299     1.0000 0.75680  0.19971  0.21012  Biso   1.000  C
  H317     1.0000 0.76734  0.11451  0.26638  Biso   1.000  H
  C300     1.0000 0.75679  0.19966  0.21012  Biso   1.000  C
  H318     1.0000 0.76733  0.11445  0.26638  Biso   1.000  H
  C301     1.0000 0.48028  0.37121  0.17620  Biso   1.000  C
  H319     1.0000 0.60067  0.35761  0.23678  Biso   1.000  H
  H320     1.0000 0.55749  0.34902  0.12433  Biso   1.000  H
  H321     1.0000 0.55755  0.34902  0.12433  Biso   1.000  H
  C302     1.0000 0.93407  0.76884  0.67767  Biso   1.000  C
  O48      1.0000 0.08111  0.79068  0.68029  Biso   1.000  O
  O49      1.0000 0.08110  0.79063  0.68029  Biso   1.000  O
  C303     1.0000 0.77988  0.75648  0.67351  Biso   1.000  C
  C304     1.0000 0.77987  0.75642  0.67351  Biso   1.000  C
  H322     1.0000 0.04967  0.55405  0.88700  Biso   1.000  H
  H323     1.0000 0.10520  0.52654  0.97503  Biso   1.000  H
  H324     1.0000 0.09204  0.48870  0.86797  Biso   1.000  H
  H325     1.0000 0.09205  0.48875  0.86797  Biso   1.000  H
  H326     1.0000 0.07868  0.80293  0.98381  Biso   1.000  H
  H327     1.0000 0.07869  0.80299  0.98381  Biso   1.000  H
  H328     1.0000 0.18857  0.90271  0.19246  Biso   1.000  H
  H329     1.0000 0.12653  0.93590  0.11477  Biso   1.000  H
  O50      1.0000 0.11293  0.95264  0.23301  Biso   1.000  O
  H330     1.0000 0.18863  0.90271  0.19246  Biso   1.000  H
  C305     1.0000 0.76239  0.83116  0.65501  Biso   1.000  C
  H331     1.0000 0.63394  0.77054  0.52282  Biso   1.000  H
  C306     1.0000 0.81481  0.97249  0.70172  Biso   1.000  C
  C307     1.0000 0.81480  0.97243  0.70172  Biso   1.000  C
  H332     1.0000 0.38312  0.79754  0.28203  Biso   1.000  H
  H333     1.0000 0.37410  0.85383  0.36550  Biso   1.000  H
  C308     1.0000 0.30011  0.73295  0.32219  Biso   1.000  C
  C309     1.0000 0.30009  0.73289  0.32219  Biso   1.000  C
  H334     1.0000 0.55028  0.20246  0.05442  Biso   1.000  H
  C310     1.0000 0.69149  0.22580  0.14691  Biso   1.000  C
  C311     1.0000 0.69147  0.22575  0.14691  Biso   1.000  C
  C312     1.0000 0.86147  0.24459  0.25852  Biso   1.000  C
  H335     1.0000 0.48412  0.38862  0.24072  Biso   1.000  H
  H336     1.0000 0.43471  0.31641  0.13250  Biso   1.000  H
  C313     1.0000 0.45738  0.43071  0.11916  Biso   1.000  C
  O51      1.0000 0.98738  0.82178  0.77749  Biso   1.000  O
  O52      1.0000 0.98736  0.82173  0.77749  Biso   1.000  O
  C314     1.0000 0.13850  0.75548  0.74149  Biso   1.000  C
  C315     1.0000 0.13849  0.75542  0.74149  Biso   1.000  C
  H337     1.0000 0.82550  0.77456  0.74789  Biso   1.000  H
  C316     1.0000 0.69103  0.69104  0.64453  Biso   1.000  C
  C317     1.0000 0.18516  0.02757  0.29829  Biso   1.000  C
  C318     1.0000 0.83125  0.90605  0.72207  Biso   1.000  C
  C319     1.0000 0.83131  0.90605  0.72207  Biso   1.000  C
  O53      1.0000 0.88705  0.04743  0.76700  Biso   1.000  O
  O54      1.0000 0.88704  0.04737  0.76700  Biso   1.000  O
  H338     1.0000 0.30089  0.74034  0.38477  Biso   1.000  H
  H339     1.0000 0.31026  0.68392  0.30176  Biso   1.000  H
  C320     1.0000 0.20650  0.72584  0.24156  Biso   1.000  C
  H340     1.0000 0.31032  0.68392  0.30176  Biso   1.000  H
  C321     1.0000 0.20649  0.72579  0.24156  Biso   1.000  C
  H341     1.0000 0.71369  0.27086  0.13720  Biso   1.000  H
  H342     1.0000 0.87384  0.24475  0.20526  Biso   1.000  H
  H343     1.0000 0.87925  0.29956  0.30138  Biso   1.000  H
  O55      1.0000 0.91886  0.20938  0.31972  Biso   1.000  O
  H344     1.0000 0.42402  0.45902  0.14098  Biso   1.000  H
  H345     1.0000 0.51701  0.46802  0.13697  Biso   1.000  H
  H346     1.0000 0.41702  0.40042  0.04586  Biso   1.000  H
  H347     1.0000 0.41701  0.40037  0.04586  Biso   1.000  H
  C322     1.0000 0.98619  0.91262  0.79236  Biso   1.000  C
  C323     1.0000 0.01637  0.89696  0.79028  Biso   1.000  C
  C324     1.0000 0.24317  0.80035  0.78990  Biso   1.000  C
  H348     1.0000 0.12608  0.75523  0.79468  Biso   1.000  H
  H349     1.0000 0.12067  0.70043  0.69856  Biso   1.000  H
  H350     1.0000 0.65477  0.71515  0.66688  Biso   1.000  H
  H351     1.0000 0.65022  0.66355  0.56999  Biso   1.000  H
  C325     1.0000 0.71210  0.63065  0.68993  Biso   1.000  C
  C326     1.0000 0.26717  0.03789  0.38362  Biso   1.000  C
  C327     1.0000 0.16862  0.09399  0.27787  Biso   1.000  C
  C328     1.0000 0.16861  0.09394  0.27787  Biso   1.000  C
  O56      1.0000 0.91019  0.91876  0.81526  Biso   1.000  O
  C329     1.0000 0.87364  0.09231  0.84200  Biso   1.000  C
  H352     1.0000 0.19192  0.77164  0.26499  Biso   1.000  H
  C330     1.0000 0.12624  0.64605  0.21343  Biso   1.000  C
  H353     1.0000 0.20733  0.72457  0.18121  Biso   1.000  H
  H354     1.0000 0.20732  0.72451  0.18121  Biso   1.000  H
  C331     1.0000 0.01768  0.25109  0.37152  Biso   1.000  C
  H355     1.0000 0.97902  0.90105  0.72500  Biso   1.000  H
  H356     1.0000 0.97050  0.92095  0.73001  Biso   1.000  H
  C332     1.0000 0.00519  0.94706  0.86566  Biso   1.000  C
  H357     1.0000 0.04909  0.95287  0.84878  Biso   1.000  H
  H358     1.0000 0.08387  0.91568  0.81256  Biso   1.000  H
  H359     1.0000 0.08386  0.91562  0.81256  Biso   1.000  H
  C333     1.0000 0.30849  0.77426  0.85310  Biso   1.000  C
  C334     1.0000 0.27661  0.86756  0.77571  Biso   1.000  C
  H360     1.0000 0.74457  0.65674  0.76400  Biso   1.000  H
  H361     1.0000 0.75641  0.61258  0.67621  Biso   1.000  H
  C335     1.0000 0.62325  0.55812  0.64908  Biso   1.000  C
  H362     1.0000 0.75640  0.61252  0.67621  Biso   1.000  H
  C336     1.0000 0.62330  0.55812  0.64908  Biso   1.000  C
  O57      1.0000 0.28193  0.96926  0.39957  Biso   1.000  O
  O58      1.0000 0.28192  0.96921  0.39957  Biso   1.000  O
  C337     1.0000 0.33912  0.11238  0.45222  Biso   1.000  C
  C338     1.0000 0.33918  0.11238  0.45222  Biso   1.000  C
  C339     1.0000 0.23758  0.16890  0.34500  Biso   1.000  C
  O59      1.0000 0.08975  0.08128  0.18468  Biso   1.000  O
  C340     1.0000 0.23757  0.16885  0.34500  Biso   1.000  C
  C341     1.0000 0.95133  0.17321  0.90760  Biso   1.000  C
  H363     1.0000 0.81130  0.09733  0.80747  Biso   1.000  H
  H364     1.0000 0.87339  0.06409  0.88517  Biso   1.000  H
  H365     1.0000 0.81129  0.09727  0.80747  Biso   1.000  H
  H366     1.0000 0.06721  0.63452  0.15023  Biso   1.000  H
  H367     1.0000 0.11502  0.65272  0.26769  Biso   1.000  H
  H368     1.0000 0.14805  0.60264  0.20503  Biso   1.000  H
  C342     1.0000 0.06763  0.30796  0.47126  Biso   1.000  C
  C343     1.0000 0.06586  0.23120  0.32226  Biso   1.000  C
  C344     1.0000 0.06585  0.23115  0.32226  Biso   1.000  C
  H369     1.0000 0.03466  0.93934  0.92949  Biso   1.000  H
  H370     1.0000 0.03142  0.00315  0.87992  Biso   1.000  H
  H371     1.0000 0.03141  0.00309  0.87992  Biso   1.000  H
  C345     1.0000 0.40595  0.81474  0.90166  Biso   1.000  C
  H372     1.0000 0.28628  0.72915  0.86281  Biso   1.000  H
  C346     1.0000 0.37525  0.90818  0.82366  Biso   1.000  C
  H373     1.0000 0.23260  0.88553  0.73355  Biso   1.000  H
  C347     1.0000 0.37530  0.90813  0.82366  Biso   1.000  C
  H374     1.0000 0.57347  0.57635  0.64938  Biso   1.000  H
  C348     1.0000 0.64128  0.50635  0.70912  Biso   1.000  C
  H375     1.0000 0.59871  0.52588  0.57809  Biso   1.000  H
  H376     1.0000 0.59870  0.52582  0.57809  Biso   1.000  H
  C349     1.0000 0.22470  0.94582  0.44297  Biso   1.000  C
  C350     1.0000 0.27683  0.95308  0.47912  Biso   1.000  C
  C351     1.0000 0.32048  0.17820  0.43110  Biso   1.000  C
  C352     1.0000 0.43407  0.12262  0.54571  Biso   1.000  C
  C353     1.0000 0.43405  0.12257  0.54571  Biso   1.000  C
  C354     1.0000 0.22003  0.24359  0.32650  Biso   1.000  C
  C355     1.0000 0.22009  0.24359  0.32650  Biso   1.000  C
  C356     1.0000 0.99474  0.05298  0.13427  Biso   1.000  C
  C357     1.0000 0.01373  0.08737  0.20757  Biso   1.000  C
  C358     1.0000 0.96136  0.21844  0.99670  Biso   1.000  C
  C359     1.0000 0.96134  0.21838  0.99670  Biso   1.000  C
  C360     1.0000 0.00995  0.20730  0.87869  Biso   1.000  C
  O60      1.0000 0.01566  0.32690  0.51342  Biso   1.000  O
  C361     1.0000 0.16665  0.34789  0.52560  Biso   1.000  C
  C362     1.0000 0.16733  0.27009  0.37730  Biso   1.000  C
  C363     1.0000 0.16739  0.27009  0.37730  Biso   1.000  C
  O61      1.0000 0.01260  0.17828  0.22252  Biso   1.000  O
  C364     1.0000 0.44000  0.88095  0.88601  Biso   1.000  C
  H377     1.0000 0.44970  0.79760  0.94560  Biso   1.000  H
  H378     1.0000 0.44968  0.79754  0.94560  Biso   1.000  H
  C365     1.0000 0.41762  0.97858  0.81179  Biso   1.000  C
  C366     1.0000 0.41761  0.97852  0.81179  Biso   1.000  C
  H379     1.0000 0.65957  0.53693  0.77826  Biso   1.000  H
  H380     1.0000 0.69528  0.49228  0.71459  Biso   1.000  H
  C367     1.0000 0.55298  0.42917  0.66017  Biso   1.000  C
  H381     1.0000 0.69526  0.49223  0.71459  Biso   1.000  H
  C368     1.0000 0.55297  0.42911  0.66017  Biso   1.000  C
  C369     1.0000 0.29831  0.92312  0.52429  Biso   1.000  C
  H382     1.0000 0.21198  0.99004  0.47418  Biso   1.000  H
  H383     1.0000 0.16423  0.90074  0.39179  Biso   1.000  H
  H384     1.0000 0.23318  0.97517  0.48937  Biso   1.000  H
  H385     1.0000 0.24871  0.89554  0.45630  Biso   1.000  H
  O62      1.0000 0.37899  0.98786  0.58880  Biso   1.000  O
  H386     1.0000 0.36603  0.22947  0.47719  Biso   1.000  H
  C370     1.0000 0.41973  0.12901  0.63320  Biso   1.000  C
  H387     1.0000 0.44514  0.07297  0.52768  Biso   1.000  H
  C371     1.0000 0.52144  0.19003  0.57331  Biso   1.000  C
  C372     1.0000 0.52143  0.18998  0.57331  Biso   1.000  C
  H388     1.0000 0.17447  0.22551  0.25212  Biso   1.000  H
  C373     1.0000 0.30893  0.30897  0.35548  Biso   1.000  C
  H389     1.0000 0.17446  0.22545  0.25212  Biso   1.000  H
  H390     1.0000 0.96849  0.99692  0.12009  Biso   1.000  H
  H391     1.0000 0.96855  0.99692  0.12009  Biso   1.000  H
  C374     1.0000 0.98355  0.10310  0.20973  Biso   1.000  C
  H392     1.0000 0.96530  0.06066  0.07053  Biso   1.000  H
  C375     1.0000 0.98360  0.10305  0.20973  Biso   1.000  C
  H393     1.0000 0.95088  0.04720  0.15123  Biso   1.000  H
  H394     1.0000 0.02095  0.09902  0.27501  Biso   1.000  H
  H395     1.0000 0.02094  0.09896  0.27501  Biso   1.000  H
  H396     1.0000 0.02947  0.07911  0.27000  Biso   1.000  H
  H397     1.0000 0.92129  0.19708  0.01620  Biso   1.000  H
  H398     1.0000 0.92130  0.19713  0.01620  Biso   1.000  H
  C376     1.0000 0.03040  0.29516  0.05751  Biso   1.000  C
  C377     1.0000 0.03041  0.29521  0.05751  Biso   1.000  C
  C378     1.0000 0.07854  0.28342  0.93827  Biso   1.000  C
  H399     1.0000 0.00252  0.17794  0.81749  Biso   1.000  H
  H400     1.0000 0.00251  0.17788  0.81749  Biso   1.000  H
  C379     1.0000 0.00724  0.27571  0.57022  Biso   1.000  C
  C380     1.0000 0.00008  0.28742  0.56791  Biso   1.000  C
  C381     1.0000 0.21485  0.32729  0.47688  Biso   1.000  C
  C382     1.0000 0.21991  0.40748  0.63566  Biso   1.000  C
  H401     1.0000 0.50617  0.90696  0.91731  Biso   1.000  H
  H402     1.0000 0.50623  0.90696  0.91731  Biso   1.000  H
  O63      1.0000 0.34026  0.99733  0.73856  Biso   1.000  O
  H403     1.0000 0.45830  0.96823  0.78666  Biso   1.000  H
  H404     1.0000 0.45772  0.02379  0.87800  Biso   1.000  H
  H405     1.0000 0.56457  0.40366  0.70750  Biso   1.000  H
  H406     1.0000 0.49672  0.44206  0.64460  Biso   1.000  H
  H407     1.0000 0.54251  0.39366  0.59790  Biso   1.000  H
  H408     1.0000 0.54249  0.39361  0.59790  Biso   1.000  H
  H409     1.0000 0.31142  0.88028  0.49099  Biso   1.000  H
  H410     1.0000 0.27244  0.90526  0.56151  Biso   1.000  H
  H411     1.0000 0.31141  0.88022  0.49099  Biso   1.000  H
  C383     1.0000 0.38878  0.06217  0.64946  Biso   1.000  C
  C384     1.0000 0.38884  0.06217  0.64946  Biso   1.000  C
  C385     1.0000 0.43482  0.20121  0.70110  Biso   1.000  C
  H412     1.0000 0.51372  0.24018  0.59489  Biso   1.000  H
  H413     1.0000 0.52226  0.18341  0.51180  Biso   1.000  H
  C386     1.0000 0.61627  0.19539  0.65570  Biso   1.000  C
  H414     1.0000 0.52225  0.18336  0.51180  Biso   1.000  H
  H415     1.0000 0.34520  0.28492  0.33313  Biso   1.000  H
  H416     1.0000 0.34976  0.33651  0.43002  Biso   1.000  H
  C387     1.0000 0.28787  0.36941  0.31009  Biso   1.000  C
  H417     1.0000 0.34519  0.28486  0.33313  Biso   1.000  H
  H418     1.0000 0.34974  0.33646  0.43002  Biso   1.000  H
  C388     1.0000 0.28786  0.36935  0.31009  Biso   1.000  C
  H419     1.0000 0.91606  0.08436  0.18738  Biso   1.000  H
  C389     1.0000 0.08688  0.32751  0.02722  Biso   1.000  C
  H420     1.0000 0.03808  0.32479  0.11887  Biso   1.000  H
  C390     1.0000 0.14722  0.32153  0.91261  Biso   1.000  C
  C391     1.0000 0.14721  0.32148  0.91261  Biso   1.000  C
  C392     1.0000 0.00328  0.31909  0.64761  Biso   1.000  C
  H421     1.0000 0.94928  0.22750  0.52413  Biso   1.000  H
  H422     1.0000 0.93576  0.27791  0.55481  Biso   1.000  H
  H423     1.0000 0.06296  0.26038  0.59697  Biso   1.000  H
  H424     1.0000 0.00824  0.23677  0.55196  Biso   1.000  H
  H425     1.0000 0.28165  0.35341  0.51326  Biso   1.000  H
  H426     1.0000 0.28164  0.35336  0.51326  Biso   1.000  H
  C393     1.0000 0.24096  0.36523  0.70712  Biso   1.000  C
  C394     1.0000 0.24095  0.36518  0.70712  Biso   1.000  C
  H427     1.0000 0.17336  0.42982  0.63967  Biso   1.000  H
  C395     1.0000 0.30714  0.47930  0.66950  Biso   1.000  C
  H428     1.0000 0.17335  0.42976  0.63967  Biso   1.000  H
  C396     1.0000 0.37231  0.06530  0.72646  Biso   1.000  C
  C397     1.0000 0.42115  0.20803  0.78119  Biso   1.000  C
  C398     1.0000 0.42113  0.20798  0.78119  Biso   1.000  C
  H429     1.0000 0.45510  0.24747  0.69247  Biso   1.000  H
  H430     1.0000 0.61685  0.20252  0.71798  Biso   1.000  H
  H431     1.0000 0.62587  0.14623  0.63451  Biso   1.000  H
  C399     1.0000 0.69987  0.26712  0.67783  Biso   1.000  C
  H432     1.0000 0.61684  0.20247  0.71798  Biso   1.000  H
  H433     1.0000 0.62586  0.14618  0.63451  Biso   1.000  H
  H434     1.0000 0.25539  0.34327  0.23601  Biso   1.000  H
  H435     1.0000 0.24356  0.38748  0.32381  Biso   1.000  H
  C400     1.0000 0.37662  0.44186  0.35086  Biso   1.000  C
  C401     1.0000 0.37668  0.44186  0.35086  Biso   1.000  C
  H436     1.0000 0.13167  0.37991  0.06692  Biso   1.000  H
  O64      1.0000 0.12785  0.26802  0.81818  Biso   1.000  O
  H437     1.0000 0.21347  0.33504  0.96772  Biso   1.000  H
  H438     1.0000 0.13984  0.37049  0.90629  Biso   1.000  H
  O65      1.0000 0.12784  0.26797  0.81818  Biso   1.000  O
  O66      1.0000 0.09716  0.35981  0.70519  Biso   1.000  O
  H439     1.0000 0.98086  0.28719  0.67721  Biso   1.000  H
  H440     1.0000 0.96571  0.35211  0.62896  Biso   1.000  H
  H441     1.0000 0.96575  0.35205  0.62896  Biso   1.000  H
  C402     1.0000 0.32478  0.34763  0.74712  Biso   1.000  C
  C403     1.0000 0.32477  0.34758  0.74712  Biso   1.000  C
  C404     1.0000 0.17843  0.33733  0.73409  Biso   1.000  C
  C405     1.0000 0.17842  0.33727  0.73409  Biso   1.000  C
  H442     1.0000 0.35844  0.46132  0.67382  Biso   1.000  H
  H443     1.0000 0.28876  0.50139  0.61770  Biso   1.000  H
  C406     1.0000 0.34597  0.54542  0.77448  Biso   1.000  C
  C407     1.0000 0.39119  0.14012  0.79437  Biso   1.000  C
  C408     1.0000 0.39124  0.14007  0.79437  Biso   1.000  C
  C409     1.0000 0.43793  0.28864  0.85449  Biso   1.000  C
  C410     1.0000 0.43791  0.28859  0.85449  Biso   1.000  C
  H444     1.0000 0.68962  0.31612  0.69817  Biso   1.000  H
  H445     1.0000 0.69905  0.25970  0.61516  Biso   1.000  H
  C411     1.0000 0.79343  0.27419  0.75837  Biso   1.000  C
  H446     1.0000 0.68960  0.31606  0.69817  Biso   1.000  H
  H447     1.0000 0.42650  0.42372  0.35063  Biso   1.000  H
  H448     1.0000 0.40126  0.47419  0.42193  Biso   1.000  H
  C412     1.0000 0.35869  0.49371  0.29089  Biso   1.000  C
  H449     1.0000 0.42649  0.42366  0.35063  Biso   1.000  H
  C413     1.0000 0.35868  0.49366  0.29089  Biso   1.000  C
  C414     1.0000 0.19468  0.29694  0.79622  Biso   1.000  C
  C415     1.0000 0.19467  0.29688  0.79622  Biso   1.000  C
  C416     1.0000 0.34565  0.30609  0.81048  Biso   1.000  C
  H450     1.0000 0.36896  0.36479  0.73032  Biso   1.000  H
  H451     1.0000 0.36566  0.52312  0.82612  Biso   1.000  H
  H452     1.0000 0.29336  0.56134  0.77040  Biso   1.000  H
  C417     1.0000 0.42757  0.61692  0.80940  Biso   1.000  C
  H453     1.0000 0.29335  0.56128  0.77040  Biso   1.000  H
  O67      1.0000 0.38201  0.14360  0.87638  Biso   1.000  O
  H454     1.0000 0.44960  0.28203  0.91746  Biso   1.000  H
  C418     1.0000 0.52835  0.35679  0.88709  Biso   1.000  C
  H455     1.0000 0.44958  0.28197  0.91746  Biso   1.000  H
  H456     1.0000 0.79265  0.27550  0.81880  Biso   1.000  H
  H457     1.0000 0.80805  0.22842  0.73502  Biso   1.000  H
  C419     1.0000 0.87374  0.35401  0.78658  Biso   1.000  C
  H458     1.0000 0.34035  0.46306  0.22168  Biso   1.000  H
  H459     1.0000 0.30470  0.50778  0.28542  Biso   1.000  H
  C420     1.0000 0.44695  0.57087  0.33976  Biso   1.000  C
  C421     1.0000 0.27759  0.27819  0.83237  Biso   1.000  C
  C422     1.0000 0.27765  0.27819  0.83237  Biso   1.000  C
  H460     1.0000 0.44242  0.65104  0.87569  Biso   1.000  H
  H461     1.0000 0.39929  0.64240  0.76323  Biso   1.000  H
  C423     1.0000 0.51968  0.62880  0.82381  Biso   1.000  C
  H462     1.0000 0.44247  0.65099  0.87569  Biso   1.000  H
  C424     1.0000 0.30061  0.11020  0.87268  Biso   1.000  C
  C425     1.0000 0.28692  0.15433  0.85649  Biso   1.000  C
  H463     1.0000 0.53085  0.40646  0.92802  Biso   1.000  H
  H464     1.0000 0.52229  0.36159  0.82566  Biso   1.000  H
  C426     1.0000 0.62240  0.34682  0.94806  Biso   1.000  C
  H465     1.0000 0.53084  0.40640  0.92802  Biso   1.000  H
  C427     1.0000 0.62238  0.34676  0.94806  Biso   1.000  C
  H466     1.0000 0.93276  0.36549  0.84979  Biso   1.000  H
  H467     1.0000 0.88494  0.34729  0.73232  Biso   1.000  H
  H468     1.0000 0.85192  0.39743  0.79498  Biso   1.000  H
  H469     1.0000 0.85191  0.39737  0.79498  Biso   1.000  H
  H470     1.0000 0.43540  0.59640  0.29251  Biso   1.000  H
  H471     1.0000 0.45747  0.60640  0.40212  Biso   1.000  H
  H472     1.0000 0.50326  0.55800  0.35541  Biso   1.000  H
  H473     1.0000 0.43539  0.59635  0.29251  Biso   1.000  H
  H474     1.0000 0.50325  0.55795  0.35541  Biso   1.000  H
  O68      1.0000 0.29243  0.23680  0.89357  Biso   1.000  O
  H475     1.0000 0.51586  0.61144  0.75930  Biso   1.000  H
  H476     1.0000 0.56527  0.68365  0.86751  Biso   1.000  H
  C428     1.0000 0.54255  0.56933  0.88077  Biso   1.000  C
  H477     1.0000 0.51584  0.61139  0.75930  Biso   1.000  H
  H478     1.0000 0.56525  0.68360  0.86751  Biso   1.000  H
  C429     1.0000 0.54254  0.56928  0.88077  Biso   1.000  C
  C430     1.0000 0.23693  0.15129  0.82528  Biso   1.000  C
  H479     1.0000 0.27071  0.05312  0.83098  Biso   1.000  H
  H480     1.0000 0.31494  0.11903  0.94128  Biso   1.000  H
  H481     1.0000 0.27070  0.05307  0.83098  Biso   1.000  H
  H482     1.0000 0.31493  0.11897  0.94128  Biso   1.000  H
  H483     1.0000 0.26345  0.12605  0.88840  Biso   1.000  H
  H484     1.0000 0.23904  0.12880  0.78281  Biso   1.000  H
  H485     1.0000 0.62091  0.29851  0.90567  Biso   1.000  H
  C431     1.0000 0.71109  0.41360  0.98506  Biso   1.000  C
  H486     1.0000 0.62660  0.33897  0.00741  Biso   1.000  H
  H487     1.0000 0.62661  0.33902  0.00741  Biso   1.000  H
  H488     1.0000 0.57591  0.54101  0.85896  Biso   1.000  H
  H489     1.0000 0.58291  0.59962  0.95407  Biso   1.000  H
  H490     1.0000 0.48293  0.53202  0.86297  Biso   1.000  H
  H491     1.0000 0.48291  0.53197  0.86297  Biso   1.000  H
  H492     1.0000 0.17683  0.13280  0.82150  Biso   1.000  H
  H493     1.0000 0.22222  0.14192  0.75637  Biso   1.000  H
  H494     1.0000 0.22221  0.14187  0.75637  Biso   1.000  H
  H495     1.0000 0.70684  0.42241  0.92633  Biso   1.000  H
  H496     1.0000 0.71418  0.46166  0.02946  Biso   1.000  H
  C432     1.0000 0.80597  0.40029  0.04479  Biso   1.000  C
  H497     1.0000 0.71419  0.46172  0.02946  Biso   1.000  H
  H498     1.0000 0.80097  0.35085  0.00055  Biso   1.000  H
  H499     1.0000 0.80999  0.39236  0.10391  Biso   1.000  H
  C433     1.0000 0.89769  0.46326  0.08187  Biso   1.000  C
  H500     1.0000 0.80099  0.35091  0.00055  Biso   1.000  H
  H501     1.0000 0.81000  0.39242  0.10391  Biso   1.000  H
  C434     1.0000 0.89770  0.46331  0.08187  Biso   1.000  C
  H502     1.0000 0.95029  0.44596  0.11301  Biso   1.000  H
  H503     1.0000 0.89476  0.47347  0.02499  Biso   1.000  H
  H504     1.0000 0.90788  0.51129  0.13197  Biso   1.000  H
  H505     1.0000 0.95031  0.44602  0.11301  Biso   1.000  H
  H506     1.0000 0.89477  0.47352  0.02499  Biso   1.000  H
  C435     1.0000 0.76303  0.84872  0.17474  Biso   1.000  C
  O69      1.0000 0.70750  0.76324  0.10637  Biso   1.000  O
  O70      1.0000 0.70749  0.76318  0.10637  Biso   1.000  O
  H507     1.0000 0.77772  0.85812  0.24357  Biso   1.000  H
  C436     1.0000 0.69937  0.88987  0.12733  Biso   1.000  C
  H508     1.0000 0.82315  0.86726  0.17851  Biso   1.000  H
  C437     1.0000 0.69936  0.88981  0.12733  Biso   1.000  C
  H509     1.0000 0.82314  0.86720  0.17851  Biso   1.000  H
  H510     1.0000 0.73653  0.87402  0.11161  Biso   1.000  H
  H511     1.0000 0.76092  0.87121  0.21721  Biso   1.000  H
  C438     1.0000 0.72228  0.72185  0.16757  Biso   1.000  C
  C439     1.0000 0.72233  0.72179  0.16757  Biso   1.000  C
  C440     1.0000 0.71305  0.84573  0.14352  Biso   1.000  C
  O71      1.0000 0.61796  0.85646  0.12363  Biso   1.000  O
  O72      1.0000 0.61795  0.85640  0.12363  Biso   1.000  O
  H512     1.0000 0.72926  0.94694  0.16903  Biso   1.000  H
  H513     1.0000 0.68503  0.88104  0.05873  Biso   1.000  H
  C441     1.0000 0.65433  0.69397  0.18954  Biso   1.000  C
  C442     1.0000 0.65432  0.69392  0.18954  Biso   1.000  C
  C443     1.0000 0.80529  0.70312  0.20379  Biso   1.000  C
  C444     1.0000 0.60868  0.85992  0.20557  Biso   1.000  C
  C445     1.0000 0.67520  0.65243  0.25289  Biso   1.000  C
  C446     1.0000 0.56205  0.71142  0.14552  Biso   1.000  C
  C447     1.0000 0.82154  0.66273  0.26592  Biso   1.000  C
  O73      1.0000 0.87212  0.73204  0.18183  Biso   1.000  O
  C448     1.0000 0.57883  0.79203  0.21882  Biso   1.000  C
  C449     1.0000 0.62762  0.93474  0.27347  Biso   1.000  C
  C450     1.0000 0.75902  0.63483  0.29290  Biso   1.000  C
  H514     1.0000 0.63100  0.63521  0.26970  Biso   1.000  H
  C451     1.0000 0.47161  0.64321  0.11292  Biso   1.000  C
  H515     1.0000 0.55028  0.71801  0.08247  Biso   1.000  H
  H516     1.0000 0.55034  0.71801  0.08247  Biso   1.000  H
  O74      1.0000 0.90282  0.64025  0.29482  Biso   1.000  O
  C452     1.0000 0.85270  0.67853  0.08741  Biso   1.000  C
  C453     1.0000 0.85276  0.67853  0.08741  Biso   1.000  C
  C454     1.0000 0.56509  0.79886  0.29891  Biso   1.000  C
  C455     1.0000 0.56514  0.79880  0.29891  Biso   1.000  C
  C456     1.0000 0.61108  0.93781  0.35047  Biso   1.000  C
  O75      1.0000 0.65960  0.00265  0.26137  Biso   1.000  O
  O76      1.0000 0.65966  0.00265  0.26137  Biso   1.000  O
  C457     1.0000 0.77997  0.59256  0.36427  Biso   1.000  C
  C458     1.0000 0.78001  0.59250  0.36427  Biso   1.000  C
  H517     1.0000 0.46912  0.59361  0.07199  Biso   1.000  H
  H518     1.0000 0.47758  0.63845  0.17427  Biso   1.000  H
  C459     1.0000 0.37748  0.65322  0.05187  Biso   1.000  C
  H519     1.0000 0.47763  0.63840  0.17427  Biso   1.000  H
  C460     1.0000 0.37754  0.65322  0.05187  Biso   1.000  C
  C461     1.0000 0.99670  0.68097  0.35240  Biso   1.000  C
  C462     1.0000 0.99669  0.68091  0.35240  Biso   1.000  C
  H520     1.0000 0.78651  0.66503  0.03230  Biso   1.000  H
  H521     1.0000 0.86012  0.62951  0.09373  Biso   1.000  H
  C463     1.0000 0.92139  0.71662  0.06166  Biso   1.000  C
  C464     1.0000 0.58024  0.87105  0.36682  Biso   1.000  C
  H522     1.0000 0.54482  0.75251  0.30746  Biso   1.000  H
  O77      1.0000 0.62098  0.01221  0.41121  Biso   1.000  O
  O78      1.0000 0.62097  0.01215  0.41121  Biso   1.000  O
  C465     1.0000 0.58235  0.02149  0.18822  Biso   1.000  C
  C466     1.0000 0.69283  0.52076  0.33051  Biso   1.000  C
  C467     1.0000 0.69282  0.52070  0.33051  Biso   1.000  C
  H523     1.0000 0.82658  0.57022  0.36026  Biso   1.000  H
  C468     1.0000 0.83333  0.65217  0.47442  Biso   1.000  C
  C469     1.0000 0.83331  0.65212  0.47442  Biso   1.000  C
  H524     1.0000 0.37336  0.66104  0.99260  Biso   1.000  H
  H525     1.0000 0.37902  0.70153  0.09427  Biso   1.000  H
  C470     1.0000 0.28879  0.58644  0.01488  Biso   1.000  C
  H526     1.0000 0.37901  0.70148  0.09427  Biso   1.000  H
  C471     1.0000 0.28883  0.58638  0.01488  Biso   1.000  C
  C472     1.0000 0.99267  0.72436  0.42979  Biso   1.000  C
  C473     1.0000 0.99272  0.72430  0.42979  Biso   1.000  C
  C474     1.0000 0.99990  0.71264  0.43210  Biso   1.000  C
  H527     1.0000 0.01910  0.71282  0.32280  Biso   1.000  H
  H528     1.0000 0.03417  0.64793  0.37098  Biso   1.000  H
  H529     1.0000 0.03423  0.64793  0.37098  Biso   1.000  H
  H530     1.0000 0.06421  0.72215  0.44520  Biso   1.000  H
  C475     1.0000 0.91308  0.67250  0.97279  Biso   1.000  C
  C476     1.0000 0.91309  0.67256  0.97279  Biso   1.000  C
  C477     1.0000 0.99003  0.79276  0.12132  Biso   1.000  C
  C478     1.0000 0.99002  0.79271  0.12132  Biso   1.000  C
  C479     1.0000 0.56591  0.87744  0.45430  Biso   1.000  C
  C480     1.0000 0.70165  0.07688  0.47573  Biso   1.000  C
  C481     1.0000 0.72315  0.04698  0.52089  Biso   1.000  C
  H531     1.0000 0.54225  0.97621  0.12201  Biso   1.000  H
  H532     1.0000 0.54163  0.03175  0.21328  Biso   1.000  H
  C482     1.0000 0.62462  0.09186  0.17628  Biso   1.000  C
  C483     1.0000 0.62468  0.09186  0.17628  Biso   1.000  C
  C484     1.0000 0.65400  0.45465  0.22553  Biso   1.000  C
  H533     1.0000 0.64148  0.53874  0.32619  Biso   1.000  H
  H534     1.0000 0.71121  0.49867  0.38231  Biso   1.000  H
  H535     1.0000 0.64153  0.53874  0.32619  Biso   1.000  H
  H536     1.0000 0.71120  0.49862  0.38231  Biso   1.000  H
  C485     1.0000 0.93230  0.69202  0.52868  Biso   1.000  C
  C486     1.0000 0.78513  0.67277  0.52313  Biso   1.000  C
  C487     1.0000 0.78511  0.67272  0.52313  Biso   1.000  C
  H537     1.0000 0.29312  0.57760  0.07369  Biso   1.000  H
  H538     1.0000 0.28574  0.53832  0.97048  Biso   1.000  H
  C488     1.0000 0.19399  0.59972  0.95522  Biso   1.000  C
  C489     1.0000 0.19401  0.59978  0.95522  Biso   1.000  C
  O79      1.0000 0.98431  0.67316  0.48659  Biso   1.000  O
  O80      1.0000 0.98430  0.67311  0.48659  Biso   1.000  O
  H539     1.0000 0.93698  0.73966  0.40296  Biso   1.000  H
  H540     1.0000 0.93696  0.73960  0.40296  Biso   1.000  H
  H541     1.0000 0.99168  0.76321  0.44798  Biso   1.000  H
  H542     1.0000 0.05069  0.77256  0.47588  Biso   1.000  H
  H543     1.0000 0.05068  0.77250  0.47588  Biso   1.000  H
  H544     1.0000 0.86823  0.62010  0.93310  Biso   1.000  H
  C490     1.0000 0.96956  0.70485  0.94250  Biso   1.000  C
  H545     1.0000 0.86830  0.62016  0.93310  Biso   1.000  H
  H546     1.0000 0.99746  0.82212  0.18252  Biso   1.000  H
  C491     1.0000 0.04865  0.82685  0.09242  Biso   1.000  C
  C492     1.0000 0.04863  0.82680  0.09242  Biso   1.000  C
  C493     1.0000 0.66079  0.88768  0.54779  Biso   1.000  C
  C494     1.0000 0.66078  0.88762  0.54779  Biso   1.000  C
  H547     1.0000 0.55478  0.92701  0.47226  Biso   1.000  H
  C495     1.0000 0.47853  0.81003  0.42670  Biso   1.000  C
  C496     1.0000 0.77522  0.05417  0.55697  Biso   1.000  C
  H548     1.0000 0.68855  0.11979  0.50902  Biso   1.000  H
  H549     1.0000 0.72753  0.09480  0.43850  Biso   1.000  H
  H550     1.0000 0.72752  0.09475  0.43850  Biso   1.000  H
  H551     1.0000 0.75125  0.10447  0.54371  Biso   1.000  H
  O81      1.0000 0.71800  0.03078  0.60036  Biso   1.000  O
  H552     1.0000 0.76675  0.02487  0.51057  Biso   1.000  H
  C497     1.0000 0.55997  0.11906  0.11400  Biso   1.000  C
  C498     1.0000 0.72336  0.13250  0.22430  Biso   1.000  C
  C499     1.0000 0.72335  0.13245  0.22430  Biso   1.000  C
  C500     1.0000 0.57241  0.38314  0.19061  Biso   1.000  C
  C501     1.0000 0.57240  0.38309  0.19061  Biso   1.000  C
  H553     1.0000 0.70661  0.43872  0.22962  Biso   1.000  H
  H554     1.0000 0.63431  0.47695  0.17389  Biso   1.000  H
  H555     1.0000 0.63430  0.47689  0.17389  Biso   1.000  H
  C502     1.0000 0.98229  0.74897  0.62850  Biso   1.000  C
  C503     1.0000 0.98228  0.74891  0.62850  Biso   1.000  C
  H556     1.0000 0.71829  0.64663  0.48667  Biso   1.000  H
  C504     1.0000 0.83259  0.72997  0.62271  Biso   1.000  C
  C505     1.0000 0.83257  0.72992  0.62271  Biso   1.000  C
  H557     1.0000 0.19895  0.64913  0.99938  Biso   1.000  H
  H558     1.0000 0.18997  0.60765  0.89610  Biso   1.000  H
  C506     1.0000 0.10223  0.53673  0.91807  Biso   1.000  C
  H559     1.0000 0.96185  0.67519  0.88107  Biso   1.000  H
  H560     1.0000 0.96186  0.67525  0.88107  Biso   1.000  H
  C507     1.0000 0.03862  0.78162  0.00331  Biso   1.000  C
  C508     1.0000 0.12633  0.90775  0.15801  Biso   1.000  C
  C509     1.0000 0.12632  0.90769  0.15801  Biso   1.000  C
  C510     1.0000 0.67949  0.82186  0.56891  Biso   1.000  C
  C511     1.0000 0.73280  0.96217  0.61639  Biso   1.000  C
  C512     1.0000 0.73279  0.96212  0.61639  Biso   1.000  C
  H561     1.0000 0.47771  0.81665  0.48821  Biso   1.000  H
  C513     1.0000 0.38369  0.80462  0.34431  Biso   1.000  C
  H562     1.0000 0.48620  0.75988  0.40512  Biso   1.000  H
  H563     1.0000 0.48625  0.75982  0.40512  Biso   1.000  H
  H564     1.0000 0.78793  0.01002  0.52583  Biso   1.000  H
  H565     1.0000 0.83574  0.09933  0.60822  Biso   1.000  H
  H566     1.0000 0.78798  0.00997  0.52583  Biso   1.000  H
  H567     1.0000 0.83573  0.09927  0.60822  Biso   1.000  H
  H568     1.0000 0.49375  0.09310  0.08270  Biso   1.000  H
  C514     1.0000 0.59399  0.18530  0.09827  Biso   1.000  C
  H569     1.0000 0.49379  0.09304  0.08270  Biso   1.000  H
  C515     1.0000 0.59397  0.18524  0.09827  Biso   1.000  C
  C516     1.0000 0.75680  0.19971  0.21012  Biso   1.000  C
  H570     1.0000 0.76734  0.11451  0.26638  Biso   1.000  H
  C517     1.0000 0.75679  0.19966  0.21012  Biso   1.000  C
  H571     1.0000 0.76733  0.11445  0.26638  Biso   1.000  H
  C518     1.0000 0.48028  0.37121  0.17620  Biso   1.000  C
  H572     1.0000 0.60067  0.35761  0.23678  Biso   1.000  H
  H573     1.0000 0.55749  0.34902  0.12433  Biso   1.000  H
  H574     1.0000 0.55755  0.34902  0.12433  Biso   1.000  H
  C519     1.0000 0.93407  0.76884  0.67767  Biso   1.000  C
  O82      1.0000 0.08111  0.79068  0.68029  Biso   1.000  O
  O83      1.0000 0.08110  0.79063  0.68029  Biso   1.000  O
  C520     1.0000 0.77988  0.75648  0.67351  Biso   1.000  C
  C521     1.0000 0.77987  0.75642  0.67351  Biso   1.000  C
  H575     1.0000 0.04967  0.55405  0.88700  Biso   1.000  H
  H576     1.0000 0.10520  0.52654  0.97503  Biso   1.000  H
  H577     1.0000 0.09204  0.48870  0.86797  Biso   1.000  H
  H578     1.0000 0.09205  0.48875  0.86797  Biso   1.000  H
  H579     1.0000 0.07868  0.80293  0.98381  Biso   1.000  H
  H580     1.0000 0.07869  0.80299  0.98381  Biso   1.000  H
  H581     1.0000 0.18857  0.90271  0.19246  Biso   1.000  H
  H582     1.0000 0.12653  0.93590  0.11477  Biso   1.000  H
  O84      1.0000 0.11293  0.95264  0.23301  Biso   1.000  O
  H583     1.0000 0.18863  0.90271  0.19246  Biso   1.000  H
  C522     1.0000 0.76239  0.83116  0.65501  Biso   1.000  C
  H584     1.0000 0.63394  0.77054  0.52282  Biso   1.000  H
  C523     1.0000 0.81481  0.97249  0.70172  Biso   1.000  C
  C524     1.0000 0.81480  0.97243  0.70172  Biso   1.000  C
  H585     1.0000 0.38312  0.79754  0.28203  Biso   1.000  H
  H586     1.0000 0.37410  0.85383  0.36550  Biso   1.000  H
  C525     1.0000 0.30011  0.73295  0.32219  Biso   1.000  C
  C526     1.0000 0.30009  0.73289  0.32219  Biso   1.000  C
  H587     1.0000 0.55028  0.20246  0.05442  Biso   1.000  H
  C527     1.0000 0.69149  0.22580  0.14691  Biso   1.000  C
  C528     1.0000 0.69147  0.22575  0.14691  Biso   1.000  C
  C529     1.0000 0.86147  0.24459  0.25852  Biso   1.000  C
  H588     1.0000 0.48412  0.38862  0.24072  Biso   1.000  H
  H589     1.0000 0.43471  0.31641  0.13250  Biso   1.000  H
  C530     1.0000 0.45738  0.43071  0.11916  Biso   1.000  C
  O85      1.0000 0.98738  0.82178  0.77749  Biso   1.000  O
  O86      1.0000 0.98736  0.82173  0.77749  Biso   1.000  O
  C531     1.0000 0.13850  0.75548  0.74149  Biso   1.000  C
  C532     1.0000 0.13849  0.75542  0.74149  Biso   1.000  C
  H590     1.0000 0.82550  0.77456  0.74789  Biso   1.000  H
  C533     1.0000 0.69103  0.69104  0.64453  Biso   1.000  C
  C534     1.0000 0.18516  0.02757  0.29829  Biso   1.000  C
  C535     1.0000 0.83125  0.90605  0.72207  Biso   1.000  C
  C536     1.0000 0.83131  0.90605  0.72207  Biso   1.000  C
  O87      1.0000 0.88705  0.04743  0.76700  Biso   1.000  O
  O88      1.0000 0.88704  0.04737  0.76700  Biso   1.000  O
  H591     1.0000 0.30089  0.74034  0.38477  Biso   1.000  H
  H592     1.0000 0.31026  0.68392  0.30176  Biso   1.000  H
  C537     1.0000 0.20650  0.72584  0.24156  Biso   1.000  C
  H593     1.0000 0.31032  0.68392  0.30176  Biso   1.000  H
  C538     1.0000 0.20649  0.72579  0.24156  Biso   1.000  C
  H594     1.0000 0.71369  0.27086  0.13720  Biso   1.000  H
  H595     1.0000 0.87384  0.24475  0.20526  Biso   1.000  H
  H596     1.0000 0.87925  0.29956  0.30138  Biso   1.000  H
  O89      1.0000 0.91886  0.20938  0.31972  Biso   1.000  O
  H597     1.0000 0.42402  0.45902  0.14098  Biso   1.000  H
  H598     1.0000 0.51701  0.46802  0.13697  Biso   1.000  H
  H599     1.0000 0.41702  0.40042  0.04586  Biso   1.000  H
  H600     1.0000 0.41701  0.40037  0.04586  Biso   1.000  H
  C539     1.0000 0.98619  0.91262  0.79236  Biso   1.000  C
  C540     1.0000 0.01637  0.89696  0.79028  Biso   1.000  C
  C541     1.0000 0.24317  0.80035  0.78990  Biso   1.000  C
  H601     1.0000 0.12608  0.75523  0.79468  Biso   1.000  H
  H602     1.0000 0.12067  0.70043  0.69856  Biso   1.000  H
  H603     1.0000 0.65477  0.71515  0.66688  Biso   1.000  H
  H604     1.0000 0.65022  0.66355  0.56999  Biso   1.000  H
  C542     1.0000 0.71210  0.63065  0.68993  Biso   1.000  C
  C543     1.0000 0.26717  0.03789  0.38362  Biso   1.000  C
  C544     1.0000 0.16862  0.09399  0.27787  Biso   1.000  C
  C545     1.0000 0.16861  0.09394  0.27787  Biso   1.000  C
  O90      1.0000 0.91019  0.91876  0.81526  Biso   1.000  O
  C546     1.0000 0.87364  0.09231  0.84200  Biso   1.000  C
  H605     1.0000 0.19192  0.77164  0.26499  Biso   1.000  H
  C547     1.0000 0.12624  0.64605  0.21343  Biso   1.000  C
  H606     1.0000 0.20733  0.72457  0.18121  Biso   1.000  H
  H607     1.0000 0.20732  0.72451  0.18121  Biso   1.000  H
  C548     1.0000 0.01768  0.25109  0.37152  Biso   1.000  C
  H608     1.0000 0.97902  0.90105  0.72500  Biso   1.000  H
  H609     1.0000 0.97050  0.92095  0.73001  Biso   1.000  H
  C549     1.0000 0.00519  0.94706  0.86566  Biso   1.000  C
  H610     1.0000 0.04909  0.95287  0.84878  Biso   1.000  H
  H611     1.0000 0.08387  0.91568  0.81256  Biso   1.000  H
  H612     1.0000 0.08386  0.91562  0.81256  Biso   1.000  H
  C550     1.0000 0.30849  0.77426  0.85310  Biso   1.000  C
  C551     1.0000 0.27661  0.86756  0.77571  Biso   1.000  C
  H613     1.0000 0.74457  0.65674  0.76400  Biso   1.000  H
  H614     1.0000 0.75641  0.61258  0.67621  Biso   1.000  H
  C552     1.0000 0.62325  0.55812  0.64908  Biso   1.000  C
  H615     1.0000 0.75640  0.61252  0.67621  Biso   1.000  H
  C553     1.0000 0.62330  0.55812  0.64908  Biso   1.000  C
  O91      1.0000 0.28193  0.96926  0.39957  Biso   1.000  O
  O92      1.0000 0.28192  0.96921  0.39957  Biso   1.000  O
  C554     1.0000 0.33912  0.11238  0.45222  Biso   1.000  C
  C555     1.0000 0.33918  0.11238  0.45222  Biso   1.000  C
  C556     1.0000 0.23758  0.16890  0.34500  Biso   1.000  C
  O93      1.0000 0.08975  0.08128  0.18468  Biso   1.000  O
  C557     1.0000 0.23757  0.16885  0.34500  Biso   1.000  C
  C558     1.0000 0.95133  0.17321  0.90760  Biso   1.000  C
  H616     1.0000 0.81130  0.09733  0.80747  Biso   1.000  H
  H617     1.0000 0.87339  0.06409  0.88517  Biso   1.000  H
  H618     1.0000 0.81129  0.09727  0.80747  Biso   1.000  H
  H619     1.0000 0.06721  0.63452  0.15023  Biso   1.000  H
  H620     1.0000 0.11502  0.65272  0.26769  Biso   1.000  H
  H621     1.0000 0.14805  0.60264  0.20503  Biso   1.000  H
  C559     1.0000 0.06763  0.30796  0.47126  Biso   1.000  C
  C560     1.0000 0.06586  0.23120  0.32226  Biso   1.000  C
  C561     1.0000 0.06585  0.23115  0.32226  Biso   1.000  C
  H622     1.0000 0.03466  0.93934  0.92949  Biso   1.000  H
  H623     1.0000 0.03142  0.00315  0.87992  Biso   1.000  H
  H624     1.0000 0.03141  0.00309  0.87992  Biso   1.000  H
  C562     1.0000 0.40595  0.81474  0.90166  Biso   1.000  C
  H625     1.0000 0.28628  0.72915  0.86281  Biso   1.000  H
  C563     1.0000 0.37525  0.90818  0.82366  Biso   1.000  C
  H626     1.0000 0.23260  0.88553  0.73355  Biso   1.000  H
  C564     1.0000 0.37530  0.90813  0.82366  Biso   1.000  C
  H627     1.0000 0.57347  0.57635  0.64938  Biso   1.000  H
  C565     1.0000 0.64128  0.50635  0.70912  Biso   1.000  C
  H628     1.0000 0.59871  0.52588  0.57809  Biso   1.000  H
  H629     1.0000 0.59870  0.52582  0.57809  Biso   1.000  H
  C566     1.0000 0.22470  0.94582  0.44297  Biso   1.000  C
  C567     1.0000 0.27683  0.95308  0.47912  Biso   1.000  C
  C568     1.0000 0.32048  0.17820  0.43110  Biso   1.000  C
  C569     1.0000 0.43407  0.12262  0.54571  Biso   1.000  C
  C570     1.0000 0.43405  0.12257  0.54571  Biso   1.000  C
  C571     1.0000 0.22003  0.24359  0.32650  Biso   1.000  C
  C572     1.0000 0.22009  0.24359  0.32650  Biso   1.000  C
  C573     1.0000 0.99474  0.05298  0.13427  Biso   1.000  C
  C574     1.0000 0.01373  0.08737  0.20757  Biso   1.000  C
  C575     1.0000 0.96136  0.21844  0.99670  Biso   1.000  C
  C576     1.0000 0.96134  0.21838  0.99670  Biso   1.000  C
  C577     1.0000 0.00995  0.20730  0.87869  Biso   1.000  C
  O94      1.0000 0.01566  0.32690  0.51342  Biso   1.000  O
  C578     1.0000 0.16665  0.34789  0.52560  Biso   1.000  C
  C579     1.0000 0.16733  0.27009  0.37730  Biso   1.000  C
  C580     1.0000 0.16739  0.27009  0.37730  Biso   1.000  C
  O95      1.0000 0.01260  0.17828  0.22252  Biso   1.000  O
  C581     1.0000 0.44000  0.88095  0.88601  Biso   1.000  C
  H630     1.0000 0.44970  0.79760  0.94560  Biso   1.000  H
  H631     1.0000 0.44968  0.79754  0.94560  Biso   1.000  H
  C582     1.0000 0.41762  0.97858  0.81179  Biso   1.000  C
  C583     1.0000 0.41761  0.97852  0.81179  Biso   1.000  C
  H632     1.0000 0.65957  0.53693  0.77826  Biso   1.000  H
  H633     1.0000 0.69528  0.49228  0.71459  Biso   1.000  H
  C584     1.0000 0.55298  0.42917  0.66017  Biso   1.000  C
  H634     1.0000 0.69526  0.49223  0.71459  Biso   1.000  H
  C585     1.0000 0.55297  0.42911  0.66017  Biso   1.000  C
  C586     1.0000 0.29831  0.92312  0.52429  Biso   1.000  C
  H635     1.0000 0.21198  0.99004  0.47418  Biso   1.000  H
  H636     1.0000 0.16423  0.90074  0.39179  Biso   1.000  H
  H637     1.0000 0.23318  0.97517  0.48937  Biso   1.000  H
  H638     1.0000 0.24871  0.89554  0.45630  Biso   1.000  H
  O96      1.0000 0.37899  0.98786  0.58880  Biso   1.000  O
  H639     1.0000 0.36603  0.22947  0.47719  Biso   1.000  H
  C587     1.0000 0.41973  0.12901  0.63320  Biso   1.000  C
  H640     1.0000 0.44514  0.07297  0.52768  Biso   1.000  H
  C588     1.0000 0.52144  0.19003  0.57331  Biso   1.000  C
  C589     1.0000 0.52143  0.18998  0.57331  Biso   1.000  C
  H641     1.0000 0.17447  0.22551  0.25212  Biso   1.000  H
  C590     1.0000 0.30893  0.30897  0.35548  Biso   1.000  C
  H642     1.0000 0.17446  0.22545  0.25212  Biso   1.000  H
  H643     1.0000 0.96849  0.99692  0.12009  Biso   1.000  H
  H644     1.0000 0.96855  0.99692  0.12009  Biso   1.000  H
  C591     1.0000 0.98355  0.10310  0.20973  Biso   1.000  C
  H645     1.0000 0.96530  0.06066  0.07053  Biso   1.000  H
  C592     1.0000 0.98360  0.10305  0.20973  Biso   1.000  C
  H646     1.0000 0.95088  0.04720  0.15123  Biso   1.000  H
  H647     1.0000 0.02095  0.09902  0.27501  Biso   1.000  H
  H648     1.0000 0.02094  0.09896  0.27501  Biso   1.000  H
  H649     1.0000 0.02947  0.07911  0.27000  Biso   1.000  H
  H650     1.0000 0.92129  0.19708  0.01620  Biso   1.000  H
  H651     1.0000 0.92130  0.19713  0.01620  Biso   1.000  H
  C593     1.0000 0.03040  0.29516  0.05751  Biso   1.000  C
  C594     1.0000 0.03041  0.29521  0.05751  Biso   1.000  C
  C595     1.0000 0.07854  0.28342  0.93827  Biso   1.000  C
  H652     1.0000 0.00252  0.17794  0.81749  Biso   1.000  H
  H653     1.0000 0.00251  0.17788  0.81749  Biso   1.000  H
  C596     1.0000 0.00724  0.27571  0.57022  Biso   1.000  C
  C597     1.0000 0.00008  0.28742  0.56791  Biso   1.000  C
  C598     1.0000 0.21485  0.32729  0.47688  Biso   1.000  C
  C599     1.0000 0.21991  0.40748  0.63566  Biso   1.000  C
  H654     1.0000 0.50617  0.90696  0.91731  Biso   1.000  H
  H655     1.0000 0.50623  0.90696  0.91731  Biso   1.000  H
  O97      1.0000 0.34026  0.99733  0.73856  Biso   1.000  O
  H656     1.0000 0.45830  0.96823  0.78666  Biso   1.000  H
  H657     1.0000 0.45772  0.02379  0.87800  Biso   1.000  H
  H658     1.0000 0.56457  0.40366  0.70750  Biso   1.000  H
  H659     1.0000 0.49672  0.44206  0.64460  Biso   1.000  H
  H660     1.0000 0.54251  0.39366  0.59790  Biso   1.000  H
  H661     1.0000 0.54249  0.39361  0.59790  Biso   1.000  H
  H662     1.0000 0.31142  0.88028  0.49099  Biso   1.000  H
  H663     1.0000 0.27244  0.90526  0.56151  Biso   1.000  H
  H664     1.0000 0.31141  0.88022  0.49099  Biso   1.000  H
  C600     1.0000 0.38878  0.06217  0.64946  Biso   1.000  C
  C601     1.0000 0.38884  0.06217  0.64946  Biso   1.000  C
  C602     1.0000 0.43482  0.20121  0.70110  Biso   1.000  C
  H665     1.0000 0.51372  0.24018  0.59489  Biso   1.000  H
  H666     1.0000 0.52226  0.18341  0.51180  Biso   1.000  H
  C603     1.0000 0.61627  0.19539  0.65570  Biso   1.000  C
  H667     1.0000 0.52225  0.18336  0.51180  Biso   1.000  H
  H668     1.0000 0.34520  0.28492  0.33313  Biso   1.000  H
  H669     1.0000 0.34976  0.33651  0.43002  Biso   1.000  H
  C604     1.0000 0.28787  0.36941  0.31009  Biso   1.000  C
  H670     1.0000 0.34519  0.28486  0.33313  Biso   1.000  H
  H671     1.0000 0.34974  0.33646  0.43002  Biso   1.000  H
  C605     1.0000 0.28786  0.36935  0.31009  Biso   1.000  C
  H672     1.0000 0.91606  0.08436  0.18738  Biso   1.000  H
  C606     1.0000 0.08688  0.32751  0.02722  Biso   1.000  C
  H673     1.0000 0.03808  0.32479  0.11887  Biso   1.000  H
  C607     1.0000 0.14722  0.32153  0.91261  Biso   1.000  C
  C608     1.0000 0.14721  0.32148  0.91261  Biso   1.000  C
  C609     1.0000 0.00328  0.31909  0.64761  Biso   1.000  C
  H674     1.0000 0.94928  0.22750  0.52413  Biso   1.000  H
  H675     1.0000 0.93576  0.27791  0.55481  Biso   1.000  H
  H676     1.0000 0.06296  0.26038  0.59697  Biso   1.000  H
  H677     1.0000 0.00824  0.23677  0.55196  Biso   1.000  H
  H678     1.0000 0.28165  0.35341  0.51326  Biso   1.000  H
  H679     1.0000 0.28164  0.35336  0.51326  Biso   1.000  H
  C610     1.0000 0.24096  0.36523  0.70712  Biso   1.000  C
  C611     1.0000 0.24095  0.36518  0.70712  Biso   1.000  C
  H680     1.0000 0.17336  0.42982  0.63967  Biso   1.000  H
  C612     1.0000 0.30714  0.47930  0.66950  Biso   1.000  C
  H681     1.0000 0.17335  0.42976  0.63967  Biso   1.000  H
  C613     1.0000 0.37231  0.06530  0.72646  Biso   1.000  C
  C614     1.0000 0.42115  0.20803  0.78119  Biso   1.000  C
  C615     1.0000 0.42113  0.20798  0.78119  Biso   1.000  C
  H682     1.0000 0.45510  0.24747  0.69247  Biso   1.000  H
  H683     1.0000 0.61685  0.20252  0.71798  Biso   1.000  H
  H684     1.0000 0.62587  0.14623  0.63451  Biso   1.000  H
  C616     1.0000 0.69987  0.26712  0.67783  Biso   1.000  C
  H685     1.0000 0.61684  0.20247  0.71798  Biso   1.000  H
  H686     1.0000 0.62586  0.14618  0.63451  Biso   1.000  H
  H687     1.0000 0.25539  0.34327  0.23601  Biso   1.000  H
  H688     1.0000 0.24356  0.38748  0.32381  Biso   1.000  H
  C617     1.0000 0.37662  0.44186  0.35086  Biso   1.000  C
  C618     1.0000 0.37668  0.44186  0.35086  Biso   1.000  C
  H689     1.0000 0.13167  0.37991  0.06692  Biso   1.000  H
  O98      1.0000 0.12785  0.26802  0.81818  Biso   1.000  O
  H690     1.0000 0.21347  0.33504  0.96772  Biso   1.000  H
  H691     1.0000 0.13984  0.37049  0.90629  Biso   1.000  H
  O99      1.0000 0.12784  0.26797  0.81818  Biso   1.000  O
  O100     1.0000 0.09716  0.35981  0.70519  Biso   1.000  O
  H692     1.0000 0.98086  0.28719  0.67721  Biso   1.000  H
  H693     1.0000 0.96571  0.35211  0.62896  Biso   1.000  H
  H694     1.0000 0.96575  0.35205  0.62896  Biso   1.000  H
  C619     1.0000 0.32478  0.34763  0.74712  Biso   1.000  C
  C620     1.0000 0.32477  0.34758  0.74712  Biso   1.000  C
  C621     1.0000 0.17843  0.33733  0.73409  Biso   1.000  C
  C622     1.0000 0.17842  0.33727  0.73409  Biso   1.000  C
  H695     1.0000 0.35844  0.46132  0.67382  Biso   1.000  H
  H696     1.0000 0.28876  0.50139  0.61770  Biso   1.000  H
  C623     1.0000 0.34597  0.54542  0.77448  Biso   1.000  C
  C624     1.0000 0.39119  0.14012  0.79437  Biso   1.000  C
  C625     1.0000 0.39124  0.14007  0.79437  Biso   1.000  C
  C626     1.0000 0.43793  0.28864  0.85449  Biso   1.000  C
  C627     1.0000 0.43791  0.28859  0.85449  Biso   1.000  C
  H697     1.0000 0.68962  0.31612  0.69817  Biso   1.000  H
  H698     1.0000 0.69905  0.25970  0.61516  Biso   1.000  H
  C628     1.0000 0.79343  0.27419  0.75837  Biso   1.000  C
  H699     1.0000 0.68960  0.31606  0.69817  Biso   1.000  H
  H700     1.0000 0.42650  0.42372  0.35063  Biso   1.000  H
  H701     1.0000 0.40126  0.47419  0.42193  Biso   1.000  H
  C629     1.0000 0.35869  0.49371  0.29089  Biso   1.000  C
  H702     1.0000 0.42649  0.42366  0.35063  Biso   1.000  H
  C630     1.0000 0.35868  0.49366  0.29089  Biso   1.000  C
  C631     1.0000 0.19468  0.29694  0.79622  Biso   1.000  C
  C632     1.0000 0.19467  0.29688  0.79622  Biso   1.000  C
  C633     1.0000 0.34565  0.30609  0.81048  Biso   1.000  C
  H703     1.0000 0.36896  0.36479  0.73032  Biso   1.000  H
  H704     1.0000 0.36566  0.52312  0.82612  Biso   1.000  H
  H705     1.0000 0.29336  0.56134  0.77040  Biso   1.000  H
  C634     1.0000 0.42757  0.61692  0.80940  Biso   1.000  C
  H706     1.0000 0.29335  0.56128  0.77040  Biso   1.000  H
  O101     1.0000 0.38201  0.14360  0.87638  Biso   1.000  O
  H707     1.0000 0.44960  0.28203  0.91746  Biso   1.000  H
  C635     1.0000 0.52835  0.35679  0.88709  Biso   1.000  C
  H708     1.0000 0.44958  0.28197  0.91746  Biso   1.000  H
  H709     1.0000 0.79265  0.27550  0.81880  Biso   1.000  H
  H710     1.0000 0.80805  0.22842  0.73502  Biso   1.000  H
  C636     1.0000 0.87374  0.35401  0.78658  Biso   1.000  C
  H711     1.0000 0.34035  0.46306  0.22168  Biso   1.000  H
  H712     1.0000 0.30470  0.50778  0.28542  Biso   1.000  H
  C637     1.0000 0.44695  0.57087  0.33976  Biso   1.000  C
  C638     1.0000 0.27759  0.27819  0.83237  Biso   1.000  C
  C639     1.0000 0.27765  0.27819  0.83237  Biso   1.000  C
  H713     1.0000 0.44242  0.65104  0.87569  Biso   1.000  H
  H714     1.0000 0.39929  0.64240  0.76323  Biso   1.000  H
  C640     1.0000 0.51968  0.62880  0.82381  Biso   1.000  C
  H715     1.0000 0.44247  0.65099  0.87569  Biso   1.000  H
  C641     1.0000 0.30061  0.11020  0.87268  Biso   1.000  C
  C642     1.0000 0.28692  0.15433  0.85649  Biso   1.000  C
  H716     1.0000 0.53085  0.40646  0.92802  Biso   1.000  H
  H717     1.0000 0.52229  0.36159  0.82566  Biso   1.000  H
  C643     1.0000 0.62240  0.34682  0.94806  Biso   1.000  C
  H718     1.0000 0.53084  0.40640  0.92802  Biso   1.000  H
  C644     1.0000 0.62238  0.34676  0.94806  Biso   1.000  C
  H719     1.0000 0.93276  0.36549  0.84979  Biso   1.000  H
  H720     1.0000 0.88494  0.34729  0.73232  Biso   1.000  H
  H721     1.0000 0.85192  0.39743  0.79498  Biso   1.000  H
  H722     1.0000 0.85191  0.39737  0.79498  Biso   1.000  H
  H723     1.0000 0.43540  0.59640  0.29251  Biso   1.000  H
  H724     1.0000 0.45747  0.60640  0.40212  Biso   1.000  H
  H725     1.0000 0.50326  0.55800  0.35541  Biso   1.000  H
  H726     1.0000 0.43539  0.59635  0.29251  Biso   1.000  H
  H727     1.0000 0.50325  0.55795  0.35541  Biso   1.000  H
  O102     1.0000 0.29243  0.23680  0.89357  Biso   1.000  O
  H728     1.0000 0.51586  0.61144  0.75930  Biso   1.000  H
  H729     1.0000 0.56527  0.68365  0.86751  Biso   1.000  H
  C645     1.0000 0.54255  0.56933  0.88077  Biso   1.000  C
  H730     1.0000 0.51584  0.61139  0.75930  Biso   1.000  H
  H731     1.0000 0.56525  0.68360  0.86751  Biso   1.000  H
  C646     1.0000 0.54254  0.56928  0.88077  Biso   1.000  C
  C647     1.0000 0.23693  0.15129  0.82528  Biso   1.000  C
  H732     1.0000 0.27071  0.05312  0.83098  Biso   1.000  H
  H733     1.0000 0.31494  0.11903  0.94128  Biso   1.000  H
  H734     1.0000 0.27070  0.05307  0.83098  Biso   1.000  H
  H735     1.0000 0.31493  0.11897  0.94128  Biso   1.000  H
  H736     1.0000 0.26345  0.12605  0.88840  Biso   1.000  H
  H737     1.0000 0.23904  0.12880  0.78281  Biso   1.000  H
  H738     1.0000 0.62091  0.29851  0.90567  Biso   1.000  H
  C648     1.0000 0.71109  0.41360  0.98506  Biso   1.000  C
  H739     1.0000 0.62660  0.33897  0.00741  Biso   1.000  H
  H740     1.0000 0.62661  0.33902  0.00741  Biso   1.000  H
  H741     1.0000 0.57591  0.54101  0.85896  Biso   1.000  H
  H742     1.0000 0.58291  0.59962  0.95407  Biso   1.000  H
  H743     1.0000 0.48293  0.53202  0.86297  Biso   1.000  H
  H744     1.0000 0.48291  0.53197  0.86297  Biso   1.000  H
  H745     1.0000 0.17683  0.13280  0.82150  Biso   1.000  H
  H746     1.0000 0.22222  0.14192  0.75637  Biso   1.000  H
  H747     1.0000 0.22221  0.14187  0.75637  Biso   1.000  H
  H748     1.0000 0.70684  0.42241  0.92633  Biso   1.000  H
  H749     1.0000 0.71418  0.46166  0.02946  Biso   1.000  H
  C649     1.0000 0.80597  0.40029  0.04479  Biso   1.000  C
  H750     1.0000 0.71419  0.46172  0.02946  Biso   1.000  H
  H751     1.0000 0.80097  0.35085  0.00055  Biso   1.000  H
  H752     1.0000 0.80999  0.39236  0.10391  Biso   1.000  H
  C650     1.0000 0.89769  0.46326  0.08187  Biso   1.000  C
  H753     1.0000 0.80099  0.35091  0.00055  Biso   1.000  H
  H754     1.0000 0.81000  0.39242  0.10391  Biso   1.000  H
  C651     1.0000 0.89770  0.46331  0.08187  Biso   1.000  C
  H755     1.0000 0.95029  0.44596  0.11301  Biso   1.000  H
  H756     1.0000 0.89476  0.47347  0.02499  Biso   1.000  H
  H757     1.0000 0.90788  0.51129  0.13197  Biso   1.000  H
  H758     1.0000 0.95031  0.44602  0.11301  Biso   1.000  H
  H759     1.0000 0.89477  0.47352  0.02499  Biso   1.000  H
  C652     1.0000 0.76303  0.84872  0.17474  Biso   1.000  C
  O103     1.0000 0.70750  0.76324  0.10637  Biso   1.000  O
  O104     1.0000 0.70749  0.76318  0.10637  Biso   1.000  O
  H760     1.0000 0.77772  0.85812  0.24357  Biso   1.000  H
  C653     1.0000 0.69937  0.88987  0.12733  Biso   1.000  C
  H761     1.0000 0.82315  0.86726  0.17851  Biso   1.000  H
  C654     1.0000 0.69936  0.88981  0.12733  Biso   1.000  C
  H762     1.0000 0.82314  0.86720  0.17851  Biso   1.000  H
  H763     1.0000 0.73653  0.87402  0.11161  Biso   1.000  H
  H764     1.0000 0.76092  0.87121  0.21721  Biso   1.000  H
  C655     1.0000 0.72228  0.72185  0.16757  Biso   1.000  C
  C656     1.0000 0.72233  0.72179  0.16757  Biso   1.000  C
  C657     1.0000 0.71305  0.84573  0.14352  Biso   1.000  C
  O105     1.0000 0.61796  0.85646  0.12363  Biso   1.000  O
  O106     1.0000 0.61795  0.85640  0.12363  Biso   1.000  O
  H765     1.0000 0.72926  0.94694  0.16903  Biso   1.000  H
  H766     1.0000 0.68503  0.88104  0.05873  Biso   1.000  H
  C658     1.0000 0.65433  0.69397  0.18954  Biso   1.000  C
  C659     1.0000 0.65432  0.69392  0.18954  Biso   1.000  C
  C660     1.0000 0.80529  0.70312  0.20379  Biso   1.000  C
  C661     1.0000 0.60868  0.85992  0.20557  Biso   1.000  C
  C662     1.0000 0.67520  0.65243  0.25289  Biso   1.000  C
  C663     1.0000 0.56205  0.71142  0.14552  Biso   1.000  C
  C664     1.0000 0.82154  0.66273  0.26592  Biso   1.000  C
  O107     1.0000 0.87212  0.73204  0.18183  Biso   1.000  O
  C665     1.0000 0.57883  0.79203  0.21882  Biso   1.000  C
  C666     1.0000 0.62762  0.93474  0.27347  Biso   1.000  C
  C667     1.0000 0.75902  0.63483  0.29290  Biso   1.000  C
  H767     1.0000 0.63100  0.63521  0.26970  Biso   1.000  H
  C668     1.0000 0.47161  0.64321  0.11292  Biso   1.000  C
  H768     1.0000 0.55028  0.71801  0.08247  Biso   1.000  H
  H769     1.0000 0.55034  0.71801  0.08247  Biso   1.000  H
  O108     1.0000 0.90282  0.64025  0.29482  Biso   1.000  O
  C669     1.0000 0.85270  0.67853  0.08741  Biso   1.000  C
  C670     1.0000 0.85276  0.67853  0.08741  Biso   1.000  C
  C671     1.0000 0.56509  0.79886  0.29891  Biso   1.000  C
  C672     1.0000 0.56514  0.79880  0.29891  Biso   1.000  C
  C673     1.0000 0.61108  0.93781  0.35047  Biso   1.000  C
  O109     1.0000 0.65960  0.00265  0.26137  Biso   1.000  O
  O110     1.0000 0.65966  0.00265  0.26137  Biso   1.000  O
  C674     1.0000 0.77997  0.59256  0.36427  Biso   1.000  C
  C675     1.0000 0.78001  0.59250  0.36427  Biso   1.000  C
  H770     1.0000 0.46912  0.59361  0.07199  Biso   1.000  H
  H771     1.0000 0.47758  0.63845  0.17427  Biso   1.000  H
  C676     1.0000 0.37748  0.65322  0.05187  Biso   1.000  C
  H772     1.0000 0.47763  0.63840  0.17427  Biso   1.000  H
  C677     1.0000 0.37754  0.65322  0.05187  Biso   1.000  C
  C678     1.0000 0.99670  0.68097  0.35240  Biso   1.000  C
  C679     1.0000 0.99669  0.68091  0.35240  Biso   1.000  C
  H773     1.0000 0.78651  0.66503  0.03230  Biso   1.000  H
  H774     1.0000 0.86012  0.62951  0.09373  Biso   1.000  H
  C680     1.0000 0.92139  0.71662  0.06166  Biso   1.000  C
  C681     1.0000 0.58024  0.87105  0.36682  Biso   1.000  C
  H775     1.0000 0.54482  0.75251  0.30746  Biso   1.000  H
  O111     1.0000 0.62098  0.01221  0.41121  Biso   1.000  O
  O112     1.0000 0.62097  0.01215  0.41121  Biso   1.000  O
  C682     1.0000 0.58235  0.02149  0.18822  Biso   1.000  C
  C683     1.0000 0.69283  0.52076  0.33051  Biso   1.000  C
  C684     1.0000 0.69282  0.52070  0.33051  Biso   1.000  C
  H776     1.0000 0.82658  0.57022  0.36026  Biso   1.000  H
  C685     1.0000 0.83333  0.65217  0.47442  Biso   1.000  C
  C686     1.0000 0.83331  0.65212  0.47442  Biso   1.000  C
  H777     1.0000 0.37336  0.66104  0.99260  Biso   1.000  H
  H778     1.0000 0.37902  0.70153  0.09427  Biso   1.000  H
  C687     1.0000 0.28879  0.58644  0.01488  Biso   1.000  C
  H779     1.0000 0.37901  0.70148  0.09427  Biso   1.000  H
  C688     1.0000 0.28883  0.58638  0.01488  Biso   1.000  C
  C689     1.0000 0.99267  0.72436  0.42979  Biso   1.000  C
  C690     1.0000 0.99272  0.72430  0.42979  Biso   1.000  C
  C691     1.0000 0.99990  0.71264  0.43210  Biso   1.000  C
  H780     1.0000 0.01910  0.71282  0.32280  Biso   1.000  H
  H781     1.0000 0.03417  0.64793  0.37098  Biso   1.000  H
  H782     1.0000 0.03423  0.64793  0.37098  Biso   1.000  H
  H783     1.0000 0.06421  0.72215  0.44520  Biso   1.000  H
  C692     1.0000 0.91308  0.67250  0.97279  Biso   1.000  C
  C693     1.0000 0.91309  0.67256  0.97279  Biso   1.000  C
  C694     1.0000 0.99003  0.79276  0.12132  Biso   1.000  C
  C695     1.0000 0.99002  0.79271  0.12132  Biso   1.000  C
  C696     1.0000 0.56591  0.87744  0.45430  Biso   1.000  C
  C697     1.0000 0.70165  0.07688  0.47573  Biso   1.000  C
  C698     1.0000 0.72315  0.04698  0.52089  Biso   1.000  C
  H784     1.0000 0.54225  0.97621  0.12201  Biso   1.000  H
  H785     1.0000 0.54163  0.03175  0.21328  Biso   1.000  H
  C699     1.0000 0.62462  0.09186  0.17628  Biso   1.000  C
  C700     1.0000 0.62468  0.09186  0.17628  Biso   1.000  C
  C701     1.0000 0.65400  0.45465  0.22553  Biso   1.000  C
  H786     1.0000 0.64148  0.53874  0.32619  Biso   1.000  H
  H787     1.0000 0.71121  0.49867  0.38231  Biso   1.000  H
  H788     1.0000 0.64153  0.53874  0.32619  Biso   1.000  H
  H789     1.0000 0.71120  0.49862  0.38231  Biso   1.000  H
  C702     1.0000 0.93230  0.69202  0.52868  Biso   1.000  C
  C703     1.0000 0.78513  0.67277  0.52313  Biso   1.000  C
  C704     1.0000 0.78511  0.67272  0.52313  Biso   1.000  C
  H790     1.0000 0.29312  0.57760  0.07369  Biso   1.000  H
  H791     1.0000 0.28574  0.53832  0.97048  Biso   1.000  H
  C705     1.0000 0.19399  0.59972  0.95522  Biso   1.000  C
  C706     1.0000 0.19401  0.59978  0.95522  Biso   1.000  C
  O113     1.0000 0.98431  0.67316  0.48659  Biso   1.000  O
  O114     1.0000 0.98430  0.67311  0.48659  Biso   1.000  O
  H792     1.0000 0.93698  0.73966  0.40296  Biso   1.000  H
  H793     1.0000 0.93696  0.73960  0.40296  Biso   1.000  H
  H794     1.0000 0.99168  0.76321  0.44798  Biso   1.000  H
  H795     1.0000 0.05069  0.77256  0.47588  Biso   1.000  H
  H796     1.0000 0.05068  0.77250  0.47588  Biso   1.000  H
  H797     1.0000 0.86823  0.62010  0.93310  Biso   1.000  H
  C707     1.0000 0.96956  0.70485  0.94250  Biso   1.000  C
  H798     1.0000 0.86830  0.62016  0.93310  Biso   1.000  H
  H799     1.0000 0.99746  0.82212  0.18252  Biso   1.000  H
  C708     1.0000 0.04865  0.82685  0.09242  Biso   1.000  C
  C709     1.0000 0.04863  0.82680  0.09242  Biso   1.000  C
  C710     1.0000 0.66079  0.88768  0.54779  Biso   1.000  C
  C711     1.0000 0.66078  0.88762  0.54779  Biso   1.000  C
  H800     1.0000 0.55478  0.92701  0.47226  Biso   1.000  H
  C712     1.0000 0.47853  0.81003  0.42670  Biso   1.000  C
  C713     1.0000 0.77522  0.05417  0.55697  Biso   1.000  C
  H801     1.0000 0.68855  0.11979  0.50902  Biso   1.000  H
  H802     1.0000 0.72753  0.09480  0.43850  Biso   1.000  H
  H803     1.0000 0.72752  0.09475  0.43850  Biso   1.000  H
  H804     1.0000 0.75125  0.10447  0.54371  Biso   1.000  H
  O115     1.0000 0.71800  0.03078  0.60036  Biso   1.000  O
  H805     1.0000 0.76675  0.02487  0.51057  Biso   1.000  H
  C714     1.0000 0.55997  0.11906  0.11400  Biso   1.000  C
  C715     1.0000 0.72336  0.13250  0.22430  Biso   1.000  C
  C716     1.0000 0.72335  0.13245  0.22430  Biso   1.000  C
  C717     1.0000 0.57241  0.38314  0.19061  Biso   1.000  C
  C718     1.0000 0.57240  0.38309  0.19061  Biso   1.000  C
  H806     1.0000 0.70661  0.43872  0.22962  Biso   1.000  H
  H807     1.0000 0.63431  0.47695  0.17389  Biso   1.000  H
  H808     1.0000 0.63430  0.47689  0.17389  Biso   1.000  H
  C719     1.0000 0.98229  0.74897  0.62850  Biso   1.000  C
  C720     1.0000 0.98228  0.74891  0.62850  Biso   1.000  C
  H809     1.0000 0.71829  0.64663  0.48667  Biso   1.000  H
  C721     1.0000 0.83259  0.72997  0.62271  Biso   1.000  C
  C722     1.0000 0.83257  0.72992  0.62271  Biso   1.000  C
  H810     1.0000 0.19895  0.64913  0.99938  Biso   1.000  H
  H811     1.0000 0.18997  0.60765  0.89610  Biso   1.000  H
  C723     1.0000 0.10223  0.53673  0.91807  Biso   1.000  C
  H812     1.0000 0.96185  0.67519  0.88107  Biso   1.000  H
  H813     1.0000 0.96186  0.67525  0.88107  Biso   1.000  H
  C724     1.0000 0.03862  0.78162  0.00331  Biso   1.000  C
  C725     1.0000 0.12633  0.90775  0.15801  Biso   1.000  C
  C726     1.0000 0.12632  0.90769  0.15801  Biso   1.000  C
  C727     1.0000 0.67949  0.82186  0.56891  Biso   1.000  C
  C728     1.0000 0.73280  0.96217  0.61639  Biso   1.000  C
  C729     1.0000 0.73279  0.96212  0.61639  Biso   1.000  C
  H814     1.0000 0.47771  0.81665  0.48821  Biso   1.000  H
  C730     1.0000 0.38369  0.80462  0.34431  Biso   1.000  C
  H815     1.0000 0.48620  0.75988  0.40512  Biso   1.000  H
  H816     1.0000 0.48625  0.75982  0.40512  Biso   1.000  H
  H817     1.0000 0.78793  0.01002  0.52583  Biso   1.000  H
  H818     1.0000 0.83574  0.09933  0.60822  Biso   1.000  H
  H819     1.0000 0.78798  0.00997  0.52583  Biso   1.000  H
  H820     1.0000 0.83573  0.09927  0.60822  Biso   1.000  H
  H821     1.0000 0.49375  0.09310  0.08270  Biso   1.000  H
  C731     1.0000 0.59399  0.18530  0.09827  Biso   1.000  C
  H822     1.0000 0.49379  0.09304  0.08270  Biso   1.000  H
  C732     1.0000 0.59397  0.18524  0.09827  Biso   1.000  C
  C733     1.0000 0.75680  0.19971  0.21012  Biso   1.000  C
  H823     1.0000 0.76734  0.11451  0.26638  Biso   1.000  H
  C734     1.0000 0.75679  0.19966  0.21012  Biso   1.000  C
  H824     1.0000 0.76733  0.11445  0.26638  Biso   1.000  H
  C735     1.0000 0.48028  0.37121  0.17620  Biso   1.000  C
  H825     1.0000 0.60067  0.35761  0.23678  Biso   1.000  H
  H826     1.0000 0.55749  0.34902  0.12433  Biso   1.000  H
  H827     1.0000 0.55755  0.34902  0.12433  Biso   1.000  H
  C736     1.0000 0.93407  0.76884  0.67767  Biso   1.000  C
  O116     1.0000 0.08111  0.79068  0.68029  Biso   1.000  O
  O117     1.0000 0.08110  0.79063  0.68029  Biso   1.000  O
  C737     1.0000 0.77988  0.75648  0.67351  Biso   1.000  C
  C738     1.0000 0.77987  0.75642  0.67351  Biso   1.000  C
  H828     1.0000 0.04967  0.55405  0.88700  Biso   1.000  H
  H829     1.0000 0.10520  0.52654  0.97503  Biso   1.000  H
  H830     1.0000 0.09204  0.48870  0.86797  Biso   1.000  H
  H831     1.0000 0.09205  0.48875  0.86797  Biso   1.000  H
  H832     1.0000 0.07868  0.80293  0.98381  Biso   1.000  H
  H833     1.0000 0.07869  0.80299  0.98381  Biso   1.000  H
  H834     1.0000 0.18857  0.90271  0.19246  Biso   1.000  H
  H835     1.0000 0.12653  0.93590  0.11477  Biso   1.000  H
  O118     1.0000 0.11293  0.95264  0.23301  Biso   1.000  O
  H836     1.0000 0.18863  0.90271  0.19246  Biso   1.000  H
  C739     1.0000 0.76239  0.83116  0.65501  Biso   1.000  C
  H837     1.0000 0.63394  0.77054  0.52282  Biso   1.000  H
  C740     1.0000 0.81481  0.97249  0.70172  Biso   1.000  C
  C741     1.0000 0.81480  0.97243  0.70172  Biso   1.000  C
  H838     1.0000 0.38312  0.79754  0.28203  Biso   1.000  H
  H839     1.0000 0.37410  0.85383  0.36550  Biso   1.000  H
  C742     1.0000 0.30011  0.73295  0.32219  Biso   1.000  C
  C743     1.0000 0.30009  0.73289  0.32219  Biso   1.000  C
  H840     1.0000 0.55028  0.20246  0.05442  Biso   1.000  H
  C744     1.0000 0.69149  0.22580  0.14691  Biso   1.000  C
  C745     1.0000 0.69147  0.22575  0.14691  Biso   1.000  C
  C746     1.0000 0.86147  0.24459  0.25852  Biso   1.000  C
  H841     1.0000 0.48412  0.38862  0.24072  Biso   1.000  H
  H842     1.0000 0.43471  0.31641  0.13250  Biso   1.000  H
  C747     1.0000 0.45738  0.43071  0.11916  Biso   1.000  C
  O119     1.0000 0.98738  0.82178  0.77749  Biso   1.000  O
  O120     1.0000 0.98736  0.82173  0.77749  Biso   1.000  O
  C748     1.0000 0.13850  0.75548  0.74149  Biso   1.000  C
  C749     1.0000 0.13849  0.75542  0.74149  Biso   1.000  C
  H843     1.0000 0.82550  0.77456  0.74789  Biso   1.000  H
  C750     1.0000 0.69103  0.69104  0.64453  Biso   1.000  C
  C751     1.0000 0.18516  0.02757  0.29829  Biso   1.000  C
  C752     1.0000 0.83125  0.90605  0.72207  Biso   1.000  C
  C753     1.0000 0.83131  0.90605  0.72207  Biso   1.000  C
  O121     1.0000 0.88705  0.04743  0.76700  Biso   1.000  O
  O122     1.0000 0.88704  0.04737  0.76700  Biso   1.000  O
  H844     1.0000 0.30089  0.74034  0.38477  Biso   1.000  H
  H845     1.0000 0.31026  0.68392  0.30176  Biso   1.000  H
  C754     1.0000 0.20650  0.72584  0.24156  Biso   1.000  C
  H846     1.0000 0.31032  0.68392  0.30176  Biso   1.000  H
  C755     1.0000 0.20649  0.72579  0.24156  Biso   1.000  C
  H847     1.0000 0.71369  0.27086  0.13720  Biso   1.000  H
  H848     1.0000 0.87384  0.24475  0.20526  Biso   1.000  H
  H849     1.0000 0.87925  0.29956  0.30138  Biso   1.000  H
  O123     1.0000 0.91886  0.20938  0.31972  Biso   1.000  O
  H850     1.0000 0.42402  0.45902  0.14098  Biso   1.000  H
  H851     1.0000 0.51701  0.46802  0.13697  Biso   1.000  H
  H852     1.0000 0.41702  0.40042  0.04586  Biso   1.000  H
  H853     1.0000 0.41701  0.40037  0.04586  Biso   1.000  H
  C756     1.0000 0.98619  0.91262  0.79236  Biso   1.000  C
  C757     1.0000 0.01637  0.89696  0.79028  Biso   1.000  C
  C758     1.0000 0.24317  0.80035  0.78990  Biso   1.000  C
  H854     1.0000 0.12608  0.75523  0.79468  Biso   1.000  H
  H855     1.0000 0.12067  0.70043  0.69856  Biso   1.000  H
  H856     1.0000 0.65477  0.71515  0.66688  Biso   1.000  H
  H857     1.0000 0.65022  0.66355  0.56999  Biso   1.000  H
  C759     1.0000 0.71210  0.63065  0.68993  Biso   1.000  C
  C760     1.0000 0.26717  0.03789  0.38362  Biso   1.000  C
  C761     1.0000 0.16862  0.09399  0.27787  Biso   1.000  C
  C762     1.0000 0.16861  0.09394  0.27787  Biso   1.000  C
  O124     1.0000 0.91019  0.91876  0.81526  Biso   1.000  O
  C763     1.0000 0.87364  0.09231  0.84200  Biso   1.000  C
  H858     1.0000 0.19192  0.77164  0.26499  Biso   1.000  H
  C764     1.0000 0.12624  0.64605  0.21343  Biso   1.000  C
  H859     1.0000 0.20733  0.72457  0.18121  Biso   1.000  H
  H860     1.0000 0.20732  0.72451  0.18121  Biso   1.000  H
  C765     1.0000 0.01768  0.25109  0.37152  Biso   1.000  C
  H861     1.0000 0.97902  0.90105  0.72500  Biso   1.000  H
  H862     1.0000 0.97050  0.92095  0.73001  Biso   1.000  H
  C766     1.0000 0.00519  0.94706  0.86566  Biso   1.000  C
  H863     1.0000 0.04909  0.95287  0.84878  Biso   1.000  H
  H864     1.0000 0.08387  0.91568  0.81256  Biso   1.000  H
  H865     1.0000 0.08386  0.91562  0.81256  Biso   1.000  H
  C767     1.0000 0.30849  0.77426  0.85310  Biso   1.000  C
  C768     1.0000 0.27661  0.86756  0.77571  Biso   1.000  C
  H866     1.0000 0.74457  0.65674  0.76400  Biso   1.000  H
  H867     1.0000 0.75641  0.61258  0.67621  Biso   1.000  H
  C769     1.0000 0.62325  0.55812  0.64908  Biso   1.000  C
  H868     1.0000 0.75640  0.61252  0.67621  Biso   1.000  H
  C770     1.0000 0.62330  0.55812  0.64908  Biso   1.000  C
  O125     1.0000 0.28193  0.96926  0.39957  Biso   1.000  O
  O126     1.0000 0.28192  0.96921  0.39957  Biso   1.000  O
  C771     1.0000 0.33912  0.11238  0.45222  Biso   1.000  C
  C772     1.0000 0.33918  0.11238  0.45222  Biso   1.000  C
  C773     1.0000 0.23758  0.16890  0.34500  Biso   1.000  C
  O127     1.0000 0.08975  0.08128  0.18468  Biso   1.000  O
  C774     1.0000 0.23757  0.16885  0.34500  Biso   1.000  C
  C775     1.0000 0.95133  0.17321  0.90760  Biso   1.000  C
  H869     1.0000 0.81130  0.09733  0.80747  Biso   1.000  H
  H870     1.0000 0.87339  0.06409  0.88517  Biso   1.000  H
  H871     1.0000 0.81129  0.09727  0.80747  Biso   1.000  H
  H872     1.0000 0.06721  0.63452  0.15023  Biso   1.000  H
  H873     1.0000 0.11502  0.65272  0.26769  Biso   1.000  H
  H874     1.0000 0.14805  0.60264  0.20503  Biso   1.000  H
  C776     1.0000 0.06763  0.30796  0.47126  Biso   1.000  C
  C777     1.0000 0.06586  0.23120  0.32226  Biso   1.000  C
  C778     1.0000 0.06585  0.23115  0.32226  Biso   1.000  C
  H875     1.0000 0.03466  0.93934  0.92949  Biso   1.000  H
  H876     1.0000 0.03142  0.00315  0.87992  Biso   1.000  H
  H877     1.0000 0.03141  0.00309  0.87992  Biso   1.000  H
  C779     1.0000 0.40595  0.81474  0.90166  Biso   1.000  C
  H878     1.0000 0.28628  0.72915  0.86281  Biso   1.000  H
  C780     1.0000 0.37525  0.90818  0.82366  Biso   1.000  C
  H879     1.0000 0.23260  0.88553  0.73355  Biso   1.000  H
  C781     1.0000 0.37530  0.90813  0.82366  Biso   1.000  C
  H880     1.0000 0.57347  0.57635  0.64938  Biso   1.000  H
  C782     1.0000 0.64128  0.50635  0.70912  Biso   1.000  C
  H881     1.0000 0.59871  0.52588  0.57809  Biso   1.000  H
  H882     1.0000 0.59870  0.52582  0.57809  Biso   1.000  H
  C783     1.0000 0.22470  0.94582  0.44297  Biso   1.000  C
  C784     1.0000 0.27683  0.95308  0.47912  Biso   1.000  C
  C785     1.0000 0.32048  0.17820  0.43110  Biso   1.000  C
  C786     1.0000 0.43407  0.12262  0.54571  Biso   1.000  C
  C787     1.0000 0.43405  0.12257  0.54571  Biso   1.000  C
  C788     1.0000 0.22003  0.24359  0.32650  Biso   1.000  C
  C789     1.0000 0.22009  0.24359  0.32650  Biso   1.000  C
  C790     1.0000 0.99474  0.05298  0.13427  Biso   1.000  C
  C791     1.0000 0.01373  0.08737  0.20757  Biso   1.000  C
  C792     1.0000 0.96136  0.21844  0.99670  Biso   1.000  C
  C793     1.0000 0.96134  0.21838  0.99670  Biso   1.000  C
  C794     1.0000 0.00995  0.20730  0.87869  Biso   1.000  C
  O128     1.0000 0.01566  0.32690  0.51342  Biso   1.000  O
  C795     1.0000 0.16665  0.34789  0.52560  Biso   1.000  C
  C796     1.0000 0.16733  0.27009  0.37730  Biso   1.000  C
  C797     1.0000 0.16739  0.27009  0.37730  Biso   1.000  C
  O129     1.0000 0.01260  0.17828  0.22252  Biso   1.000  O
  C798     1.0000 0.44000  0.88095  0.88601  Biso   1.000  C
  H883     1.0000 0.44970  0.79760  0.94560  Biso   1.000  H
  H884     1.0000 0.44968  0.79754  0.94560  Biso   1.000  H
  C799     1.0000 0.41762  0.97858  0.81179  Biso   1.000  C
  C800     1.0000 0.41761  0.97852  0.81179  Biso   1.000  C
  H885     1.0000 0.65957  0.53693  0.77826  Biso   1.000  H
  H886     1.0000 0.69528  0.49228  0.71459  Biso   1.000  H
  C801     1.0000 0.55298  0.42917  0.66017  Biso   1.000  C
  H887     1.0000 0.69526  0.49223  0.71459  Biso   1.000  H
  C802     1.0000 0.55297  0.42911  0.66017  Biso   1.000  C
  C803     1.0000 0.29831  0.92312  0.52429  Biso   1.000  C
  H888     1.0000 0.21198  0.99004  0.47418  Biso   1.000  H
  H889     1.0000 0.16423  0.90074  0.39179  Biso   1.000  H
  H890     1.0000 0.23318  0.97517  0.48937  Biso   1.000  H
  H891     1.0000 0.24871  0.89554  0.45630  Biso   1.000  H
  O130     1.0000 0.37899  0.98786  0.58880  Biso   1.000  O
  H892     1.0000 0.36603  0.22947  0.47719  Biso   1.000  H
  C804     1.0000 0.41973  0.12901  0.63320  Biso   1.000  C
  H893     1.0000 0.44514  0.07297  0.52768  Biso   1.000  H
  C805     1.0000 0.52144  0.19003  0.57331  Biso   1.000  C
  C806     1.0000 0.52143  0.18998  0.57331  Biso   1.000  C
  H894     1.0000 0.17447  0.22551  0.25212  Biso   1.000  H
  C807     1.0000 0.30893  0.30897  0.35548  Biso   1.000  C
  H895     1.0000 0.17446  0.22545  0.25212  Biso   1.000  H
  H896     1.0000 0.96849  0.99692  0.12009  Biso   1.000  H
  H897     1.0000 0.96855  0.99692  0.12009  Biso   1.000  H
  C808     1.0000 0.98355  0.10310  0.20973  Biso   1.000  C
  H898     1.0000 0.96530  0.06066  0.07053  Biso   1.000  H
  C809     1.0000 0.98360  0.10305  0.20973  Biso   1.000  C
  H899     1.0000 0.95088  0.04720  0.15123  Biso   1.000  H
  H900     1.0000 0.02095  0.09902  0.27501  Biso   1.000  H
  H901     1.0000 0.02094  0.09896  0.27501  Biso   1.000  H
  H902     1.0000 0.02947  0.07911  0.27000  Biso   1.000  H
  H903     1.0000 0.92129  0.19708  0.01620  Biso   1.000  H
  H904     1.0000 0.92130  0.19713  0.01620  Biso   1.000  H
  C810     1.0000 0.03040  0.29516  0.05751  Biso   1.000  C
  C811     1.0000 0.03041  0.29521  0.05751  Biso   1.000  C
  C812     1.0000 0.07854  0.28342  0.93827  Biso   1.000  C
  H905     1.0000 0.00252  0.17794  0.81749  Biso   1.000  H
  H906     1.0000 0.00251  0.17788  0.81749  Biso   1.000  H
  C813     1.0000 0.00724  0.27571  0.57022  Biso   1.000  C
  C814     1.0000 0.00008  0.28742  0.56791  Biso   1.000  C
  C815     1.0000 0.21485  0.32729  0.47688  Biso   1.000  C
  C816     1.0000 0.21991  0.40748  0.63566  Biso   1.000  C
  H907     1.0000 0.50617  0.90696  0.91731  Biso   1.000  H
  H908     1.0000 0.50623  0.90696  0.91731  Biso   1.000  H
  O131     1.0000 0.34026  0.99733  0.73856  Biso   1.000  O
  H909     1.0000 0.45830  0.96823  0.78666  Biso   1.000  H
  H910     1.0000 0.45772  0.02379  0.87800  Biso   1.000  H
  H911     1.0000 0.56457  0.40366  0.70750  Biso   1.000  H
  H912     1.0000 0.49672  0.44206  0.64460  Biso   1.000  H
  H913     1.0000 0.54251  0.39366  0.59790  Biso   1.000  H
  H914     1.0000 0.54249  0.39361  0.59790  Biso   1.000  H
  H915     1.0000 0.31142  0.88028  0.49099  Biso   1.000  H
  H916     1.0000 0.27244  0.90526  0.56151  Biso   1.000  H
  H917     1.0000 0.31141  0.88022  0.49099  Biso   1.000  H
  C817     1.0000 0.38878  0.06217  0.64946  Biso   1.000  C
  C818     1.0000 0.38884  0.06217  0.64946  Biso   1.000  C
  C819     1.0000 0.43482  0.20121  0.70110  Biso   1.000  C
  H918     1.0000 0.51372  0.24018  0.59489  Biso   1.000  H
  H919     1.0000 0.52226  0.18341  0.51180  Biso   1.000  H
  C820     1.0000 0.61627  0.19539  0.65570  Biso   1.000  C
  H920     1.0000 0.52225  0.18336  0.51180  Biso   1.000  H
  H921     1.0000 0.34520  0.28492  0.33313  Biso   1.000  H
  H922     1.0000 0.34976  0.33651  0.43002  Biso   1.000  H
  C821     1.0000 0.28787  0.36941  0.31009  Biso   1.000  C
  H923     1.0000 0.34519  0.28486  0.33313  Biso   1.000  H
  H924     1.0000 0.34974  0.33646  0.43002  Biso   1.000  H
  C822     1.0000 0.28786  0.36935  0.31009  Biso   1.000  C
  H925     1.0000 0.91606  0.08436  0.18738  Biso   1.000  H
  C823     1.0000 0.08688  0.32751  0.02722  Biso   1.000  C
  H926     1.0000 0.03808  0.32479  0.11887  Biso   1.000  H
  C824     1.0000 0.14722  0.32153  0.91261  Biso   1.000  C
  C825     1.0000 0.14721  0.32148  0.91261  Biso   1.000  C
  C826     1.0000 0.00328  0.31909  0.64761  Biso   1.000  C
  H927     1.0000 0.94928  0.22750  0.52413  Biso   1.000  H
  H928     1.0000 0.93576  0.27791  0.55481  Biso   1.000  H
  H929     1.0000 0.06296  0.26038  0.59697  Biso   1.000  H
  H930     1.0000 0.00824  0.23677  0.55196  Biso   1.000  H
  H931     1.0000 0.28165  0.35341  0.51326  Biso   1.000  H
  H932     1.0000 0.28164  0.35336  0.51326  Biso   1.000  H
  C827     1.0000 0.24096  0.36523  0.70712  Biso   1.000  C
  C828     1.0000 0.24095  0.36518  0.70712  Biso   1.000  C
  H933     1.0000 0.17336  0.42982  0.63967  Biso   1.000  H
  C829     1.0000 0.30714  0.47930  0.66950  Biso   1.000  C
  H934     1.0000 0.17335  0.42976  0.63967  Biso   1.000  H
  C830     1.0000 0.37231  0.06530  0.72646  Biso   1.000  C
  C831     1.0000 0.42115  0.20803  0.78119  Biso   1.000  C
  C832     1.0000 0.42113  0.20798  0.78119  Biso   1.000  C
  H935     1.0000 0.45510  0.24747  0.69247  Biso   1.000  H
  H936     1.0000 0.61685  0.20252  0.71798  Biso   1.000  H
  H937     1.0000 0.62587  0.14623  0.63451  Biso   1.000  H
  C833     1.0000 0.69987  0.26712  0.67783  Biso   1.000  C
  H938     1.0000 0.61684  0.20247  0.71798  Biso   1.000  H
  H939     1.0000 0.62586  0.14618  0.63451  Biso   1.000  H
  H940     1.0000 0.25539  0.34327  0.23601  Biso   1.000  H
  H941     1.0000 0.24356  0.38748  0.32381  Biso   1.000  H
  C834     1.0000 0.37662  0.44186  0.35086  Biso   1.000  C
  C835     1.0000 0.37668  0.44186  0.35086  Biso   1.000  C
  H942     1.0000 0.13167  0.37991  0.06692  Biso   1.000  H
  O132     1.0000 0.12785  0.26802  0.81818  Biso   1.000  O
  H943     1.0000 0.21347  0.33504  0.96772  Biso   1.000  H
  H944     1.0000 0.13984  0.37049  0.90629  Biso   1.000  H
  O133     1.0000 0.12784  0.26797  0.81818  Biso   1.000  O
  O134     1.0000 0.09716  0.35981  0.70519  Biso   1.000  O
  H945     1.0000 0.98086  0.28719  0.67721  Biso   1.000  H
  H946     1.0000 0.96571  0.35211  0.62896  Biso   1.000  H
  H947     1.0000 0.96575  0.35205  0.62896  Biso   1.000  H
  C836     1.0000 0.32478  0.34763  0.74712  Biso   1.000  C
  C837     1.0000 0.32477  0.34758  0.74712  Biso   1.000  C
  C838     1.0000 0.17843  0.33733  0.73409  Biso   1.000  C
  C839     1.0000 0.17842  0.33727  0.73409  Biso   1.000  C
  H948     1.0000 0.35844  0.46132  0.67382  Biso   1.000  H
  H949     1.0000 0.28876  0.50139  0.61770  Biso   1.000  H
  C840     1.0000 0.34597  0.54542  0.77448  Biso   1.000  C
  C841     1.0000 0.39119  0.14012  0.79437  Biso   1.000  C
  C842     1.0000 0.39124  0.14007  0.79437  Biso   1.000  C
  C843     1.0000 0.43793  0.28864  0.85449  Biso   1.000  C
  C844     1.0000 0.43791  0.28859  0.85449  Biso   1.000  C
  H950     1.0000 0.68962  0.31612  0.69817  Biso   1.000  H
  H951     1.0000 0.69905  0.25970  0.61516  Biso   1.000  H
  C845     1.0000 0.79343  0.27419  0.75837  Biso   1.000  C
  H952     1.0000 0.68960  0.31606  0.69817  Biso   1.000  H
  H953     1.0000 0.42650  0.42372  0.35063  Biso   1.000  H
  H954     1.0000 0.40126  0.47419  0.42193  Biso   1.000  H
  C846     1.0000 0.35869  0.49371  0.29089  Biso   1.000  C
  H955     1.0000 0.42649  0.42366  0.35063  Biso   1.000  H
  C847     1.0000 0.35868  0.49366  0.29089  Biso   1.000  C
  C848     1.0000 0.19468  0.29694  0.79622  Biso   1.000  C
  C849     1.0000 0.19467  0.29688  0.79622  Biso   1.000  C
  C850     1.0000 0.34565  0.30609  0.81048  Biso   1.000  C
  H956     1.0000 0.36896  0.36479  0.73032  Biso   1.000  H
  H957     1.0000 0.36566  0.52312  0.82612  Biso   1.000  H
  H958     1.0000 0.29336  0.56134  0.77040  Biso   1.000  H
  C851     1.0000 0.42757  0.61692  0.80940  Biso   1.000  C
  H959     1.0000 0.29335  0.56128  0.77040  Biso   1.000  H
  O135     1.0000 0.38201  0.14360  0.87638  Biso   1.000  O
  H960     1.0000 0.44960  0.28203  0.91746  Biso   1.000  H
  C852     1.0000 0.52835  0.35679  0.88709  Biso   1.000  C
  H961     1.0000 0.44958  0.28197  0.91746  Biso   1.000  H
  H962     1.0000 0.79265  0.27550  0.81880  Biso   1.000  H
  H963     1.0000 0.80805  0.22842  0.73502  Biso   1.000  H
  C853     1.0000 0.87374  0.35401  0.78658  Biso   1.000  C
  H964     1.0000 0.34035  0.46306  0.22168  Biso   1.000  H
  H965     1.0000 0.30470  0.50778  0.28542  Biso   1.000  H
  C854     1.0000 0.44695  0.57087  0.33976  Biso   1.000  C
  C855     1.0000 0.27759  0.27819  0.83237  Biso   1.000  C
  C856     1.0000 0.27765  0.27819  0.83237  Biso   1.000  C
  H966     1.0000 0.44242  0.65104  0.87569  Biso   1.000  H
  H967     1.0000 0.39929  0.64240  0.76323  Biso   1.000  H
  C857     1.0000 0.51968  0.62880  0.82381  Biso   1.000  C
  H968     1.0000 0.44247  0.65099  0.87569  Biso   1.000  H
  C858     1.0000 0.30061  0.11020  0.87268  Biso   1.000  C
  C859     1.0000 0.28692  0.15433  0.85649  Biso   1.000  C
  H969     1.0000 0.53085  0.40646  0.92802  Biso   1.000  H
  H970     1.0000 0.52229  0.36159  0.82566  Biso   1.000  H
  C860     1.0000 0.62240  0.34682  0.94806  Biso   1.000  C
  H971     1.0000 0.53084  0.40640  0.92802  Biso   1.000  H
  C861     1.0000 0.62238  0.34676  0.94806  Biso   1.000  C
  H972     1.0000 0.93276  0.36549  0.84979  Biso   1.000  H
  H973     1.0000 0.88494  0.34729  0.73232  Biso   1.000  H
  H974     1.0000 0.85192  0.39743  0.79498  Biso   1.000  H
  H975     1.0000 0.85191  0.39737  0.79498  Biso   1.000  H
  H976     1.0000 0.43540  0.59640  0.29251  Biso   1.000  H
  H977     1.0000 0.45747  0.60640  0.40212  Biso   1.000  H
  H978     1.0000 0.50326  0.55800  0.35541  Biso   1.000  H
  H979     1.0000 0.43539  0.59635  0.29251  Biso   1.000  H
  H980     1.0000 0.50325  0.55795  0.35541  Biso   1.000  H
  O136     1.0000 0.29243  0.23680  0.89357  Biso   1.000  O
  H981     1.0000 0.51586  0.61144  0.75930  Biso   1.000  H
  H982     1.0000 0.56527  0.68365  0.86751  Biso   1.000  H
  C862     1.0000 0.54255  0.56933  0.88077  Biso   1.000  C
  H983     1.0000 0.51584  0.61139  0.75930  Biso   1.000  H
  H984     1.0000 0.56525  0.68360  0.86751  Biso   1.000  H
  C863     1.0000 0.54254  0.56928  0.88077  Biso   1.000  C
  C864     1.0000 0.23693  0.15129  0.82528  Biso   1.000  C
  H985     1.0000 0.27071  0.05312  0.83098  Biso   1.000  H
  H986     1.0000 0.31494  0.11903  0.94128  Biso   1.000  H
  H987     1.0000 0.27070  0.05307  0.83098  Biso   1.000  H
  H988     1.0000 0.31493  0.11897  0.94128  Biso   1.000  H
  H989     1.0000 0.26345  0.12605  0.88840  Biso   1.000  H
  H990     1.0000 0.23904  0.12880  0.78281  Biso   1.000  H
  H991     1.0000 0.62091  0.29851  0.90567  Biso   1.000  H
  C865     1.0000 0.71109  0.41360  0.98506  Biso   1.000  C
  H992     1.0000 0.62660  0.33897  0.00741  Biso   1.000  H
  H993     1.0000 0.62661  0.33902  0.00741  Biso   1.000  H
  H994     1.0000 0.57591  0.54101  0.85896  Biso   1.000  H
  H995     1.0000 0.58291  0.59962  0.95407  Biso   1.000  H
  H996     1.0000 0.48293  0.53202  0.86297  Biso   1.000  H
  H997     1.0000 0.48291  0.53197  0.86297  Biso   1.000  H
  H998     1.0000 0.17683  0.13280  0.82150  Biso   1.000  H
  H999     1.0000 0.22222  0.14192  0.75637  Biso   1.000  H
  H1000    1.0000 0.22221  0.14187  0.75637  Biso   1.000  H
  H1001    1.0000 0.70684  0.42241  0.92633  Biso   1.000  H
  H1002    1.0000 0.71418  0.46166  0.02946  Biso   1.000  H
  C866     1.0000 0.80597  0.40029  0.04479  Biso   1.000  C
  H1003    1.0000 0.71419  0.46172  0.02946  Biso   1.000  H
  H1004    1.0000 0.80097  0.35085  0.00055  Biso   1.000  H
  H1005    1.0000 0.80999  0.39236  0.10391  Biso   1.000  H
  C867     1.0000 0.89769  0.46326  0.08187  Biso   1.000  C
  H1006    1.0000 0.80099  0.35091  0.00055  Biso   1.000  H
  H1007    1.0000 0.81000  0.39242  0.10391  Biso   1.000  H
  C868     1.0000 0.89770  0.46331  0.08187  Biso   1.000  C
  H1008    1.0000 0.95029  0.44596  0.11301  Biso   1.000  H
  H1009    1.0000 0.89476  0.47347  0.02499  Biso   1.000  H
  H1010    1.0000 0.90788  0.51129  0.13197  Biso   1.000  H
  H1011    1.0000 0.95031  0.44602  0.11301  Biso   1.000  H
  H1012    1.0000 0.89477  0.47352  0.02499  Biso   1.000  H
