data_image0
_cell_length_a       16.827
_cell_length_b       18.611
_cell_length_c       16.242
_cell_angle_alpha    104.08
_cell_angle_beta     117.78
_cell_angle_gamma    102.2

_symmetry_space_group_name_H-M    "P 1"
_symmetry_int_tables_number       1

loop_
  _symmetry_equiv_pos_as_xyz
  'x, y, z'

loop_
  _atom_site_label
  _atom_site_occupancy
  _atom_site_fract_x
  _atom_site_fract_y
  _atom_site_fract_z
  _atom_site_thermal_displace_type
  _atom_site_B_iso_or_equiv
  _atom_site_type_symbol
  C1       1.0000 0.72964  0.14661  0.31969  Biso   1.000  C
  O1       1.0000 0.77775  0.23152  0.38106  Biso   1.000  O
  O2       1.0000 0.77777  0.23149  0.38113  Biso   1.000  O
  C2       1.0000 0.79609  0.10530  0.36310  Biso   1.000  C
  C3       1.0000 0.79603  0.10530  0.36310  Biso   1.000  C
  H1       1.0000 0.67086  0.12551  0.31795  Biso   1.000  H
  H2       1.0000 0.71199  0.13712  0.25091  Biso   1.000  H
  H3       1.0000 0.67090  0.12553  0.31803  Biso   1.000  H
  H4       1.0000 0.67088  0.12548  0.31803  Biso   1.000  H
  C4       1.0000 0.76528  0.27619  0.32235  Biso   1.000  C
  C5       1.0000 0.76526  0.27621  0.32242  Biso   1.000  C
  C6       1.0000 0.72970  0.14661  0.31969  Biso   1.000  C
  O3       1.0000 0.88591  0.13604  0.37439  Biso   1.000  O
  O4       1.0000 0.88583  0.13598  0.37439  Biso   1.000  O
  O5       1.0000 0.88589  0.13598  0.37439  Biso   1.000  O
  H5       1.0000 0.76461  0.04881  0.31932  Biso   1.000  H
  H6       1.0000 0.80726  0.11008  0.42878  Biso   1.000  H
  H7       1.0000 0.76455  0.04881  0.31932  Biso   1.000  H
  C7       1.0000 0.68703  0.29893  0.29219  Biso   1.000  C
  C8       1.0000 0.68695  0.29888  0.29219  Biso   1.000  C
  C9       1.0000 0.83290  0.29933  0.29841  Biso   1.000  C
  C10      1.0000 0.83289  0.29928  0.29841  Biso   1.000  C
  C11      1.0000 0.88816  0.13091  0.28841  Biso   1.000  C
  O6       1.0000 0.62066  0.27452  0.31826  Biso   1.000  O
  O7       1.0000 0.62069  0.27449  0.31833  Biso   1.000  O
  C12      1.0000 0.67193  0.34403  0.23310  Biso   1.000  C
  C13      1.0000 0.67186  0.34398  0.23310  Biso   1.000  C
  C14      1.0000 0.81330  0.34041  0.23560  Biso   1.000  C
  C15      1.0000 0.92550  0.28010  0.34159  Biso   1.000  C
  C16      1.0000 0.92544  0.28010  0.34159  Biso   1.000  C
  C17      1.0000 0.87449  0.05943  0.22621  Biso   1.000  C
  C18      1.0000 0.87448  0.05937  0.22621  Biso   1.000  C
  C19      1.0000 0.90946  0.19969  0.27068  Biso   1.000  C
  C20      1.0000 0.65090  0.32209  0.41848  Biso   1.000  C
  C21      1.0000 0.65084  0.32209  0.41848  Biso   1.000  C
  O8       1.0000 0.59900  0.37401  0.21379  Biso   1.000  O
  C22      1.0000 0.73330  0.36310  0.20068  Biso   1.000  C
  H8       1.0000 0.85578  0.35389  0.21538  Biso   1.000  H
  H9       1.0000 0.93717  0.27371  0.40386  Biso   1.000  H
  H10      1.0000 0.93721  0.27373  0.40394  Biso   1.000  H
  H11      1.0000 0.93719  0.27368  0.40394  Biso   1.000  H
  C23      1.0000 0.01498  0.34884  0.37280  Biso   1.000  C
  C24      1.0000 0.01497  0.34878  0.37280  Biso   1.000  C
  O9       1.0000 0.84591  0.98990  0.24015  Biso   1.000  O
  O10      1.0000 0.84595  0.98992  0.24023  Biso   1.000  O
  C25      1.0000 0.88797  0.05363  0.14689  Biso   1.000  C
  C26      1.0000 0.88796  0.05357  0.14689  Biso   1.000  C
  C27      1.0000 0.91939  0.19295  0.18992  Biso   1.000  C
  C28      1.0000 0.91938  0.19290  0.18992  Biso   1.000  C
  C29      1.0000 0.58211  0.28532  0.44439  Biso   1.000  C
  C30      1.0000 0.58205  0.28532  0.44439  Biso   1.000  C
  C31      1.0000 0.58204  0.28526  0.44439  Biso   1.000  C
  H12      1.0000 0.65286  0.37562  0.42356  Biso   1.000  H
  H13      1.0000 0.71570  0.32643  0.46621  Biso   1.000  H
  H14      1.0000 0.65288  0.37559  0.42363  Biso   1.000  H
  H15      1.0000 0.71568  0.32638  0.46621  Biso   1.000  H
  C32      1.0000 0.50099  0.31703  0.14417  Biso   1.000  C
  C33      1.0000 0.50102  0.31700  0.14424  Biso   1.000  C
  C34      1.0000 0.50098  0.31698  0.14417  Biso   1.000  C
  C35      1.0000 0.71341  0.40673  0.12879  Biso   1.000  C
  C36      1.0000 0.71340  0.40668  0.12879  Biso   1.000  C
  H16      1.0000 0.00958  0.35338  0.31235  Biso   1.000  H
  H17      1.0000 0.01680  0.39830  0.41219  Biso   1.000  H
  C37      1.0000 0.10924  0.33859  0.43454  Biso   1.000  C
  H18      1.0000 0.00956  0.35340  0.31242  Biso   1.000  H
  H19      1.0000 0.01675  0.39830  0.41219  Biso   1.000  H
  C38      1.0000 0.10928  0.33861  0.43462  Biso   1.000  C
  C39      1.0000 0.92346  0.97543  0.31409  Biso   1.000  C
  C40      1.0000 0.92338  0.97538  0.31409  Biso   1.000  C
  O11      1.0000 0.88766  0.98283  0.09356  Biso   1.000  O
  O12      1.0000 0.88763  0.98280  0.09364  Biso   1.000  O
  O13      1.0000 0.88765  0.98278  0.09356  Biso   1.000  O
  C41      1.0000 0.91031  0.12153  0.12720  Biso   1.000  C
  C42      1.0000 0.91030  0.12147  0.12720  Biso   1.000  C
  H20      1.0000 0.93291  0.23832  0.17659  Biso   1.000  H
  H21      1.0000 0.93290  0.23827  0.17659  Biso   1.000  H
  C43      1.0000 0.51087  0.20900  0.38500  Biso   1.000  C
  C44      1.0000 0.58986  0.32977  0.53113  Biso   1.000  C
  C45      1.0000 0.58984  0.32980  0.53121  Biso   1.000  C
  C46      1.0000 0.48220  0.27111  0.04303  Biso   1.000  C
  H22      1.0000 0.48779  0.27984  0.17310  Biso   1.000  H
  H23      1.0000 0.45691  0.34504  0.13492  Biso   1.000  H
  H24      1.0000 0.48777  0.27978  0.17310  Biso   1.000  H
  H25      1.0000 0.45689  0.34499  0.13492  Biso   1.000  H
  C47      1.0000 0.66237  0.34589  0.01947  Biso   1.000  C
  H26      1.0000 0.66671  0.42960  0.13106  Biso   1.000  H
  C48      1.0000 0.80330  0.47660  0.16310  Biso   1.000  C
  C49      1.0000 0.66241  0.34591  0.01955  Biso   1.000  C
  H27      1.0000 0.66669  0.42962  0.13114  Biso   1.000  H
  H28      1.0000 0.10899  0.29090  0.39325  Biso   1.000  H
  H29      1.0000 0.11216  0.33001  0.49227  Biso   1.000  H
  C50      1.0000 0.19931  0.40811  0.47250  Biso   1.000  C
  H30      1.0000 0.10897  0.29093  0.39333  Biso   1.000  H
  C51      1.0000 0.19925  0.40811  0.47250  Biso   1.000  C
  C52      1.0000 0.88216  0.90421  0.32932  Biso   1.000  C
  C53      1.0000 0.88210  0.90421  0.32932  Biso   1.000  C
  H31      1.0000 0.96552  0.96582  0.29106  Biso   1.000  H
  H32      1.0000 0.96555  0.96579  0.29113  Biso   1.000  H
  H33      1.0000 0.96551  0.96577  0.29106  Biso   1.000  H
  H34      1.0000 0.96166  0.02188  0.37765  Biso   1.000  H
  H35      1.0000 0.96164  0.02191  0.37772  Biso   1.000  H
  C54      1.0000 0.79625  0.91842  0.02197  Biso   1.000  C
  C55      1.0000 0.79627  0.91839  0.02205  Biso   1.000  C
  C56      1.0000 0.92416  0.11730  0.03917  Biso   1.000  C
  C57      1.0000 0.92420  0.11732  0.03924  Biso   1.000  C
  C58      1.0000 0.45088  0.17580  0.41250  Biso   1.000  C
  H36      1.0000 0.50347  0.17944  0.32500  Biso   1.000  H
  H37      1.0000 0.50346  0.17938  0.32500  Biso   1.000  H
  C59      1.0000 0.53055  0.29712  0.56037  Biso   1.000  C
  C60      1.0000 0.53054  0.29707  0.56037  Biso   1.000  C
  H38      1.0000 0.63517  0.38213  0.57030  Biso   1.000  H
  H39      1.0000 0.63516  0.38207  0.57030  Biso   1.000  H
  H40      1.0000 0.41399  0.23677  0.99644  Biso   1.000  H
  O14      1.0000 0.50893  0.32725  0.00432  Biso   1.000  O
  H41      1.0000 0.52014  0.23772  0.05000  Biso   1.000  H
  O15      1.0000 0.50891  0.32719  0.00432  Biso   1.000  O
  H42      1.0000 0.52008  0.23772  0.05000  Biso   1.000  H
  C61      1.0000 0.56195  0.30752  0.96333  Biso   1.000  C
  C62      1.0000 0.56187  0.30747  0.96333  Biso   1.000  C
  C63      1.0000 0.56193  0.30747  0.96333  Biso   1.000  C
  C64      1.0000 0.71070  0.32530  0.97273  Biso   1.000  C
  C65      1.0000 0.71068  0.32524  0.97273  Biso   1.000  C
  H43      1.0000 0.85409  0.45729  0.16886  Biso   1.000  H
  H44      1.0000 0.78795  0.49944  0.11250  Biso   1.000  H
  C66      1.0000 0.84021  0.54161  0.26500  Biso   1.000  C
  H45      1.0000 0.85413  0.45731  0.16894  Biso   1.000  H
  H46      1.0000 0.78788  0.49939  0.11250  Biso   1.000  H
  H47      1.0000 0.78794  0.49939  0.11250  Biso   1.000  H
  H48      1.0000 0.19676  0.41661  0.41485  Biso   1.000  H
  H49      1.0000 0.19971  0.45583  0.51371  Biso   1.000  H
  C67      1.0000 0.29427  0.39704  0.53530  Biso   1.000  C
  H50      1.0000 0.19680  0.41663  0.41492  Biso   1.000  H
  H51      1.0000 0.19965  0.45583  0.51371  Biso   1.000  H
  C68      1.0000 0.29426  0.39699  0.53530  Biso   1.000  C
  H52      1.0000 0.19679  0.41657  0.41492  Biso   1.000  H
  H53      1.0000 0.19964  0.45577  0.51371  Biso   1.000  H
  C69      1.0000 0.78444  0.86410  0.28288  Biso   1.000  C
  C70      1.0000 0.78439  0.86410  0.28288  Biso   1.000  C
  C71      1.0000 0.94624  0.87749  0.39250  Biso   1.000  C
  C72      1.0000 0.94618  0.87749  0.39250  Biso   1.000  C
  H54      1.0000 0.76757  0.90203  0.05750  Biso   1.000  H
  H55      1.0000 0.76750  0.90198  0.05750  Biso   1.000  H
  C73      1.0000 0.72628  0.94019  0.94114  Biso   1.000  C
  H56      1.0000 0.80647  0.87321  0.98985  Biso   1.000  H
  C74      1.0000 0.72622  0.94019  0.94114  Biso   1.000  C
  H57      1.0000 0.80646  0.87316  0.98985  Biso   1.000  H
  C75      1.0000 0.83152  0.10918  0.94644  Biso   1.000  C
  H58      1.0000 0.93498  0.06771  0.02030  Biso   1.000  H
  C76      1.0000 0.01301  0.18522  0.06848  Biso   1.000  C
  C77      1.0000 0.01299  0.18516  0.06848  Biso   1.000  C
  C78      1.0000 0.37146  0.09531  0.34818  Biso   1.000  C
  C79      1.0000 0.46186  0.22151  0.50166  Biso   1.000  C
  C80      1.0000 0.46185  0.22145  0.50166  Biso   1.000  C
  H59      1.0000 0.53764  0.32670  0.62007  Biso   1.000  H
  C81      1.0000 0.51225  0.25278  0.86493  Biso   1.000  C
  C82      1.0000 0.51219  0.25278  0.86493  Biso   1.000  C
  C83      1.0000 0.66375  0.27039  0.87432  Biso   1.000  C
  C84      1.0000 0.66373  0.27041  0.87439  Biso   1.000  C
  C85      1.0000 0.66369  0.27039  0.87432  Biso   1.000  C
  H60      1.0000 0.77815  0.34983  0.00992  Biso   1.000  H
  H61      1.0000 0.77809  0.34983  0.00992  Biso   1.000  H
  H62      1.0000 0.77808  0.34978  0.00992  Biso   1.000  H
  H63      1.0000 0.78873  0.56041  0.25810  Biso   1.000  H
  H64      1.0000 0.85352  0.51773  0.31439  Biso   1.000  H
  C86      1.0000 0.93070  0.61352  0.30621  Biso   1.000  C
  H65      1.0000 0.85350  0.51767  0.31439  Biso   1.000  H
  H66      1.0000 0.29319  0.34901  0.49378  Biso   1.000  H
  H67      1.0000 0.29620  0.38824  0.59250  Biso   1.000  H
  C87      1.0000 0.38434  0.46369  0.57393  Biso   1.000  C
  H68      1.0000 0.29313  0.34901  0.49378  Biso   1.000  H
  H69      1.0000 0.29612  0.38818  0.59250  Biso   1.000  H
  C88      1.0000 0.38438  0.46371  0.57401  Biso   1.000  C
  C89      1.0000 0.74794  0.79809  0.29719  Biso   1.000  C
  C90      1.0000 0.74788  0.79809  0.29719  Biso   1.000  C
  H70      1.0000 0.74133  0.88222  0.24038  Biso   1.000  H
  H71      1.0000 0.74132  0.88216  0.24038  Biso   1.000  H
  C91      1.0000 0.91193  0.81100  0.40719  Biso   1.000  C
  C92      1.0000 0.91187  0.81100  0.40719  Biso   1.000  C
  H72      1.0000 0.01272  0.90448  0.42507  Biso   1.000  H
  H73      1.0000 0.01266  0.90448  0.42507  Biso   1.000  H
  O16      1.0000 0.77154  0.96537  0.89061  Biso   1.000  O
  H74      1.0000 0.71203  0.98307  0.97159  Biso   1.000  H
  H75      1.0000 0.66584  0.89429  0.89273  Biso   1.000  H
  O17      1.0000 0.77158  0.96539  0.89068  Biso   1.000  O
  H76      1.0000 0.71207  0.98309  0.97167  Biso   1.000  H
  C93      1.0000 0.81371  0.17488  0.92742  Biso   1.000  C
  C94      1.0000 0.76032  0.03418  0.87523  Biso   1.000  C
  H77      1.0000 0.00562  0.23533  0.09023  Biso   1.000  H
  H78      1.0000 0.01508  0.17983  0.00879  Biso   1.000  H
  C95      1.0000 0.10856  0.18972  0.15106  Biso   1.000  C
  H79      1.0000 0.01507  0.17977  0.00879  Biso   1.000  H
  C96      1.0000 0.10858  0.18969  0.15114  Biso   1.000  C
  O18      1.0000 0.39148  0.05012  0.28076  Biso   1.000  O
  O19      1.0000 0.39145  0.05009  0.28083  Biso   1.000  O
  O20      1.0000 0.39147  0.05007  0.28076  Biso   1.000  O
  H80      1.0000 0.36697  0.06793  0.39060  Biso   1.000  H
  H81      1.0000 0.31008  0.10063  0.30977  Biso   1.000  H
  H82      1.0000 0.36696  0.06787  0.39060  Biso   1.000  H
  H83      1.0000 0.31011  0.10060  0.30985  Biso   1.000  H
  H84      1.0000 0.31007  0.10058  0.30977  Biso   1.000  H
  H85      1.0000 0.42183  0.20023  0.52136  Biso   1.000  H
  H86      1.0000 0.42182  0.20017  0.52136  Biso   1.000  H
  O21      1.0000 0.41290  0.21169  0.81273  Biso   1.000  O
  C97      1.0000 0.56152  0.23459  0.82023  Biso   1.000  C
  C98      1.0000 0.71571  0.24298  0.82333  Biso   1.000  C
  H87      1.0000 0.94140  0.65223  0.36629  Biso   1.000  H
  H88      1.0000 0.91495  0.63720  0.25651  Biso   1.000  H
  H89      1.0000 0.94139  0.65218  0.36629  Biso   1.000  H
  H90      1.0000 0.91489  0.63720  0.25651  Biso   1.000  H
  C99      1.0000 0.01950  0.60693  0.33212  Biso   1.000  C
  C100     1.0000 0.01949  0.60688  0.33212  Biso   1.000  C
  H91      1.0000 0.43910  0.44983  0.60878  Biso   1.000  H
  H92      1.0000 0.38317  0.47414  0.51848  Biso   1.000  H
  H93      1.0000 0.38958  0.51069  0.62007  Biso   1.000  H
  H94      1.0000 0.43902  0.44978  0.60878  Biso   1.000  H
  H95      1.0000 0.38316  0.47408  0.51848  Biso   1.000  H
  H96      1.0000 0.38952  0.51069  0.62007  Biso   1.000  H
  C101     1.0000 0.64233  0.75171  0.24689  Biso   1.000  C
  C102     1.0000 0.64231  0.75166  0.24689  Biso   1.000  C
  C103     1.0000 0.81413  0.77062  0.35939  Biso   1.000  C
  C104     1.0000 0.81406  0.77056  0.35939  Biso   1.000  C
  H97      1.0000 0.95540  0.79330  0.45000  Biso   1.000  H
  C105     1.0000 0.73334  0.16879  0.84030  Biso   1.000  C
  H98      1.0000 0.85813  0.22580  0.97591  Biso   1.000  H
  C106     1.0000 0.73332  0.16881  0.84038  Biso   1.000  C
  H99      1.0000 0.85815  0.22577  0.97599  Biso   1.000  H
  H100     1.0000 0.85809  0.22577  0.97599  Biso   1.000  H
  C107     1.0000 0.68045  0.02580  0.78765  Biso   1.000  C
  C108     1.0000 0.68039  0.02580  0.78765  Biso   1.000  C
  H101     1.0000 0.10632  0.19200  0.21030  Biso   1.000  H
  H102     1.0000 0.11969  0.14179  0.12818  Biso   1.000  H
  C109     1.0000 0.19254  0.26331  0.18023  Biso   1.000  C
  H103     1.0000 0.10626  0.19200  0.21030  Biso   1.000  H
  H104     1.0000 0.11973  0.14182  0.12826  Biso   1.000  H
  C110     1.0000 0.19248  0.26331  0.18023  Biso   1.000  C
  C111     1.0000 0.31951  0.97421  0.21227  Biso   1.000  C
  C112     1.0000 0.31955  0.97423  0.21235  Biso   1.000  C
  C113     1.0000 0.31954  0.97418  0.21235  Biso   1.000  C
  C114     1.0000 0.35764  0.24830  0.75303  Biso   1.000  C
  O22      1.0000 0.51054  0.18058  0.72084  Biso   1.000  O
  H105     1.0000 0.67073  0.22609  0.75023  Biso   1.000  H
  C115     1.0000 0.80764  0.30952  0.85493  Biso   1.000  C
  C116     1.0000 0.80762  0.30947  0.85493  Biso   1.000  C
  H106     1.0000 0.01439  0.57481  0.27166  Biso   1.000  H
  H107     1.0000 0.06871  0.65963  0.36075  Biso   1.000  H
  C117     1.0000 0.04852  0.56902  0.40719  Biso   1.000  C
  H108     1.0000 0.01443  0.57483  0.27174  Biso   1.000  H
  H109     1.0000 0.06868  0.65960  0.36083  Biso   1.000  H
  C118     1.0000 0.04846  0.56902  0.40719  Biso   1.000  C
  H110     1.0000 0.06870  0.65958  0.36075  Biso   1.000  H
  C119     1.0000 0.04844  0.56897  0.40719  Biso   1.000  C
  O23      1.0000 0.58706  0.78832  0.18720  Biso   1.000  O
  O24      1.0000 0.58699  0.78827  0.18720  Biso   1.000  O
  O25      1.0000 0.58700  0.78832  0.18720  Biso   1.000  O
  H111     1.0000 0.62535  0.69719  0.20432  Biso   1.000  H
  H112     1.0000 0.62793  0.75002  0.29780  Biso   1.000  H
  H113     1.0000 0.62529  0.69719  0.20432  Biso   1.000  H
  H114     1.0000 0.62792  0.74996  0.29780  Biso   1.000  H
  H115     1.0000 0.79163  0.72469  0.36810  Biso   1.000  H
  H116     1.0000 0.79157  0.72469  0.36810  Biso   1.000  H
  C120     1.0000 0.66842  0.09198  0.76773  Biso   1.000  C
  O26      1.0000 0.60848  0.94989  0.71917  Biso   1.000  O
  H117     1.0000 0.18055  0.31085  0.20273  Biso   1.000  H
  H118     1.0000 0.19343  0.26093  0.12030  Biso   1.000  H
  C121     1.0000 0.28809  0.27160  0.25977  Biso   1.000  C
  H119     1.0000 0.18048  0.31080  0.20273  Biso   1.000  H
  H120     1.0000 0.19336  0.26088  0.12030  Biso   1.000  H
  C122     1.0000 0.28813  0.27163  0.25985  Biso   1.000  C
  C123     1.0000 0.33155  0.90803  0.23220  Biso   1.000  C
  C124     1.0000 0.33154  0.90798  0.23220  Biso   1.000  C
  C125     1.0000 0.23965  0.96583  0.12470  Biso   1.000  C
  C126     1.0000 0.23963  0.96578  0.12470  Biso   1.000  C
  C127     1.0000 0.25202  0.20192  0.70273  Biso   1.000  C
  C128     1.0000 0.25201  0.20186  0.70273  Biso   1.000  C
  H121     1.0000 0.37462  0.30282  0.79561  Biso   1.000  H
  H122     1.0000 0.37204  0.25000  0.70212  Biso   1.000  H
  H123     1.0000 0.37464  0.30279  0.79568  Biso   1.000  H
  H124     1.0000 0.37208  0.25002  0.70220  Biso   1.000  H
  H125     1.0000 0.37460  0.30277  0.79561  Biso   1.000  H
  C129     1.0000 0.47824  0.09669  0.70887  Biso   1.000  C
  H126     1.0000 0.84413  0.28573  0.83296  Biso   1.000  H
  H127     1.0000 0.84756  0.33538  0.92826  Biso   1.000  H
  C130     1.0000 0.78893  0.37226  0.81220  Biso   1.000  C
  H128     1.0000 0.84412  0.28567  0.83296  Biso   1.000  H
  H129     1.0000 0.84750  0.33538  0.92826  Biso   1.000  H
  C131     1.0000 0.78891  0.37229  0.81227  Biso   1.000  C
  H130     1.0000 0.99289  0.54300  0.40697  Biso   1.000  H
  H131     1.0000 0.07401  0.53003  0.38901  Biso   1.000  H
  H132     1.0000 0.09803  0.60943  0.47341  Biso   1.000  H
  H133     1.0000 0.09797  0.60943  0.47341  Biso   1.000  H
  H134     1.0000 0.07400  0.52998  0.38901  Biso   1.000  H
  H135     1.0000 0.09796  0.60937  0.47341  Biso   1.000  H
  C132     1.0000 0.48772  0.74723  0.13500  Biso   1.000  C
  C133     1.0000 0.48770  0.74718  0.13500  Biso   1.000  C
  O27      1.0000 0.59737  0.08249  0.67076  Biso   1.000  O
  O28      1.0000 0.59732  0.08249  0.67076  Biso   1.000  O
  C134     1.0000 0.62851  0.90470  0.65175  Biso   1.000  C
  C135     1.0000 0.62849  0.90465  0.65175  Biso   1.000  C
  H136     1.0000 0.28659  0.26950  0.31818  Biso   1.000  H
  H137     1.0000 0.30411  0.22743  0.23538  Biso   1.000  H
  C136     1.0000 0.36926  0.35399  0.29265  Biso   1.000  C
  H138     1.0000 0.28653  0.26950  0.31818  Biso   1.000  H
  H139     1.0000 0.30404  0.22737  0.23538  Biso   1.000  H
  C137     1.0000 0.36930  0.35402  0.29272  Biso   1.000  C
  C138     1.0000 0.26663  0.83122  0.15962  Biso   1.000  C
  C139     1.0000 0.26661  0.83117  0.15962  Biso   1.000  C
  O29      1.0000 0.40259  0.91753  0.32916  Biso   1.000  O
  O30      1.0000 0.40262  0.91749  0.32924  Biso   1.000  O
  O31      1.0000 0.40258  0.91747  0.32916  Biso   1.000  O
  C140     1.0000 0.16845  0.89083  0.05348  Biso   1.000  C
  C141     1.0000 0.16847  0.89080  0.05356  Biso   1.000  C
  O32      1.0000 0.22843  0.03464  0.10932  Biso   1.000  O
  O33      1.0000 0.22836  0.03459  0.10932  Biso   1.000  O
  C142     1.0000 0.21552  0.13591  0.71705  Biso   1.000  C
  C143     1.0000 0.21551  0.13586  0.71705  Biso   1.000  C
  C144     1.0000 0.18583  0.22939  0.64053  Biso   1.000  C
  C145     1.0000 0.18587  0.22942  0.64061  Biso   1.000  C
  C146     1.0000 0.49733  0.05057  0.63932  Biso   1.000  C
  C147     1.0000 0.49737  0.05059  0.63940  Biso   1.000  C
  H140     1.0000 0.40942  0.07612  0.68243  Biso   1.000  H
  H141     1.0000 0.51313  0.09298  0.77394  Biso   1.000  H
  H142     1.0000 0.40945  0.07609  0.68250  Biso   1.000  H
  H143     1.0000 0.40941  0.07607  0.68243  Biso   1.000  H
  H144     1.0000 0.74673  0.39190  0.82826  Biso   1.000  H
  H145     1.0000 0.75466  0.34710  0.73917  Biso   1.000  H
  C148     1.0000 0.87836  0.44269  0.85061  Biso   1.000  C
  C149     1.0000 0.87834  0.44272  0.85068  Biso   1.000  C
  C150     1.0000 0.43844  0.76542  0.17970  Biso   1.000  C
  C151     1.0000 0.43843  0.76537  0.17970  Biso   1.000  C
  C152     1.0000 0.43802  0.69249  0.03659  Biso   1.000  C
  C153     1.0000 0.54908  0.82421  0.58743  Biso   1.000  C
  C154     1.0000 0.54911  0.82417  0.58750  Biso   1.000  C
  H146     1.0000 0.63299  0.93208  0.60932  Biso   1.000  H
  H147     1.0000 0.68988  0.89938  0.69015  Biso   1.000  H
  H148     1.0000 0.63303  0.93211  0.60940  Biso   1.000  H
  H149     1.0000 0.43088  0.35903  0.34629  Biso   1.000  H
  H150     1.0000 0.37287  0.35501  0.23568  Biso   1.000  H
  H151     1.0000 0.35285  0.39771  0.31576  Biso   1.000  H
  H152     1.0000 0.43087  0.35897  0.34629  Biso   1.000  H
  H153     1.0000 0.35289  0.39773  0.31583  Biso   1.000  H
  H154     1.0000 0.35288  0.39768  0.31583  Biso   1.000  H
  C155     1.0000 0.28426  0.75703  0.17659  Biso   1.000  C
  C156     1.0000 0.28418  0.75698  0.17659  Biso   1.000  C
  C157     1.0000 0.18625  0.82513  0.07250  Biso   1.000  C
  C158     1.0000 0.18624  0.82508  0.07250  Biso   1.000  C
  C159     1.0000 0.50264  0.94944  0.36060  Biso   1.000  C
  C160     1.0000 0.50263  0.94939  0.36060  Biso   1.000  C
  C161     1.0000 0.07581  0.88271  0.96076  Biso   1.000  C
  C162     1.0000 0.07574  0.88266  0.96076  Biso   1.000  C
  C163     1.0000 0.07575  0.88271  0.96076  Biso   1.000  C
  C164     1.0000 0.27368  0.05982  0.05879  Biso   1.000  C
  C165     1.0000 0.27367  0.05977  0.05879  Biso   1.000  C
  C166     1.0000 0.11780  0.09580  0.67061  Biso   1.000  C
  C167     1.0000 0.11784  0.09582  0.67068  Biso   1.000  C
  C168     1.0000 0.11783  0.09577  0.67068  Biso   1.000  C
  H155     1.0000 0.25863  0.11779  0.75955  Biso   1.000  H
  C169     1.0000 0.08803  0.18901  0.59273  Biso   1.000  C
  C170     1.0000 0.08806  0.18898  0.59281  Biso   1.000  C
  H156     1.0000 0.20834  0.27532  0.63182  Biso   1.000  H
  H157     1.0000 0.20836  0.27529  0.63190  Biso   1.000  H
  H158     1.0000 0.20832  0.27527  0.63182  Biso   1.000  H
  H159     1.0000 0.48048  0.99588  0.63425  Biso   1.000  H
  H160     1.0000 0.45649  0.04993  0.57265  Biso   1.000  H
  H161     1.0000 0.45642  0.04988  0.57265  Biso   1.000  H
  H162     1.0000 0.45648  0.04988  0.57265  Biso   1.000  H
  H163     1.0000 0.92585  0.42268  0.84674  Biso   1.000  H
  H164     1.0000 0.90577  0.47371  0.92144  Biso   1.000  H
  C171     1.0000 0.86308  0.49673  0.79583  Biso   1.000  C
  H165     1.0000 0.90570  0.47366  0.92144  Biso   1.000  H
  C172     1.0000 0.86301  0.49667  0.79583  Biso   1.000  C
  C173     1.0000 0.86307  0.49667  0.79583  Biso   1.000  C
  C174     1.0000 0.33621  0.72962  0.12561  Biso   1.000  C
  C175     1.0000 0.33620  0.72957  0.12561  Biso   1.000  C
  O34      1.0000 0.48942  0.81943  0.27909  Biso   1.000  O
  O35      1.0000 0.48941  0.81938  0.27909  Biso   1.000  O
  C176     1.0000 0.33759  0.65413  0.98045  Biso   1.000  C
  C177     1.0000 0.33752  0.65407  0.98045  Biso   1.000  C
  C178     1.0000 0.33758  0.65407  0.98045  Biso   1.000  C
  O36      1.0000 0.49104  0.67276  0.99561  Biso   1.000  O
  O37      1.0000 0.49108  0.67279  0.99568  Biso   1.000  O
  C179     1.0000 0.48910  0.79101  0.61493  Biso   1.000  C
  C180     1.0000 0.48912  0.79098  0.61500  Biso   1.000  C
  C181     1.0000 0.53810  0.77850  0.49826  Biso   1.000  C
  C182     1.0000 0.19233  0.69049  0.14500  Biso   1.000  C
  H166     1.0000 0.32923  0.77392  0.24970  Biso   1.000  H
  H167     1.0000 0.32922  0.77386  0.24970  Biso   1.000  H
  H168     1.0000 0.14184  0.77421  0.02401  Biso   1.000  H
  C183     1.0000 0.52172  0.90332  0.29106  Biso   1.000  C
  C184     1.0000 0.52175  0.90329  0.29113  Biso   1.000  C
  H169     1.0000 0.54348  0.95008  0.42727  Biso   1.000  H
  H170     1.0000 0.51949  0.00413  0.36568  Biso   1.000  H
  H171     1.0000 0.51941  0.00407  0.36568  Biso   1.000  H
  C185     1.0000 0.98696  0.81479  0.93144  Biso   1.000  C
  C186     1.0000 0.08965  0.87848  0.87273  Biso   1.000  C
  H172     1.0000 0.06498  0.93230  0.97962  Biso   1.000  H
  H173     1.0000 0.06491  0.93225  0.97962  Biso   1.000  H
  C187     1.0000 0.20372  0.08159  0.97795  Biso   1.000  C
  H174     1.0000 0.28794  0.01694  0.02833  Biso   1.000  H
  H175     1.0000 0.33412  0.10572  0.10720  Biso   1.000  H
  H176     1.0000 0.28786  0.01689  0.02833  Biso   1.000  H
  H177     1.0000 0.33406  0.10572  0.10720  Biso   1.000  H
  H178     1.0000 0.33405  0.10566  0.10720  Biso   1.000  H
  C188     1.0000 0.07651  0.02458  0.68584  Biso   1.000  C
  C189     1.0000 0.05373  0.12252  0.60743  Biso   1.000  C
  C190     1.0000 0.05375  0.12249  0.60750  Biso   1.000  C
  C191     1.0000 0.05371  0.12247  0.60743  Biso   1.000  C
  H179     1.0000 0.04456  0.20671  0.54993  Biso   1.000  H
  H180     1.0000 0.04459  0.20668  0.55000  Biso   1.000  H
  H181     1.0000 0.84273  0.46740  0.72674  Biso   1.000  H
  H182     1.0000 0.81053  0.51209  0.79311  Biso   1.000  H
  C192     1.0000 0.95085  0.57103  0.84243  Biso   1.000  C
  H183     1.0000 0.81057  0.51212  0.79318  Biso   1.000  H
  C193     1.0000 0.95084  0.57097  0.84243  Biso   1.000  C
  C194     1.0000 0.28927  0.67471  0.02720  Biso   1.000  C
  C195     1.0000 0.28921  0.67471  0.02720  Biso   1.000  C
  C196     1.0000 0.28655  0.59328  0.87114  Biso   1.000  C
  C197     1.0000 0.51776  0.72890  0.95689  Biso   1.000  C
  C198     1.0000 0.51773  0.72887  0.95697  Biso   1.000  C
  C199     1.0000 0.41785  0.71469  0.55553  Biso   1.000  C
  C200     1.0000 0.41789  0.71472  0.55561  Biso   1.000  C
  H184     1.0000 0.49649  0.82057  0.67493  Biso   1.000  H
  H185     1.0000 0.49647  0.82060  0.67500  Biso   1.000  H
  C201     1.0000 0.46941  0.70289  0.43955  Biso   1.000  C
  C202     1.0000 0.46935  0.70289  0.43955  Biso   1.000  C
  H186     1.0000 0.57813  0.79978  0.47856  Biso   1.000  H
  H187     1.0000 0.57807  0.79978  0.47856  Biso   1.000  H
  C203     1.0000 0.21103  0.62775  0.18773  Biso   1.000  C
  C204     1.0000 0.21102  0.62769  0.18773  Biso   1.000  C
  H188     1.0000 0.15583  0.71428  0.16697  Biso   1.000  H
  H189     1.0000 0.15240  0.66463  0.07167  Biso   1.000  H
  H190     1.0000 0.15581  0.71430  0.16704  Biso   1.000  H
  H191     1.0000 0.15243  0.66460  0.07174  Biso   1.000  H
  H192     1.0000 0.15239  0.66457  0.07167  Biso   1.000  H
  H193     1.0000 0.59054  0.92389  0.31750  Biso   1.000  H
  H194     1.0000 0.48684  0.90703  0.22598  Biso   1.000  H
  H195     1.0000 0.59048  0.92389  0.31750  Biso   1.000  H
  H196     1.0000 0.48682  0.90697  0.22598  Biso   1.000  H
  H197     1.0000 0.99435  0.76469  0.90970  Biso   1.000  H
  H198     1.0000 0.98488  0.82018  0.99114  Biso   1.000  H
  C205     1.0000 0.89141  0.81029  0.84886  Biso   1.000  C
  H199     1.0000 0.99439  0.76471  0.90977  Biso   1.000  H
  H200     1.0000 0.98482  0.82018  0.99114  Biso   1.000  H
  C206     1.0000 0.89135  0.81029  0.84886  Biso   1.000  C
  H201     1.0000 0.99437  0.76465  0.90977  Biso   1.000  H
  C207     1.0000 0.08058  0.80706  0.81000  Biso   1.000  C
  C208     1.0000 0.11199  0.94638  0.85303  Biso   1.000  C
  C209     1.0000 0.08056  0.80708  0.81008  Biso   1.000  C
  C210     1.0000 0.11193  0.94638  0.85303  Biso   1.000  C
  O38      1.0000 0.11230  0.01718  0.90636  Biso   1.000  O
  H202     1.0000 0.23239  0.09798  0.94242  Biso   1.000  H
  H203     1.0000 0.19349  0.12680  0.01008  Biso   1.000  H
  H204     1.0000 0.19353  0.12682  0.01015  Biso   1.000  H
  O39      1.0000 0.15405  0.01012  0.75977  Biso   1.000  O
  O40      1.0000 0.15404  0.01006  0.75977  Biso   1.000  O
  H205     1.0000 0.03830  0.97813  0.62228  Biso   1.000  H
  H206     1.0000 0.03829  0.97807  0.62228  Biso   1.000  H
  H207     1.0000 0.03444  0.03419  0.70887  Biso   1.000  H
  H208     1.0000 0.98724  0.09553  0.57485  Biso   1.000  H
  H209     1.0000 0.98723  0.09548  0.57485  Biso   1.000  H
  H210     1.0000 0.93825  0.59921  0.79833  Biso   1.000  H
  H211     1.0000 0.96525  0.60483  0.90667  Biso   1.000  H
  H212     1.0000 0.96523  0.60477  0.90667  Biso   1.000  H
  H213     1.0000 0.93824  0.59915  0.79833  Biso   1.000  H
  H214     1.0000 0.00515  0.55670  0.85235  Biso   1.000  H
  H215     1.0000 0.22181  0.65018  0.99000  Biso   1.000  H
  H216     1.0000 0.22185  0.65020  0.99008  Biso   1.000  H
  C211     1.0000 0.26667  0.63691  0.79924  Biso   1.000  C
  H217     1.0000 0.33326  0.57042  0.86886  Biso   1.000  H
  C212     1.0000 0.19667  0.52341  0.83682  Biso   1.000  C
  C213     1.0000 0.26665  0.63686  0.79924  Biso   1.000  C
  H218     1.0000 0.33324  0.57036  0.86886  Biso   1.000  H
  C214     1.0000 0.19663  0.52338  0.83690  Biso   1.000  C
  C215     1.0000 0.19665  0.52336  0.83682  Biso   1.000  C
  H219     1.0000 0.58597  0.76324  0.00348  Biso   1.000  H
  H220     1.0000 0.58594  0.76320  0.00356  Biso   1.000  H
  H221     1.0000 0.58596  0.76318  0.00348  Biso   1.000  H
  H222     1.0000 0.47982  0.76229  0.94992  Biso   1.000  H
  C216     1.0000 0.49897  0.68298  0.85576  Biso   1.000  C
  C217     1.0000 0.34907  0.67792  0.58144  Biso   1.000  C
  C218     1.0000 0.34905  0.67787  0.58144  Biso   1.000  C
  C219     1.0000 0.41010  0.67024  0.46879  Biso   1.000  C
  C220     1.0000 0.41009  0.67018  0.46879  Biso   1.000  C
  H223     1.0000 0.46233  0.67331  0.37985  Biso   1.000  H
  H224     1.0000 0.46225  0.67326  0.37985  Biso   1.000  H
  C221     1.0000 0.12161  0.55732  0.14932  Biso   1.000  C
  C222     1.0000 0.12159  0.55726  0.14932  Biso   1.000  C
  H225     1.0000 0.25324  0.60811  0.17167  Biso   1.000  H
  H226     1.0000 0.24531  0.65291  0.26076  Biso   1.000  H
  H227     1.0000 0.25320  0.60808  0.17174  Biso   1.000  H
  H228     1.0000 0.24534  0.65288  0.26083  Biso   1.000  H
  H229     1.0000 0.89364  0.80801  0.78962  Biso   1.000  H
  H230     1.0000 0.88028  0.85822  0.87174  Biso   1.000  H
  C223     1.0000 0.80742  0.73670  0.81970  Biso   1.000  C
  H231     1.0000 0.89367  0.80798  0.78970  Biso   1.000  H
  H232     1.0000 0.88027  0.85816  0.87174  Biso   1.000  H
  C224     1.0000 0.80745  0.73667  0.81977  Biso   1.000  C
  C225     1.0000 0.09051  0.80032  0.72924  Biso   1.000  C
  H233     1.0000 0.06706  0.76169  0.82333  Biso   1.000  H
  C226     1.0000 0.09044  0.80026  0.72924  Biso   1.000  C
  C227     1.0000 0.12547  0.94058  0.77371  Biso   1.000  C
  C228     1.0000 0.12551  0.94061  0.77379  Biso   1.000  C
  C229     1.0000 0.32803  0.65598  0.76682  Biso   1.000  C
  C230     1.0000 0.18667  0.65960  0.76432  Biso   1.000  C
  C231     1.0000 0.32807  0.65600  0.76690  Biso   1.000  C
  C232     1.0000 0.18669  0.65956  0.76440  Biso   1.000  C
  H234     1.0000 0.14588  0.54273  0.83106  Biso   1.000  H
  H235     1.0000 0.21201  0.50057  0.88743  Biso   1.000  H
  C233     1.0000 0.15976  0.45840  0.73493  Biso   1.000  C
  H236     1.0000 0.14586  0.54267  0.83106  Biso   1.000  H
  C234     1.0000 0.15978  0.45837  0.73500  Biso   1.000  C
  O41      1.0000 0.40097  0.62600  0.78614  Biso   1.000  O
  O42      1.0000 0.40096  0.62595  0.78614  Biso   1.000  O
  H237     1.0000 0.51218  0.72017  0.82682  Biso   1.000  H
  H238     1.0000 0.54306  0.65497  0.86500  Biso   1.000  H
  H239     1.0000 0.51216  0.72020  0.82690  Biso   1.000  H
  H240     1.0000 0.54304  0.65499  0.86508  Biso   1.000  H
  O43      1.0000 0.37930  0.72549  0.68167  Biso   1.000  O
  O44      1.0000 0.37924  0.72549  0.68167  Biso   1.000  O
  H241     1.0000 0.34711  0.62439  0.57637  Biso   1.000  H
  H242     1.0000 0.28427  0.67358  0.53372  Biso   1.000  H
  H243     1.0000 0.34705  0.62439  0.57637  Biso   1.000  H
  H244     1.0000 0.28431  0.67360  0.53379  Biso   1.000  H
  H245     1.0000 0.36479  0.61788  0.42963  Biso   1.000  H
  H246     1.0000 0.36483  0.61790  0.42970  Biso   1.000  H
  C235     1.0000 0.13688  0.50328  0.20409  Biso   1.000  C
  H247     1.0000 0.07412  0.57733  0.15318  Biso   1.000  H
  H248     1.0000 0.09420  0.52630  0.07848  Biso   1.000  H
  H249     1.0000 0.07411  0.57727  0.15318  Biso   1.000  H
  H250     1.0000 0.81941  0.68916  0.79720  Biso   1.000  H
  H251     1.0000 0.80653  0.73908  0.87962  Biso   1.000  H
  C236     1.0000 0.71188  0.72841  0.74015  Biso   1.000  C
  H252     1.0000 0.81945  0.68918  0.79727  Biso   1.000  H
  C237     1.0000 0.71186  0.72835  0.74015  Biso   1.000  C
  C238     1.0000 0.11180  0.86911  0.71152  Biso   1.000  C
  C239     1.0000 0.07446  0.71991  0.65834  Biso   1.000  C
  C240     1.0000 0.11177  0.86907  0.71159  Biso   1.000  C
  C241     1.0000 0.07445  0.71985  0.65834  Biso   1.000  C
  C242     1.0000 0.31294  0.70108  0.70773  Biso   1.000  C
  H253     1.0000 0.14418  0.64612  0.78455  Biso   1.000  H
  C243     1.0000 0.16707  0.70068  0.70152  Biso   1.000  C
  H254     1.0000 0.14417  0.64607  0.78455  Biso   1.000  H
  C244     1.0000 0.16711  0.70070  0.70159  Biso   1.000  C
  H255     1.0000 0.21124  0.43961  0.74182  Biso   1.000  H
  H256     1.0000 0.14645  0.48228  0.68553  Biso   1.000  H
  C245     1.0000 0.06926  0.38649  0.69371  Biso   1.000  C
  H257     1.0000 0.21127  0.43957  0.74190  Biso   1.000  H
  C246     1.0000 0.06924  0.38651  0.69379  Biso   1.000  C
  C247     1.0000 0.06923  0.38646  0.69379  Biso   1.000  C
  C248     1.0000 0.04911  0.42898  0.15750  Biso   1.000  C
  H258     1.0000 0.15723  0.53261  0.27318  Biso   1.000  H
  H259     1.0000 0.18943  0.48792  0.20682  Biso   1.000  H
  H260     1.0000 0.15717  0.53261  0.27318  Biso   1.000  H
  H261     1.0000 0.15716  0.53255  0.27318  Biso   1.000  H
  H262     1.0000 0.18942  0.48786  0.20682  Biso   1.000  H
  H263     1.0000 0.71337  0.73051  0.68174  Biso   1.000  H
  H264     1.0000 0.69586  0.77258  0.76455  Biso   1.000  H
  C249     1.0000 0.63070  0.64602  0.70728  Biso   1.000  C
  H265     1.0000 0.71336  0.73046  0.68174  Biso   1.000  H
  C250     1.0000 0.63069  0.64596  0.70728  Biso   1.000  C
  O45      1.0000 0.11406  0.86397  0.62553  Biso   1.000  O
  O46      1.0000 0.11410  0.86400  0.62561  Biso   1.000  O
  C251     1.0000 0.98499  0.65118  0.62712  Biso   1.000  C
  C252     1.0000 0.98497  0.65120  0.62720  Biso   1.000  C
  H266     1.0000 0.06280  0.72630  0.59606  Biso   1.000  H
  C253     1.0000 0.23468  0.72382  0.67758  Biso   1.000  C
  C254     1.0000 0.23467  0.72377  0.67758  Biso   1.000  C
  C255     1.0000 0.98046  0.39308  0.66781  Biso   1.000  C
  C256     1.0000 0.98044  0.39310  0.66788  Biso   1.000  C
  H267     1.0000 0.05856  0.34778  0.63364  Biso   1.000  H
  H268     1.0000 0.08501  0.36281  0.74341  Biso   1.000  H
  H269     1.0000 0.08504  0.36278  0.74349  Biso   1.000  H
  H270     1.0000 0.08500  0.36275  0.74341  Biso   1.000  H
  H271     1.0000 0.06171  0.40080  0.20159  Biso   1.000  H
  H272     1.0000 0.03472  0.39518  0.09326  Biso   1.000  H
  H273     1.0000 0.03470  0.39521  0.09333  Biso   1.000  H
  H274     1.0000 0.99481  0.44331  0.14757  Biso   1.000  H
  H275     1.0000 0.99484  0.44328  0.14765  Biso   1.000  H
  H276     1.0000 0.56909  0.64098  0.65364  Biso   1.000  H
  H277     1.0000 0.62709  0.64500  0.76424  Biso   1.000  H
  H278     1.0000 0.64711  0.60230  0.68417  Biso   1.000  H
  H279     1.0000 0.56903  0.64098  0.65364  Biso   1.000  H
  H280     1.0000 0.62702  0.64495  0.76424  Biso   1.000  H
  H281     1.0000 0.64705  0.60230  0.68417  Biso   1.000  H
  C257     1.0000 0.20387  0.89471  0.63682  Biso   1.000  C
  C258     1.0000 0.20390  0.89468  0.63690  Biso   1.000  C
  H282     1.0000 0.99038  0.64663  0.68758  Biso   1.000  H
  H283     1.0000 0.98316  0.60171  0.58773  Biso   1.000  H
  C259     1.0000 0.89073  0.66142  0.56538  Biso   1.000  C
  H284     1.0000 0.99037  0.64658  0.68758  Biso   1.000  H
  H285     1.0000 0.98319  0.60168  0.58781  Biso   1.000  H
  C260     1.0000 0.89066  0.66136  0.56538  Biso   1.000  C
  O47      1.0000 0.22222  0.76849  0.61887  Biso   1.000  O
  O48      1.0000 0.22216  0.76849  0.61887  Biso   1.000  O
  H286     1.0000 0.98557  0.42520  0.72826  Biso   1.000  H
  H287     1.0000 0.93125  0.34038  0.63917  Biso   1.000  H
  C261     1.0000 0.95145  0.43099  0.59273  Biso   1.000  C
  C262     1.0000 0.95149  0.43101  0.59281  Biso   1.000  C
  H288     1.0000 0.98556  0.42515  0.72826  Biso   1.000  H
  C263     1.0000 0.27026  0.85340  0.68023  Biso   1.000  C
  C264     1.0000 0.27030  0.85342  0.68031  Biso   1.000  C
  C265     1.0000 0.27029  0.85337  0.68031  Biso   1.000  C
  H289     1.0000 0.23535  0.95121  0.68061  Biso   1.000  H
  H290     1.0000 0.19270  0.88993  0.57114  Biso   1.000  H
  H291     1.0000 0.23538  0.95117  0.68068  Biso   1.000  H
  H292     1.0000 0.19269  0.88987  0.57114  Biso   1.000  H
  H293     1.0000 0.89097  0.70911  0.60667  Biso   1.000  H
  H294     1.0000 0.88780  0.67000  0.50766  Biso   1.000  H
  C266     1.0000 0.80065  0.59190  0.52743  Biso   1.000  C
  C267     1.0000 0.80068  0.59187  0.52750  Biso   1.000  C
  H295     1.0000 0.89096  0.70905  0.60667  Biso   1.000  H
  H296     1.0000 0.88779  0.66995  0.50766  Biso   1.000  H
  H297     1.0000 0.92595  0.46998  0.61091  Biso   1.000  H
  H298     1.0000 0.90194  0.39058  0.52652  Biso   1.000  H
  H299     1.0000 0.92599  0.47000  0.61099  Biso   1.000  H
  H300     1.0000 0.90198  0.39061  0.52659  Biso   1.000  H
  H301     1.0000 0.00708  0.45701  0.59296  Biso   1.000  H
  H302     1.0000 0.00706  0.45695  0.59296  Biso   1.000  H
  H303     1.0000 0.32911  0.87450  0.68197  Biso   1.000  H
  H304     1.0000 0.28798  0.86289  0.74902  Biso   1.000  H
  H305     1.0000 0.28802  0.86292  0.74909  Biso   1.000  H
  H306     1.0000 0.28800  0.86286  0.74909  Biso   1.000  H
  H307     1.0000 0.80321  0.58341  0.58508  Biso   1.000  H
  H308     1.0000 0.80026  0.54418  0.48622  Biso   1.000  H
  C268     1.0000 0.70569  0.60297  0.46463  Biso   1.000  C
  H309     1.0000 0.80029  0.54421  0.48629  Biso   1.000  H
  C269     1.0000 0.70567  0.60299  0.46470  Biso   1.000  C
  H310     1.0000 0.70677  0.65100  0.50614  Biso   1.000  H
  H311     1.0000 0.70377  0.61178  0.40743  Biso   1.000  H
  C270     1.0000 0.61562  0.53632  0.42599  Biso   1.000  C
  H312     1.0000 0.70680  0.65097  0.50622  Biso   1.000  H
  H313     1.0000 0.70381  0.61180  0.40750  Biso   1.000  H
  C271     1.0000 0.61561  0.53626  0.42599  Biso   1.000  C
  H314     1.0000 0.56087  0.55018  0.39114  Biso   1.000  H
  H315     1.0000 0.61679  0.52587  0.48144  Biso   1.000  H
  H316     1.0000 0.61038  0.48932  0.37985  Biso   1.000  H
  H317     1.0000 0.56091  0.55020  0.39122  Biso   1.000  H
  H318     1.0000 0.61673  0.52587  0.48144  Biso   1.000  H
  H319     1.0000 0.61037  0.48926  0.37985  Biso   1.000  H
  C272     1.0000 0.72964  0.14661  0.31969  Biso   1.000  C
  O49      1.0000 0.77775  0.23152  0.38106  Biso   1.000  O
  O50      1.0000 0.77777  0.23149  0.38113  Biso   1.000  O
  C273     1.0000 0.79609  0.10530  0.36310  Biso   1.000  C
  C274     1.0000 0.79603  0.10530  0.36310  Biso   1.000  C
  H320     1.0000 0.67086  0.12551  0.31795  Biso   1.000  H
  H321     1.0000 0.71199  0.13712  0.25091  Biso   1.000  H
  H322     1.0000 0.67090  0.12553  0.31803  Biso   1.000  H
  H323     1.0000 0.67088  0.12548  0.31803  Biso   1.000  H
  C275     1.0000 0.76528  0.27619  0.32235  Biso   1.000  C
  C276     1.0000 0.76526  0.27621  0.32242  Biso   1.000  C
  C277     1.0000 0.72970  0.14661  0.31969  Biso   1.000  C
  O51      1.0000 0.88591  0.13604  0.37439  Biso   1.000  O
  O52      1.0000 0.88583  0.13598  0.37439  Biso   1.000  O
  O53      1.0000 0.88589  0.13598  0.37439  Biso   1.000  O
  H324     1.0000 0.76461  0.04881  0.31932  Biso   1.000  H
  H325     1.0000 0.80726  0.11008  0.42878  Biso   1.000  H
  H326     1.0000 0.76455  0.04881  0.31932  Biso   1.000  H
  C278     1.0000 0.68703  0.29893  0.29219  Biso   1.000  C
  C279     1.0000 0.68695  0.29888  0.29219  Biso   1.000  C
  C280     1.0000 0.83290  0.29933  0.29841  Biso   1.000  C
  C281     1.0000 0.83289  0.29928  0.29841  Biso   1.000  C
  C282     1.0000 0.88816  0.13091  0.28841  Biso   1.000  C
  O54      1.0000 0.62066  0.27452  0.31826  Biso   1.000  O
  O55      1.0000 0.62069  0.27449  0.31833  Biso   1.000  O
  C283     1.0000 0.67193  0.34403  0.23310  Biso   1.000  C
  C284     1.0000 0.67186  0.34398  0.23310  Biso   1.000  C
  C285     1.0000 0.81330  0.34041  0.23560  Biso   1.000  C
  C286     1.0000 0.92550  0.28010  0.34159  Biso   1.000  C
  C287     1.0000 0.92544  0.28010  0.34159  Biso   1.000  C
  C288     1.0000 0.87449  0.05943  0.22621  Biso   1.000  C
  C289     1.0000 0.87448  0.05937  0.22621  Biso   1.000  C
  C290     1.0000 0.90946  0.19969  0.27068  Biso   1.000  C
  C291     1.0000 0.65090  0.32209  0.41848  Biso   1.000  C
  C292     1.0000 0.65084  0.32209  0.41848  Biso   1.000  C
  O56      1.0000 0.59900  0.37401  0.21379  Biso   1.000  O
  C293     1.0000 0.73330  0.36310  0.20068  Biso   1.000  C
  H327     1.0000 0.85578  0.35389  0.21538  Biso   1.000  H
  H328     1.0000 0.93717  0.27371  0.40386  Biso   1.000  H
  H329     1.0000 0.93721  0.27373  0.40394  Biso   1.000  H
  H330     1.0000 0.93719  0.27368  0.40394  Biso   1.000  H
  C294     1.0000 0.01498  0.34884  0.37280  Biso   1.000  C
  C295     1.0000 0.01497  0.34878  0.37280  Biso   1.000  C
  O57      1.0000 0.84591  0.98990  0.24015  Biso   1.000  O
  O58      1.0000 0.84595  0.98992  0.24023  Biso   1.000  O
  C296     1.0000 0.88797  0.05363  0.14689  Biso   1.000  C
  C297     1.0000 0.88796  0.05357  0.14689  Biso   1.000  C
  C298     1.0000 0.91939  0.19295  0.18992  Biso   1.000  C
  C299     1.0000 0.91938  0.19290  0.18992  Biso   1.000  C
  C300     1.0000 0.58211  0.28532  0.44439  Biso   1.000  C
  C301     1.0000 0.58205  0.28532  0.44439  Biso   1.000  C
  C302     1.0000 0.58204  0.28526  0.44439  Biso   1.000  C
  H331     1.0000 0.65286  0.37562  0.42356  Biso   1.000  H
  H332     1.0000 0.71570  0.32643  0.46621  Biso   1.000  H
  H333     1.0000 0.65288  0.37559  0.42363  Biso   1.000  H
  H334     1.0000 0.71568  0.32638  0.46621  Biso   1.000  H
  C303     1.0000 0.50099  0.31703  0.14417  Biso   1.000  C
  C304     1.0000 0.50102  0.31700  0.14424  Biso   1.000  C
  C305     1.0000 0.50098  0.31698  0.14417  Biso   1.000  C
  C306     1.0000 0.71341  0.40673  0.12879  Biso   1.000  C
  C307     1.0000 0.71340  0.40668  0.12879  Biso   1.000  C
  H335     1.0000 0.00958  0.35338  0.31235  Biso   1.000  H
  H336     1.0000 0.01680  0.39830  0.41219  Biso   1.000  H
  C308     1.0000 0.10924  0.33859  0.43454  Biso   1.000  C
  H337     1.0000 0.00956  0.35340  0.31242  Biso   1.000  H
  H338     1.0000 0.01675  0.39830  0.41219  Biso   1.000  H
  C309     1.0000 0.10928  0.33861  0.43462  Biso   1.000  C
  C310     1.0000 0.92346  0.97543  0.31409  Biso   1.000  C
  C311     1.0000 0.92338  0.97538  0.31409  Biso   1.000  C
  O59      1.0000 0.88763  0.98280  0.09364  Biso   1.000  O
  O60      1.0000 0.88766  0.98283  0.09356  Biso   1.000  O
  O61      1.0000 0.88765  0.98278  0.09356  Biso   1.000  O
  C312     1.0000 0.91031  0.12153  0.12720  Biso   1.000  C
  C313     1.0000 0.91030  0.12147  0.12720  Biso   1.000  C
  H339     1.0000 0.93291  0.23832  0.17659  Biso   1.000  H
  H340     1.0000 0.93290  0.23827  0.17659  Biso   1.000  H
  C314     1.0000 0.51087  0.20900  0.38500  Biso   1.000  C
  C315     1.0000 0.58986  0.32977  0.53113  Biso   1.000  C
  C316     1.0000 0.58984  0.32980  0.53121  Biso   1.000  C
  C317     1.0000 0.48220  0.27111  0.04303  Biso   1.000  C
  H341     1.0000 0.48779  0.27984  0.17310  Biso   1.000  H
  H342     1.0000 0.45691  0.34504  0.13492  Biso   1.000  H
  H343     1.0000 0.48777  0.27978  0.17310  Biso   1.000  H
  H344     1.0000 0.45689  0.34499  0.13492  Biso   1.000  H
  C318     1.0000 0.66237  0.34589  0.01947  Biso   1.000  C
  H345     1.0000 0.66671  0.42960  0.13106  Biso   1.000  H
  C319     1.0000 0.80330  0.47660  0.16310  Biso   1.000  C
  C320     1.0000 0.66241  0.34591  0.01955  Biso   1.000  C
  H346     1.0000 0.66669  0.42962  0.13114  Biso   1.000  H
  H347     1.0000 0.10899  0.29090  0.39325  Biso   1.000  H
  H348     1.0000 0.11216  0.33001  0.49227  Biso   1.000  H
  C321     1.0000 0.19931  0.40811  0.47250  Biso   1.000  C
  H349     1.0000 0.10897  0.29093  0.39333  Biso   1.000  H
  C322     1.0000 0.19925  0.40811  0.47250  Biso   1.000  C
  C323     1.0000 0.88216  0.90421  0.32932  Biso   1.000  C
  C324     1.0000 0.88210  0.90421  0.32932  Biso   1.000  C
  H350     1.0000 0.96555  0.96579  0.29113  Biso   1.000  H
  H351     1.0000 0.96552  0.96582  0.29106  Biso   1.000  H
  H352     1.0000 0.96551  0.96577  0.29106  Biso   1.000  H
  H353     1.0000 0.96166  0.02188  0.37765  Biso   1.000  H
  H354     1.0000 0.96164  0.02191  0.37772  Biso   1.000  H
  C325     1.0000 0.79625  0.91842  0.02197  Biso   1.000  C
  C326     1.0000 0.79627  0.91839  0.02205  Biso   1.000  C
  C327     1.0000 0.92416  0.11730  0.03917  Biso   1.000  C
  C328     1.0000 0.92420  0.11732  0.03924  Biso   1.000  C
  C329     1.0000 0.45088  0.17580  0.41250  Biso   1.000  C
  H355     1.0000 0.50347  0.17944  0.32500  Biso   1.000  H
  H356     1.0000 0.50346  0.17938  0.32500  Biso   1.000  H
  C330     1.0000 0.53055  0.29712  0.56037  Biso   1.000  C
  C331     1.0000 0.53054  0.29707  0.56037  Biso   1.000  C
  H357     1.0000 0.63517  0.38213  0.57030  Biso   1.000  H
  H358     1.0000 0.63516  0.38207  0.57030  Biso   1.000  H
  H359     1.0000 0.41399  0.23677  0.99644  Biso   1.000  H
  O62      1.0000 0.50893  0.32725  0.00432  Biso   1.000  O
  H360     1.0000 0.52014  0.23772  0.05000  Biso   1.000  H
  O63      1.0000 0.50891  0.32719  0.00432  Biso   1.000  O
  H361     1.0000 0.52008  0.23772  0.05000  Biso   1.000  H
  C332     1.0000 0.56195  0.30752  0.96333  Biso   1.000  C
  C333     1.0000 0.56187  0.30747  0.96333  Biso   1.000  C
  C334     1.0000 0.56193  0.30747  0.96333  Biso   1.000  C
  C335     1.0000 0.71070  0.32530  0.97273  Biso   1.000  C
  C336     1.0000 0.71068  0.32524  0.97273  Biso   1.000  C
  H362     1.0000 0.85409  0.45729  0.16886  Biso   1.000  H
  H363     1.0000 0.78795  0.49944  0.11250  Biso   1.000  H
  C337     1.0000 0.84021  0.54161  0.26500  Biso   1.000  C
  H364     1.0000 0.85413  0.45731  0.16894  Biso   1.000  H
  H365     1.0000 0.78788  0.49939  0.11250  Biso   1.000  H
  H366     1.0000 0.78794  0.49939  0.11250  Biso   1.000  H
  H367     1.0000 0.19676  0.41661  0.41485  Biso   1.000  H
  H368     1.0000 0.19971  0.45583  0.51371  Biso   1.000  H
  C338     1.0000 0.29427  0.39704  0.53530  Biso   1.000  C
  H369     1.0000 0.19680  0.41663  0.41492  Biso   1.000  H
  H370     1.0000 0.19965  0.45583  0.51371  Biso   1.000  H
  C339     1.0000 0.29426  0.39699  0.53530  Biso   1.000  C
  H371     1.0000 0.19679  0.41657  0.41492  Biso   1.000  H
  H372     1.0000 0.19964  0.45577  0.51371  Biso   1.000  H
  C340     1.0000 0.78444  0.86410  0.28288  Biso   1.000  C
  C341     1.0000 0.78439  0.86410  0.28288  Biso   1.000  C
  C342     1.0000 0.94624  0.87749  0.39250  Biso   1.000  C
  C343     1.0000 0.94618  0.87749  0.39250  Biso   1.000  C
  H373     1.0000 0.76757  0.90203  0.05750  Biso   1.000  H
  H374     1.0000 0.76750  0.90198  0.05750  Biso   1.000  H
  C344     1.0000 0.72628  0.94019  0.94114  Biso   1.000  C
  H375     1.0000 0.80647  0.87321  0.98985  Biso   1.000  H
  C345     1.0000 0.72622  0.94019  0.94114  Biso   1.000  C
  H376     1.0000 0.80646  0.87316  0.98985  Biso   1.000  H
  C346     1.0000 0.83152  0.10918  0.94644  Biso   1.000  C
  H377     1.0000 0.93498  0.06771  0.02030  Biso   1.000  H
  C347     1.0000 0.01301  0.18522  0.06848  Biso   1.000  C
  C348     1.0000 0.01299  0.18516  0.06848  Biso   1.000  C
  C349     1.0000 0.37146  0.09531  0.34818  Biso   1.000  C
  C350     1.0000 0.46186  0.22151  0.50166  Biso   1.000  C
  C351     1.0000 0.46185  0.22145  0.50166  Biso   1.000  C
  H378     1.0000 0.53764  0.32670  0.62007  Biso   1.000  H
  C352     1.0000 0.51225  0.25278  0.86493  Biso   1.000  C
  C353     1.0000 0.51219  0.25278  0.86493  Biso   1.000  C
  C354     1.0000 0.66375  0.27039  0.87432  Biso   1.000  C
  C355     1.0000 0.66373  0.27041  0.87439  Biso   1.000  C
  C356     1.0000 0.66369  0.27039  0.87432  Biso   1.000  C
  H379     1.0000 0.77815  0.34983  0.00992  Biso   1.000  H
  H380     1.0000 0.77809  0.34983  0.00992  Biso   1.000  H
  H381     1.0000 0.77808  0.34978  0.00992  Biso   1.000  H
  H382     1.0000 0.78873  0.56041  0.25810  Biso   1.000  H
  H383     1.0000 0.85352  0.51773  0.31439  Biso   1.000  H
  C357     1.0000 0.93070  0.61352  0.30621  Biso   1.000  C
  H384     1.0000 0.85350  0.51767  0.31439  Biso   1.000  H
  H385     1.0000 0.29319  0.34901  0.49378  Biso   1.000  H
  H386     1.0000 0.29620  0.38824  0.59250  Biso   1.000  H
  C358     1.0000 0.38434  0.46369  0.57393  Biso   1.000  C
  H387     1.0000 0.29313  0.34901  0.49378  Biso   1.000  H
  H388     1.0000 0.29612  0.38818  0.59250  Biso   1.000  H
  C359     1.0000 0.38438  0.46371  0.57401  Biso   1.000  C
  C360     1.0000 0.74794  0.79809  0.29719  Biso   1.000  C
  C361     1.0000 0.74788  0.79809  0.29719  Biso   1.000  C
  H389     1.0000 0.74133  0.88222  0.24038  Biso   1.000  H
  H390     1.0000 0.74132  0.88216  0.24038  Biso   1.000  H
  C362     1.0000 0.91193  0.81100  0.40719  Biso   1.000  C
  C363     1.0000 0.91187  0.81100  0.40719  Biso   1.000  C
  H391     1.0000 0.01272  0.90448  0.42507  Biso   1.000  H
  H392     1.0000 0.01266  0.90448  0.42507  Biso   1.000  H
  O64      1.0000 0.77154  0.96537  0.89061  Biso   1.000  O
  H393     1.0000 0.71203  0.98307  0.97159  Biso   1.000  H
  H394     1.0000 0.66584  0.89429  0.89273  Biso   1.000  H
  O65      1.0000 0.77158  0.96539  0.89068  Biso   1.000  O
  H395     1.0000 0.71207  0.98309  0.97167  Biso   1.000  H
  C364     1.0000 0.81371  0.17488  0.92742  Biso   1.000  C
  C365     1.0000 0.76032  0.03418  0.87523  Biso   1.000  C
  H396     1.0000 0.00562  0.23533  0.09023  Biso   1.000  H
  H397     1.0000 0.01508  0.17983  0.00879  Biso   1.000  H
  C366     1.0000 0.10856  0.18972  0.15106  Biso   1.000  C
  H398     1.0000 0.01507  0.17977  0.00879  Biso   1.000  H
  C367     1.0000 0.10858  0.18969  0.15114  Biso   1.000  C
  O66      1.0000 0.39148  0.05012  0.28076  Biso   1.000  O
  O67      1.0000 0.39145  0.05009  0.28083  Biso   1.000  O
  O68      1.0000 0.39147  0.05007  0.28076  Biso   1.000  O
  H399     1.0000 0.36697  0.06793  0.39060  Biso   1.000  H
  H400     1.0000 0.31008  0.10063  0.30977  Biso   1.000  H
  H401     1.0000 0.36696  0.06787  0.39060  Biso   1.000  H
  H402     1.0000 0.31011  0.10060  0.30985  Biso   1.000  H
  H403     1.0000 0.31007  0.10058  0.30977  Biso   1.000  H
  H404     1.0000 0.42183  0.20023  0.52136  Biso   1.000  H
  H405     1.0000 0.42182  0.20017  0.52136  Biso   1.000  H
  O69      1.0000 0.41290  0.21169  0.81273  Biso   1.000  O
  C368     1.0000 0.56152  0.23459  0.82023  Biso   1.000  C
  C369     1.0000 0.71571  0.24298  0.82333  Biso   1.000  C
  H406     1.0000 0.94140  0.65223  0.36629  Biso   1.000  H
  H407     1.0000 0.91495  0.63720  0.25651  Biso   1.000  H
  H408     1.0000 0.94139  0.65218  0.36629  Biso   1.000  H
  H409     1.0000 0.91489  0.63720  0.25651  Biso   1.000  H
  C370     1.0000 0.01950  0.60693  0.33212  Biso   1.000  C
  C371     1.0000 0.01949  0.60688  0.33212  Biso   1.000  C
  H410     1.0000 0.43910  0.44983  0.60878  Biso   1.000  H
  H411     1.0000 0.38317  0.47414  0.51848  Biso   1.000  H
  H412     1.0000 0.38958  0.51069  0.62007  Biso   1.000  H
  H413     1.0000 0.43902  0.44978  0.60878  Biso   1.000  H
  H414     1.0000 0.38316  0.47408  0.51848  Biso   1.000  H
  H415     1.0000 0.38952  0.51069  0.62007  Biso   1.000  H
  C372     1.0000 0.64233  0.75171  0.24689  Biso   1.000  C
  C373     1.0000 0.64231  0.75166  0.24689  Biso   1.000  C
  C374     1.0000 0.81413  0.77062  0.35939  Biso   1.000  C
  C375     1.0000 0.81406  0.77056  0.35939  Biso   1.000  C
  H416     1.0000 0.95540  0.79330  0.45000  Biso   1.000  H
  C376     1.0000 0.73334  0.16879  0.84030  Biso   1.000  C
  H417     1.0000 0.85813  0.22580  0.97591  Biso   1.000  H
  C377     1.0000 0.73332  0.16881  0.84038  Biso   1.000  C
  H418     1.0000 0.85815  0.22577  0.97599  Biso   1.000  H
  H419     1.0000 0.85809  0.22577  0.97599  Biso   1.000  H
  C378     1.0000 0.68045  0.02580  0.78765  Biso   1.000  C
  C379     1.0000 0.68039  0.02580  0.78765  Biso   1.000  C
  H420     1.0000 0.10632  0.19200  0.21030  Biso   1.000  H
  H421     1.0000 0.11969  0.14179  0.12818  Biso   1.000  H
  C380     1.0000 0.19254  0.26331  0.18023  Biso   1.000  C
  H422     1.0000 0.10626  0.19200  0.21030  Biso   1.000  H
  H423     1.0000 0.11973  0.14182  0.12826  Biso   1.000  H
  C381     1.0000 0.19248  0.26331  0.18023  Biso   1.000  C
  C382     1.0000 0.31951  0.97421  0.21227  Biso   1.000  C
  C383     1.0000 0.31955  0.97423  0.21235  Biso   1.000  C
  C384     1.0000 0.31954  0.97418  0.21235  Biso   1.000  C
  C385     1.0000 0.35764  0.24830  0.75303  Biso   1.000  C
  O70      1.0000 0.51054  0.18058  0.72084  Biso   1.000  O
  H424     1.0000 0.67073  0.22609  0.75023  Biso   1.000  H
  C386     1.0000 0.80764  0.30952  0.85493  Biso   1.000  C
  C387     1.0000 0.80762  0.30947  0.85493  Biso   1.000  C
  H425     1.0000 0.01439  0.57481  0.27166  Biso   1.000  H
  H426     1.0000 0.06871  0.65963  0.36075  Biso   1.000  H
  C388     1.0000 0.04852  0.56902  0.40719  Biso   1.000  C
  H427     1.0000 0.01443  0.57483  0.27174  Biso   1.000  H
  H428     1.0000 0.06868  0.65960  0.36083  Biso   1.000  H
  C389     1.0000 0.04846  0.56902  0.40719  Biso   1.000  C
  H429     1.0000 0.06870  0.65958  0.36075  Biso   1.000  H
  C390     1.0000 0.04844  0.56897  0.40719  Biso   1.000  C
  O71      1.0000 0.58699  0.78827  0.18720  Biso   1.000  O
  O72      1.0000 0.58706  0.78832  0.18720  Biso   1.000  O
  O73      1.0000 0.58700  0.78832  0.18720  Biso   1.000  O
  H430     1.0000 0.62793  0.75002  0.29780  Biso   1.000  H
  H431     1.0000 0.62535  0.69719  0.20432  Biso   1.000  H
  H432     1.0000 0.62529  0.69719  0.20432  Biso   1.000  H
  H433     1.0000 0.62792  0.74996  0.29780  Biso   1.000  H
  H434     1.0000 0.79163  0.72469  0.36810  Biso   1.000  H
  H435     1.0000 0.79157  0.72469  0.36810  Biso   1.000  H
  C391     1.0000 0.66842  0.09198  0.76773  Biso   1.000  C
  O74      1.0000 0.60848  0.94989  0.71917  Biso   1.000  O
  H436     1.0000 0.18055  0.31085  0.20273  Biso   1.000  H
  H437     1.0000 0.19343  0.26093  0.12030  Biso   1.000  H
  C392     1.0000 0.28809  0.27160  0.25977  Biso   1.000  C
  H438     1.0000 0.18048  0.31080  0.20273  Biso   1.000  H
  H439     1.0000 0.19336  0.26088  0.12030  Biso   1.000  H
  C393     1.0000 0.28813  0.27163  0.25985  Biso   1.000  C
  C394     1.0000 0.33155  0.90803  0.23220  Biso   1.000  C
  C395     1.0000 0.33154  0.90798  0.23220  Biso   1.000  C
  C396     1.0000 0.23965  0.96583  0.12470  Biso   1.000  C
  C397     1.0000 0.23963  0.96578  0.12470  Biso   1.000  C
  C398     1.0000 0.25202  0.20192  0.70273  Biso   1.000  C
  C399     1.0000 0.25201  0.20186  0.70273  Biso   1.000  C
  H440     1.0000 0.37462  0.30282  0.79561  Biso   1.000  H
  H441     1.0000 0.37204  0.25000  0.70212  Biso   1.000  H
  H442     1.0000 0.37464  0.30279  0.79568  Biso   1.000  H
  H443     1.0000 0.37208  0.25002  0.70220  Biso   1.000  H
  H444     1.0000 0.37460  0.30277  0.79561  Biso   1.000  H
  C400     1.0000 0.47824  0.09669  0.70887  Biso   1.000  C
  H445     1.0000 0.84413  0.28573  0.83296  Biso   1.000  H
  H446     1.0000 0.84756  0.33538  0.92826  Biso   1.000  H
  C401     1.0000 0.78893  0.37226  0.81220  Biso   1.000  C
  H447     1.0000 0.84412  0.28567  0.83296  Biso   1.000  H
  H448     1.0000 0.84750  0.33538  0.92826  Biso   1.000  H
  C402     1.0000 0.78891  0.37229  0.81227  Biso   1.000  C
  H449     1.0000 0.99289  0.54300  0.40697  Biso   1.000  H
  H450     1.0000 0.07401  0.53003  0.38901  Biso   1.000  H
  H451     1.0000 0.09803  0.60943  0.47341  Biso   1.000  H
  H452     1.0000 0.09797  0.60943  0.47341  Biso   1.000  H
  H453     1.0000 0.07400  0.52998  0.38901  Biso   1.000  H
  H454     1.0000 0.09796  0.60937  0.47341  Biso   1.000  H
  C403     1.0000 0.48772  0.74723  0.13500  Biso   1.000  C
  C404     1.0000 0.48770  0.74718  0.13500  Biso   1.000  C
  O75      1.0000 0.59737  0.08249  0.67076  Biso   1.000  O
  O76      1.0000 0.59732  0.08249  0.67076  Biso   1.000  O
  C405     1.0000 0.62851  0.90470  0.65175  Biso   1.000  C
  C406     1.0000 0.62849  0.90465  0.65175  Biso   1.000  C
  H455     1.0000 0.28659  0.26950  0.31818  Biso   1.000  H
  H456     1.0000 0.30411  0.22743  0.23538  Biso   1.000  H
  C407     1.0000 0.36926  0.35399  0.29265  Biso   1.000  C
  H457     1.0000 0.28653  0.26950  0.31818  Biso   1.000  H
  H458     1.0000 0.30404  0.22737  0.23538  Biso   1.000  H
  C408     1.0000 0.36930  0.35402  0.29272  Biso   1.000  C
  C409     1.0000 0.26663  0.83122  0.15962  Biso   1.000  C
  C410     1.0000 0.26661  0.83117  0.15962  Biso   1.000  C
  O77      1.0000 0.40262  0.91749  0.32924  Biso   1.000  O
  O78      1.0000 0.40259  0.91753  0.32916  Biso   1.000  O
  O79      1.0000 0.40258  0.91747  0.32916  Biso   1.000  O
  C411     1.0000 0.16845  0.89083  0.05348  Biso   1.000  C
  C412     1.0000 0.16847  0.89080  0.05356  Biso   1.000  C
  O80      1.0000 0.22843  0.03464  0.10932  Biso   1.000  O
  O81      1.0000 0.22836  0.03459  0.10932  Biso   1.000  O
  C413     1.0000 0.21552  0.13591  0.71705  Biso   1.000  C
  C414     1.0000 0.21551  0.13586  0.71705  Biso   1.000  C
  C415     1.0000 0.18583  0.22939  0.64053  Biso   1.000  C
  C416     1.0000 0.18587  0.22942  0.64061  Biso   1.000  C
  C417     1.0000 0.49733  0.05057  0.63932  Biso   1.000  C
  C418     1.0000 0.49737  0.05059  0.63940  Biso   1.000  C
  H459     1.0000 0.40942  0.07612  0.68243  Biso   1.000  H
  H460     1.0000 0.51313  0.09298  0.77394  Biso   1.000  H
  H461     1.0000 0.40945  0.07609  0.68250  Biso   1.000  H
  H462     1.0000 0.40941  0.07607  0.68243  Biso   1.000  H
  H463     1.0000 0.74673  0.39190  0.82826  Biso   1.000  H
  H464     1.0000 0.75466  0.34710  0.73917  Biso   1.000  H
  C419     1.0000 0.87836  0.44269  0.85061  Biso   1.000  C
  C420     1.0000 0.87834  0.44272  0.85068  Biso   1.000  C
  C421     1.0000 0.43844  0.76542  0.17970  Biso   1.000  C
  C422     1.0000 0.43843  0.76537  0.17970  Biso   1.000  C
  C423     1.0000 0.43802  0.69249  0.03659  Biso   1.000  C
  C424     1.0000 0.54908  0.82421  0.58743  Biso   1.000  C
  C425     1.0000 0.54911  0.82417  0.58750  Biso   1.000  C
  H465     1.0000 0.63299  0.93208  0.60932  Biso   1.000  H
  H466     1.0000 0.68988  0.89938  0.69015  Biso   1.000  H
  H467     1.0000 0.63303  0.93211  0.60940  Biso   1.000  H
  H468     1.0000 0.43088  0.35903  0.34629  Biso   1.000  H
  H469     1.0000 0.37287  0.35501  0.23568  Biso   1.000  H
  H470     1.0000 0.35285  0.39771  0.31576  Biso   1.000  H
  H471     1.0000 0.43087  0.35897  0.34629  Biso   1.000  H
  H472     1.0000 0.35289  0.39773  0.31583  Biso   1.000  H
  H473     1.0000 0.35288  0.39768  0.31583  Biso   1.000  H
  C426     1.0000 0.28426  0.75703  0.17659  Biso   1.000  C
  C427     1.0000 0.28418  0.75698  0.17659  Biso   1.000  C
  C428     1.0000 0.18625  0.82513  0.07250  Biso   1.000  C
  C429     1.0000 0.18624  0.82508  0.07250  Biso   1.000  C
  C430     1.0000 0.50263  0.94939  0.36060  Biso   1.000  C
  C431     1.0000 0.50264  0.94944  0.36060  Biso   1.000  C
  C432     1.0000 0.07581  0.88271  0.96076  Biso   1.000  C
  C433     1.0000 0.07574  0.88266  0.96076  Biso   1.000  C
  C434     1.0000 0.07575  0.88271  0.96076  Biso   1.000  C
  C435     1.0000 0.27368  0.05982  0.05879  Biso   1.000  C
  C436     1.0000 0.27367  0.05977  0.05879  Biso   1.000  C
  C437     1.0000 0.11780  0.09580  0.67061  Biso   1.000  C
  C438     1.0000 0.11784  0.09582  0.67068  Biso   1.000  C
  C439     1.0000 0.11783  0.09577  0.67068  Biso   1.000  C
  H474     1.0000 0.25863  0.11779  0.75955  Biso   1.000  H
  C440     1.0000 0.08803  0.18901  0.59273  Biso   1.000  C
  C441     1.0000 0.08806  0.18898  0.59281  Biso   1.000  C
  H475     1.0000 0.20834  0.27532  0.63182  Biso   1.000  H
  H476     1.0000 0.20836  0.27529  0.63190  Biso   1.000  H
  H477     1.0000 0.20832  0.27527  0.63182  Biso   1.000  H
  H478     1.0000 0.48048  0.99588  0.63425  Biso   1.000  H
  H479     1.0000 0.45649  0.04993  0.57265  Biso   1.000  H
  H480     1.0000 0.45642  0.04988  0.57265  Biso   1.000  H
  H481     1.0000 0.45648  0.04988  0.57265  Biso   1.000  H
  H482     1.0000 0.92585  0.42268  0.84674  Biso   1.000  H
  H483     1.0000 0.90577  0.47371  0.92144  Biso   1.000  H
  C442     1.0000 0.86308  0.49673  0.79583  Biso   1.000  C
  H484     1.0000 0.90570  0.47366  0.92144  Biso   1.000  H
  C443     1.0000 0.86301  0.49667  0.79583  Biso   1.000  C
  C444     1.0000 0.86307  0.49667  0.79583  Biso   1.000  C
  C445     1.0000 0.33621  0.72962  0.12561  Biso   1.000  C
  C446     1.0000 0.33620  0.72957  0.12561  Biso   1.000  C
  O82      1.0000 0.48942  0.81943  0.27909  Biso   1.000  O
  O83      1.0000 0.48941  0.81938  0.27909  Biso   1.000  O
  C447     1.0000 0.33759  0.65413  0.98045  Biso   1.000  C
  C448     1.0000 0.33752  0.65407  0.98045  Biso   1.000  C
  C449     1.0000 0.33758  0.65407  0.98045  Biso   1.000  C
  O84      1.0000 0.49104  0.67276  0.99561  Biso   1.000  O
  O85      1.0000 0.49108  0.67279  0.99568  Biso   1.000  O
  C450     1.0000 0.48910  0.79101  0.61493  Biso   1.000  C
  C451     1.0000 0.48912  0.79098  0.61500  Biso   1.000  C
  C452     1.0000 0.53810  0.77850  0.49826  Biso   1.000  C
  C453     1.0000 0.19233  0.69049  0.14500  Biso   1.000  C
  H485     1.0000 0.32923  0.77392  0.24970  Biso   1.000  H
  H486     1.0000 0.32922  0.77386  0.24970  Biso   1.000  H
  H487     1.0000 0.14184  0.77421  0.02401  Biso   1.000  H
  C454     1.0000 0.52172  0.90332  0.29106  Biso   1.000  C
  C455     1.0000 0.52175  0.90329  0.29113  Biso   1.000  C
  H488     1.0000 0.54348  0.95008  0.42727  Biso   1.000  H
  H489     1.0000 0.51949  0.00413  0.36568  Biso   1.000  H
  H490     1.0000 0.51941  0.00407  0.36568  Biso   1.000  H
  C456     1.0000 0.98696  0.81479  0.93144  Biso   1.000  C
  C457     1.0000 0.08965  0.87848  0.87273  Biso   1.000  C
  H491     1.0000 0.06498  0.93230  0.97962  Biso   1.000  H
  H492     1.0000 0.06491  0.93225  0.97962  Biso   1.000  H
  C458     1.0000 0.20372  0.08159  0.97795  Biso   1.000  C
  H493     1.0000 0.28794  0.01694  0.02833  Biso   1.000  H
  H494     1.0000 0.33412  0.10572  0.10720  Biso   1.000  H
  H495     1.0000 0.28786  0.01689  0.02833  Biso   1.000  H
  H496     1.0000 0.33406  0.10572  0.10720  Biso   1.000  H
  H497     1.0000 0.33405  0.10566  0.10720  Biso   1.000  H
  C459     1.0000 0.07651  0.02458  0.68584  Biso   1.000  C
  C460     1.0000 0.05373  0.12252  0.60743  Biso   1.000  C
  C461     1.0000 0.05375  0.12249  0.60750  Biso   1.000  C
  C462     1.0000 0.05371  0.12247  0.60743  Biso   1.000  C
  H498     1.0000 0.04456  0.20671  0.54993  Biso   1.000  H
  H499     1.0000 0.04459  0.20668  0.55000  Biso   1.000  H
  H500     1.0000 0.84273  0.46740  0.72674  Biso   1.000  H
  H501     1.0000 0.81053  0.51209  0.79311  Biso   1.000  H
  C463     1.0000 0.95085  0.57103  0.84243  Biso   1.000  C
  H502     1.0000 0.81057  0.51212  0.79318  Biso   1.000  H
  C464     1.0000 0.95084  0.57097  0.84243  Biso   1.000  C
  C465     1.0000 0.28921  0.67471  0.02720  Biso   1.000  C
  C466     1.0000 0.28927  0.67471  0.02720  Biso   1.000  C
  C467     1.0000 0.28655  0.59328  0.87114  Biso   1.000  C
  C468     1.0000 0.51776  0.72890  0.95689  Biso   1.000  C
  C469     1.0000 0.51773  0.72887  0.95697  Biso   1.000  C
  C470     1.0000 0.41785  0.71469  0.55553  Biso   1.000  C
  C471     1.0000 0.41789  0.71472  0.55561  Biso   1.000  C
  H503     1.0000 0.49649  0.82057  0.67493  Biso   1.000  H
  H504     1.0000 0.49647  0.82060  0.67500  Biso   1.000  H
  C472     1.0000 0.46941  0.70289  0.43955  Biso   1.000  C
  C473     1.0000 0.46935  0.70289  0.43955  Biso   1.000  C
  H505     1.0000 0.57813  0.79978  0.47856  Biso   1.000  H
  H506     1.0000 0.57807  0.79978  0.47856  Biso   1.000  H
  C474     1.0000 0.21102  0.62769  0.18773  Biso   1.000  C
  C475     1.0000 0.21103  0.62775  0.18773  Biso   1.000  C
  H507     1.0000 0.15583  0.71428  0.16697  Biso   1.000  H
  H508     1.0000 0.15581  0.71430  0.16704  Biso   1.000  H
  H509     1.0000 0.15243  0.66460  0.07174  Biso   1.000  H
  H510     1.0000 0.15240  0.66463  0.07167  Biso   1.000  H
  H511     1.0000 0.15239  0.66457  0.07167  Biso   1.000  H
  H512     1.0000 0.59054  0.92389  0.31750  Biso   1.000  H
  H513     1.0000 0.48684  0.90703  0.22598  Biso   1.000  H
  H514     1.0000 0.59048  0.92389  0.31750  Biso   1.000  H
  H515     1.0000 0.48682  0.90697  0.22598  Biso   1.000  H
  H516     1.0000 0.99435  0.76469  0.90970  Biso   1.000  H
  H517     1.0000 0.98488  0.82018  0.99114  Biso   1.000  H
  C476     1.0000 0.89141  0.81029  0.84886  Biso   1.000  C
  H518     1.0000 0.99439  0.76471  0.90977  Biso   1.000  H
  H519     1.0000 0.98482  0.82018  0.99114  Biso   1.000  H
  C477     1.0000 0.89135  0.81029  0.84886  Biso   1.000  C
  H520     1.0000 0.99437  0.76465  0.90977  Biso   1.000  H
  C478     1.0000 0.08058  0.80706  0.81000  Biso   1.000  C
  C479     1.0000 0.11199  0.94638  0.85303  Biso   1.000  C
  C480     1.0000 0.08056  0.80708  0.81008  Biso   1.000  C
  C481     1.0000 0.11193  0.94638  0.85303  Biso   1.000  C
  O86      1.0000 0.11230  0.01718  0.90636  Biso   1.000  O
  H521     1.0000 0.23239  0.09798  0.94242  Biso   1.000  H
  H522     1.0000 0.19349  0.12680  0.01008  Biso   1.000  H
  H523     1.0000 0.19353  0.12682  0.01015  Biso   1.000  H
  O87      1.0000 0.15405  0.01012  0.75977  Biso   1.000  O
  O88      1.0000 0.15404  0.01006  0.75977  Biso   1.000  O
  H524     1.0000 0.03830  0.97813  0.62228  Biso   1.000  H
  H525     1.0000 0.03829  0.97807  0.62228  Biso   1.000  H
  H526     1.0000 0.03444  0.03419  0.70887  Biso   1.000  H
  H527     1.0000 0.98724  0.09553  0.57485  Biso   1.000  H
  H528     1.0000 0.98723  0.09548  0.57485  Biso   1.000  H
  H529     1.0000 0.93825  0.59921  0.79833  Biso   1.000  H
  H530     1.0000 0.96525  0.60483  0.90667  Biso   1.000  H
  H531     1.0000 0.96523  0.60477  0.90667  Biso   1.000  H
  H532     1.0000 0.93824  0.59915  0.79833  Biso   1.000  H
  H533     1.0000 0.00515  0.55670  0.85235  Biso   1.000  H
  H534     1.0000 0.22181  0.65018  0.99000  Biso   1.000  H
  H535     1.0000 0.22185  0.65020  0.99008  Biso   1.000  H
  C482     1.0000 0.26667  0.63691  0.79924  Biso   1.000  C
  H536     1.0000 0.33326  0.57042  0.86886  Biso   1.000  H
  C483     1.0000 0.19667  0.52341  0.83682  Biso   1.000  C
  C484     1.0000 0.26665  0.63686  0.79924  Biso   1.000  C
  H537     1.0000 0.33324  0.57036  0.86886  Biso   1.000  H
  C485     1.0000 0.19663  0.52338  0.83690  Biso   1.000  C
  C486     1.0000 0.19665  0.52336  0.83682  Biso   1.000  C
  H538     1.0000 0.58594  0.76320  0.00356  Biso   1.000  H
  H539     1.0000 0.47982  0.76229  0.94992  Biso   1.000  H
  C487     1.0000 0.49897  0.68298  0.85576  Biso   1.000  C
  H540     1.0000 0.58597  0.76324  0.00348  Biso   1.000  H
  H541     1.0000 0.58596  0.76318  0.00348  Biso   1.000  H
  C488     1.0000 0.34907  0.67792  0.58144  Biso   1.000  C
  C489     1.0000 0.34905  0.67787  0.58144  Biso   1.000  C
  C490     1.0000 0.41010  0.67024  0.46879  Biso   1.000  C
  C491     1.0000 0.41009  0.67018  0.46879  Biso   1.000  C
  H542     1.0000 0.46233  0.67331  0.37985  Biso   1.000  H
  H543     1.0000 0.46225  0.67326  0.37985  Biso   1.000  H
  C492     1.0000 0.12161  0.55732  0.14932  Biso   1.000  C
  C493     1.0000 0.12159  0.55726  0.14932  Biso   1.000  C
  H544     1.0000 0.25324  0.60811  0.17167  Biso   1.000  H
  H545     1.0000 0.24531  0.65291  0.26076  Biso   1.000  H
  H546     1.0000 0.25320  0.60808  0.17174  Biso   1.000  H
  H547     1.0000 0.24534  0.65288  0.26083  Biso   1.000  H
  H548     1.0000 0.89364  0.80801  0.78962  Biso   1.000  H
  H549     1.0000 0.88028  0.85822  0.87174  Biso   1.000  H
  C494     1.0000 0.80742  0.73670  0.81970  Biso   1.000  C
  H550     1.0000 0.89367  0.80798  0.78970  Biso   1.000  H
  H551     1.0000 0.88027  0.85816  0.87174  Biso   1.000  H
  C495     1.0000 0.80745  0.73667  0.81977  Biso   1.000  C
  C496     1.0000 0.09051  0.80032  0.72924  Biso   1.000  C
  H552     1.0000 0.06706  0.76169  0.82333  Biso   1.000  H
  C497     1.0000 0.09044  0.80026  0.72924  Biso   1.000  C
  C498     1.0000 0.12547  0.94058  0.77371  Biso   1.000  C
  C499     1.0000 0.12551  0.94061  0.77379  Biso   1.000  C
  C500     1.0000 0.32803  0.65598  0.76682  Biso   1.000  C
  C501     1.0000 0.18667  0.65960  0.76432  Biso   1.000  C
  C502     1.0000 0.32807  0.65600  0.76690  Biso   1.000  C
  C503     1.0000 0.18669  0.65956  0.76440  Biso   1.000  C
  H553     1.0000 0.14588  0.54273  0.83106  Biso   1.000  H
  H554     1.0000 0.21201  0.50057  0.88743  Biso   1.000  H
  C504     1.0000 0.15976  0.45840  0.73493  Biso   1.000  C
  H555     1.0000 0.14586  0.54267  0.83106  Biso   1.000  H
  C505     1.0000 0.15978  0.45837  0.73500  Biso   1.000  C
  O89      1.0000 0.40097  0.62600  0.78614  Biso   1.000  O
  O90      1.0000 0.40096  0.62595  0.78614  Biso   1.000  O
  H556     1.0000 0.51218  0.72017  0.82682  Biso   1.000  H
  H557     1.0000 0.54306  0.65497  0.86500  Biso   1.000  H
  H558     1.0000 0.51216  0.72020  0.82690  Biso   1.000  H
  H559     1.0000 0.54304  0.65499  0.86508  Biso   1.000  H
  O91      1.0000 0.37930  0.72549  0.68167  Biso   1.000  O
  O92      1.0000 0.37924  0.72549  0.68167  Biso   1.000  O
  H560     1.0000 0.34711  0.62439  0.57637  Biso   1.000  H
  H561     1.0000 0.28427  0.67358  0.53372  Biso   1.000  H
  H562     1.0000 0.34705  0.62439  0.57637  Biso   1.000  H
  H563     1.0000 0.28431  0.67360  0.53379  Biso   1.000  H
  H564     1.0000 0.36479  0.61788  0.42963  Biso   1.000  H
  H565     1.0000 0.36483  0.61790  0.42970  Biso   1.000  H
  C506     1.0000 0.13688  0.50328  0.20409  Biso   1.000  C
  H566     1.0000 0.09420  0.52630  0.07848  Biso   1.000  H
  H567     1.0000 0.07412  0.57733  0.15318  Biso   1.000  H
  H568     1.0000 0.07411  0.57727  0.15318  Biso   1.000  H
  H569     1.0000 0.81941  0.68916  0.79720  Biso   1.000  H
  H570     1.0000 0.80653  0.73908  0.87962  Biso   1.000  H
  C507     1.0000 0.71188  0.72841  0.74015  Biso   1.000  C
  H571     1.0000 0.81945  0.68918  0.79727  Biso   1.000  H
  C508     1.0000 0.71186  0.72835  0.74015  Biso   1.000  C
  C509     1.0000 0.11180  0.86911  0.71152  Biso   1.000  C
  C510     1.0000 0.07446  0.71991  0.65834  Biso   1.000  C
  C511     1.0000 0.11177  0.86907  0.71159  Biso   1.000  C
  C512     1.0000 0.07445  0.71985  0.65834  Biso   1.000  C
  C513     1.0000 0.31294  0.70108  0.70773  Biso   1.000  C
  H572     1.0000 0.14418  0.64612  0.78455  Biso   1.000  H
  C514     1.0000 0.16707  0.70068  0.70152  Biso   1.000  C
  H573     1.0000 0.14417  0.64607  0.78455  Biso   1.000  H
  C515     1.0000 0.16711  0.70070  0.70159  Biso   1.000  C
  H574     1.0000 0.21124  0.43961  0.74182  Biso   1.000  H
  H575     1.0000 0.14645  0.48228  0.68553  Biso   1.000  H
  C516     1.0000 0.06926  0.38649  0.69371  Biso   1.000  C
  H576     1.0000 0.21127  0.43957  0.74190  Biso   1.000  H
  C517     1.0000 0.06924  0.38651  0.69379  Biso   1.000  C
  C518     1.0000 0.06923  0.38646  0.69379  Biso   1.000  C
  C519     1.0000 0.04911  0.42898  0.15750  Biso   1.000  C
  H577     1.0000 0.18943  0.48792  0.20682  Biso   1.000  H
  H578     1.0000 0.15723  0.53261  0.27318  Biso   1.000  H
  H579     1.0000 0.15717  0.53261  0.27318  Biso   1.000  H
  H580     1.0000 0.15716  0.53255  0.27318  Biso   1.000  H
  H581     1.0000 0.18942  0.48786  0.20682  Biso   1.000  H
  H582     1.0000 0.71337  0.73051  0.68174  Biso   1.000  H
  H583     1.0000 0.69586  0.77258  0.76455  Biso   1.000  H
  C520     1.0000 0.63070  0.64602  0.70728  Biso   1.000  C
  H584     1.0000 0.71336  0.73046  0.68174  Biso   1.000  H
  C521     1.0000 0.63069  0.64596  0.70728  Biso   1.000  C
  O93      1.0000 0.11406  0.86397  0.62553  Biso   1.000  O
  O94      1.0000 0.11410  0.86400  0.62561  Biso   1.000  O
  C522     1.0000 0.98499  0.65118  0.62712  Biso   1.000  C
  C523     1.0000 0.98497  0.65120  0.62720  Biso   1.000  C
  H585     1.0000 0.06280  0.72630  0.59606  Biso   1.000  H
  C524     1.0000 0.23468  0.72382  0.67758  Biso   1.000  C
  C525     1.0000 0.23467  0.72377  0.67758  Biso   1.000  C
  C526     1.0000 0.98046  0.39308  0.66781  Biso   1.000  C
  C527     1.0000 0.98044  0.39310  0.66788  Biso   1.000  C
  H586     1.0000 0.05856  0.34778  0.63364  Biso   1.000  H
  H587     1.0000 0.08501  0.36281  0.74341  Biso   1.000  H
  H588     1.0000 0.08504  0.36278  0.74349  Biso   1.000  H
  H589     1.0000 0.08500  0.36275  0.74341  Biso   1.000  H
  H590     1.0000 0.06171  0.40080  0.20159  Biso   1.000  H
  H591     1.0000 0.03472  0.39518  0.09326  Biso   1.000  H
  H592     1.0000 0.03470  0.39521  0.09333  Biso   1.000  H
  H593     1.0000 0.99481  0.44331  0.14757  Biso   1.000  H
  H594     1.0000 0.99484  0.44328  0.14765  Biso   1.000  H
  H595     1.0000 0.56909  0.64098  0.65364  Biso   1.000  H
  H596     1.0000 0.62709  0.64500  0.76424  Biso   1.000  H
  H597     1.0000 0.64711  0.60230  0.68417  Biso   1.000  H
  H598     1.0000 0.56903  0.64098  0.65364  Biso   1.000  H
  H599     1.0000 0.62702  0.64495  0.76424  Biso   1.000  H
  H600     1.0000 0.64705  0.60230  0.68417  Biso   1.000  H
  C528     1.0000 0.20387  0.89471  0.63682  Biso   1.000  C
  C529     1.0000 0.20390  0.89468  0.63690  Biso   1.000  C
  H601     1.0000 0.99038  0.64663  0.68758  Biso   1.000  H
  H602     1.0000 0.98316  0.60171  0.58773  Biso   1.000  H
  C530     1.0000 0.89073  0.66142  0.56538  Biso   1.000  C
  H603     1.0000 0.99037  0.64658  0.68758  Biso   1.000  H
  H604     1.0000 0.98319  0.60168  0.58781  Biso   1.000  H
  C531     1.0000 0.89066  0.66136  0.56538  Biso   1.000  C
  O95      1.0000 0.22222  0.76849  0.61887  Biso   1.000  O
  O96      1.0000 0.22216  0.76849  0.61887  Biso   1.000  O
  H605     1.0000 0.98557  0.42520  0.72826  Biso   1.000  H
  H606     1.0000 0.93125  0.34038  0.63917  Biso   1.000  H
  C532     1.0000 0.95145  0.43099  0.59273  Biso   1.000  C
  C533     1.0000 0.95149  0.43101  0.59281  Biso   1.000  C
  H607     1.0000 0.98556  0.42515  0.72826  Biso   1.000  H
  C534     1.0000 0.27026  0.85340  0.68023  Biso   1.000  C
  C535     1.0000 0.27030  0.85342  0.68031  Biso   1.000  C
  C536     1.0000 0.27029  0.85337  0.68031  Biso   1.000  C
  H608     1.0000 0.23535  0.95121  0.68061  Biso   1.000  H
  H609     1.0000 0.19270  0.88993  0.57114  Biso   1.000  H
  H610     1.0000 0.23538  0.95117  0.68068  Biso   1.000  H
  H611     1.0000 0.19269  0.88987  0.57114  Biso   1.000  H
  H612     1.0000 0.89097  0.70911  0.60667  Biso   1.000  H
  H613     1.0000 0.88780  0.67000  0.50766  Biso   1.000  H
  C537     1.0000 0.80065  0.59190  0.52743  Biso   1.000  C
  C538     1.0000 0.80068  0.59187  0.52750  Biso   1.000  C
  H614     1.0000 0.89096  0.70905  0.60667  Biso   1.000  H
  H615     1.0000 0.88779  0.66995  0.50766  Biso   1.000  H
  H616     1.0000 0.92595  0.46998  0.61091  Biso   1.000  H
  H617     1.0000 0.90194  0.39058  0.52652  Biso   1.000  H
  H618     1.0000 0.92599  0.47000  0.61099  Biso   1.000  H
  H619     1.0000 0.90198  0.39061  0.52659  Biso   1.000  H
  H620     1.0000 0.00708  0.45701  0.59296  Biso   1.000  H
  H621     1.0000 0.00706  0.45695  0.59296  Biso   1.000  H
  H622     1.0000 0.32911  0.87450  0.68197  Biso   1.000  H
  H623     1.0000 0.28798  0.86289  0.74902  Biso   1.000  H
  H624     1.0000 0.28802  0.86292  0.74909  Biso   1.000  H
  H625     1.0000 0.28800  0.86286  0.74909  Biso   1.000  H
  H626     1.0000 0.80321  0.58341  0.58508  Biso   1.000  H
  H627     1.0000 0.80026  0.54418  0.48622  Biso   1.000  H
  C539     1.0000 0.70569  0.60297  0.46463  Biso   1.000  C
  H628     1.0000 0.80029  0.54421  0.48629  Biso   1.000  H
  C540     1.0000 0.70567  0.60299  0.46470  Biso   1.000  C
  H629     1.0000 0.70677  0.65100  0.50614  Biso   1.000  H
  H630     1.0000 0.70377  0.61178  0.40743  Biso   1.000  H
  C541     1.0000 0.61562  0.53632  0.42599  Biso   1.000  C
  H631     1.0000 0.70680  0.65097  0.50622  Biso   1.000  H
  H632     1.0000 0.70381  0.61180  0.40750  Biso   1.000  H
  C542     1.0000 0.61561  0.53626  0.42599  Biso   1.000  C
  H633     1.0000 0.56087  0.55018  0.39114  Biso   1.000  H
  H634     1.0000 0.61679  0.52587  0.48144  Biso   1.000  H
  H635     1.0000 0.61038  0.48932  0.37985  Biso   1.000  H
  H636     1.0000 0.56091  0.55020  0.39122  Biso   1.000  H
  H637     1.0000 0.61673  0.52587  0.48144  Biso   1.000  H
  H638     1.0000 0.61037  0.48926  0.37985  Biso   1.000  H
  C543     1.0000 0.72964  0.14661  0.31969  Biso   1.000  C
  O97      1.0000 0.77775  0.23152  0.38106  Biso   1.000  O
  O98      1.0000 0.77777  0.23149  0.38113  Biso   1.000  O
  C544     1.0000 0.79609  0.10530  0.36310  Biso   1.000  C
  C545     1.0000 0.79603  0.10530  0.36310  Biso   1.000  C
  H639     1.0000 0.67086  0.12551  0.31795  Biso   1.000  H
  H640     1.0000 0.71199  0.13712  0.25091  Biso   1.000  H
  H641     1.0000 0.67090  0.12553  0.31803  Biso   1.000  H
  H642     1.0000 0.67088  0.12548  0.31803  Biso   1.000  H
  C546     1.0000 0.76528  0.27619  0.32235  Biso   1.000  C
  C547     1.0000 0.76526  0.27621  0.32242  Biso   1.000  C
  C548     1.0000 0.72970  0.14661  0.31969  Biso   1.000  C
  O99      1.0000 0.88591  0.13604  0.37439  Biso   1.000  O
  O100     1.0000 0.88583  0.13598  0.37439  Biso   1.000  O
  O101     1.0000 0.88589  0.13598  0.37439  Biso   1.000  O
  H643     1.0000 0.76461  0.04881  0.31932  Biso   1.000  H
  H644     1.0000 0.80726  0.11008  0.42878  Biso   1.000  H
  H645     1.0000 0.76455  0.04881  0.31932  Biso   1.000  H
  C549     1.0000 0.68703  0.29893  0.29219  Biso   1.000  C
  C550     1.0000 0.68695  0.29888  0.29219  Biso   1.000  C
  C551     1.0000 0.83290  0.29933  0.29841  Biso   1.000  C
  C552     1.0000 0.83289  0.29928  0.29841  Biso   1.000  C
  C553     1.0000 0.88816  0.13091  0.28841  Biso   1.000  C
  O102     1.0000 0.62066  0.27452  0.31826  Biso   1.000  O
  O103     1.0000 0.62069  0.27449  0.31833  Biso   1.000  O
  C554     1.0000 0.67193  0.34403  0.23310  Biso   1.000  C
  C555     1.0000 0.67186  0.34398  0.23310  Biso   1.000  C
  C556     1.0000 0.81330  0.34041  0.23560  Biso   1.000  C
  C557     1.0000 0.92550  0.28010  0.34159  Biso   1.000  C
  C558     1.0000 0.92544  0.28010  0.34159  Biso   1.000  C
  C559     1.0000 0.87449  0.05943  0.22621  Biso   1.000  C
  C560     1.0000 0.87448  0.05937  0.22621  Biso   1.000  C
  C561     1.0000 0.90946  0.19969  0.27068  Biso   1.000  C
  C562     1.0000 0.65090  0.32209  0.41848  Biso   1.000  C
  C563     1.0000 0.65084  0.32209  0.41848  Biso   1.000  C
  O104     1.0000 0.59900  0.37401  0.21379  Biso   1.000  O
  C564     1.0000 0.73330  0.36310  0.20068  Biso   1.000  C
  H646     1.0000 0.85578  0.35389  0.21538  Biso   1.000  H
  H647     1.0000 0.93717  0.27371  0.40386  Biso   1.000  H
  H648     1.0000 0.93721  0.27373  0.40394  Biso   1.000  H
  H649     1.0000 0.93719  0.27368  0.40394  Biso   1.000  H
  C565     1.0000 0.01498  0.34884  0.37280  Biso   1.000  C
  C566     1.0000 0.01497  0.34878  0.37280  Biso   1.000  C
  O105     1.0000 0.84591  0.98990  0.24015  Biso   1.000  O
  O106     1.0000 0.84595  0.98992  0.24023  Biso   1.000  O
  C567     1.0000 0.88797  0.05363  0.14689  Biso   1.000  C
  C568     1.0000 0.88796  0.05357  0.14689  Biso   1.000  C
  C569     1.0000 0.91939  0.19295  0.18992  Biso   1.000  C
  C570     1.0000 0.91938  0.19290  0.18992  Biso   1.000  C
  C571     1.0000 0.58211  0.28532  0.44439  Biso   1.000  C
  C572     1.0000 0.58205  0.28532  0.44439  Biso   1.000  C
  C573     1.0000 0.58204  0.28526  0.44439  Biso   1.000  C
  H650     1.0000 0.65286  0.37562  0.42356  Biso   1.000  H
  H651     1.0000 0.71570  0.32643  0.46621  Biso   1.000  H
  H652     1.0000 0.65288  0.37559  0.42363  Biso   1.000  H
  H653     1.0000 0.71568  0.32638  0.46621  Biso   1.000  H
  C574     1.0000 0.50099  0.31703  0.14417  Biso   1.000  C
  C575     1.0000 0.50102  0.31700  0.14424  Biso   1.000  C
  C576     1.0000 0.50098  0.31698  0.14417  Biso   1.000  C
  C577     1.0000 0.71341  0.40673  0.12879  Biso   1.000  C
  C578     1.0000 0.71340  0.40668  0.12879  Biso   1.000  C
  H654     1.0000 0.00958  0.35338  0.31235  Biso   1.000  H
  H655     1.0000 0.01680  0.39830  0.41219  Biso   1.000  H
  C579     1.0000 0.10924  0.33859  0.43454  Biso   1.000  C
  H656     1.0000 0.00956  0.35340  0.31242  Biso   1.000  H
  H657     1.0000 0.01675  0.39830  0.41219  Biso   1.000  H
  C580     1.0000 0.10928  0.33861  0.43462  Biso   1.000  C
  C581     1.0000 0.92346  0.97543  0.31409  Biso   1.000  C
  C582     1.0000 0.92338  0.97538  0.31409  Biso   1.000  C
  O107     1.0000 0.88766  0.98283  0.09356  Biso   1.000  O
  O108     1.0000 0.88763  0.98280  0.09364  Biso   1.000  O
  O109     1.0000 0.88765  0.98278  0.09356  Biso   1.000  O
  C583     1.0000 0.91031  0.12153  0.12720  Biso   1.000  C
  C584     1.0000 0.91030  0.12147  0.12720  Biso   1.000  C
  H658     1.0000 0.93291  0.23832  0.17659  Biso   1.000  H
  H659     1.0000 0.93290  0.23827  0.17659  Biso   1.000  H
  C585     1.0000 0.51087  0.20900  0.38500  Biso   1.000  C
  C586     1.0000 0.58986  0.32977  0.53113  Biso   1.000  C
  C587     1.0000 0.58984  0.32980  0.53121  Biso   1.000  C
  C588     1.0000 0.48220  0.27111  0.04303  Biso   1.000  C
  H660     1.0000 0.48779  0.27984  0.17310  Biso   1.000  H
  H661     1.0000 0.45691  0.34504  0.13492  Biso   1.000  H
  H662     1.0000 0.48777  0.27978  0.17310  Biso   1.000  H
  H663     1.0000 0.45689  0.34499  0.13492  Biso   1.000  H
  C589     1.0000 0.66237  0.34589  0.01947  Biso   1.000  C
  H664     1.0000 0.66671  0.42960  0.13106  Biso   1.000  H
  C590     1.0000 0.80330  0.47660  0.16310  Biso   1.000  C
  C591     1.0000 0.66241  0.34591  0.01955  Biso   1.000  C
  H665     1.0000 0.66669  0.42962  0.13114  Biso   1.000  H
  H666     1.0000 0.10899  0.29090  0.39325  Biso   1.000  H
  H667     1.0000 0.11216  0.33001  0.49227  Biso   1.000  H
  C592     1.0000 0.19931  0.40811  0.47250  Biso   1.000  C
  H668     1.0000 0.10897  0.29093  0.39333  Biso   1.000  H
  C593     1.0000 0.19925  0.40811  0.47250  Biso   1.000  C
  C594     1.0000 0.88216  0.90421  0.32932  Biso   1.000  C
  C595     1.0000 0.88210  0.90421  0.32932  Biso   1.000  C
  H669     1.0000 0.96552  0.96582  0.29106  Biso   1.000  H
  H670     1.0000 0.96555  0.96579  0.29113  Biso   1.000  H
  H671     1.0000 0.96551  0.96577  0.29106  Biso   1.000  H
  H672     1.0000 0.96166  0.02188  0.37765  Biso   1.000  H
  H673     1.0000 0.96164  0.02191  0.37772  Biso   1.000  H
  C596     1.0000 0.79625  0.91842  0.02197  Biso   1.000  C
  C597     1.0000 0.79627  0.91839  0.02205  Biso   1.000  C
  C598     1.0000 0.92416  0.11730  0.03917  Biso   1.000  C
  C599     1.0000 0.92420  0.11732  0.03924  Biso   1.000  C
  C600     1.0000 0.45088  0.17580  0.41250  Biso   1.000  C
  H674     1.0000 0.50347  0.17944  0.32500  Biso   1.000  H
  H675     1.0000 0.50346  0.17938  0.32500  Biso   1.000  H
  C601     1.0000 0.53055  0.29712  0.56037  Biso   1.000  C
  C602     1.0000 0.53054  0.29707  0.56037  Biso   1.000  C
  H676     1.0000 0.63517  0.38213  0.57030  Biso   1.000  H
  H677     1.0000 0.63516  0.38207  0.57030  Biso   1.000  H
  H678     1.0000 0.41399  0.23677  0.99644  Biso   1.000  H
  O110     1.0000 0.50893  0.32725  0.00432  Biso   1.000  O
  H679     1.0000 0.52014  0.23772  0.05000  Biso   1.000  H
  O111     1.0000 0.50891  0.32719  0.00432  Biso   1.000  O
  H680     1.0000 0.52008  0.23772  0.05000  Biso   1.000  H
  C603     1.0000 0.56195  0.30752  0.96333  Biso   1.000  C
  C604     1.0000 0.56187  0.30747  0.96333  Biso   1.000  C
  C605     1.0000 0.56193  0.30747  0.96333  Biso   1.000  C
  C606     1.0000 0.71070  0.32530  0.97273  Biso   1.000  C
  C607     1.0000 0.71068  0.32524  0.97273  Biso   1.000  C
  H681     1.0000 0.85409  0.45729  0.16886  Biso   1.000  H
  H682     1.0000 0.78795  0.49944  0.11250  Biso   1.000  H
  C608     1.0000 0.84021  0.54161  0.26500  Biso   1.000  C
  H683     1.0000 0.85413  0.45731  0.16894  Biso   1.000  H
  H684     1.0000 0.78788  0.49939  0.11250  Biso   1.000  H
  H685     1.0000 0.78794  0.49939  0.11250  Biso   1.000  H
  H686     1.0000 0.19676  0.41661  0.41485  Biso   1.000  H
  H687     1.0000 0.19971  0.45583  0.51371  Biso   1.000  H
  C609     1.0000 0.29427  0.39704  0.53530  Biso   1.000  C
  H688     1.0000 0.19680  0.41663  0.41492  Biso   1.000  H
  H689     1.0000 0.19965  0.45583  0.51371  Biso   1.000  H
  C610     1.0000 0.29426  0.39699  0.53530  Biso   1.000  C
  H690     1.0000 0.19679  0.41657  0.41492  Biso   1.000  H
  H691     1.0000 0.19964  0.45577  0.51371  Biso   1.000  H
  C611     1.0000 0.78444  0.86410  0.28288  Biso   1.000  C
  C612     1.0000 0.78439  0.86410  0.28288  Biso   1.000  C
  C613     1.0000 0.94624  0.87749  0.39250  Biso   1.000  C
  C614     1.0000 0.94618  0.87749  0.39250  Biso   1.000  C
  C615     1.0000 0.72628  0.94019  0.94114  Biso   1.000  C
  H692     1.0000 0.80647  0.87321  0.98985  Biso   1.000  H
  C616     1.0000 0.72622  0.94019  0.94114  Biso   1.000  C
  H693     1.0000 0.80646  0.87316  0.98985  Biso   1.000  H
  H694     1.0000 0.76757  0.90203  0.05750  Biso   1.000  H
  H695     1.0000 0.76750  0.90198  0.05750  Biso   1.000  H
  C617     1.0000 0.83152  0.10918  0.94644  Biso   1.000  C
  H696     1.0000 0.93498  0.06771  0.02030  Biso   1.000  H
  C618     1.0000 0.01301  0.18522  0.06848  Biso   1.000  C
  C619     1.0000 0.01299  0.18516  0.06848  Biso   1.000  C
  C620     1.0000 0.37146  0.09531  0.34818  Biso   1.000  C
  C621     1.0000 0.46186  0.22151  0.50166  Biso   1.000  C
  C622     1.0000 0.46185  0.22145  0.50166  Biso   1.000  C
  H697     1.0000 0.53764  0.32670  0.62007  Biso   1.000  H
  C623     1.0000 0.51225  0.25278  0.86493  Biso   1.000  C
  C624     1.0000 0.51219  0.25278  0.86493  Biso   1.000  C
  C625     1.0000 0.66375  0.27039  0.87432  Biso   1.000  C
  C626     1.0000 0.66373  0.27041  0.87439  Biso   1.000  C
  C627     1.0000 0.66369  0.27039  0.87432  Biso   1.000  C
  H698     1.0000 0.77815  0.34983  0.00992  Biso   1.000  H
  H699     1.0000 0.77809  0.34983  0.00992  Biso   1.000  H
  H700     1.0000 0.77808  0.34978  0.00992  Biso   1.000  H
  H701     1.0000 0.78873  0.56041  0.25810  Biso   1.000  H
  H702     1.0000 0.85352  0.51773  0.31439  Biso   1.000  H
  C628     1.0000 0.93070  0.61352  0.30621  Biso   1.000  C
  H703     1.0000 0.85350  0.51767  0.31439  Biso   1.000  H
  H704     1.0000 0.29319  0.34901  0.49378  Biso   1.000  H
  H705     1.0000 0.29620  0.38824  0.59250  Biso   1.000  H
  C629     1.0000 0.38434  0.46369  0.57393  Biso   1.000  C
  H706     1.0000 0.29313  0.34901  0.49378  Biso   1.000  H
  H707     1.0000 0.29612  0.38818  0.59250  Biso   1.000  H
  C630     1.0000 0.38438  0.46371  0.57401  Biso   1.000  C
  C631     1.0000 0.74794  0.79809  0.29719  Biso   1.000  C
  C632     1.0000 0.74788  0.79809  0.29719  Biso   1.000  C
  H708     1.0000 0.74133  0.88222  0.24038  Biso   1.000  H
  H709     1.0000 0.74132  0.88216  0.24038  Biso   1.000  H
  C633     1.0000 0.91193  0.81100  0.40719  Biso   1.000  C
  C634     1.0000 0.91187  0.81100  0.40719  Biso   1.000  C
  H710     1.0000 0.01272  0.90448  0.42507  Biso   1.000  H
  H711     1.0000 0.01266  0.90448  0.42507  Biso   1.000  H
  O112     1.0000 0.77154  0.96537  0.89061  Biso   1.000  O
  H712     1.0000 0.71203  0.98307  0.97159  Biso   1.000  H
  H713     1.0000 0.66584  0.89429  0.89273  Biso   1.000  H
  O113     1.0000 0.77158  0.96539  0.89068  Biso   1.000  O
  H714     1.0000 0.71207  0.98309  0.97167  Biso   1.000  H
  C635     1.0000 0.76032  0.03418  0.87523  Biso   1.000  C
  C636     1.0000 0.81371  0.17488  0.92742  Biso   1.000  C
  H715     1.0000 0.00562  0.23533  0.09023  Biso   1.000  H
  H716     1.0000 0.01508  0.17983  0.00879  Biso   1.000  H
  C637     1.0000 0.10856  0.18972  0.15106  Biso   1.000  C
  H717     1.0000 0.01507  0.17977  0.00879  Biso   1.000  H
  C638     1.0000 0.10858  0.18969  0.15114  Biso   1.000  C
  O114     1.0000 0.39148  0.05012  0.28076  Biso   1.000  O
  O115     1.0000 0.39145  0.05009  0.28083  Biso   1.000  O
  O116     1.0000 0.39147  0.05007  0.28076  Biso   1.000  O
  H718     1.0000 0.36697  0.06793  0.39060  Biso   1.000  H
  H719     1.0000 0.31008  0.10063  0.30977  Biso   1.000  H
  H720     1.0000 0.36696  0.06787  0.39060  Biso   1.000  H
  H721     1.0000 0.31011  0.10060  0.30985  Biso   1.000  H
  H722     1.0000 0.31007  0.10058  0.30977  Biso   1.000  H
  H723     1.0000 0.42183  0.20023  0.52136  Biso   1.000  H
  H724     1.0000 0.42182  0.20017  0.52136  Biso   1.000  H
  O117     1.0000 0.41290  0.21169  0.81273  Biso   1.000  O
  C639     1.0000 0.56152  0.23459  0.82023  Biso   1.000  C
  C640     1.0000 0.71571  0.24298  0.82333  Biso   1.000  C
  H725     1.0000 0.94140  0.65223  0.36629  Biso   1.000  H
  H726     1.0000 0.91495  0.63720  0.25651  Biso   1.000  H
  H727     1.0000 0.94139  0.65218  0.36629  Biso   1.000  H
  H728     1.0000 0.91489  0.63720  0.25651  Biso   1.000  H
  C641     1.0000 0.01950  0.60693  0.33212  Biso   1.000  C
  C642     1.0000 0.01949  0.60688  0.33212  Biso   1.000  C
  H729     1.0000 0.43910  0.44983  0.60878  Biso   1.000  H
  H730     1.0000 0.38317  0.47414  0.51848  Biso   1.000  H
  H731     1.0000 0.38958  0.51069  0.62007  Biso   1.000  H
  H732     1.0000 0.43902  0.44978  0.60878  Biso   1.000  H
  H733     1.0000 0.38316  0.47408  0.51848  Biso   1.000  H
  H734     1.0000 0.38952  0.51069  0.62007  Biso   1.000  H
  C643     1.0000 0.64233  0.75171  0.24689  Biso   1.000  C
  C644     1.0000 0.64231  0.75166  0.24689  Biso   1.000  C
  C645     1.0000 0.81413  0.77062  0.35939  Biso   1.000  C
  C646     1.0000 0.81406  0.77056  0.35939  Biso   1.000  C
  H735     1.0000 0.95540  0.79330  0.45000  Biso   1.000  H
  C647     1.0000 0.68045  0.02580  0.78765  Biso   1.000  C
  C648     1.0000 0.68039  0.02580  0.78765  Biso   1.000  C
  C649     1.0000 0.73334  0.16879  0.84030  Biso   1.000  C
  C650     1.0000 0.73332  0.16881  0.84038  Biso   1.000  C
  H736     1.0000 0.85813  0.22580  0.97591  Biso   1.000  H
  H737     1.0000 0.85815  0.22577  0.97599  Biso   1.000  H
  H738     1.0000 0.85809  0.22577  0.97599  Biso   1.000  H
  H739     1.0000 0.10632  0.19200  0.21030  Biso   1.000  H
  H740     1.0000 0.11969  0.14179  0.12818  Biso   1.000  H
  C651     1.0000 0.19254  0.26331  0.18023  Biso   1.000  C
  H741     1.0000 0.10626  0.19200  0.21030  Biso   1.000  H
  H742     1.0000 0.11973  0.14182  0.12826  Biso   1.000  H
  C652     1.0000 0.19248  0.26331  0.18023  Biso   1.000  C
  C653     1.0000 0.31951  0.97421  0.21227  Biso   1.000  C
  C654     1.0000 0.31955  0.97423  0.21235  Biso   1.000  C
  C655     1.0000 0.31954  0.97418  0.21235  Biso   1.000  C
  C656     1.0000 0.35764  0.24830  0.75303  Biso   1.000  C
  O118     1.0000 0.51054  0.18058  0.72084  Biso   1.000  O
  H743     1.0000 0.67073  0.22609  0.75023  Biso   1.000  H
  C657     1.0000 0.80764  0.30952  0.85493  Biso   1.000  C
  C658     1.0000 0.80762  0.30947  0.85493  Biso   1.000  C
  H744     1.0000 0.01439  0.57481  0.27166  Biso   1.000  H
  H745     1.0000 0.06871  0.65963  0.36075  Biso   1.000  H
  C659     1.0000 0.04852  0.56902  0.40719  Biso   1.000  C
  H746     1.0000 0.01443  0.57483  0.27174  Biso   1.000  H
  H747     1.0000 0.06868  0.65960  0.36083  Biso   1.000  H
  C660     1.0000 0.04846  0.56902  0.40719  Biso   1.000  C
  H748     1.0000 0.06870  0.65958  0.36075  Biso   1.000  H
  C661     1.0000 0.04844  0.56897  0.40719  Biso   1.000  C
  O119     1.0000 0.58706  0.78832  0.18720  Biso   1.000  O
  O120     1.0000 0.58699  0.78827  0.18720  Biso   1.000  O
  O121     1.0000 0.58700  0.78832  0.18720  Biso   1.000  O
  H749     1.0000 0.62793  0.75002  0.29780  Biso   1.000  H
  H750     1.0000 0.62535  0.69719  0.20432  Biso   1.000  H
  H751     1.0000 0.62529  0.69719  0.20432  Biso   1.000  H
  H752     1.0000 0.62792  0.74996  0.29780  Biso   1.000  H
  H753     1.0000 0.79163  0.72469  0.36810  Biso   1.000  H
  H754     1.0000 0.79157  0.72469  0.36810  Biso   1.000  H
  O122     1.0000 0.60848  0.94989  0.71917  Biso   1.000  O
  C662     1.0000 0.66842  0.09198  0.76773  Biso   1.000  C
  H755     1.0000 0.18055  0.31085  0.20273  Biso   1.000  H
  H756     1.0000 0.19343  0.26093  0.12030  Biso   1.000  H
  C663     1.0000 0.28809  0.27160  0.25977  Biso   1.000  C
  H757     1.0000 0.18048  0.31080  0.20273  Biso   1.000  H
  H758     1.0000 0.19336  0.26088  0.12030  Biso   1.000  H
  C664     1.0000 0.28813  0.27163  0.25985  Biso   1.000  C
  C665     1.0000 0.33155  0.90803  0.23220  Biso   1.000  C
  C666     1.0000 0.33154  0.90798  0.23220  Biso   1.000  C
  C667     1.0000 0.23965  0.96583  0.12470  Biso   1.000  C
  C668     1.0000 0.23963  0.96578  0.12470  Biso   1.000  C
  C669     1.0000 0.25202  0.20192  0.70273  Biso   1.000  C
  C670     1.0000 0.25201  0.20186  0.70273  Biso   1.000  C
  H759     1.0000 0.37462  0.30282  0.79561  Biso   1.000  H
  H760     1.0000 0.37204  0.25000  0.70212  Biso   1.000  H
  H761     1.0000 0.37464  0.30279  0.79568  Biso   1.000  H
  H762     1.0000 0.37208  0.25002  0.70220  Biso   1.000  H
  H763     1.0000 0.37460  0.30277  0.79561  Biso   1.000  H
  C671     1.0000 0.47824  0.09669  0.70887  Biso   1.000  C
  H764     1.0000 0.84413  0.28573  0.83296  Biso   1.000  H
  H765     1.0000 0.84756  0.33538  0.92826  Biso   1.000  H
  C672     1.0000 0.78893  0.37226  0.81220  Biso   1.000  C
  H766     1.0000 0.84412  0.28567  0.83296  Biso   1.000  H
  H767     1.0000 0.84750  0.33538  0.92826  Biso   1.000  H
  C673     1.0000 0.78891  0.37229  0.81227  Biso   1.000  C
  H768     1.0000 0.99289  0.54300  0.40697  Biso   1.000  H
  H769     1.0000 0.07401  0.53003  0.38901  Biso   1.000  H
  H770     1.0000 0.09803  0.60943  0.47341  Biso   1.000  H
  H771     1.0000 0.09797  0.60943  0.47341  Biso   1.000  H
  H772     1.0000 0.07400  0.52998  0.38901  Biso   1.000  H
  H773     1.0000 0.09796  0.60937  0.47341  Biso   1.000  H
  C674     1.0000 0.48772  0.74723  0.13500  Biso   1.000  C
  C675     1.0000 0.48770  0.74718  0.13500  Biso   1.000  C
  C676     1.0000 0.62851  0.90470  0.65175  Biso   1.000  C
  C677     1.0000 0.62849  0.90465  0.65175  Biso   1.000  C
  O123     1.0000 0.59737  0.08249  0.67076  Biso   1.000  O
  O124     1.0000 0.59732  0.08249  0.67076  Biso   1.000  O
  H774     1.0000 0.28659  0.26950  0.31818  Biso   1.000  H
  H775     1.0000 0.30411  0.22743  0.23538  Biso   1.000  H
  C678     1.0000 0.36926  0.35399  0.29265  Biso   1.000  C
  H776     1.0000 0.28653  0.26950  0.31818  Biso   1.000  H
  H777     1.0000 0.30404  0.22737  0.23538  Biso   1.000  H
  C679     1.0000 0.36930  0.35402  0.29272  Biso   1.000  C
  C680     1.0000 0.26663  0.83122  0.15962  Biso   1.000  C
  C681     1.0000 0.26661  0.83117  0.15962  Biso   1.000  C
  O125     1.0000 0.40259  0.91753  0.32916  Biso   1.000  O
  O126     1.0000 0.40262  0.91749  0.32924  Biso   1.000  O
  O127     1.0000 0.40258  0.91747  0.32916  Biso   1.000  O
  C682     1.0000 0.16845  0.89083  0.05348  Biso   1.000  C
  C683     1.0000 0.16847  0.89080  0.05356  Biso   1.000  C
  O128     1.0000 0.22843  0.03464  0.10932  Biso   1.000  O
  O129     1.0000 0.22836  0.03459  0.10932  Biso   1.000  O
  C684     1.0000 0.21552  0.13591  0.71705  Biso   1.000  C
  C685     1.0000 0.21551  0.13586  0.71705  Biso   1.000  C
  C686     1.0000 0.18583  0.22939  0.64053  Biso   1.000  C
  C687     1.0000 0.18587  0.22942  0.64061  Biso   1.000  C
  C688     1.0000 0.49733  0.05057  0.63932  Biso   1.000  C
  C689     1.0000 0.49737  0.05059  0.63940  Biso   1.000  C
  H778     1.0000 0.40942  0.07612  0.68243  Biso   1.000  H
  H779     1.0000 0.51313  0.09298  0.77394  Biso   1.000  H
  H780     1.0000 0.40945  0.07609  0.68250  Biso   1.000  H
  H781     1.0000 0.40941  0.07607  0.68243  Biso   1.000  H
  H782     1.0000 0.74673  0.39190  0.82826  Biso   1.000  H
  H783     1.0000 0.75466  0.34710  0.73917  Biso   1.000  H
  C690     1.0000 0.87836  0.44269  0.85061  Biso   1.000  C
  C691     1.0000 0.87834  0.44272  0.85068  Biso   1.000  C
  C692     1.0000 0.43844  0.76542  0.17970  Biso   1.000  C
  C693     1.0000 0.43843  0.76537  0.17970  Biso   1.000  C
  C694     1.0000 0.43802  0.69249  0.03659  Biso   1.000  C
  C695     1.0000 0.54908  0.82421  0.58743  Biso   1.000  C
  C696     1.0000 0.54911  0.82417  0.58750  Biso   1.000  C
  H784     1.0000 0.63299  0.93208  0.60932  Biso   1.000  H
  H785     1.0000 0.68988  0.89938  0.69015  Biso   1.000  H
  H786     1.0000 0.63303  0.93211  0.60940  Biso   1.000  H
  H787     1.0000 0.43088  0.35903  0.34629  Biso   1.000  H
  H788     1.0000 0.37287  0.35501  0.23568  Biso   1.000  H
  H789     1.0000 0.35285  0.39771  0.31576  Biso   1.000  H
  H790     1.0000 0.43087  0.35897  0.34629  Biso   1.000  H
  H791     1.0000 0.35289  0.39773  0.31583  Biso   1.000  H
  H792     1.0000 0.35288  0.39768  0.31583  Biso   1.000  H
  C697     1.0000 0.28426  0.75703  0.17659  Biso   1.000  C
  C698     1.0000 0.28418  0.75698  0.17659  Biso   1.000  C
  C699     1.0000 0.18625  0.82513  0.07250  Biso   1.000  C
  C700     1.0000 0.18624  0.82508  0.07250  Biso   1.000  C
  C701     1.0000 0.50263  0.94939  0.36060  Biso   1.000  C
  C702     1.0000 0.50264  0.94944  0.36060  Biso   1.000  C
  C703     1.0000 0.07581  0.88271  0.96076  Biso   1.000  C
  C704     1.0000 0.07574  0.88266  0.96076  Biso   1.000  C
  C705     1.0000 0.07575  0.88271  0.96076  Biso   1.000  C
  C706     1.0000 0.27368  0.05982  0.05879  Biso   1.000  C
  C707     1.0000 0.27367  0.05977  0.05879  Biso   1.000  C
  C708     1.0000 0.11780  0.09580  0.67061  Biso   1.000  C
  C709     1.0000 0.11784  0.09582  0.67068  Biso   1.000  C
  C710     1.0000 0.11783  0.09577  0.67068  Biso   1.000  C
  H793     1.0000 0.25863  0.11779  0.75955  Biso   1.000  H
  C711     1.0000 0.08803  0.18901  0.59273  Biso   1.000  C
  C712     1.0000 0.08806  0.18898  0.59281  Biso   1.000  C
  H794     1.0000 0.20834  0.27532  0.63182  Biso   1.000  H
  H795     1.0000 0.20836  0.27529  0.63190  Biso   1.000  H
  H796     1.0000 0.20832  0.27527  0.63182  Biso   1.000  H
  H797     1.0000 0.48048  0.99588  0.63425  Biso   1.000  H
  H798     1.0000 0.45649  0.04993  0.57265  Biso   1.000  H
  H799     1.0000 0.45642  0.04988  0.57265  Biso   1.000  H
  H800     1.0000 0.45648  0.04988  0.57265  Biso   1.000  H
  H801     1.0000 0.92585  0.42268  0.84674  Biso   1.000  H
  H802     1.0000 0.90577  0.47371  0.92144  Biso   1.000  H
  C713     1.0000 0.86308  0.49673  0.79583  Biso   1.000  C
  H803     1.0000 0.90570  0.47366  0.92144  Biso   1.000  H
  C714     1.0000 0.86301  0.49667  0.79583  Biso   1.000  C
  C715     1.0000 0.86307  0.49667  0.79583  Biso   1.000  C
  C716     1.0000 0.33621  0.72962  0.12561  Biso   1.000  C
  C717     1.0000 0.33620  0.72957  0.12561  Biso   1.000  C
  O130     1.0000 0.48942  0.81943  0.27909  Biso   1.000  O
  O131     1.0000 0.48941  0.81938  0.27909  Biso   1.000  O
  C718     1.0000 0.33759  0.65413  0.98045  Biso   1.000  C
  C719     1.0000 0.33752  0.65407  0.98045  Biso   1.000  C
  C720     1.0000 0.33758  0.65407  0.98045  Biso   1.000  C
  O132     1.0000 0.49104  0.67276  0.99561  Biso   1.000  O
  O133     1.0000 0.49108  0.67279  0.99568  Biso   1.000  O
  C721     1.0000 0.48910  0.79101  0.61493  Biso   1.000  C
  C722     1.0000 0.48912  0.79098  0.61500  Biso   1.000  C
  C723     1.0000 0.53810  0.77850  0.49826  Biso   1.000  C
  C724     1.0000 0.19233  0.69049  0.14500  Biso   1.000  C
  H804     1.0000 0.32923  0.77392  0.24970  Biso   1.000  H
  H805     1.0000 0.32922  0.77386  0.24970  Biso   1.000  H
  H806     1.0000 0.14184  0.77421  0.02401  Biso   1.000  H
  C725     1.0000 0.52172  0.90332  0.29106  Biso   1.000  C
  C726     1.0000 0.52175  0.90329  0.29113  Biso   1.000  C
  H807     1.0000 0.54348  0.95008  0.42727  Biso   1.000  H
  H808     1.0000 0.51949  0.00413  0.36568  Biso   1.000  H
  H809     1.0000 0.51941  0.00407  0.36568  Biso   1.000  H
  C727     1.0000 0.98696  0.81479  0.93144  Biso   1.000  C
  C728     1.0000 0.08965  0.87848  0.87273  Biso   1.000  C
  H810     1.0000 0.06498  0.93230  0.97962  Biso   1.000  H
  H811     1.0000 0.06491  0.93225  0.97962  Biso   1.000  H
  C729     1.0000 0.20372  0.08159  0.97795  Biso   1.000  C
  H812     1.0000 0.28794  0.01694  0.02833  Biso   1.000  H
  H813     1.0000 0.33412  0.10572  0.10720  Biso   1.000  H
  H814     1.0000 0.28786  0.01689  0.02833  Biso   1.000  H
  H815     1.0000 0.33406  0.10572  0.10720  Biso   1.000  H
  H816     1.0000 0.33405  0.10566  0.10720  Biso   1.000  H
  C730     1.0000 0.07651  0.02458  0.68584  Biso   1.000  C
  C731     1.0000 0.05373  0.12252  0.60743  Biso   1.000  C
  C732     1.0000 0.05375  0.12249  0.60750  Biso   1.000  C
  C733     1.0000 0.05371  0.12247  0.60743  Biso   1.000  C
  H817     1.0000 0.04456  0.20671  0.54993  Biso   1.000  H
  H818     1.0000 0.04459  0.20668  0.55000  Biso   1.000  H
  H819     1.0000 0.84273  0.46740  0.72674  Biso   1.000  H
  H820     1.0000 0.81053  0.51209  0.79311  Biso   1.000  H
  C734     1.0000 0.95085  0.57103  0.84243  Biso   1.000  C
  H821     1.0000 0.81057  0.51212  0.79318  Biso   1.000  H
  C735     1.0000 0.95084  0.57097  0.84243  Biso   1.000  C
  C736     1.0000 0.28921  0.67471  0.02720  Biso   1.000  C
  C737     1.0000 0.28927  0.67471  0.02720  Biso   1.000  C
  C738     1.0000 0.28655  0.59328  0.87114  Biso   1.000  C
  C739     1.0000 0.51776  0.72890  0.95689  Biso   1.000  C
  C740     1.0000 0.51773  0.72887  0.95697  Biso   1.000  C
  C741     1.0000 0.41785  0.71469  0.55553  Biso   1.000  C
  C742     1.0000 0.41789  0.71472  0.55561  Biso   1.000  C
  H822     1.0000 0.49649  0.82057  0.67493  Biso   1.000  H
  H823     1.0000 0.49647  0.82060  0.67500  Biso   1.000  H
  C743     1.0000 0.46941  0.70289  0.43955  Biso   1.000  C
  C744     1.0000 0.46935  0.70289  0.43955  Biso   1.000  C
  H824     1.0000 0.57813  0.79978  0.47856  Biso   1.000  H
  H825     1.0000 0.57807  0.79978  0.47856  Biso   1.000  H
  C745     1.0000 0.21102  0.62769  0.18773  Biso   1.000  C
  C746     1.0000 0.21103  0.62775  0.18773  Biso   1.000  C
  H826     1.0000 0.15583  0.71428  0.16697  Biso   1.000  H
  H827     1.0000 0.15240  0.66463  0.07167  Biso   1.000  H
  H828     1.0000 0.15581  0.71430  0.16704  Biso   1.000  H
  H829     1.0000 0.15243  0.66460  0.07174  Biso   1.000  H
  H830     1.0000 0.15239  0.66457  0.07167  Biso   1.000  H
  H831     1.0000 0.59054  0.92389  0.31750  Biso   1.000  H
  H832     1.0000 0.48684  0.90703  0.22598  Biso   1.000  H
  H833     1.0000 0.59048  0.92389  0.31750  Biso   1.000  H
  H834     1.0000 0.48682  0.90697  0.22598  Biso   1.000  H
  H835     1.0000 0.99435  0.76469  0.90970  Biso   1.000  H
  H836     1.0000 0.98488  0.82018  0.99114  Biso   1.000  H
  C747     1.0000 0.89141  0.81029  0.84886  Biso   1.000  C
  H837     1.0000 0.99439  0.76471  0.90977  Biso   1.000  H
  H838     1.0000 0.98482  0.82018  0.99114  Biso   1.000  H
  C748     1.0000 0.89135  0.81029  0.84886  Biso   1.000  C
  H839     1.0000 0.99437  0.76465  0.90977  Biso   1.000  H
  C749     1.0000 0.08058  0.80706  0.81000  Biso   1.000  C
  C750     1.0000 0.11199  0.94638  0.85303  Biso   1.000  C
  C751     1.0000 0.08056  0.80708  0.81008  Biso   1.000  C
  C752     1.0000 0.11193  0.94638  0.85303  Biso   1.000  C
  O134     1.0000 0.11230  0.01718  0.90636  Biso   1.000  O
  H840     1.0000 0.23239  0.09798  0.94242  Biso   1.000  H
  H841     1.0000 0.19349  0.12680  0.01008  Biso   1.000  H
  H842     1.0000 0.19353  0.12682  0.01015  Biso   1.000  H
  O135     1.0000 0.15405  0.01012  0.75977  Biso   1.000  O
  O136     1.0000 0.15404  0.01006  0.75977  Biso   1.000  O
  H843     1.0000 0.03830  0.97813  0.62228  Biso   1.000  H
  H844     1.0000 0.03829  0.97807  0.62228  Biso   1.000  H
  H845     1.0000 0.03444  0.03419  0.70887  Biso   1.000  H
  H846     1.0000 0.98724  0.09553  0.57485  Biso   1.000  H
  H847     1.0000 0.98723  0.09548  0.57485  Biso   1.000  H
  H848     1.0000 0.93825  0.59921  0.79833  Biso   1.000  H
  H849     1.0000 0.96525  0.60483  0.90667  Biso   1.000  H
  H850     1.0000 0.96523  0.60477  0.90667  Biso   1.000  H
  H851     1.0000 0.93824  0.59915  0.79833  Biso   1.000  H
  H852     1.0000 0.00515  0.55670  0.85235  Biso   1.000  H
  H853     1.0000 0.22181  0.65018  0.99000  Biso   1.000  H
  H854     1.0000 0.22185  0.65020  0.99008  Biso   1.000  H
  C753     1.0000 0.26667  0.63691  0.79924  Biso   1.000  C
  H855     1.0000 0.33326  0.57042  0.86886  Biso   1.000  H
  C754     1.0000 0.19667  0.52341  0.83682  Biso   1.000  C
  C755     1.0000 0.26665  0.63686  0.79924  Biso   1.000  C
  H856     1.0000 0.33324  0.57036  0.86886  Biso   1.000  H
  C756     1.0000 0.19663  0.52338  0.83690  Biso   1.000  C
  C757     1.0000 0.19665  0.52336  0.83682  Biso   1.000  C
  H857     1.0000 0.47982  0.76229  0.94992  Biso   1.000  H
  C758     1.0000 0.49897  0.68298  0.85576  Biso   1.000  C
  H858     1.0000 0.58597  0.76324  0.00348  Biso   1.000  H
  H859     1.0000 0.58594  0.76320  0.00356  Biso   1.000  H
  H860     1.0000 0.58596  0.76318  0.00348  Biso   1.000  H
  C759     1.0000 0.34907  0.67792  0.58144  Biso   1.000  C
  C760     1.0000 0.34905  0.67787  0.58144  Biso   1.000  C
  C761     1.0000 0.41010  0.67024  0.46879  Biso   1.000  C
  C762     1.0000 0.41009  0.67018  0.46879  Biso   1.000  C
  H861     1.0000 0.46233  0.67331  0.37985  Biso   1.000  H
  H862     1.0000 0.46225  0.67326  0.37985  Biso   1.000  H
  C763     1.0000 0.12161  0.55732  0.14932  Biso   1.000  C
  C764     1.0000 0.12159  0.55726  0.14932  Biso   1.000  C
  H863     1.0000 0.25324  0.60811  0.17167  Biso   1.000  H
  H864     1.0000 0.24531  0.65291  0.26076  Biso   1.000  H
  H865     1.0000 0.25320  0.60808  0.17174  Biso   1.000  H
  H866     1.0000 0.24534  0.65288  0.26083  Biso   1.000  H
  H867     1.0000 0.89364  0.80801  0.78962  Biso   1.000  H
  H868     1.0000 0.88028  0.85822  0.87174  Biso   1.000  H
  C765     1.0000 0.80742  0.73670  0.81970  Biso   1.000  C
  H869     1.0000 0.89367  0.80798  0.78970  Biso   1.000  H
  H870     1.0000 0.88027  0.85816  0.87174  Biso   1.000  H
  C766     1.0000 0.80745  0.73667  0.81977  Biso   1.000  C
  C767     1.0000 0.09051  0.80032  0.72924  Biso   1.000  C
  H871     1.0000 0.06706  0.76169  0.82333  Biso   1.000  H
  C768     1.0000 0.09044  0.80026  0.72924  Biso   1.000  C
  C769     1.0000 0.12547  0.94058  0.77371  Biso   1.000  C
  C770     1.0000 0.12551  0.94061  0.77379  Biso   1.000  C
  C771     1.0000 0.32803  0.65598  0.76682  Biso   1.000  C
  C772     1.0000 0.18667  0.65960  0.76432  Biso   1.000  C
  C773     1.0000 0.32807  0.65600  0.76690  Biso   1.000  C
  C774     1.0000 0.18669  0.65956  0.76440  Biso   1.000  C
  H872     1.0000 0.14588  0.54273  0.83106  Biso   1.000  H
  H873     1.0000 0.21201  0.50057  0.88743  Biso   1.000  H
  C775     1.0000 0.15976  0.45840  0.73493  Biso   1.000  C
  H874     1.0000 0.14586  0.54267  0.83106  Biso   1.000  H
  C776     1.0000 0.15978  0.45837  0.73500  Biso   1.000  C
  O137     1.0000 0.40097  0.62600  0.78614  Biso   1.000  O
  O138     1.0000 0.40096  0.62595  0.78614  Biso   1.000  O
  H875     1.0000 0.51218  0.72017  0.82682  Biso   1.000  H
  H876     1.0000 0.54306  0.65497  0.86500  Biso   1.000  H
  H877     1.0000 0.51216  0.72020  0.82690  Biso   1.000  H
  H878     1.0000 0.54304  0.65499  0.86508  Biso   1.000  H
  O139     1.0000 0.37930  0.72549  0.68167  Biso   1.000  O
  O140     1.0000 0.37924  0.72549  0.68167  Biso   1.000  O
  H879     1.0000 0.34711  0.62439  0.57637  Biso   1.000  H
  H880     1.0000 0.28427  0.67358  0.53372  Biso   1.000  H
  H881     1.0000 0.34705  0.62439  0.57637  Biso   1.000  H
  H882     1.0000 0.28431  0.67360  0.53379  Biso   1.000  H
  H883     1.0000 0.36479  0.61788  0.42963  Biso   1.000  H
  H884     1.0000 0.36483  0.61790  0.42970  Biso   1.000  H
  C777     1.0000 0.13688  0.50328  0.20409  Biso   1.000  C
  H885     1.0000 0.09420  0.52630  0.07848  Biso   1.000  H
  H886     1.0000 0.07412  0.57733  0.15318  Biso   1.000  H
  H887     1.0000 0.07411  0.57727  0.15318  Biso   1.000  H
  H888     1.0000 0.81941  0.68916  0.79720  Biso   1.000  H
  H889     1.0000 0.80653  0.73908  0.87962  Biso   1.000  H
  C778     1.0000 0.71188  0.72841  0.74015  Biso   1.000  C
  H890     1.0000 0.81945  0.68918  0.79727  Biso   1.000  H
  C779     1.0000 0.71186  0.72835  0.74015  Biso   1.000  C
  C780     1.0000 0.11180  0.86911  0.71152  Biso   1.000  C
  C781     1.0000 0.07446  0.71991  0.65834  Biso   1.000  C
  C782     1.0000 0.11177  0.86907  0.71159  Biso   1.000  C
  C783     1.0000 0.07445  0.71985  0.65834  Biso   1.000  C
  C784     1.0000 0.31294  0.70108  0.70773  Biso   1.000  C
  H891     1.0000 0.14418  0.64612  0.78455  Biso   1.000  H
  C785     1.0000 0.16707  0.70068  0.70152  Biso   1.000  C
  H892     1.0000 0.14417  0.64607  0.78455  Biso   1.000  H
  C786     1.0000 0.16711  0.70070  0.70159  Biso   1.000  C
  H893     1.0000 0.21124  0.43961  0.74182  Biso   1.000  H
  H894     1.0000 0.14645  0.48228  0.68553  Biso   1.000  H
  C787     1.0000 0.06926  0.38649  0.69371  Biso   1.000  C
  H895     1.0000 0.21127  0.43957  0.74190  Biso   1.000  H
  C788     1.0000 0.06924  0.38651  0.69379  Biso   1.000  C
  C789     1.0000 0.06923  0.38646  0.69379  Biso   1.000  C
  C790     1.0000 0.04911  0.42898  0.15750  Biso   1.000  C
  H896     1.0000 0.18943  0.48792  0.20682  Biso   1.000  H
  H897     1.0000 0.15723  0.53261  0.27318  Biso   1.000  H
  H898     1.0000 0.15717  0.53261  0.27318  Biso   1.000  H
  H899     1.0000 0.15716  0.53255  0.27318  Biso   1.000  H
  H900     1.0000 0.18942  0.48786  0.20682  Biso   1.000  H
  H901     1.0000 0.71337  0.73051  0.68174  Biso   1.000  H
  H902     1.0000 0.69586  0.77258  0.76455  Biso   1.000  H
  C791     1.0000 0.63070  0.64602  0.70728  Biso   1.000  C
  H903     1.0000 0.71336  0.73046  0.68174  Biso   1.000  H
  C792     1.0000 0.63069  0.64596  0.70728  Biso   1.000  C
  O141     1.0000 0.11406  0.86397  0.62553  Biso   1.000  O
  O142     1.0000 0.11410  0.86400  0.62561  Biso   1.000  O
  C793     1.0000 0.98499  0.65118  0.62712  Biso   1.000  C
  C794     1.0000 0.98497  0.65120  0.62720  Biso   1.000  C
  H904     1.0000 0.06280  0.72630  0.59606  Biso   1.000  H
  C795     1.0000 0.23468  0.72382  0.67758  Biso   1.000  C
  C796     1.0000 0.23467  0.72377  0.67758  Biso   1.000  C
  C797     1.0000 0.98046  0.39308  0.66781  Biso   1.000  C
  C798     1.0000 0.98044  0.39310  0.66788  Biso   1.000  C
  H905     1.0000 0.05856  0.34778  0.63364  Biso   1.000  H
  H906     1.0000 0.08501  0.36281  0.74341  Biso   1.000  H
  H907     1.0000 0.08504  0.36278  0.74349  Biso   1.000  H
  H908     1.0000 0.08500  0.36275  0.74341  Biso   1.000  H
  H909     1.0000 0.06171  0.40080  0.20159  Biso   1.000  H
  H910     1.0000 0.99481  0.44331  0.14757  Biso   1.000  H
  H911     1.0000 0.99484  0.44328  0.14765  Biso   1.000  H
  H912     1.0000 0.03472  0.39518  0.09326  Biso   1.000  H
  H913     1.0000 0.03470  0.39521  0.09333  Biso   1.000  H
  H914     1.0000 0.56909  0.64098  0.65364  Biso   1.000  H
  H915     1.0000 0.62709  0.64500  0.76424  Biso   1.000  H
  H916     1.0000 0.64711  0.60230  0.68417  Biso   1.000  H
  H917     1.0000 0.56903  0.64098  0.65364  Biso   1.000  H
  H918     1.0000 0.62702  0.64495  0.76424  Biso   1.000  H
  H919     1.0000 0.64705  0.60230  0.68417  Biso   1.000  H
  C799     1.0000 0.20387  0.89471  0.63682  Biso   1.000  C
  C800     1.0000 0.20390  0.89468  0.63690  Biso   1.000  C
  H920     1.0000 0.99038  0.64663  0.68758  Biso   1.000  H
  H921     1.0000 0.98316  0.60171  0.58773  Biso   1.000  H
  C801     1.0000 0.89073  0.66142  0.56538  Biso   1.000  C
  H922     1.0000 0.99037  0.64658  0.68758  Biso   1.000  H
  H923     1.0000 0.98319  0.60168  0.58781  Biso   1.000  H
  C802     1.0000 0.89066  0.66136  0.56538  Biso   1.000  C
  O143     1.0000 0.22222  0.76849  0.61887  Biso   1.000  O
  O144     1.0000 0.22216  0.76849  0.61887  Biso   1.000  O
  H924     1.0000 0.98557  0.42520  0.72826  Biso   1.000  H
  H925     1.0000 0.93125  0.34038  0.63917  Biso   1.000  H
  C803     1.0000 0.95145  0.43099  0.59273  Biso   1.000  C
  C804     1.0000 0.95149  0.43101  0.59281  Biso   1.000  C
  H926     1.0000 0.98556  0.42515  0.72826  Biso   1.000  H
  C805     1.0000 0.27026  0.85340  0.68023  Biso   1.000  C
  C806     1.0000 0.27030  0.85342  0.68031  Biso   1.000  C
  C807     1.0000 0.27029  0.85337  0.68031  Biso   1.000  C
  H927     1.0000 0.23535  0.95121  0.68061  Biso   1.000  H
  H928     1.0000 0.19270  0.88993  0.57114  Biso   1.000  H
  H929     1.0000 0.23538  0.95117  0.68068  Biso   1.000  H
  H930     1.0000 0.19269  0.88987  0.57114  Biso   1.000  H
  H931     1.0000 0.89097  0.70911  0.60667  Biso   1.000  H
  H932     1.0000 0.88780  0.67000  0.50766  Biso   1.000  H
  C808     1.0000 0.80065  0.59190  0.52743  Biso   1.000  C
  C809     1.0000 0.80068  0.59187  0.52750  Biso   1.000  C
  H933     1.0000 0.89096  0.70905  0.60667  Biso   1.000  H
  H934     1.0000 0.88779  0.66995  0.50766  Biso   1.000  H
  H935     1.0000 0.92595  0.46998  0.61091  Biso   1.000  H
  H936     1.0000 0.90194  0.39058  0.52652  Biso   1.000  H
  H937     1.0000 0.92599  0.47000  0.61099  Biso   1.000  H
  H938     1.0000 0.90198  0.39061  0.52659  Biso   1.000  H
  H939     1.0000 0.00708  0.45701  0.59296  Biso   1.000  H
  H940     1.0000 0.00706  0.45695  0.59296  Biso   1.000  H
  H941     1.0000 0.32911  0.87450  0.68197  Biso   1.000  H
  H942     1.0000 0.28798  0.86289  0.74902  Biso   1.000  H
  H943     1.0000 0.28802  0.86292  0.74909  Biso   1.000  H
  H944     1.0000 0.28800  0.86286  0.74909  Biso   1.000  H
  H945     1.0000 0.80321  0.58341  0.58508  Biso   1.000  H
  H946     1.0000 0.80026  0.54418  0.48622  Biso   1.000  H
  C810     1.0000 0.70569  0.60297  0.46463  Biso   1.000  C
  H947     1.0000 0.80029  0.54421  0.48629  Biso   1.000  H
  C811     1.0000 0.70567  0.60299  0.46470  Biso   1.000  C
  H948     1.0000 0.70677  0.65100  0.50614  Biso   1.000  H
  H949     1.0000 0.70377  0.61178  0.40743  Biso   1.000  H
  C812     1.0000 0.61562  0.53632  0.42599  Biso   1.000  C
  H950     1.0000 0.70680  0.65097  0.50622  Biso   1.000  H
  H951     1.0000 0.70381  0.61180  0.40750  Biso   1.000  H
  C813     1.0000 0.61561  0.53626  0.42599  Biso   1.000  C
  H952     1.0000 0.56087  0.55018  0.39114  Biso   1.000  H
  H953     1.0000 0.61679  0.52587  0.48144  Biso   1.000  H
  H954     1.0000 0.61038  0.48932  0.37985  Biso   1.000  H
  H955     1.0000 0.56091  0.55020  0.39122  Biso   1.000  H
  H956     1.0000 0.61673  0.52587  0.48144  Biso   1.000  H
  H957     1.0000 0.61037  0.48926  0.37985  Biso   1.000  H
  C814     1.0000 0.72964  0.14661  0.31969  Biso   1.000  C
  O145     1.0000 0.77775  0.23152  0.38106  Biso   1.000  O
  O146     1.0000 0.77777  0.23149  0.38113  Biso   1.000  O
  C815     1.0000 0.79609  0.10530  0.36310  Biso   1.000  C
  C816     1.0000 0.79603  0.10530  0.36310  Biso   1.000  C
  H958     1.0000 0.67086  0.12551  0.31795  Biso   1.000  H
  H959     1.0000 0.71199  0.13712  0.25091  Biso   1.000  H
  H960     1.0000 0.67090  0.12553  0.31803  Biso   1.000  H
  H961     1.0000 0.67088  0.12548  0.31803  Biso   1.000  H
  C817     1.0000 0.76528  0.27619  0.32235  Biso   1.000  C
  C818     1.0000 0.76526  0.27621  0.32242  Biso   1.000  C
  C819     1.0000 0.72970  0.14661  0.31969  Biso   1.000  C
  O147     1.0000 0.88591  0.13604  0.37439  Biso   1.000  O
  O148     1.0000 0.88583  0.13598  0.37439  Biso   1.000  O
  O149     1.0000 0.88589  0.13598  0.37439  Biso   1.000  O
  H962     1.0000 0.76461  0.04881  0.31932  Biso   1.000  H
  H963     1.0000 0.80726  0.11008  0.42878  Biso   1.000  H
  H964     1.0000 0.76455  0.04881  0.31932  Biso   1.000  H
  C820     1.0000 0.68703  0.29893  0.29219  Biso   1.000  C
  C821     1.0000 0.68695  0.29888  0.29219  Biso   1.000  C
  C822     1.0000 0.83290  0.29933  0.29841  Biso   1.000  C
  C823     1.0000 0.83289  0.29928  0.29841  Biso   1.000  C
  C824     1.0000 0.88816  0.13091  0.28841  Biso   1.000  C
  O150     1.0000 0.62066  0.27452  0.31826  Biso   1.000  O
  O151     1.0000 0.62069  0.27449  0.31833  Biso   1.000  O
  C825     1.0000 0.67193  0.34403  0.23310  Biso   1.000  C
  C826     1.0000 0.67186  0.34398  0.23310  Biso   1.000  C
  C827     1.0000 0.81330  0.34041  0.23560  Biso   1.000  C
  C828     1.0000 0.92550  0.28010  0.34159  Biso   1.000  C
  C829     1.0000 0.92544  0.28010  0.34159  Biso   1.000  C
  C830     1.0000 0.87449  0.05943  0.22621  Biso   1.000  C
  C831     1.0000 0.87448  0.05937  0.22621  Biso   1.000  C
  C832     1.0000 0.90946  0.19969  0.27068  Biso   1.000  C
  C833     1.0000 0.65090  0.32209  0.41848  Biso   1.000  C
  C834     1.0000 0.65084  0.32209  0.41848  Biso   1.000  C
  O152     1.0000 0.59900  0.37401  0.21379  Biso   1.000  O
  C835     1.0000 0.73330  0.36310  0.20068  Biso   1.000  C
  H965     1.0000 0.85578  0.35389  0.21538  Biso   1.000  H
  H966     1.0000 0.93717  0.27371  0.40386  Biso   1.000  H
  H967     1.0000 0.93721  0.27373  0.40394  Biso   1.000  H
  H968     1.0000 0.93719  0.27368  0.40394  Biso   1.000  H
  C836     1.0000 0.01498  0.34884  0.37280  Biso   1.000  C
  C837     1.0000 0.01497  0.34878  0.37280  Biso   1.000  C
  O153     1.0000 0.84591  0.98990  0.24015  Biso   1.000  O
  O154     1.0000 0.84595  0.98992  0.24023  Biso   1.000  O
  C838     1.0000 0.88797  0.05363  0.14689  Biso   1.000  C
  C839     1.0000 0.88796  0.05357  0.14689  Biso   1.000  C
  C840     1.0000 0.91939  0.19295  0.18992  Biso   1.000  C
  C841     1.0000 0.91938  0.19290  0.18992  Biso   1.000  C
  C842     1.0000 0.58211  0.28532  0.44439  Biso   1.000  C
  C843     1.0000 0.58205  0.28532  0.44439  Biso   1.000  C
  C844     1.0000 0.58204  0.28526  0.44439  Biso   1.000  C
  H969     1.0000 0.65286  0.37562  0.42356  Biso   1.000  H
  H970     1.0000 0.71570  0.32643  0.46621  Biso   1.000  H
  H971     1.0000 0.65288  0.37559  0.42363  Biso   1.000  H
  H972     1.0000 0.71568  0.32638  0.46621  Biso   1.000  H
  C845     1.0000 0.50099  0.31703  0.14417  Biso   1.000  C
  C846     1.0000 0.50102  0.31700  0.14424  Biso   1.000  C
  C847     1.0000 0.50098  0.31698  0.14417  Biso   1.000  C
  C848     1.0000 0.71341  0.40673  0.12879  Biso   1.000  C
  C849     1.0000 0.71340  0.40668  0.12879  Biso   1.000  C
  H973     1.0000 0.00958  0.35338  0.31235  Biso   1.000  H
  H974     1.0000 0.01680  0.39830  0.41219  Biso   1.000  H
  C850     1.0000 0.10924  0.33859  0.43454  Biso   1.000  C
  H975     1.0000 0.00956  0.35340  0.31242  Biso   1.000  H
  H976     1.0000 0.01675  0.39830  0.41219  Biso   1.000  H
  C851     1.0000 0.10928  0.33861  0.43462  Biso   1.000  C
  C852     1.0000 0.92346  0.97543  0.31409  Biso   1.000  C
  C853     1.0000 0.92338  0.97538  0.31409  Biso   1.000  C
  O155     1.0000 0.88766  0.98283  0.09356  Biso   1.000  O
  O156     1.0000 0.88763  0.98280  0.09364  Biso   1.000  O
  O157     1.0000 0.88765  0.98278  0.09356  Biso   1.000  O
  C854     1.0000 0.91031  0.12153  0.12720  Biso   1.000  C
  C855     1.0000 0.91030  0.12147  0.12720  Biso   1.000  C
  H977     1.0000 0.93291  0.23832  0.17659  Biso   1.000  H
  H978     1.0000 0.93290  0.23827  0.17659  Biso   1.000  H
  C856     1.0000 0.51087  0.20900  0.38500  Biso   1.000  C
  C857     1.0000 0.58986  0.32977  0.53113  Biso   1.000  C
  C858     1.0000 0.58984  0.32980  0.53121  Biso   1.000  C
  C859     1.0000 0.48220  0.27111  0.04303  Biso   1.000  C
  H979     1.0000 0.48779  0.27984  0.17310  Biso   1.000  H
  H980     1.0000 0.45691  0.34504  0.13492  Biso   1.000  H
  H981     1.0000 0.48777  0.27978  0.17310  Biso   1.000  H
  H982     1.0000 0.45689  0.34499  0.13492  Biso   1.000  H
  C860     1.0000 0.66237  0.34589  0.01947  Biso   1.000  C
  H983     1.0000 0.66671  0.42960  0.13106  Biso   1.000  H
  C861     1.0000 0.80330  0.47660  0.16310  Biso   1.000  C
  C862     1.0000 0.66241  0.34591  0.01955  Biso   1.000  C
  H984     1.0000 0.66669  0.42962  0.13114  Biso   1.000  H
  H985     1.0000 0.10899  0.29090  0.39325  Biso   1.000  H
  H986     1.0000 0.11216  0.33001  0.49227  Biso   1.000  H
  C863     1.0000 0.19931  0.40811  0.47250  Biso   1.000  C
  H987     1.0000 0.10897  0.29093  0.39333  Biso   1.000  H
  C864     1.0000 0.19925  0.40811  0.47250  Biso   1.000  C
  C865     1.0000 0.88216  0.90421  0.32932  Biso   1.000  C
  C866     1.0000 0.88210  0.90421  0.32932  Biso   1.000  C
  H988     1.0000 0.96552  0.96582  0.29106  Biso   1.000  H
  H989     1.0000 0.96555  0.96579  0.29113  Biso   1.000  H
  H990     1.0000 0.96551  0.96577  0.29106  Biso   1.000  H
  H991     1.0000 0.96166  0.02188  0.37765  Biso   1.000  H
  H992     1.0000 0.96164  0.02191  0.37772  Biso   1.000  H
  C867     1.0000 0.79625  0.91842  0.02197  Biso   1.000  C
  C868     1.0000 0.79627  0.91839  0.02205  Biso   1.000  C
  C869     1.0000 0.92416  0.11730  0.03917  Biso   1.000  C
  C870     1.0000 0.92420  0.11732  0.03924  Biso   1.000  C
  C871     1.0000 0.45088  0.17580  0.41250  Biso   1.000  C
  H993     1.0000 0.50347  0.17944  0.32500  Biso   1.000  H
  H994     1.0000 0.50346  0.17938  0.32500  Biso   1.000  H
  C872     1.0000 0.53055  0.29712  0.56037  Biso   1.000  C
  C873     1.0000 0.53054  0.29707  0.56037  Biso   1.000  C
  H995     1.0000 0.63517  0.38213  0.57030  Biso   1.000  H
  H996     1.0000 0.63516  0.38207  0.57030  Biso   1.000  H
  H997     1.0000 0.41399  0.23677  0.99644  Biso   1.000  H
  O158     1.0000 0.50893  0.32725  0.00432  Biso   1.000  O
  H998     1.0000 0.52014  0.23772  0.05000  Biso   1.000  H
  O159     1.0000 0.50891  0.32719  0.00432  Biso   1.000  O
  H999     1.0000 0.52008  0.23772  0.05000  Biso   1.000  H
  C874     1.0000 0.56195  0.30752  0.96333  Biso   1.000  C
  C875     1.0000 0.56187  0.30747  0.96333  Biso   1.000  C
  C876     1.0000 0.56193  0.30747  0.96333  Biso   1.000  C
  C877     1.0000 0.71070  0.32530  0.97273  Biso   1.000  C
  C878     1.0000 0.71068  0.32524  0.97273  Biso   1.000  C
  H1000    1.0000 0.85409  0.45729  0.16886  Biso   1.000  H
  H1001    1.0000 0.78795  0.49944  0.11250  Biso   1.000  H
  C879     1.0000 0.84021  0.54161  0.26500  Biso   1.000  C
  H1002    1.0000 0.85413  0.45731  0.16894  Biso   1.000  H
  H1003    1.0000 0.78788  0.49939  0.11250  Biso   1.000  H
  H1004    1.0000 0.78794  0.49939  0.11250  Biso   1.000  H
  H1005    1.0000 0.19676  0.41661  0.41485  Biso   1.000  H
  H1006    1.0000 0.19971  0.45583  0.51371  Biso   1.000  H
  C880     1.0000 0.29427  0.39704  0.53530  Biso   1.000  C
  H1007    1.0000 0.19680  0.41663  0.41492  Biso   1.000  H
  H1008    1.0000 0.19965  0.45583  0.51371  Biso   1.000  H
  C881     1.0000 0.29426  0.39699  0.53530  Biso   1.000  C
  H1009    1.0000 0.19679  0.41657  0.41492  Biso   1.000  H
  H1010    1.0000 0.19964  0.45577  0.51371  Biso   1.000  H
  C882     1.0000 0.78444  0.86410  0.28288  Biso   1.000  C
  C883     1.0000 0.78439  0.86410  0.28288  Biso   1.000  C
  C884     1.0000 0.94624  0.87749  0.39250  Biso   1.000  C
  C885     1.0000 0.94618  0.87749  0.39250  Biso   1.000  C
  C886     1.0000 0.72628  0.94019  0.94114  Biso   1.000  C
  H1011    1.0000 0.80647  0.87321  0.98985  Biso   1.000  H
  C887     1.0000 0.72622  0.94019  0.94114  Biso   1.000  C
  H1012    1.0000 0.80646  0.87316  0.98985  Biso   1.000  H
  H1013    1.0000 0.76757  0.90203  0.05750  Biso   1.000  H
  H1014    1.0000 0.76750  0.90198  0.05750  Biso   1.000  H
  C888     1.0000 0.83152  0.10918  0.94644  Biso   1.000  C
  H1015    1.0000 0.93498  0.06771  0.02030  Biso   1.000  H
  C889     1.0000 0.01301  0.18522  0.06848  Biso   1.000  C
  C890     1.0000 0.01299  0.18516  0.06848  Biso   1.000  C
  C891     1.0000 0.37146  0.09531  0.34818  Biso   1.000  C
  C892     1.0000 0.46186  0.22151  0.50166  Biso   1.000  C
  C893     1.0000 0.46185  0.22145  0.50166  Biso   1.000  C
  H1016    1.0000 0.53764  0.32670  0.62007  Biso   1.000  H
  C894     1.0000 0.51225  0.25278  0.86493  Biso   1.000  C
  C895     1.0000 0.51219  0.25278  0.86493  Biso   1.000  C
  C896     1.0000 0.66375  0.27039  0.87432  Biso   1.000  C
  C897     1.0000 0.66373  0.27041  0.87439  Biso   1.000  C
  C898     1.0000 0.66369  0.27039  0.87432  Biso   1.000  C
  H1017    1.0000 0.77815  0.34983  0.00992  Biso   1.000  H
  H1018    1.0000 0.77809  0.34983  0.00992  Biso   1.000  H
  H1019    1.0000 0.77808  0.34978  0.00992  Biso   1.000  H
  H1020    1.0000 0.78873  0.56041  0.25810  Biso   1.000  H
  H1021    1.0000 0.85352  0.51773  0.31439  Biso   1.000  H
  C899     1.0000 0.93070  0.61352  0.30621  Biso   1.000  C
  H1022    1.0000 0.85350  0.51767  0.31439  Biso   1.000  H
  H1023    1.0000 0.29319  0.34901  0.49378  Biso   1.000  H
  H1024    1.0000 0.29620  0.38824  0.59250  Biso   1.000  H
  C900     1.0000 0.38434  0.46369  0.57393  Biso   1.000  C
  H1025    1.0000 0.29313  0.34901  0.49378  Biso   1.000  H
  H1026    1.0000 0.29612  0.38818  0.59250  Biso   1.000  H
  C901     1.0000 0.38438  0.46371  0.57401  Biso   1.000  C
  C902     1.0000 0.74794  0.79809  0.29719  Biso   1.000  C
  C903     1.0000 0.74788  0.79809  0.29719  Biso   1.000  C
  H1027    1.0000 0.74133  0.88222  0.24038  Biso   1.000  H
  H1028    1.0000 0.74132  0.88216  0.24038  Biso   1.000  H
  C904     1.0000 0.91193  0.81100  0.40719  Biso   1.000  C
  C905     1.0000 0.91187  0.81100  0.40719  Biso   1.000  C
  H1029    1.0000 0.01272  0.90448  0.42507  Biso   1.000  H
  H1030    1.0000 0.01266  0.90448  0.42507  Biso   1.000  H
  O160     1.0000 0.77154  0.96537  0.89061  Biso   1.000  O
  H1031    1.0000 0.71203  0.98307  0.97159  Biso   1.000  H
  H1032    1.0000 0.66584  0.89429  0.89273  Biso   1.000  H
  O161     1.0000 0.77158  0.96539  0.89068  Biso   1.000  O
  H1033    1.0000 0.71207  0.98309  0.97167  Biso   1.000  H
  C906     1.0000 0.81371  0.17488  0.92742  Biso   1.000  C
  C907     1.0000 0.76032  0.03418  0.87523  Biso   1.000  C
  H1034    1.0000 0.00562  0.23533  0.09023  Biso   1.000  H
  H1035    1.0000 0.01508  0.17983  0.00879  Biso   1.000  H
  C908     1.0000 0.10856  0.18972  0.15106  Biso   1.000  C
  H1036    1.0000 0.01507  0.17977  0.00879  Biso   1.000  H
  C909     1.0000 0.10858  0.18969  0.15114  Biso   1.000  C
  O162     1.0000 0.39148  0.05012  0.28076  Biso   1.000  O
  O163     1.0000 0.39145  0.05009  0.28083  Biso   1.000  O
  O164     1.0000 0.39147  0.05007  0.28076  Biso   1.000  O
  H1037    1.0000 0.36697  0.06793  0.39060  Biso   1.000  H
  H1038    1.0000 0.31008  0.10063  0.30977  Biso   1.000  H
  H1039    1.0000 0.36696  0.06787  0.39060  Biso   1.000  H
  H1040    1.0000 0.31011  0.10060  0.30985  Biso   1.000  H
  H1041    1.0000 0.31007  0.10058  0.30977  Biso   1.000  H
  H1042    1.0000 0.42183  0.20023  0.52136  Biso   1.000  H
  H1043    1.0000 0.42182  0.20017  0.52136  Biso   1.000  H
  O165     1.0000 0.41290  0.21169  0.81273  Biso   1.000  O
  C910     1.0000 0.56152  0.23459  0.82023  Biso   1.000  C
  C911     1.0000 0.71571  0.24298  0.82333  Biso   1.000  C
  H1044    1.0000 0.94140  0.65223  0.36629  Biso   1.000  H
  H1045    1.0000 0.91495  0.63720  0.25651  Biso   1.000  H
  H1046    1.0000 0.94139  0.65218  0.36629  Biso   1.000  H
  H1047    1.0000 0.91489  0.63720  0.25651  Biso   1.000  H
  C912     1.0000 0.01950  0.60693  0.33212  Biso   1.000  C
  C913     1.0000 0.01949  0.60688  0.33212  Biso   1.000  C
  H1048    1.0000 0.43910  0.44983  0.60878  Biso   1.000  H
  H1049    1.0000 0.38317  0.47414  0.51848  Biso   1.000  H
  H1050    1.0000 0.38958  0.51069  0.62007  Biso   1.000  H
  H1051    1.0000 0.43902  0.44978  0.60878  Biso   1.000  H
  H1052    1.0000 0.38316  0.47408  0.51848  Biso   1.000  H
  H1053    1.0000 0.38952  0.51069  0.62007  Biso   1.000  H
  C914     1.0000 0.64233  0.75171  0.24689  Biso   1.000  C
  C915     1.0000 0.64231  0.75166  0.24689  Biso   1.000  C
  C916     1.0000 0.81413  0.77062  0.35939  Biso   1.000  C
  C917     1.0000 0.81406  0.77056  0.35939  Biso   1.000  C
  H1054    1.0000 0.95540  0.79330  0.45000  Biso   1.000  H
  C918     1.0000 0.73334  0.16879  0.84030  Biso   1.000  C
  H1055    1.0000 0.85813  0.22580  0.97591  Biso   1.000  H
  C919     1.0000 0.73332  0.16881  0.84038  Biso   1.000  C
  H1056    1.0000 0.85815  0.22577  0.97599  Biso   1.000  H
  H1057    1.0000 0.85809  0.22577  0.97599  Biso   1.000  H
  C920     1.0000 0.68045  0.02580  0.78765  Biso   1.000  C
  C921     1.0000 0.68039  0.02580  0.78765  Biso   1.000  C
  H1058    1.0000 0.10632  0.19200  0.21030  Biso   1.000  H
  H1059    1.0000 0.11969  0.14179  0.12818  Biso   1.000  H
  C922     1.0000 0.19254  0.26331  0.18023  Biso   1.000  C
  H1060    1.0000 0.10626  0.19200  0.21030  Biso   1.000  H
  H1061    1.0000 0.11973  0.14182  0.12826  Biso   1.000  H
  C923     1.0000 0.19248  0.26331  0.18023  Biso   1.000  C
  C924     1.0000 0.31951  0.97421  0.21227  Biso   1.000  C
  C925     1.0000 0.31955  0.97423  0.21235  Biso   1.000  C
  C926     1.0000 0.31954  0.97418  0.21235  Biso   1.000  C
  C927     1.0000 0.35764  0.24830  0.75303  Biso   1.000  C
  O166     1.0000 0.51054  0.18058  0.72084  Biso   1.000  O
  H1062    1.0000 0.67073  0.22609  0.75023  Biso   1.000  H
  C928     1.0000 0.80764  0.30952  0.85493  Biso   1.000  C
  C929     1.0000 0.80762  0.30947  0.85493  Biso   1.000  C
  H1063    1.0000 0.01439  0.57481  0.27166  Biso   1.000  H
  H1064    1.0000 0.06871  0.65963  0.36075  Biso   1.000  H
  C930     1.0000 0.04852  0.56902  0.40719  Biso   1.000  C
  H1065    1.0000 0.01443  0.57483  0.27174  Biso   1.000  H
  H1066    1.0000 0.06868  0.65960  0.36083  Biso   1.000  H
  C931     1.0000 0.04846  0.56902  0.40719  Biso   1.000  C
  H1067    1.0000 0.06870  0.65958  0.36075  Biso   1.000  H
  C932     1.0000 0.04844  0.56897  0.40719  Biso   1.000  C
  O167     1.0000 0.58706  0.78832  0.18720  Biso   1.000  O
  O168     1.0000 0.58699  0.78827  0.18720  Biso   1.000  O
  O169     1.0000 0.58700  0.78832  0.18720  Biso   1.000  O
  H1068    1.0000 0.62535  0.69719  0.20432  Biso   1.000  H
  H1069    1.0000 0.62793  0.75002  0.29780  Biso   1.000  H
  H1070    1.0000 0.62529  0.69719  0.20432  Biso   1.000  H
  H1071    1.0000 0.62792  0.74996  0.29780  Biso   1.000  H
  H1072    1.0000 0.79163  0.72469  0.36810  Biso   1.000  H
  H1073    1.0000 0.79157  0.72469  0.36810  Biso   1.000  H
  C933     1.0000 0.66842  0.09198  0.76773  Biso   1.000  C
  O170     1.0000 0.60848  0.94989  0.71917  Biso   1.000  O
  H1074    1.0000 0.18055  0.31085  0.20273  Biso   1.000  H
  H1075    1.0000 0.19343  0.26093  0.12030  Biso   1.000  H
  C934     1.0000 0.28809  0.27160  0.25977  Biso   1.000  C
  H1076    1.0000 0.18048  0.31080  0.20273  Biso   1.000  H
  H1077    1.0000 0.19336  0.26088  0.12030  Biso   1.000  H
  C935     1.0000 0.28813  0.27163  0.25985  Biso   1.000  C
  C936     1.0000 0.33155  0.90803  0.23220  Biso   1.000  C
  C937     1.0000 0.33154  0.90798  0.23220  Biso   1.000  C
  C938     1.0000 0.23965  0.96583  0.12470  Biso   1.000  C
  C939     1.0000 0.23963  0.96578  0.12470  Biso   1.000  C
  C940     1.0000 0.25202  0.20192  0.70273  Biso   1.000  C
  C941     1.0000 0.25201  0.20186  0.70273  Biso   1.000  C
  H1078    1.0000 0.37462  0.30282  0.79561  Biso   1.000  H
  H1079    1.0000 0.37204  0.25000  0.70212  Biso   1.000  H
  H1080    1.0000 0.37464  0.30279  0.79568  Biso   1.000  H
  H1081    1.0000 0.37208  0.25002  0.70220  Biso   1.000  H
  H1082    1.0000 0.37460  0.30277  0.79561  Biso   1.000  H
  C942     1.0000 0.47824  0.09669  0.70887  Biso   1.000  C
  H1083    1.0000 0.84413  0.28573  0.83296  Biso   1.000  H
  H1084    1.0000 0.84756  0.33538  0.92826  Biso   1.000  H
  C943     1.0000 0.78893  0.37226  0.81220  Biso   1.000  C
  H1085    1.0000 0.84412  0.28567  0.83296  Biso   1.000  H
  H1086    1.0000 0.84750  0.33538  0.92826  Biso   1.000  H
  C944     1.0000 0.78891  0.37229  0.81227  Biso   1.000  C
  H1087    1.0000 0.99289  0.54300  0.40697  Biso   1.000  H
  H1088    1.0000 0.07401  0.53003  0.38901  Biso   1.000  H
  H1089    1.0000 0.09803  0.60943  0.47341  Biso   1.000  H
  H1090    1.0000 0.09797  0.60943  0.47341  Biso   1.000  H
  H1091    1.0000 0.07400  0.52998  0.38901  Biso   1.000  H
  H1092    1.0000 0.09796  0.60937  0.47341  Biso   1.000  H
  C945     1.0000 0.48772  0.74723  0.13500  Biso   1.000  C
  C946     1.0000 0.48770  0.74718  0.13500  Biso   1.000  C
  O171     1.0000 0.59737  0.08249  0.67076  Biso   1.000  O
  O172     1.0000 0.59732  0.08249  0.67076  Biso   1.000  O
  C947     1.0000 0.62851  0.90470  0.65175  Biso   1.000  C
  C948     1.0000 0.62849  0.90465  0.65175  Biso   1.000  C
  H1093    1.0000 0.28659  0.26950  0.31818  Biso   1.000  H
  H1094    1.0000 0.30411  0.22743  0.23538  Biso   1.000  H
  C949     1.0000 0.36926  0.35399  0.29265  Biso   1.000  C
  H1095    1.0000 0.28653  0.26950  0.31818  Biso   1.000  H
  H1096    1.0000 0.30404  0.22737  0.23538  Biso   1.000  H
  C950     1.0000 0.36930  0.35402  0.29272  Biso   1.000  C
  C951     1.0000 0.26663  0.83122  0.15962  Biso   1.000  C
  C952     1.0000 0.26661  0.83117  0.15962  Biso   1.000  C
  O173     1.0000 0.40259  0.91753  0.32916  Biso   1.000  O
  O174     1.0000 0.40262  0.91749  0.32924  Biso   1.000  O
  O175     1.0000 0.40258  0.91747  0.32916  Biso   1.000  O
  C953     1.0000 0.16845  0.89083  0.05348  Biso   1.000  C
  C954     1.0000 0.16847  0.89080  0.05356  Biso   1.000  C
  O176     1.0000 0.22843  0.03464  0.10932  Biso   1.000  O
  O177     1.0000 0.22836  0.03459  0.10932  Biso   1.000  O
  C955     1.0000 0.21552  0.13591  0.71705  Biso   1.000  C
  C956     1.0000 0.21551  0.13586  0.71705  Biso   1.000  C
  C957     1.0000 0.18583  0.22939  0.64053  Biso   1.000  C
  C958     1.0000 0.18587  0.22942  0.64061  Biso   1.000  C
  C959     1.0000 0.49733  0.05057  0.63932  Biso   1.000  C
  C960     1.0000 0.49737  0.05059  0.63940  Biso   1.000  C
  H1097    1.0000 0.40942  0.07612  0.68243  Biso   1.000  H
  H1098    1.0000 0.51313  0.09298  0.77394  Biso   1.000  H
  H1099    1.0000 0.40945  0.07609  0.68250  Biso   1.000  H
  H1100    1.0000 0.40941  0.07607  0.68243  Biso   1.000  H
  H1101    1.0000 0.74673  0.39190  0.82826  Biso   1.000  H
  H1102    1.0000 0.75466  0.34710  0.73917  Biso   1.000  H
  C961     1.0000 0.87836  0.44269  0.85061  Biso   1.000  C
  C962     1.0000 0.87834  0.44272  0.85068  Biso   1.000  C
  C963     1.0000 0.43844  0.76542  0.17970  Biso   1.000  C
  C964     1.0000 0.43843  0.76537  0.17970  Biso   1.000  C
  C965     1.0000 0.43802  0.69249  0.03659  Biso   1.000  C
  C966     1.0000 0.54908  0.82421  0.58743  Biso   1.000  C
  C967     1.0000 0.54911  0.82417  0.58750  Biso   1.000  C
  H1103    1.0000 0.63299  0.93208  0.60932  Biso   1.000  H
  H1104    1.0000 0.68988  0.89938  0.69015  Biso   1.000  H
  H1105    1.0000 0.63303  0.93211  0.60940  Biso   1.000  H
  H1106    1.0000 0.43088  0.35903  0.34629  Biso   1.000  H
  H1107    1.0000 0.37287  0.35501  0.23568  Biso   1.000  H
  H1108    1.0000 0.35285  0.39771  0.31576  Biso   1.000  H
  H1109    1.0000 0.43087  0.35897  0.34629  Biso   1.000  H
  H1110    1.0000 0.35289  0.39773  0.31583  Biso   1.000  H
  H1111    1.0000 0.35288  0.39768  0.31583  Biso   1.000  H
  C968     1.0000 0.28426  0.75703  0.17659  Biso   1.000  C
  C969     1.0000 0.28418  0.75698  0.17659  Biso   1.000  C
  C970     1.0000 0.18625  0.82513  0.07250  Biso   1.000  C
  C971     1.0000 0.18624  0.82508  0.07250  Biso   1.000  C
  C972     1.0000 0.50264  0.94944  0.36060  Biso   1.000  C
  C973     1.0000 0.50263  0.94939  0.36060  Biso   1.000  C
  C974     1.0000 0.07581  0.88271  0.96076  Biso   1.000  C
  C975     1.0000 0.07574  0.88266  0.96076  Biso   1.000  C
  C976     1.0000 0.07575  0.88271  0.96076  Biso   1.000  C
  C977     1.0000 0.27368  0.05982  0.05879  Biso   1.000  C
  C978     1.0000 0.27367  0.05977  0.05879  Biso   1.000  C
  C979     1.0000 0.11780  0.09580  0.67061  Biso   1.000  C
  C980     1.0000 0.11784  0.09582  0.67068  Biso   1.000  C
  C981     1.0000 0.11783  0.09577  0.67068  Biso   1.000  C
  H1112    1.0000 0.25863  0.11779  0.75955  Biso   1.000  H
  C982     1.0000 0.08803  0.18901  0.59273  Biso   1.000  C
  C983     1.0000 0.08806  0.18898  0.59281  Biso   1.000  C
  H1113    1.0000 0.20834  0.27532  0.63182  Biso   1.000  H
  H1114    1.0000 0.20836  0.27529  0.63190  Biso   1.000  H
  H1115    1.0000 0.20832  0.27527  0.63182  Biso   1.000  H
  H1116    1.0000 0.48048  0.99588  0.63425  Biso   1.000  H
  H1117    1.0000 0.45649  0.04993  0.57265  Biso   1.000  H
  H1118    1.0000 0.45642  0.04988  0.57265  Biso   1.000  H
  H1119    1.0000 0.45648  0.04988  0.57265  Biso   1.000  H
  H1120    1.0000 0.92585  0.42268  0.84674  Biso   1.000  H
  H1121    1.0000 0.90577  0.47371  0.92144  Biso   1.000  H
  C984     1.0000 0.86308  0.49673  0.79583  Biso   1.000  C
  H1122    1.0000 0.90570  0.47366  0.92144  Biso   1.000  H
  C985     1.0000 0.86301  0.49667  0.79583  Biso   1.000  C
  C986     1.0000 0.86307  0.49667  0.79583  Biso   1.000  C
  C987     1.0000 0.33621  0.72962  0.12561  Biso   1.000  C
  C988     1.0000 0.33620  0.72957  0.12561  Biso   1.000  C
  O178     1.0000 0.48942  0.81943  0.27909  Biso   1.000  O
  O179     1.0000 0.48941  0.81938  0.27909  Biso   1.000  O
  C989     1.0000 0.33759  0.65413  0.98045  Biso   1.000  C
  C990     1.0000 0.33752  0.65407  0.98045  Biso   1.000  C
  C991     1.0000 0.33758  0.65407  0.98045  Biso   1.000  C
  O180     1.0000 0.49104  0.67276  0.99561  Biso   1.000  O
  O181     1.0000 0.49108  0.67279  0.99568  Biso   1.000  O
  C992     1.0000 0.48910  0.79101  0.61493  Biso   1.000  C
  C993     1.0000 0.48912  0.79098  0.61500  Biso   1.000  C
  C994     1.0000 0.53810  0.77850  0.49826  Biso   1.000  C
  C995     1.0000 0.19233  0.69049  0.14500  Biso   1.000  C
  H1123    1.0000 0.32923  0.77392  0.24970  Biso   1.000  H
  H1124    1.0000 0.32922  0.77386  0.24970  Biso   1.000  H
  H1125    1.0000 0.14184  0.77421  0.02401  Biso   1.000  H
  C996     1.0000 0.52172  0.90332  0.29106  Biso   1.000  C
  C997     1.0000 0.52175  0.90329  0.29113  Biso   1.000  C
  H1126    1.0000 0.54348  0.95008  0.42727  Biso   1.000  H
  H1127    1.0000 0.51949  0.00413  0.36568  Biso   1.000  H
  H1128    1.0000 0.51941  0.00407  0.36568  Biso   1.000  H
  C998     1.0000 0.98696  0.81479  0.93144  Biso   1.000  C
  C999     1.0000 0.08965  0.87848  0.87273  Biso   1.000  C
  H1129    1.0000 0.06498  0.93230  0.97962  Biso   1.000  H
  H1130    1.0000 0.06491  0.93225  0.97962  Biso   1.000  H
  C1000    1.0000 0.20372  0.08159  0.97795  Biso   1.000  C
  H1131    1.0000 0.28794  0.01694  0.02833  Biso   1.000  H
  H1132    1.0000 0.33412  0.10572  0.10720  Biso   1.000  H
  H1133    1.0000 0.28786  0.01689  0.02833  Biso   1.000  H
  H1134    1.0000 0.33406  0.10572  0.10720  Biso   1.000  H
  H1135    1.0000 0.33405  0.10566  0.10720  Biso   1.000  H
  C1001    1.0000 0.07651  0.02458  0.68584  Biso   1.000  C
  C1002    1.0000 0.05373  0.12252  0.60743  Biso   1.000  C
  C1003    1.0000 0.05375  0.12249  0.60750  Biso   1.000  C
  C1004    1.0000 0.05371  0.12247  0.60743  Biso   1.000  C
  H1136    1.0000 0.04456  0.20671  0.54993  Biso   1.000  H
  H1137    1.0000 0.04459  0.20668  0.55000  Biso   1.000  H
  H1138    1.0000 0.84273  0.46740  0.72674  Biso   1.000  H
  H1139    1.0000 0.81053  0.51209  0.79311  Biso   1.000  H
  C1005    1.0000 0.95085  0.57103  0.84243  Biso   1.000  C
  H1140    1.0000 0.81057  0.51212  0.79318  Biso   1.000  H
  C1006    1.0000 0.95084  0.57097  0.84243  Biso   1.000  C
  C1007    1.0000 0.28927  0.67471  0.02720  Biso   1.000  C
  C1008    1.0000 0.28921  0.67471  0.02720  Biso   1.000  C
  C1009    1.0000 0.28655  0.59328  0.87114  Biso   1.000  C
  C1010    1.0000 0.51776  0.72890  0.95689  Biso   1.000  C
  C1011    1.0000 0.51773  0.72887  0.95697  Biso   1.000  C
  C1012    1.0000 0.41785  0.71469  0.55553  Biso   1.000  C
  C1013    1.0000 0.41789  0.71472  0.55561  Biso   1.000  C
  H1141    1.0000 0.49649  0.82057  0.67493  Biso   1.000  H
  H1142    1.0000 0.49647  0.82060  0.67500  Biso   1.000  H
  C1014    1.0000 0.46941  0.70289  0.43955  Biso   1.000  C
  C1015    1.0000 0.46935  0.70289  0.43955  Biso   1.000  C
  H1143    1.0000 0.57813  0.79978  0.47856  Biso   1.000  H
  H1144    1.0000 0.57807  0.79978  0.47856  Biso   1.000  H
  C1016    1.0000 0.21103  0.62775  0.18773  Biso   1.000  C
  C1017    1.0000 0.21102  0.62769  0.18773  Biso   1.000  C
  H1145    1.0000 0.15583  0.71428  0.16697  Biso   1.000  H
  H1146    1.0000 0.15240  0.66463  0.07167  Biso   1.000  H
  H1147    1.0000 0.15581  0.71430  0.16704  Biso   1.000  H
  H1148    1.0000 0.15243  0.66460  0.07174  Biso   1.000  H
  H1149    1.0000 0.15239  0.66457  0.07167  Biso   1.000  H
  H1150    1.0000 0.59054  0.92389  0.31750  Biso   1.000  H
  H1151    1.0000 0.48684  0.90703  0.22598  Biso   1.000  H
  H1152    1.0000 0.59048  0.92389  0.31750  Biso   1.000  H
  H1153    1.0000 0.48682  0.90697  0.22598  Biso   1.000  H
  H1154    1.0000 0.99435  0.76469  0.90970  Biso   1.000  H
  H1155    1.0000 0.98488  0.82018  0.99114  Biso   1.000  H
  C1018    1.0000 0.89141  0.81029  0.84886  Biso   1.000  C
  H1156    1.0000 0.99439  0.76471  0.90977  Biso   1.000  H
  H1157    1.0000 0.98482  0.82018  0.99114  Biso   1.000  H
  C1019    1.0000 0.89135  0.81029  0.84886  Biso   1.000  C
  H1158    1.0000 0.99437  0.76465  0.90977  Biso   1.000  H
  C1020    1.0000 0.08058  0.80706  0.81000  Biso   1.000  C
  C1021    1.0000 0.11199  0.94638  0.85303  Biso   1.000  C
  C1022    1.0000 0.08056  0.80708  0.81008  Biso   1.000  C
  C1023    1.0000 0.11193  0.94638  0.85303  Biso   1.000  C
  O182     1.0000 0.11230  0.01718  0.90636  Biso   1.000  O
  H1159    1.0000 0.23239  0.09798  0.94242  Biso   1.000  H
  H1160    1.0000 0.19349  0.12680  0.01008  Biso   1.000  H
  H1161    1.0000 0.19353  0.12682  0.01015  Biso   1.000  H
  O183     1.0000 0.15405  0.01012  0.75977  Biso   1.000  O
  O184     1.0000 0.15404  0.01006  0.75977  Biso   1.000  O
  H1162    1.0000 0.03830  0.97813  0.62228  Biso   1.000  H
  H1163    1.0000 0.03829  0.97807  0.62228  Biso   1.000  H
  H1164    1.0000 0.03444  0.03419  0.70887  Biso   1.000  H
  H1165    1.0000 0.98724  0.09553  0.57485  Biso   1.000  H
  H1166    1.0000 0.98723  0.09548  0.57485  Biso   1.000  H
  H1167    1.0000 0.93825  0.59921  0.79833  Biso   1.000  H
  H1168    1.0000 0.96525  0.60483  0.90667  Biso   1.000  H
  H1169    1.0000 0.96523  0.60477  0.90667  Biso   1.000  H
  H1170    1.0000 0.93824  0.59915  0.79833  Biso   1.000  H
  H1171    1.0000 0.00515  0.55670  0.85235  Biso   1.000  H
  H1172    1.0000 0.22181  0.65018  0.99000  Biso   1.000  H
  H1173    1.0000 0.22185  0.65020  0.99008  Biso   1.000  H
  C1024    1.0000 0.26667  0.63691  0.79924  Biso   1.000  C
  H1174    1.0000 0.33326  0.57042  0.86886  Biso   1.000  H
  C1025    1.0000 0.19667  0.52341  0.83682  Biso   1.000  C
  C1026    1.0000 0.26665  0.63686  0.79924  Biso   1.000  C
  H1175    1.0000 0.33324  0.57036  0.86886  Biso   1.000  H
  C1027    1.0000 0.19663  0.52338  0.83690  Biso   1.000  C
  C1028    1.0000 0.19665  0.52336  0.83682  Biso   1.000  C
  H1176    1.0000 0.47982  0.76229  0.94992  Biso   1.000  H
  C1029    1.0000 0.49897  0.68298  0.85576  Biso   1.000  C
  H1177    1.0000 0.58597  0.76324  0.00348  Biso   1.000  H
  H1178    1.0000 0.58594  0.76320  0.00356  Biso   1.000  H
  H1179    1.0000 0.58596  0.76318  0.00348  Biso   1.000  H
  C1030    1.0000 0.34907  0.67792  0.58144  Biso   1.000  C
  C1031    1.0000 0.34905  0.67787  0.58144  Biso   1.000  C
  C1032    1.0000 0.41010  0.67024  0.46879  Biso   1.000  C
  C1033    1.0000 0.41009  0.67018  0.46879  Biso   1.000  C
  H1180    1.0000 0.46233  0.67331  0.37985  Biso   1.000  H
  H1181    1.0000 0.46225  0.67326  0.37985  Biso   1.000  H
  C1034    1.0000 0.12161  0.55732  0.14932  Biso   1.000  C
  C1035    1.0000 0.12159  0.55726  0.14932  Biso   1.000  C
  H1182    1.0000 0.25324  0.60811  0.17167  Biso   1.000  H
  H1183    1.0000 0.24531  0.65291  0.26076  Biso   1.000  H
  H1184    1.0000 0.25320  0.60808  0.17174  Biso   1.000  H
  H1185    1.0000 0.24534  0.65288  0.26083  Biso   1.000  H
  H1186    1.0000 0.89364  0.80801  0.78962  Biso   1.000  H
  H1187    1.0000 0.88028  0.85822  0.87174  Biso   1.000  H
  C1036    1.0000 0.80742  0.73670  0.81970  Biso   1.000  C
  H1188    1.0000 0.89367  0.80798  0.78970  Biso   1.000  H
  H1189    1.0000 0.88027  0.85816  0.87174  Biso   1.000  H
  C1037    1.0000 0.80745  0.73667  0.81977  Biso   1.000  C
  C1038    1.0000 0.09051  0.80032  0.72924  Biso   1.000  C
  H1190    1.0000 0.06706  0.76169  0.82333  Biso   1.000  H
  C1039    1.0000 0.09044  0.80026  0.72924  Biso   1.000  C
  C1040    1.0000 0.12547  0.94058  0.77371  Biso   1.000  C
  C1041    1.0000 0.12551  0.94061  0.77379  Biso   1.000  C
  C1042    1.0000 0.32803  0.65598  0.76682  Biso   1.000  C
  C1043    1.0000 0.18667  0.65960  0.76432  Biso   1.000  C
  C1044    1.0000 0.32807  0.65600  0.76690  Biso   1.000  C
  C1045    1.0000 0.18669  0.65956  0.76440  Biso   1.000  C
  H1191    1.0000 0.14588  0.54273  0.83106  Biso   1.000  H
  H1192    1.0000 0.21201  0.50057  0.88743  Biso   1.000  H
  C1046    1.0000 0.15976  0.45840  0.73493  Biso   1.000  C
  H1193    1.0000 0.14586  0.54267  0.83106  Biso   1.000  H
  C1047    1.0000 0.15978  0.45837  0.73500  Biso   1.000  C
  O185     1.0000 0.40097  0.62600  0.78614  Biso   1.000  O
  O186     1.0000 0.40096  0.62595  0.78614  Biso   1.000  O
  H1194    1.0000 0.51218  0.72017  0.82682  Biso   1.000  H
  H1195    1.0000 0.54306  0.65497  0.86500  Biso   1.000  H
  H1196    1.0000 0.51216  0.72020  0.82690  Biso   1.000  H
  H1197    1.0000 0.54304  0.65499  0.86508  Biso   1.000  H
  O187     1.0000 0.37930  0.72549  0.68167  Biso   1.000  O
  O188     1.0000 0.37924  0.72549  0.68167  Biso   1.000  O
  H1198    1.0000 0.34711  0.62439  0.57637  Biso   1.000  H
  H1199    1.0000 0.28427  0.67358  0.53372  Biso   1.000  H
  H1200    1.0000 0.34705  0.62439  0.57637  Biso   1.000  H
  H1201    1.0000 0.28431  0.67360  0.53379  Biso   1.000  H
  H1202    1.0000 0.36479  0.61788  0.42963  Biso   1.000  H
  H1203    1.0000 0.36483  0.61790  0.42970  Biso   1.000  H
  C1048    1.0000 0.13688  0.50328  0.20409  Biso   1.000  C
  H1204    1.0000 0.09420  0.52630  0.07848  Biso   1.000  H
  H1205    1.0000 0.07412  0.57733  0.15318  Biso   1.000  H
  H1206    1.0000 0.07411  0.57727  0.15318  Biso   1.000  H
  H1207    1.0000 0.81941  0.68916  0.79720  Biso   1.000  H
  H1208    1.0000 0.80653  0.73908  0.87962  Biso   1.000  H
  C1049    1.0000 0.71188  0.72841  0.74015  Biso   1.000  C
  H1209    1.0000 0.81945  0.68918  0.79727  Biso   1.000  H
  C1050    1.0000 0.71186  0.72835  0.74015  Biso   1.000  C
  C1051    1.0000 0.11180  0.86911  0.71152  Biso   1.000  C
  C1052    1.0000 0.07446  0.71991  0.65834  Biso   1.000  C
  C1053    1.0000 0.11177  0.86907  0.71159  Biso   1.000  C
  C1054    1.0000 0.07445  0.71985  0.65834  Biso   1.000  C
  C1055    1.0000 0.31294  0.70108  0.70773  Biso   1.000  C
  H1210    1.0000 0.14418  0.64612  0.78455  Biso   1.000  H
  C1056    1.0000 0.16707  0.70068  0.70152  Biso   1.000  C
  H1211    1.0000 0.14417  0.64607  0.78455  Biso   1.000  H
  C1057    1.0000 0.16711  0.70070  0.70159  Biso   1.000  C
  H1212    1.0000 0.21124  0.43961  0.74182  Biso   1.000  H
  H1213    1.0000 0.14645  0.48228  0.68553  Biso   1.000  H
  C1058    1.0000 0.06926  0.38649  0.69371  Biso   1.000  C
  H1214    1.0000 0.21127  0.43957  0.74190  Biso   1.000  H
  C1059    1.0000 0.06924  0.38651  0.69379  Biso   1.000  C
  C1060    1.0000 0.06923  0.38646  0.69379  Biso   1.000  C
  C1061    1.0000 0.04911  0.42898  0.15750  Biso   1.000  C
  H1215    1.0000 0.15723  0.53261  0.27318  Biso   1.000  H
  H1216    1.0000 0.18943  0.48792  0.20682  Biso   1.000  H
  H1217    1.0000 0.15717  0.53261  0.27318  Biso   1.000  H
  H1218    1.0000 0.15716  0.53255  0.27318  Biso   1.000  H
  H1219    1.0000 0.18942  0.48786  0.20682  Biso   1.000  H
  H1220    1.0000 0.71337  0.73051  0.68174  Biso   1.000  H
  H1221    1.0000 0.69586  0.77258  0.76455  Biso   1.000  H
  C1062    1.0000 0.63070  0.64602  0.70728  Biso   1.000  C
  H1222    1.0000 0.71336  0.73046  0.68174  Biso   1.000  H
  C1063    1.0000 0.63069  0.64596  0.70728  Biso   1.000  C
  O189     1.0000 0.11406  0.86397  0.62553  Biso   1.000  O
  O190     1.0000 0.11410  0.86400  0.62561  Biso   1.000  O
  C1064    1.0000 0.98499  0.65118  0.62712  Biso   1.000  C
  C1065    1.0000 0.98497  0.65120  0.62720  Biso   1.000  C
  H1223    1.0000 0.06280  0.72630  0.59606  Biso   1.000  H
  C1066    1.0000 0.23468  0.72382  0.67758  Biso   1.000  C
  C1067    1.0000 0.23467  0.72377  0.67758  Biso   1.000  C
  C1068    1.0000 0.98046  0.39308  0.66781  Biso   1.000  C
  C1069    1.0000 0.98044  0.39310  0.66788  Biso   1.000  C
  H1224    1.0000 0.05856  0.34778  0.63364  Biso   1.000  H
  H1225    1.0000 0.08501  0.36281  0.74341  Biso   1.000  H
  H1226    1.0000 0.08504  0.36278  0.74349  Biso   1.000  H
  H1227    1.0000 0.08500  0.36275  0.74341  Biso   1.000  H
  H1228    1.0000 0.06171  0.40080  0.20159  Biso   1.000  H
  H1229    1.0000 0.99481  0.44331  0.14757  Biso   1.000  H
  H1230    1.0000 0.99484  0.44328  0.14765  Biso   1.000  H
  H1231    1.0000 0.03472  0.39518  0.09326  Biso   1.000  H
  H1232    1.0000 0.03470  0.39521  0.09333  Biso   1.000  H
  H1233    1.0000 0.56909  0.64098  0.65364  Biso   1.000  H
  H1234    1.0000 0.62709  0.64500  0.76424  Biso   1.000  H
  H1235    1.0000 0.64711  0.60230  0.68417  Biso   1.000  H
  H1236    1.0000 0.56903  0.64098  0.65364  Biso   1.000  H
  H1237    1.0000 0.62702  0.64495  0.76424  Biso   1.000  H
  H1238    1.0000 0.64705  0.60230  0.68417  Biso   1.000  H
  C1070    1.0000 0.20387  0.89471  0.63682  Biso   1.000  C
  C1071    1.0000 0.20390  0.89468  0.63690  Biso   1.000  C
  H1239    1.0000 0.99038  0.64663  0.68758  Biso   1.000  H
  H1240    1.0000 0.98316  0.60171  0.58773  Biso   1.000  H
  C1072    1.0000 0.89073  0.66142  0.56538  Biso   1.000  C
  H1241    1.0000 0.99037  0.64658  0.68758  Biso   1.000  H
  H1242    1.0000 0.98319  0.60168  0.58781  Biso   1.000  H
  C1073    1.0000 0.89066  0.66136  0.56538  Biso   1.000  C
  O191     1.0000 0.22222  0.76849  0.61887  Biso   1.000  O
  O192     1.0000 0.22216  0.76849  0.61887  Biso   1.000  O
  H1243    1.0000 0.98557  0.42520  0.72826  Biso   1.000  H
  H1244    1.0000 0.93125  0.34038  0.63917  Biso   1.000  H
  C1074    1.0000 0.95145  0.43099  0.59273  Biso   1.000  C
  C1075    1.0000 0.95149  0.43101  0.59281  Biso   1.000  C
  H1245    1.0000 0.98556  0.42515  0.72826  Biso   1.000  H
  C1076    1.0000 0.27026  0.85340  0.68023  Biso   1.000  C
  C1077    1.0000 0.27030  0.85342  0.68031  Biso   1.000  C
  C1078    1.0000 0.27029  0.85337  0.68031  Biso   1.000  C
  H1246    1.0000 0.23535  0.95121  0.68061  Biso   1.000  H
  H1247    1.0000 0.19270  0.88993  0.57114  Biso   1.000  H
  H1248    1.0000 0.23538  0.95117  0.68068  Biso   1.000  H
  H1249    1.0000 0.19269  0.88987  0.57114  Biso   1.000  H
  H1250    1.0000 0.89097  0.70911  0.60667  Biso   1.000  H
  H1251    1.0000 0.88780  0.67000  0.50766  Biso   1.000  H
  C1079    1.0000 0.80065  0.59190  0.52743  Biso   1.000  C
  C1080    1.0000 0.80068  0.59187  0.52750  Biso   1.000  C
  H1252    1.0000 0.89096  0.70905  0.60667  Biso   1.000  H
  H1253    1.0000 0.88779  0.66995  0.50766  Biso   1.000  H
  H1254    1.0000 0.92595  0.46998  0.61091  Biso   1.000  H
  H1255    1.0000 0.90194  0.39058  0.52652  Biso   1.000  H
  H1256    1.0000 0.92599  0.47000  0.61099  Biso   1.000  H
  H1257    1.0000 0.90198  0.39061  0.52659  Biso   1.000  H
  H1258    1.0000 0.00708  0.45701  0.59296  Biso   1.000  H
  H1259    1.0000 0.00706  0.45695  0.59296  Biso   1.000  H
  H1260    1.0000 0.32911  0.87450  0.68197  Biso   1.000  H
  H1261    1.0000 0.28798  0.86289  0.74902  Biso   1.000  H
  H1262    1.0000 0.28802  0.86292  0.74909  Biso   1.000  H
  H1263    1.0000 0.28800  0.86286  0.74909  Biso   1.000  H
  H1264    1.0000 0.80321  0.58341  0.58508  Biso   1.000  H
  H1265    1.0000 0.80026  0.54418  0.48622  Biso   1.000  H
  C1081    1.0000 0.70569  0.60297  0.46463  Biso   1.000  C
  H1266    1.0000 0.80029  0.54421  0.48629  Biso   1.000  H
  C1082    1.0000 0.70567  0.60299  0.46470  Biso   1.000  C
  H1267    1.0000 0.70677  0.65100  0.50614  Biso   1.000  H
  H1268    1.0000 0.70377  0.61178  0.40743  Biso   1.000  H
  C1083    1.0000 0.61562  0.53632  0.42599  Biso   1.000  C
  H1269    1.0000 0.70680  0.65097  0.50622  Biso   1.000  H
  H1270    1.0000 0.70381  0.61180  0.40750  Biso   1.000  H
  C1084    1.0000 0.61561  0.53626  0.42599  Biso   1.000  C
  H1271    1.0000 0.56087  0.55018  0.39114  Biso   1.000  H
  H1272    1.0000 0.61679  0.52587  0.48144  Biso   1.000  H
  H1273    1.0000 0.61038  0.48932  0.37985  Biso   1.000  H
  H1274    1.0000 0.56091  0.55020  0.39122  Biso   1.000  H
  H1275    1.0000 0.61673  0.52587  0.48144  Biso   1.000  H
  H1276    1.0000 0.61037  0.48926  0.37985  Biso   1.000  H
