data_image0
_cell_length_a       42.204
_cell_length_b       14.938
_cell_length_c       25.555
_cell_angle_alpha    90
_cell_angle_beta     104.49
_cell_angle_gamma    90

_symmetry_space_group_name_H-M    "P 1"
_symmetry_int_tables_number       1

loop_
  _symmetry_equiv_pos_as_xyz
  'x, y, z'

loop_
  _atom_site_label
  _atom_site_occupancy
  _atom_site_fract_x
  _atom_site_fract_y
  _atom_site_fract_z
  _atom_site_thermal_displace_type
  _atom_site_B_iso_or_equiv
  _atom_site_type_symbol
  C1       1.0000 0.53718  0.46773  0.54175  Biso   1.000  C
  O1       1.0000 0.53386  0.38151  0.52348  Biso   1.000  O
  C2       1.0000 0.52641  0.49578  0.58734  Biso   1.000  C
  C3       1.0000 0.55201  0.52798  0.51281  Biso   1.000  C
  C4       1.0000 0.51949  0.31738  0.55060  Biso   1.000  C
  C5       1.0000 0.53090  0.58482  0.60371  Biso   1.000  C
  H1       1.0000 0.51631  0.45461  0.60642  Biso   1.000  H
  C6       1.0000 0.55650  0.61588  0.53132  Biso   1.000  C
  C7       1.0000 0.56214  0.49739  0.46382  Biso   1.000  C
  H2       1.0000 0.53330  0.30908  0.58730  Biso   1.000  H
  H3       1.0000 0.49769  0.33800  0.55230  Biso   1.000  H
  H4       1.0000 0.51749  0.26041  0.53100  Biso   1.000  H
  C8       1.0000 0.52086  0.62739  0.65112  Biso   1.000  C
  C9       1.0000 0.54574  0.64433  0.57513  Biso   1.000  C
  H5       1.0000 0.56720  0.65718  0.51329  Biso   1.000  H
  H6       1.0000 0.54610  0.45287  0.44438  Biso   1.000  H
  H7       1.0000 0.56161  0.54920  0.43949  Biso   1.000  H
  C10      1.0000 0.59614  0.45582  0.47611  Biso   1.000  C
  C11      1.0000 0.55243  0.66870  0.68668  Biso   1.000  C
  C12      1.0000 0.49893  0.70438  0.62820  Biso   1.000  C
  H8       1.0000 0.51029  0.58401  0.67128  Biso   1.000  H
  C13      1.0000 0.54808  0.73932  0.59902  Biso   1.000  C
  C14      1.0000 0.62410  0.50837  0.47882  Biso   1.000  C
  C15      1.0000 0.60034  0.36410  0.48448  Biso   1.000  C
  C16      1.0000 0.56692  0.72941  0.65863  Biso   1.000  C
  C17      1.0000 0.56583  0.65082  0.74072  Biso   1.000  C
  C18      1.0000 0.51351  0.76610  0.59934  Biso   1.000  C
  C19      1.0000 0.46687  0.71830  0.63119  Biso   1.000  C
  H9       1.0000 0.55869  0.78270  0.57881  Biso   1.000  H
  O2       1.0000 0.61871  0.59988  0.47199  Biso   1.000  O
  C20      1.0000 0.65552  0.47182  0.48913  Biso   1.000  C
  C21      1.0000 0.63134  0.32622  0.49640  Biso   1.000  C
  H10      1.0000 0.58179  0.32702  0.48201  Biso   1.000  H
  C22      1.0000 0.59533  0.77212  0.68442  Biso   1.000  C
  C23      1.0000 0.59496  0.69407  0.76719  Biso   1.000  C
  H11      1.0000 0.55549  0.60992  0.75960  Biso   1.000  H
  C24      1.0000 0.49651  0.84007  0.57562  Biso   1.000  C
  H12      1.0000 0.45680  0.67673  0.65011  Biso   1.000  H
  C25      1.0000 0.44990  0.79067  0.60739  Biso   1.000  C
  C26      1.0000 0.64592  0.65671  0.48052  Biso   1.000  C
  H13      1.0000 0.67410  0.50837  0.49058  Biso   1.000  H
  C27      1.0000 0.65863  0.37910  0.49733  Biso   1.000  C
  C28      1.0000 0.63976  0.22761  0.50788  Biso   1.000  C
  C29      1.0000 0.60966  0.75278  0.73785  Biso   1.000  C
  H14      1.0000 0.60510  0.81457  0.66559  Biso   1.000  H
  C30      1.0000 0.61118  0.67378  0.82661  Biso   1.000  C
  C31      1.0000 0.46446  0.85252  0.58010  Biso   1.000  C
  H15      1.0000 0.50631  0.88191  0.55650  Biso   1.000  H
  H16      1.0000 0.42791  0.79930  0.60941  Biso   1.000  H
  H17      1.0000 0.66000  0.64661  0.51669  Biso   1.000  H
  H18      1.0000 0.65821  0.64420  0.45340  Biso   1.000  H
  H19      1.0000 0.63851  0.71911  0.47708  Biso   1.000  H
  C32      1.0000 0.69117  0.32682  0.50909  Biso   1.000  C
  H20      1.0000 0.62020  0.18938  0.50751  Biso   1.000  H
  C33      1.0000 0.65796  0.19963  0.46597  Biso   1.000  C
  C34      1.0000 0.66534  0.22707  0.56236  Biso   1.000  C
  O3       1.0000 0.63866  0.79020  0.76647  Biso   1.000  O
  C35      1.0000 0.63365  0.59493  0.83368  Biso   1.000  C
  H21      1.0000 0.59399  0.66227  0.84589  Biso   1.000  H
  H22      1.0000 0.62369  0.72700  0.84330  Biso   1.000  H
  H23      1.0000 0.45250  0.90380  0.56430  Biso   1.000  H
  C36      1.0000 0.68538  0.25331  0.46677  Biso   1.000  C
  H24      1.0000 0.71071  0.36491  0.50950  Biso   1.000  H
  C37      1.0000 0.69265  0.27969  0.56276  Biso   1.000  C
  C38      1.0000 0.64897  0.13208  0.42898  Biso   1.000  C
  C39      1.0000 0.66321  0.17988  0.60775  Biso   1.000  C
  C40      1.0000 0.65127  0.86350  0.74230  Biso   1.000  C
  C41      1.0000 0.62198  0.50810  0.83877  Biso   1.000  C
  C42      1.0000 0.66694  0.60483  0.83760  Biso   1.000  C
  C43      1.0000 0.70425  0.23638  0.43028  Biso   1.000  C
  C44      1.0000 0.71753  0.28792  0.61017  Biso   1.000  C
  H25      1.0000 0.63019  0.09660  0.42830  Biso   1.000  H
  C45      1.0000 0.66805  0.11608  0.39212  Biso   1.000  C
  C46      1.0000 0.68847  0.18878  0.65467  Biso   1.000  C
  H26      1.0000 0.64501  0.14219  0.60710  Biso   1.000  H
  H27      1.0000 0.67230  0.88218  0.76582  Biso   1.000  H
  H28      1.0000 0.65440  0.84509  0.70709  Biso   1.000  H
  H29      1.0000 0.63579  0.91358  0.73741  Biso   1.000  H
  O4       1.0000 0.58874  0.50120  0.83348  Biso   1.000  O
  C47      1.0000 0.64265  0.43379  0.84851  Biso   1.000  C
  C48      1.0000 0.68831  0.53220  0.84787  Biso   1.000  C
  H30      1.0000 0.67529  0.66247  0.83311  Biso   1.000  H
  C49      1.0000 0.69514  0.16803  0.39281  Biso   1.000  C
  H31      1.0000 0.72320  0.27132  0.43101  Biso   1.000  H
  H32      1.0000 0.73561  0.32581  0.61050  Biso   1.000  H
  C50      1.0000 0.71634  0.24200  0.65645  Biso   1.000  C
  H33      1.0000 0.66220  0.06909  0.36650  Biso   1.000  H
  O5       1.0000 0.68834  0.14406  0.70245  Biso   1.000  O
  C51      1.0000 0.57502  0.41458  0.83408  Biso   1.000  C
  C52      1.0000 0.67607  0.44678  0.85401  Biso   1.000  C
  H34      1.0000 0.63419  0.37562  0.85130  Biso   1.000  H
  C53      1.0000 0.72523  0.53387  0.85417  Biso   1.000  C
  H35      1.0000 0.70771  0.15678  0.36739  Biso   1.000  H
  C54      1.0000 0.74356  0.24963  0.70754  Biso   1.000  C
  C55      1.0000 0.66090  0.08897  0.70200  Biso   1.000  C
  H36      1.0000 0.58570  0.38432  0.86799  Biso   1.000  H
  H37      1.0000 0.55150  0.41987  0.83129  Biso   1.000  H
  H38      1.0000 0.57840  0.37970  0.80349  Biso   1.000  H
  C56      1.0000 0.70235  0.37488  0.86690  Biso   1.000  C
  C57      1.0000 0.73141  0.46479  0.81392  Biso   1.000  C
  H39      1.0000 0.73409  0.59472  0.84948  Biso   1.000  H
  C58      1.0000 0.73977  0.49250  0.90995  Biso   1.000  C
  C59      1.0000 0.73908  0.32568  0.74505  Biso   1.000  C
  H40      1.0000 0.74510  0.19240  0.72758  Biso   1.000  H
  H41      1.0000 0.76450  0.25860  0.69751  Biso   1.000  H
  H42      1.0000 0.66360  0.06092  0.73749  Biso   1.000  H
  H43      1.0000 0.64101  0.12552  0.69380  Biso   1.000  H
  H44      1.0000 0.65909  0.04251  0.67440  Biso   1.000  H
  C60      1.0000 0.71962  0.37937  0.82054  Biso   1.000  C
  H45      1.0000 0.69360  0.31410  0.87171  Biso   1.000  H
  C61      1.0000 0.72769  0.40829  0.91702  Biso   1.000  C
  C62      1.0000 0.74691  0.48159  0.77269  Biso   1.000  C
  C63      1.0000 0.76304  0.53347  0.95141  Biso   1.000  C
  C64      1.0000 0.74990  0.41237  0.73785  Biso   1.000  C
  C65      1.0000 0.72354  0.31042  0.78704  Biso   1.000  C
  C66      1.0000 0.73816  0.36410  0.96532  Biso   1.000  C
  H46      1.0000 0.75530  0.53943  0.76849  Biso   1.000  H
  H47      1.0000 0.77161  0.59078  0.94648  Biso   1.000  H
  C67      1.0000 0.77344  0.48741  0.00080  Biso   1.000  C
  O6       1.0000 0.76488  0.42275  0.69610  Biso   1.000  O
  H48      1.0000 0.71581  0.25231  0.79229  Biso   1.000  H
  H49      1.0000 0.72999  0.30613  0.96988  Biso   1.000  H
  C68      1.0000 0.76107  0.40507  0.00784  Biso   1.000  C
  H50      1.0000 0.78931  0.51392  0.02970  Biso   1.000  H
  C69      1.0000 0.76832  0.51151  0.67751  Biso   1.000  C
  H51      1.0000 0.76800  0.37549  0.04171  Biso   1.000  H
  H52      1.0000 0.78451  0.54412  0.70511  Biso   1.000  H
  H53      1.0000 0.77561  0.50877  0.64400  Biso   1.000  H
  H54      1.0000 0.74720  0.54238  0.67072  Biso   1.000  H
  C70      1.0000 0.46283  0.53227  0.45829  Biso   1.000  C
  C71      1.0000 0.47359  0.50422  0.41266  Biso   1.000  C
  C72      1.0000 0.44799  0.47202  0.48719  Biso   1.000  C
  O7       1.0000 0.46614  0.61849  0.47656  Biso   1.000  O
  C73      1.0000 0.46910  0.41518  0.39629  Biso   1.000  C
  H55      1.0000 0.48369  0.54539  0.39362  Biso   1.000  H
  C74      1.0000 0.43786  0.50261  0.53617  Biso   1.000  C
  C75      1.0000 0.44351  0.38412  0.46867  Biso   1.000  C
  C76      1.0000 0.48049  0.68262  0.44940  Biso   1.000  C
  C77      1.0000 0.47912  0.37261  0.34888  Biso   1.000  C
  C78      1.0000 0.45424  0.35567  0.42486  Biso   1.000  C
  C79      1.0000 0.40387  0.54418  0.52388  Biso   1.000  C
  H56      1.0000 0.45391  0.54713  0.55561  Biso   1.000  H
  H57      1.0000 0.43839  0.45080  0.56050  Biso   1.000  H
  H58      1.0000 0.43280  0.34282  0.48670  Biso   1.000  H
  H59      1.0000 0.46671  0.69092  0.41270  Biso   1.000  H
  H60      1.0000 0.50229  0.66200  0.44770  Biso   1.000  H
  H61      1.0000 0.48251  0.73959  0.46900  Biso   1.000  H
  C80      1.0000 0.44757  0.33130  0.31331  Biso   1.000  C
  C81      1.0000 0.50107  0.29562  0.37180  Biso   1.000  C
  H62      1.0000 0.48971  0.41599  0.32871  Biso   1.000  H
  C82      1.0000 0.45190  0.26068  0.40098  Biso   1.000  C
  C83      1.0000 0.37590  0.49163  0.52118  Biso   1.000  C
  C84      1.0000 0.39966  0.63590  0.51552  Biso   1.000  C
  C85      1.0000 0.43417  0.34918  0.25927  Biso   1.000  C
  C86      1.0000 0.43306  0.27059  0.34136  Biso   1.000  C
  C87      1.0000 0.48649  0.23390  0.40065  Biso   1.000  C
  C88      1.0000 0.53313  0.28170  0.36880  Biso   1.000  C
  H63      1.0000 0.44129  0.21730  0.42118  Biso   1.000  H
  C89      1.0000 0.34448  0.52818  0.51087  Biso   1.000  C
  O8       1.0000 0.38127  0.40012  0.52801  Biso   1.000  O
  C90      1.0000 0.36866  0.67378  0.50359  Biso   1.000  C
  H64      1.0000 0.41821  0.67298  0.51798  Biso   1.000  H
  C91      1.0000 0.40505  0.30593  0.23280  Biso   1.000  C
  H65      1.0000 0.44451  0.39008  0.24040  Biso   1.000  H
  C92      1.0000 0.40465  0.22788  0.31558  Biso   1.000  C
  C93      1.0000 0.50350  0.15993  0.42438  Biso   1.000  C
  H66      1.0000 0.54320  0.32327  0.34989  Biso   1.000  H
  C94      1.0000 0.55010  0.20933  0.39261  Biso   1.000  C
  C95      1.0000 0.34137  0.62090  0.50271  Biso   1.000  C
  H67      1.0000 0.32590  0.49163  0.50941  Biso   1.000  H
  C96      1.0000 0.35409  0.34329  0.51952  Biso   1.000  C
  C97      1.0000 0.36024  0.77239  0.49212  Biso   1.000  C
  C98      1.0000 0.38882  0.32622  0.17339  Biso   1.000  C
  C99      1.0000 0.39035  0.24722  0.26214  Biso   1.000  C
  H68      1.0000 0.39490  0.18543  0.33441  Biso   1.000  H
  C100     1.0000 0.53554  0.14748  0.41989  Biso   1.000  C
  H69      1.0000 0.49369  0.11809  0.44349  Biso   1.000  H
  H70      1.0000 0.57209  0.20070  0.39059  Biso   1.000  H
  C101     1.0000 0.30883  0.67318  0.49090  Biso   1.000  C
  H71      1.0000 0.34000  0.35339  0.48331  Biso   1.000  H
  H72      1.0000 0.34179  0.35580  0.54660  Biso   1.000  H
  H73      1.0000 0.36150  0.28089  0.52291  Biso   1.000  H
  C102     1.0000 0.33467  0.77293  0.43763  Biso   1.000  C
  C103     1.0000 0.34204  0.80037  0.53403  Biso   1.000  C
  H74      1.0000 0.37980  0.81062  0.49248  Biso   1.000  H
  C104     1.0000 0.36633  0.40507  0.16632  Biso   1.000  C
  H75      1.0000 0.40599  0.33773  0.15411  Biso   1.000  H
  H76      1.0000 0.37629  0.27300  0.15670  Biso   1.000  H
  O9       1.0000 0.36135  0.20980  0.23353  Biso   1.000  O
  H77      1.0000 0.54750  0.09620  0.43569  Biso   1.000  H
  C105     1.0000 0.30736  0.72031  0.43723  Biso   1.000  C
  C106     1.0000 0.31463  0.74669  0.53322  Biso   1.000  C
  H78      1.0000 0.28929  0.63509  0.49050  Biso   1.000  H
  C107     1.0000 0.33677  0.82012  0.39225  Biso   1.000  C
  C108     1.0000 0.35104  0.86792  0.57101  Biso   1.000  C
  C109     1.0000 0.33306  0.39517  0.16240  Biso   1.000  C
  C110     1.0000 0.37802  0.49190  0.16122  Biso   1.000  C
  C111     1.0000 0.34873  0.13650  0.25770  Biso   1.000  C
  C112     1.0000 0.28247  0.71208  0.38982  Biso   1.000  C
  C113     1.0000 0.29575  0.76362  0.56972  Biso   1.000  C
  C114     1.0000 0.31154  0.81122  0.34532  Biso   1.000  C
  H79      1.0000 0.35500  0.85781  0.39289  Biso   1.000  H
  H80      1.0000 0.36981  0.90340  0.57170  Biso   1.000  H
  C115     1.0000 0.33195  0.88392  0.60787  Biso   1.000  C
  C116     1.0000 0.31169  0.46780  0.15213  Biso   1.000  C
  H81      1.0000 0.32469  0.33753  0.16688  Biso   1.000  H
  C117     1.0000 0.35733  0.56621  0.15148  Biso   1.000  C
  O10      1.0000 0.41126  0.49880  0.16656  Biso   1.000  O
  H82      1.0000 0.32771  0.11782  0.23422  Biso   1.000  H
  H83      1.0000 0.34560  0.15491  0.29290  Biso   1.000  H
  H84      1.0000 0.36421  0.08642  0.26259  Biso   1.000  H
  C118     1.0000 0.28366  0.75800  0.34354  Biso   1.000  C
  H85      1.0000 0.26439  0.67419  0.38950  Biso   1.000  H
  C119     1.0000 0.30484  0.83197  0.60718  Biso   1.000  C
  H86      1.0000 0.27680  0.72868  0.56899  Biso   1.000  H
  O11      1.0000 0.31167  0.85594  0.29755  Biso   1.000  O
  H87      1.0000 0.33780  0.93091  0.63349  Biso   1.000  H
  C120     1.0000 0.27477  0.46613  0.14582  Biso   1.000  C
  C121     1.0000 0.32394  0.55322  0.14599  Biso   1.000  C
  H88      1.0000 0.36579  0.62438  0.14869  Biso   1.000  H
  C122     1.0000 0.42498  0.58542  0.16591  Biso   1.000  C
  C123     1.0000 0.25645  0.75037  0.29246  Biso   1.000  C
  H89      1.0000 0.29229  0.84322  0.63261  Biso   1.000  H
  C124     1.0000 0.33910  0.91103  0.29799  Biso   1.000  C
  C125     1.0000 0.26860  0.53521  0.18608  Biso   1.000  C
  H90      1.0000 0.26591  0.40528  0.15051  Biso   1.000  H
  C126     1.0000 0.26023  0.50750  0.09005  Biso   1.000  C
  C127     1.0000 0.29765  0.62512  0.13309  Biso   1.000  C
  H91      1.0000 0.41430  0.61568  0.13200  Biso   1.000  H
  H92      1.0000 0.44850  0.58013  0.16870  Biso   1.000  H
  H93      1.0000 0.42161  0.62030  0.19651  Biso   1.000  H
  C128     1.0000 0.26093  0.67432  0.25499  Biso   1.000  C
  H94      1.0000 0.25490  0.80760  0.27241  Biso   1.000  H
  H95      1.0000 0.23550  0.74140  0.30248  Biso   1.000  H
  H96      1.0000 0.33640  0.93908  0.26251  Biso   1.000  H
  H97      1.0000 0.35899  0.87448  0.30620  Biso   1.000  H
  H98      1.0000 0.34089  0.95749  0.32560  Biso   1.000  H
  C129     1.0000 0.25307  0.51841  0.22730  Biso   1.000  C
  C130     1.0000 0.28039  0.62063  0.17945  Biso   1.000  C
  C131     1.0000 0.27232  0.59171  0.08302  Biso   1.000  C
  C132     1.0000 0.23696  0.46653  0.04858  Biso   1.000  C
  H99      1.0000 0.30640  0.68590  0.12828  Biso   1.000  H
  C133     1.0000 0.25010  0.58763  0.26214  Biso   1.000  C
  C134     1.0000 0.27646  0.68958  0.21296  Biso   1.000  C
  H100     1.0000 0.24470  0.46057  0.23151  Biso   1.000  H
  C135     1.0000 0.26182  0.63590  0.03468  Biso   1.000  C
  H101     1.0000 0.22839  0.40922  0.05351  Biso   1.000  H
  C136     1.0000 0.22656  0.51259  0.99919  Biso   1.000  C
  O12      1.0000 0.23510  0.57725  0.30389  Biso   1.000  O
  H102     1.0000 0.28419  0.74769  0.20770  Biso   1.000  H
  H103     1.0000 0.27001  0.69387  0.03011  Biso   1.000  H
  C137     1.0000 0.23891  0.59493  0.99216  Biso   1.000  C
  H104     1.0000 0.21069  0.48608  0.97029  Biso   1.000  H
  C138     1.0000 0.23168  0.48849  0.32249  Biso   1.000  C
  H105     1.0000 0.23200  0.62451  0.95829  Biso   1.000  H
  H106     1.0000 0.21549  0.45588  0.29488  Biso   1.000  H
  H107     1.0000 0.22439  0.49123  0.35599  Biso   1.000  H
  H108     1.0000 0.25281  0.45762  0.32932  Biso   1.000  H
  C139     1.0000 0.57502  0.58542  0.33409  Biso   1.000  C
  O13      1.0000 0.58874  0.49880  0.33348  Biso   1.000  O
  H109     1.0000 0.58570  0.61568  0.36800  Biso   1.000  H
  H110     1.0000 0.55150  0.58013  0.33130  Biso   1.000  H
  H111     1.0000 0.57839  0.62030  0.30349  Biso   1.000  H
  C140     1.0000 0.62198  0.49190  0.33877  Biso   1.000  C
  C141     1.0000 0.63365  0.40507  0.33368  Biso   1.000  C
  C142     1.0000 0.64265  0.56621  0.34851  Biso   1.000  C
  C143     1.0000 0.61118  0.32622  0.32661  Biso   1.000  C
  C144     1.0000 0.66694  0.39517  0.33760  Biso   1.000  C
  C145     1.0000 0.67606  0.55322  0.35401  Biso   1.000  C
  H112     1.0000 0.63421  0.62438  0.35130  Biso   1.000  H
  C146     1.0000 0.59496  0.30593  0.26720  Biso   1.000  C
  H113     1.0000 0.59399  0.33773  0.34589  Biso   1.000  H
  H114     1.0000 0.62371  0.27300  0.34330  Biso   1.000  H
  C147     1.0000 0.68831  0.46780  0.34787  Biso   1.000  C
  H115     1.0000 0.67529  0.33753  0.33312  Biso   1.000  H
  C148     1.0000 0.70235  0.62512  0.36690  Biso   1.000  C
  C149     1.0000 0.56583  0.34918  0.24072  Biso   1.000  C
  C150     1.0000 0.60965  0.24722  0.23785  Biso   1.000  C
  C151     1.0000 0.72523  0.46613  0.35417  Biso   1.000  C
  C152     1.0000 0.71961  0.62063  0.32055  Biso   1.000  C
  H116     1.0000 0.69360  0.68590  0.37171  Biso   1.000  H
  C153     1.0000 0.72769  0.59171  0.41698  Biso   1.000  C
  C154     1.0000 0.55243  0.33130  0.18669  Biso   1.000  C
  H117     1.0000 0.55549  0.39008  0.25960  Biso   1.000  H
  C155     1.0000 0.59533  0.22788  0.18442  Biso   1.000  C
  O14      1.0000 0.63866  0.20980  0.26647  Biso   1.000  O
  C156     1.0000 0.73141  0.53521  0.31392  Biso   1.000  C
  H118     1.0000 0.73409  0.40528  0.34948  Biso   1.000  H
  C157     1.0000 0.73977  0.50750  0.40995  Biso   1.000  C
  C158     1.0000 0.72354  0.68958  0.28704  Biso   1.000  C
  C159     1.0000 0.73816  0.63590  0.46532  Biso   1.000  C
  C160     1.0000 0.52086  0.37261  0.15112  Biso   1.000  C
  C161     1.0000 0.56692  0.27059  0.15864  Biso   1.000  C
  H119     1.0000 0.60510  0.18543  0.16559  Biso   1.000  H
  C162     1.0000 0.65127  0.13650  0.24230  Biso   1.000  C
  C163     1.0000 0.74691  0.51841  0.27269  Biso   1.000  C
  C164     1.0000 0.76304  0.46653  0.45142  Biso   1.000  C
  C165     1.0000 0.73907  0.67432  0.24505  Biso   1.000  C
  H120     1.0000 0.71581  0.74769  0.29229  Biso   1.000  H
  H121     1.0000 0.72999  0.69387  0.46989  Biso   1.000  H
  C166     1.0000 0.76107  0.59493  0.50784  Biso   1.000  C
  C167     1.0000 0.49893  0.29562  0.12820  Biso   1.000  C
  H122     1.0000 0.51029  0.41599  0.17129  Biso   1.000  H
  C168     1.0000 0.53090  0.41518  0.10371  Biso   1.000  C
  C169     1.0000 0.54810  0.26068  0.09902  Biso   1.000  C
  H123     1.0000 0.67229  0.11782  0.26578  Biso   1.000  H
  H124     1.0000 0.65440  0.15491  0.20710  Biso   1.000  H
  H125     1.0000 0.63579  0.08642  0.23741  Biso   1.000  H
  C170     1.0000 0.74990  0.58763  0.23785  Biso   1.000  C
  H126     1.0000 0.75530  0.46057  0.26849  Biso   1.000  H
  C171     1.0000 0.77344  0.51259  0.50081  Biso   1.000  C
  H127     1.0000 0.77161  0.40922  0.44649  Biso   1.000  H
  C172     1.0000 0.74356  0.75037  0.20754  Biso   1.000  C
  H128     1.0000 0.76800  0.62451  0.54171  Biso   1.000  H
  C173     1.0000 0.46687  0.28170  0.13119  Biso   1.000  C
  C174     1.0000 0.51351  0.23390  0.09934  Biso   1.000  C
  C175     1.0000 0.54576  0.35567  0.07514  Biso   1.000  C
  C176     1.0000 0.52641  0.50422  0.08734  Biso   1.000  C
  H129     1.0000 0.55871  0.21730  0.07881  Biso   1.000  H
  O15      1.0000 0.76490  0.57725  0.19610  Biso   1.000  O
  H130     1.0000 0.78931  0.48608  0.52970  Biso   1.000  H
  C177     1.0000 0.71634  0.75800  0.15645  Biso   1.000  C
  H131     1.0000 0.74510  0.80760  0.22759  Biso   1.000  H
  H132     1.0000 0.76450  0.74140  0.19752  Biso   1.000  H
  C178     1.0000 0.44990  0.20933  0.10739  Biso   1.000  C
  H133     1.0000 0.45680  0.32327  0.15011  Biso   1.000  H
  C179     1.0000 0.49651  0.15993  0.07562  Biso   1.000  C
  C180     1.0000 0.55649  0.38412  0.03132  Biso   1.000  C
  H134     1.0000 0.51631  0.54539  0.10642  Biso   1.000  H
  C181     1.0000 0.53717  0.53227  0.04171  Biso   1.000  C
  C182     1.0000 0.76832  0.48849  0.17751  Biso   1.000  C
  C183     1.0000 0.71753  0.71208  0.11018  Biso   1.000  C
  C184     1.0000 0.68847  0.81122  0.15468  Biso   1.000  C
  H135     1.0000 0.42791  0.20070  0.10941  Biso   1.000  H
  C185     1.0000 0.46446  0.14748  0.08011  Biso   1.000  C
  H136     1.0000 0.50631  0.11809  0.05650  Biso   1.000  H
  C186     1.0000 0.55201  0.47202  0.01281  Biso   1.000  C
  H137     1.0000 0.56720  0.34282  0.01330  Biso   1.000  H
  O16      1.0000 0.53386  0.61849  0.02344  Biso   1.000  O
  H138     1.0000 0.78451  0.45588  0.20512  Biso   1.000  H
  H139     1.0000 0.77561  0.49123  0.14401  Biso   1.000  H
  H140     1.0000 0.74719  0.45762  0.17068  Biso   1.000  H
  C187     1.0000 0.69264  0.72031  0.06277  Biso   1.000  C
  H141     1.0000 0.73561  0.67419  0.11050  Biso   1.000  H
  C188     1.0000 0.66323  0.82012  0.10775  Biso   1.000  C
  O17      1.0000 0.68833  0.85594  0.20245  Biso   1.000  O
  H142     1.0000 0.45250  0.09620  0.06430  Biso   1.000  H
  C189     1.0000 0.56214  0.50261  0.96383  Biso   1.000  C
  C190     1.0000 0.51949  0.68262  0.05060  Biso   1.000  C
  C191     1.0000 0.69117  0.67318  0.00909  Biso   1.000  C
  C192     1.0000 0.66533  0.77293  0.06236  Biso   1.000  C
  H143     1.0000 0.64501  0.85781  0.10710  Biso   1.000  H
  C193     1.0000 0.66090  0.91103  0.20200  Biso   1.000  C
  H144     1.0000 0.54610  0.54713  0.94439  Biso   1.000  H
  H145     1.0000 0.56161  0.45080  0.93950  Biso   1.000  H
  C194     1.0000 0.59613  0.54418  0.97611  Biso   1.000  C
  H146     1.0000 0.53330  0.69092  0.08730  Biso   1.000  H
  H147     1.0000 0.49771  0.66200  0.05230  Biso   1.000  H
  H148     1.0000 0.51749  0.73959  0.03100  Biso   1.000  H
  C195     1.0000 0.65863  0.62090  0.99729  Biso   1.000  C
  H149     1.0000 0.71071  0.63509  0.00950  Biso   1.000  H
  C196     1.0000 0.68538  0.74669  0.96678  Biso   1.000  C
  C197     1.0000 0.63976  0.77239  0.00788  Biso   1.000  C
  H150     1.0000 0.66360  0.93908  0.23749  Biso   1.000  H
  H151     1.0000 0.64101  0.87448  0.19380  Biso   1.000  H
  H152     1.0000 0.65911  0.95749  0.17440  Biso   1.000  H
  C198     1.0000 0.62410  0.49163  0.97882  Biso   1.000  C
  C199     1.0000 0.60034  0.63590  0.98448  Biso   1.000  C
  C200     1.0000 0.65552  0.52818  0.98913  Biso   1.000  C
  C201     1.0000 0.63134  0.67378  0.99640  Biso   1.000  C
  C202     1.0000 0.65796  0.80037  0.96597  Biso   1.000  C
  C203     1.0000 0.70425  0.76362  0.93028  Biso   1.000  C
  H153     1.0000 0.62020  0.81062  0.00752  Biso   1.000  H
  O18      1.0000 0.61871  0.40012  0.97199  Biso   1.000  O
  H154     1.0000 0.58179  0.67298  0.98201  Biso   1.000  H
  H155     1.0000 0.67410  0.49163  0.99058  Biso   1.000  H
  C204     1.0000 0.64897  0.86792  0.92899  Biso   1.000  C
  C205     1.0000 0.69514  0.83197  0.89281  Biso   1.000  C
  H156     1.0000 0.72320  0.72868  0.93101  Biso   1.000  H
  C206     1.0000 0.64592  0.34329  0.98052  Biso   1.000  C
  H157     1.0000 0.63019  0.90340  0.92830  Biso   1.000  H
  C207     1.0000 0.66805  0.88392  0.89213  Biso   1.000  C
  H158     1.0000 0.70771  0.84322  0.86739  Biso   1.000  H
  H159     1.0000 0.66000  0.35339  0.01669  Biso   1.000  H
  H160     1.0000 0.65821  0.35580  0.95340  Biso   1.000  H
  H161     1.0000 0.63851  0.28089  0.97708  Biso   1.000  H
  H162     1.0000 0.66220  0.93091  0.86650  Biso   1.000  H
  C208     1.0000 0.42498  0.41458  0.66591  Biso   1.000  C
  O19      1.0000 0.41124  0.50120  0.66656  Biso   1.000  O
  H163     1.0000 0.41430  0.38432  0.63200  Biso   1.000  H
  H164     1.0000 0.44851  0.41987  0.66870  Biso   1.000  H
  H165     1.0000 0.42161  0.37970  0.69650  Biso   1.000  H
  C209     1.0000 0.37802  0.50810  0.66122  Biso   1.000  C
  C210     1.0000 0.35733  0.43379  0.65148  Biso   1.000  C
  C211     1.0000 0.36633  0.59493  0.66631  Biso   1.000  C
  C212     1.0000 0.32394  0.44678  0.64598  Biso   1.000  C
  H166     1.0000 0.36579  0.37562  0.64869  Biso   1.000  H
  C213     1.0000 0.33304  0.60483  0.66239  Biso   1.000  C
  C214     1.0000 0.38882  0.67378  0.67339  Biso   1.000  C
  C215     1.0000 0.29765  0.37488  0.63309  Biso   1.000  C
  C216     1.0000 0.31170  0.53220  0.65213  Biso   1.000  C
  H167     1.0000 0.32469  0.66247  0.66692  Biso   1.000  H
  H168     1.0000 0.40599  0.66227  0.65411  Biso   1.000  H
  H169     1.0000 0.37629  0.72700  0.65669  Biso   1.000  H
  C217     1.0000 0.40505  0.69407  0.73280  Biso   1.000  C
  C218     1.0000 0.27232  0.40829  0.58301  Biso   1.000  C
  C219     1.0000 0.28039  0.37937  0.67945  Biso   1.000  C
  H170     1.0000 0.30640  0.31410  0.62828  Biso   1.000  H
  C220     1.0000 0.27477  0.53387  0.64582  Biso   1.000  C
  C221     1.0000 0.39035  0.75278  0.76214  Biso   1.000  C
  C222     1.0000 0.43417  0.65082  0.75927  Biso   1.000  C
  C223     1.0000 0.26182  0.36410  0.53468  Biso   1.000  C
  C224     1.0000 0.26023  0.49250  0.59005  Biso   1.000  C
  C225     1.0000 0.27646  0.31042  0.71295  Biso   1.000  C
  C226     1.0000 0.26860  0.46479  0.68608  Biso   1.000  C
  H171     1.0000 0.26591  0.59472  0.65051  Biso   1.000  H
  O20      1.0000 0.36135  0.79020  0.73353  Biso   1.000  O
  C227     1.0000 0.40465  0.77212  0.81557  Biso   1.000  C
  C228     1.0000 0.44758  0.66870  0.81335  Biso   1.000  C
  H172     1.0000 0.44449  0.60992  0.74040  Biso   1.000  H
  C229     1.0000 0.23891  0.40507  0.49216  Biso   1.000  C
  H173     1.0000 0.27001  0.30613  0.53011  Biso   1.000  H
  C230     1.0000 0.23696  0.53347  0.54858  Biso   1.000  C
  C231     1.0000 0.26091  0.32568  0.75499  Biso   1.000  C
  H174     1.0000 0.28419  0.25231  0.70770  Biso   1.000  H
  C232     1.0000 0.25307  0.48159  0.72730  Biso   1.000  C
  C233     1.0000 0.34873  0.86350  0.75770  Biso   1.000  C
  H175     1.0000 0.39490  0.81457  0.83441  Biso   1.000  H
  C234     1.0000 0.43306  0.72941  0.84140  Biso   1.000  C
  C235     1.0000 0.47912  0.62739  0.84888  Biso   1.000  C
  H176     1.0000 0.23200  0.37549  0.45829  Biso   1.000  H
  C236     1.0000 0.22656  0.48741  0.49919  Biso   1.000  C
  H177     1.0000 0.22840  0.59078  0.55351  Biso   1.000  H
  C237     1.0000 0.25008  0.41237  0.76214  Biso   1.000  C
  C238     1.0000 0.25645  0.24963  0.79245  Biso   1.000  C
  H178     1.0000 0.24470  0.53943  0.73151  Biso   1.000  H
  H179     1.0000 0.32771  0.88218  0.73421  Biso   1.000  H
  H180     1.0000 0.34560  0.84509  0.79290  Biso   1.000  H
  H181     1.0000 0.36421  0.91358  0.76259  Biso   1.000  H
  C239     1.0000 0.45190  0.73932  0.90097  Biso   1.000  C
  C240     1.0000 0.50107  0.70438  0.87179  Biso   1.000  C
  H182     1.0000 0.48969  0.58401  0.82871  Biso   1.000  H
  C241     1.0000 0.46910  0.58482  0.89629  Biso   1.000  C
  H183     1.0000 0.21069  0.51392  0.47029  Biso   1.000  H
  O21      1.0000 0.23510  0.42275  0.80389  Biso   1.000  O
  C242     1.0000 0.28366  0.24200  0.84354  Biso   1.000  C
  H184     1.0000 0.25490  0.19240  0.77241  Biso   1.000  H
  H185     1.0000 0.23551  0.25860  0.80252  Biso   1.000  H
  H186     1.0000 0.44129  0.78270  0.92118  Biso   1.000  H
  C243     1.0000 0.48647  0.76610  0.90065  Biso   1.000  C
  C244     1.0000 0.45424  0.64433  0.92490  Biso   1.000  C
  C245     1.0000 0.53313  0.71830  0.86880  Biso   1.000  C
  C246     1.0000 0.47360  0.49578  0.91265  Biso   1.000  C
  C247     1.0000 0.23169  0.51151  0.82248  Biso   1.000  C
  C248     1.0000 0.28248  0.28792  0.88982  Biso   1.000  C
  C249     1.0000 0.31154  0.18878  0.84536  Biso   1.000  C
  C250     1.0000 0.50350  0.84007  0.92437  Biso   1.000  C
  C251     1.0000 0.44351  0.61588  0.96867  Biso   1.000  C
  H187     1.0000 0.54320  0.67673  0.84989  Biso   1.000  H
  C252     1.0000 0.55010  0.79067  0.89261  Biso   1.000  C
  H188     1.0000 0.48370  0.45461  0.89362  Biso   1.000  H
  C253     1.0000 0.46283  0.46773  0.95828  Biso   1.000  C
  H189     1.0000 0.21550  0.54412  0.79492  Biso   1.000  H
  H190     1.0000 0.22439  0.50877  0.85599  Biso   1.000  H
  H191     1.0000 0.25281  0.54238  0.82931  Biso   1.000  H
  C254     1.0000 0.30736  0.27969  0.93727  Biso   1.000  C
  H192     1.0000 0.26440  0.32581  0.88949  Biso   1.000  H
  O22      1.0000 0.31167  0.14406  0.79755  Biso   1.000  O
  C255     1.0000 0.33677  0.17988  0.89224  Biso   1.000  C
  C256     1.0000 0.53554  0.85252  0.91989  Biso   1.000  C
  H193     1.0000 0.49369  0.88191  0.94349  Biso   1.000  H
  C257     1.0000 0.44800  0.52798  0.98718  Biso   1.000  C
  H194     1.0000 0.43280  0.65718  0.98670  Biso   1.000  H
  H195     1.0000 0.57209  0.79930  0.89059  Biso   1.000  H
  O23      1.0000 0.46615  0.38151  0.97655  Biso   1.000  O
  C258     1.0000 0.30883  0.32682  0.99090  Biso   1.000  C
  C259     1.0000 0.33467  0.22707  0.93763  Biso   1.000  C
  C260     1.0000 0.33910  0.08897  0.79799  Biso   1.000  C
  H196     1.0000 0.35500  0.14219  0.89289  Biso   1.000  H
  H197     1.0000 0.54751  0.90380  0.93569  Biso   1.000  H
  C261     1.0000 0.43786  0.49739  0.03617  Biso   1.000  C
  C262     1.0000 0.48049  0.31738  0.94939  Biso   1.000  C
  H198     1.0000 0.28929  0.36491  0.99050  Biso   1.000  H
  C263     1.0000 0.34138  0.37910  0.00270  Biso   1.000  C
  C264     1.0000 0.31463  0.25331  0.03326  Biso   1.000  C
  C265     1.0000 0.36024  0.22761  0.99211  Biso   1.000  C
  H199     1.0000 0.33640  0.06092  0.76251  Biso   1.000  H
  H200     1.0000 0.35899  0.12552  0.80620  Biso   1.000  H
  H201     1.0000 0.34089  0.04251  0.82560  Biso   1.000  H
  C266     1.0000 0.40387  0.45582  0.02388  Biso   1.000  C
  H202     1.0000 0.45391  0.45287  0.05561  Biso   1.000  H
  H203     1.0000 0.43839  0.54920  0.06050  Biso   1.000  H
  H204     1.0000 0.46671  0.30908  0.91269  Biso   1.000  H
  H205     1.0000 0.50229  0.33800  0.94770  Biso   1.000  H
  H206     1.0000 0.48251  0.26041  0.96900  Biso   1.000  H
  C267     1.0000 0.34448  0.47182  0.01087  Biso   1.000  C
  C268     1.0000 0.36866  0.32622  0.00359  Biso   1.000  C
  C269     1.0000 0.34205  0.19963  0.03403  Biso   1.000  C
  C270     1.0000 0.29575  0.23638  0.06971  Biso   1.000  C
  H207     1.0000 0.37981  0.18938  0.99252  Biso   1.000  H
  C271     1.0000 0.37590  0.50837  0.02117  Biso   1.000  C
  C272     1.0000 0.39964  0.36410  0.01551  Biso   1.000  C
  H208     1.0000 0.32590  0.50837  0.00941  Biso   1.000  H
  C273     1.0000 0.35104  0.13208  0.07105  Biso   1.000  C
  C274     1.0000 0.30484  0.16803  0.10718  Biso   1.000  C
  H209     1.0000 0.27680  0.27132  0.06899  Biso   1.000  H
  O24      1.0000 0.38127  0.59988  0.02800  Biso   1.000  O
  H210     1.0000 0.41819  0.32702  0.01798  Biso   1.000  H
  H211     1.0000 0.36979  0.09660  0.07169  Biso   1.000  H
  C275     1.0000 0.33196  0.11608  0.10787  Biso   1.000  C
  H212     1.0000 0.29230  0.15678  0.13260  Biso   1.000  H
  C276     1.0000 0.35409  0.65671  0.01952  Biso   1.000  C
  H213     1.0000 0.33780  0.06909  0.13349  Biso   1.000  H
  H214     1.0000 0.34000  0.64661  0.98330  Biso   1.000  H
  H215     1.0000 0.34179  0.64420  0.04660  Biso   1.000  H
  H216     1.0000 0.36150  0.71911  0.02291  Biso   1.000  H
  C277     1.0000 0.73891  0.90507  0.49216  Biso   1.000  C
  C278     1.0000 0.76182  0.86410  0.53468  Biso   1.000  C
  H217     1.0000 0.73200  0.87549  0.45829  Biso   1.000  H
  C279     1.0000 0.72656  0.98741  0.49919  Biso   1.000  C
  C280     1.0000 0.77232  0.90829  0.58301  Biso   1.000  C
  H218     1.0000 0.77001  0.80613  0.53011  Biso   1.000  H
  H219     1.0000 0.71069  0.01392  0.47029  Biso   1.000  H
  C281     1.0000 0.73696  0.03347  0.54858  Biso   1.000  C
  C282     1.0000 0.79765  0.87488  0.63309  Biso   1.000  C
  C283     1.0000 0.76023  0.99250  0.59005  Biso   1.000  C
  H220     1.0000 0.72840  0.09078  0.55351  Biso   1.000  H
  C284     1.0000 0.78039  0.87937  0.67945  Biso   1.000  C
  H221     1.0000 0.80640  0.81410  0.62828  Biso   1.000  H
  C285     1.0000 0.82394  0.94678  0.64598  Biso   1.000  C
  C286     1.0000 0.77477  0.03387  0.64582  Biso   1.000  C
  C287     1.0000 0.77646  0.81042  0.71295  Biso   1.000  C
  C288     1.0000 0.76860  0.96479  0.68608  Biso   1.000  C
  C289     1.0000 0.85733  0.93379  0.65148  Biso   1.000  C
  C290     1.0000 0.81170  0.03220  0.65213  Biso   1.000  C
  H222     1.0000 0.76591  0.09472  0.65051  Biso   1.000  H
  C291     1.0000 0.76091  0.82568  0.75499  Biso   1.000  C
  H223     1.0000 0.78419  0.75231  0.70770  Biso   1.000  H
  C292     1.0000 0.75307  0.98159  0.72730  Biso   1.000  C
  H224     1.0000 0.86579  0.87562  0.64869  Biso   1.000  H
  C293     1.0000 0.87802  0.00810  0.66122  Biso   1.000  C
  C294     1.0000 0.83304  0.10483  0.66239  Biso   1.000  C
  C295     1.0000 0.75008  0.91237  0.76214  Biso   1.000  C
  C296     1.0000 0.75645  0.74963  0.79245  Biso   1.000  C
  H225     1.0000 0.74470  0.03943  0.73151  Biso   1.000  H
  O25      1.0000 0.91124  0.00120  0.66656  Biso   1.000  O
  C297     1.0000 0.86633  0.09493  0.66631  Biso   1.000  C
  H226     1.0000 0.82469  0.16247  0.66692  Biso   1.000  H
  O26      1.0000 0.73510  0.92275  0.80389  Biso   1.000  O
  C298     1.0000 0.78366  0.74200  0.84354  Biso   1.000  C
  H227     1.0000 0.75490  0.69240  0.77241  Biso   1.000  H
  H228     1.0000 0.73551  0.75860  0.80252  Biso   1.000  H
  C299     1.0000 0.92498  0.91458  0.66591  Biso   1.000  C
  C300     1.0000 0.88882  0.17378  0.67339  Biso   1.000  C
  C301     1.0000 0.73169  0.01151  0.82248  Biso   1.000  C
  C302     1.0000 0.78248  0.78792  0.88982  Biso   1.000  C
  C303     1.0000 0.81154  0.68878  0.84536  Biso   1.000  C
  H229     1.0000 0.91430  0.88432  0.63200  Biso   1.000  H
  H230     1.0000 0.94851  0.91987  0.66870  Biso   1.000  H
  H231     1.0000 0.92161  0.87970  0.69650  Biso   1.000  H
  H232     1.0000 0.90599  0.16227  0.65411  Biso   1.000  H
  H233     1.0000 0.87629  0.22700  0.65669  Biso   1.000  H
  C304     1.0000 0.90505  0.19407  0.73280  Biso   1.000  C
  H234     1.0000 0.71550  0.04412  0.79492  Biso   1.000  H
  H235     1.0000 0.72439  0.00877  0.85599  Biso   1.000  H
  H236     1.0000 0.75281  0.04238  0.82931  Biso   1.000  H
  C305     1.0000 0.80736  0.77969  0.93727  Biso   1.000  C
  H237     1.0000 0.76440  0.82581  0.88949  Biso   1.000  H
  O27      1.0000 0.81167  0.64406  0.79755  Biso   1.000  O
  C306     1.0000 0.83677  0.67988  0.89224  Biso   1.000  C
  C307     1.0000 0.89035  0.25278  0.76214  Biso   1.000  C
  C308     1.0000 0.93417  0.15082  0.75927  Biso   1.000  C
  C309     1.0000 0.80883  0.82682  0.99090  Biso   1.000  C
  C310     1.0000 0.83467  0.72707  0.93763  Biso   1.000  C
  C311     1.0000 0.83910  0.58897  0.79799  Biso   1.000  C
  H238     1.0000 0.85500  0.64219  0.89289  Biso   1.000  H
  O28      1.0000 0.86135  0.29020  0.73353  Biso   1.000  O
  C312     1.0000 0.90465  0.27212  0.81557  Biso   1.000  C
  C313     1.0000 0.94758  0.16870  0.81335  Biso   1.000  C
  H239     1.0000 0.94449  0.10992  0.74040  Biso   1.000  H
  H240     1.0000 0.78929  0.86491  0.99050  Biso   1.000  H
  C314     1.0000 0.84138  0.87910  0.00270  Biso   1.000  C
  C315     1.0000 0.81463  0.75331  0.03326  Biso   1.000  C
  C316     1.0000 0.86024  0.72761  0.99211  Biso   1.000  C
  H241     1.0000 0.83640  0.56092  0.76251  Biso   1.000  H
  H242     1.0000 0.85899  0.62552  0.80620  Biso   1.000  H
  H243     1.0000 0.84089  0.54251  0.82560  Biso   1.000  H
  C317     1.0000 0.84873  0.36350  0.75770  Biso   1.000  C
  H244     1.0000 0.89490  0.31457  0.83441  Biso   1.000  H
  C318     1.0000 0.93306  0.22941  0.84140  Biso   1.000  C
  C319     1.0000 0.97912  0.12739  0.84888  Biso   1.000  C
  C320     1.0000 0.84448  0.97182  0.01087  Biso   1.000  C
  C321     1.0000 0.86866  0.82622  0.00359  Biso   1.000  C
  C322     1.0000 0.84205  0.69963  0.03403  Biso   1.000  C
  C323     1.0000 0.79575  0.73638  0.06971  Biso   1.000  C
  H245     1.0000 0.87981  0.68938  0.99252  Biso   1.000  H
  H246     1.0000 0.82771  0.38218  0.73421  Biso   1.000  H
  H247     1.0000 0.84560  0.34509  0.79290  Biso   1.000  H
  H248     1.0000 0.86421  0.41358  0.76259  Biso   1.000  H
  C324     1.0000 0.95190  0.23932  0.90097  Biso   1.000  C
  H249     1.0000 0.98969  0.08401  0.82871  Biso   1.000  H
  C325     1.0000 0.96910  0.08482  0.89629  Biso   1.000  C
  C326     1.0000 0.00107  0.20438  0.87179  Biso   1.000  C
  C327     1.0000 0.87590  0.00837  0.02117  Biso   1.000  C
  H250     1.0000 0.82590  0.00837  0.00941  Biso   1.000  H
  C328     1.0000 0.89964  0.86410  0.01551  Biso   1.000  C
  C329     1.0000 0.85104  0.63208  0.07105  Biso   1.000  C
  C330     1.0000 0.80484  0.66803  0.10718  Biso   1.000  C
  H251     1.0000 0.77680  0.77132  0.06899  Biso   1.000  H
  H252     1.0000 0.94129  0.28270  0.92118  Biso   1.000  H
  C331     1.0000 0.98647  0.26610  0.90065  Biso   1.000  C
  C332     1.0000 0.95424  0.14433  0.92490  Biso   1.000  C
  C333     1.0000 0.97360  0.99578  0.91265  Biso   1.000  C
  C334     1.0000 0.03313  0.21830  0.86880  Biso   1.000  C
  C335     1.0000 0.90387  0.95582  0.02388  Biso   1.000  C
  O29      1.0000 0.88127  0.09988  0.02800  Biso   1.000  O
  H253     1.0000 0.91819  0.82702  0.01798  Biso   1.000  H
  H254     1.0000 0.86979  0.59660  0.07169  Biso   1.000  H
  C336     1.0000 0.83196  0.61608  0.10787  Biso   1.000  C
  H255     1.0000 0.79230  0.65678  0.13260  Biso   1.000  H
  C337     1.0000 0.00350  0.34007  0.92437  Biso   1.000  C
  C338     1.0000 0.94351  0.11588  0.96867  Biso   1.000  C
  H256     1.0000 0.98370  0.95461  0.89362  Biso   1.000  H
  C339     1.0000 0.96283  0.96773  0.95828  Biso   1.000  C
  H257     1.0000 0.04320  0.17673  0.84989  Biso   1.000  H
  C340     1.0000 0.05010  0.29067  0.89261  Biso   1.000  C
  C341     1.0000 0.93786  0.99739  0.03617  Biso   1.000  C
  C342     1.0000 0.85409  0.15671  0.01952  Biso   1.000  C
  H258     1.0000 0.83780  0.56909  0.13349  Biso   1.000  H
  H259     1.0000 0.99369  0.38191  0.94349  Biso   1.000  H
  C343     1.0000 0.03554  0.35252  0.91989  Biso   1.000  C
  C344     1.0000 0.94800  0.02798  0.98718  Biso   1.000  C
  H260     1.0000 0.93280  0.15718  0.98670  Biso   1.000  H
  O30      1.0000 0.96615  0.88151  0.97655  Biso   1.000  O
  H261     1.0000 0.07209  0.29930  0.89059  Biso   1.000  H
  H262     1.0000 0.95391  0.95287  0.05561  Biso   1.000  H
  H263     1.0000 0.93839  0.04920  0.06050  Biso   1.000  H
  H264     1.0000 0.84000  0.14661  0.98330  Biso   1.000  H
  H265     1.0000 0.84179  0.14420  0.04660  Biso   1.000  H
  H266     1.0000 0.86150  0.21911  0.02291  Biso   1.000  H
  H267     1.0000 0.04751  0.40380  0.93569  Biso   1.000  H
  C345     1.0000 0.98049  0.81738  0.94939  Biso   1.000  C
  H268     1.0000 0.96671  0.80908  0.91269  Biso   1.000  H
  H269     1.0000 0.98251  0.76041  0.96900  Biso   1.000  H
  H270     1.0000 0.00229  0.83800  0.94770  Biso   1.000  H
  C346     1.0000 0.26107  0.09493  0.50784  Biso   1.000  C
  C347     1.0000 0.23816  0.13590  0.46532  Biso   1.000  C
  C348     1.0000 0.27344  0.01259  0.50081  Biso   1.000  C
  H271     1.0000 0.26800  0.12451  0.54171  Biso   1.000  H
  C349     1.0000 0.22769  0.09171  0.41698  Biso   1.000  C
  H272     1.0000 0.22999  0.19387  0.46989  Biso   1.000  H
  C350     1.0000 0.26304  0.96653  0.45142  Biso   1.000  C
  H273     1.0000 0.28931  0.98608  0.52970  Biso   1.000  H
  C351     1.0000 0.20235  0.12512  0.36690  Biso   1.000  C
  C352     1.0000 0.23977  0.00750  0.40995  Biso   1.000  C
  H274     1.0000 0.27161  0.90922  0.44649  Biso   1.000  H
  C353     1.0000 0.21961  0.12063  0.32055  Biso   1.000  C
  H275     1.0000 0.19360  0.18590  0.37171  Biso   1.000  H
  C354     1.0000 0.17606  0.05322  0.35401  Biso   1.000  C
  C355     1.0000 0.22523  0.96613  0.35417  Biso   1.000  C
  C356     1.0000 0.22354  0.18958  0.28704  Biso   1.000  C
  C357     1.0000 0.23141  0.03521  0.31392  Biso   1.000  C
  C358     1.0000 0.18831  0.96780  0.34787  Biso   1.000  C
  C359     1.0000 0.14265  0.06621  0.34851  Biso   1.000  C
  H276     1.0000 0.23409  0.90528  0.34948  Biso   1.000  H
  C360     1.0000 0.23907  0.17432  0.24505  Biso   1.000  C
  H277     1.0000 0.21581  0.24769  0.29229  Biso   1.000  H
  C361     1.0000 0.24691  0.01841  0.27269  Biso   1.000  C
  C362     1.0000 0.16694  0.89517  0.33760  Biso   1.000  C
  H278     1.0000 0.13421  0.12438  0.35130  Biso   1.000  H
  C363     1.0000 0.12198  0.99190  0.33877  Biso   1.000  C
  C364     1.0000 0.24356  0.25037  0.20754  Biso   1.000  C
  C365     1.0000 0.24990  0.08763  0.23785  Biso   1.000  C
  H279     1.0000 0.25530  0.96057  0.26849  Biso   1.000  H
  C366     1.0000 0.13365  0.90507  0.33368  Biso   1.000  C
  H280     1.0000 0.17529  0.83753  0.33312  Biso   1.000  H
  O31      1.0000 0.08874  0.99880  0.33348  Biso   1.000  O
  C367     1.0000 0.21634  0.25800  0.15645  Biso   1.000  C
  H281     1.0000 0.24510  0.30760  0.22759  Biso   1.000  H
  H282     1.0000 0.26450  0.24140  0.19752  Biso   1.000  H
  O32      1.0000 0.26490  0.07725  0.19610  Biso   1.000  O
  C368     1.0000 0.11118  0.82622  0.32661  Biso   1.000  C
  C369     1.0000 0.07502  0.08542  0.33409  Biso   1.000  C
  C370     1.0000 0.21753  0.21208  0.11018  Biso   1.000  C
  C371     1.0000 0.18847  0.31122  0.15468  Biso   1.000  C
  C372     1.0000 0.26832  0.98849  0.17751  Biso   1.000  C
  H283     1.0000 0.09399  0.83773  0.34589  Biso   1.000  H
  H284     1.0000 0.12371  0.77300  0.34330  Biso   1.000  H
  C373     1.0000 0.09496  0.80593  0.26720  Biso   1.000  C
  H285     1.0000 0.08570  0.11568  0.36800  Biso   1.000  H
  H286     1.0000 0.05150  0.08013  0.33130  Biso   1.000  H
  H287     1.0000 0.07839  0.12030  0.30349  Biso   1.000  H
  C374     1.0000 0.19264  0.22031  0.06277  Biso   1.000  C
  H288     1.0000 0.23561  0.17419  0.11050  Biso   1.000  H
  O33      1.0000 0.18833  0.35594  0.20245  Biso   1.000  O
  C375     1.0000 0.16323  0.32012  0.10775  Biso   1.000  C
  H289     1.0000 0.28451  0.95588  0.20512  Biso   1.000  H
  H290     1.0000 0.27561  0.99123  0.14401  Biso   1.000  H
  H291     1.0000 0.24719  0.95762  0.17068  Biso   1.000  H
  C376     1.0000 0.10965  0.74722  0.23785  Biso   1.000  C
  C377     1.0000 0.06583  0.84918  0.24072  Biso   1.000  C
  C378     1.0000 0.19117  0.17318  0.00909  Biso   1.000  C
  C379     1.0000 0.16533  0.27293  0.06236  Biso   1.000  C
  C380     1.0000 0.16090  0.41103  0.20200  Biso   1.000  C
  H292     1.0000 0.14501  0.35781  0.10710  Biso   1.000  H
  O34      1.0000 0.13866  0.70980  0.26647  Biso   1.000  O
  C381     1.0000 0.09533  0.72788  0.18442  Biso   1.000  C
  C382     1.0000 0.05243  0.83130  0.18669  Biso   1.000  C
  H293     1.0000 0.05549  0.89008  0.25960  Biso   1.000  H
  H294     1.0000 0.21071  0.13509  0.00950  Biso   1.000  H
  C383     1.0000 0.15863  0.12090  0.99729  Biso   1.000  C
  C384     1.0000 0.18538  0.24669  0.96678  Biso   1.000  C
  C385     1.0000 0.13976  0.27239  0.00788  Biso   1.000  C
  H295     1.0000 0.16360  0.43908  0.23749  Biso   1.000  H
  H296     1.0000 0.14101  0.37448  0.19380  Biso   1.000  H
  H297     1.0000 0.15911  0.45749  0.17440  Biso   1.000  H
  C386     1.0000 0.15127  0.63650  0.24230  Biso   1.000  C
  H298     1.0000 0.10510  0.68543  0.16559  Biso   1.000  H
  C387     1.0000 0.06692  0.77059  0.15864  Biso   1.000  C
  C388     1.0000 0.02086  0.87261  0.15112  Biso   1.000  C
  C389     1.0000 0.15552  0.02818  0.98913  Biso   1.000  C
  C390     1.0000 0.13134  0.17378  0.99640  Biso   1.000  C
  C391     1.0000 0.15796  0.30037  0.96597  Biso   1.000  C
  C392     1.0000 0.20425  0.26362  0.93028  Biso   1.000  C
  H299     1.0000 0.12020  0.31062  0.00752  Biso   1.000  H
  H300     1.0000 0.17229  0.61782  0.26578  Biso   1.000  H
  H301     1.0000 0.15440  0.65491  0.20710  Biso   1.000  H
  H302     1.0000 0.13579  0.58642  0.23741  Biso   1.000  H
  C393     1.0000 0.04810  0.76068  0.09902  Biso   1.000  C
  C394     1.0000 0.03090  0.91518  0.10371  Biso   1.000  C
  C395     1.0000 0.99893  0.79562  0.12820  Biso   1.000  C
  H303     1.0000 0.01029  0.91599  0.17129  Biso   1.000  H
  C396     1.0000 0.12410  0.99163  0.97882  Biso   1.000  C
  H304     1.0000 0.17410  0.99163  0.99058  Biso   1.000  H
  C397     1.0000 0.10034  0.13590  0.98448  Biso   1.000  C
  C398     1.0000 0.14897  0.36792  0.92899  Biso   1.000  C
  C399     1.0000 0.19514  0.33197  0.89281  Biso   1.000  C
  H305     1.0000 0.22320  0.22868  0.93101  Biso   1.000  H
  C400     1.0000 0.04576  0.85567  0.07514  Biso   1.000  C
  H306     1.0000 0.05871  0.71730  0.07881  Biso   1.000  H
  C401     1.0000 0.01351  0.73390  0.09934  Biso   1.000  C
  C402     1.0000 0.02641  0.00422  0.08734  Biso   1.000  C
  C403     1.0000 0.96687  0.78170  0.13119  Biso   1.000  C
  O35      1.0000 0.11871  0.90012  0.97199  Biso   1.000  O
  C404     1.0000 0.09613  0.04418  0.97611  Biso   1.000  C
  H307     1.0000 0.08179  0.17298  0.98201  Biso   1.000  H
  H308     1.0000 0.13019  0.40340  0.92830  Biso   1.000  H
  C405     1.0000 0.16805  0.38392  0.89213  Biso   1.000  C
  H309     1.0000 0.20771  0.34322  0.86739  Biso   1.000  H
  C406     1.0000 0.05649  0.88412  0.03132  Biso   1.000  C
  C407     1.0000 0.99651  0.65993  0.07562  Biso   1.000  C
  C408     1.0000 0.03717  0.03227  0.04171  Biso   1.000  C
  H310     1.0000 0.01631  0.04539  0.10642  Biso   1.000  H
  H311     1.0000 0.95680  0.82327  0.15011  Biso   1.000  H
  C409     1.0000 0.94990  0.70933  0.10739  Biso   1.000  C
  C410     1.0000 0.14592  0.84329  0.98052  Biso   1.000  C
  C411     1.0000 0.06214  0.00261  0.96383  Biso   1.000  C
  H312     1.0000 0.16220  0.43091  0.86650  Biso   1.000  H
  C412     1.0000 0.05201  0.97202  0.01281  Biso   1.000  C
  H313     1.0000 0.06720  0.84282  0.01330  Biso   1.000  H
  C413     1.0000 0.96446  0.64748  0.08011  Biso   1.000  C
  H314     1.0000 0.00631  0.61809  0.05650  Biso   1.000  H
  O36      1.0000 0.03386  0.11849  0.02344  Biso   1.000  O
  H315     1.0000 0.92791  0.70070  0.10941  Biso   1.000  H
  H316     1.0000 0.15821  0.85580  0.95340  Biso   1.000  H
  H317     1.0000 0.13851  0.78089  0.97708  Biso   1.000  H
  H318     1.0000 0.16000  0.85339  0.01669  Biso   1.000  H
  H319     1.0000 0.06161  0.95080  0.93950  Biso   1.000  H
  H320     1.0000 0.04610  0.04713  0.94439  Biso   1.000  H
  H321     1.0000 0.95250  0.59620  0.06430  Biso   1.000  H
  C414     1.0000 0.01949  0.18262  0.05060  Biso   1.000  C
  H322     1.0000 0.03330  0.19092  0.08730  Biso   1.000  H
  H323     1.0000 0.01749  0.23959  0.03100  Biso   1.000  H
  H324     1.0000 0.99771  0.16200  0.05230  Biso   1.000  H
  C415     1.0000 0.79575  0.26362  0.56972  Biso   1.000  C
  C416     1.0000 0.81463  0.24669  0.53322  Biso   1.000  C
  C417     1.0000 0.80484  0.33197  0.60718  Biso   1.000  C
  H325     1.0000 0.77680  0.22868  0.56899  Biso   1.000  H
  C418     1.0000 0.80883  0.17318  0.49090  Biso   1.000  C
  C419     1.0000 0.84204  0.30037  0.53403  Biso   1.000  C
  C420     1.0000 0.83195  0.38392  0.60787  Biso   1.000  C
  H326     1.0000 0.79229  0.34322  0.63261  Biso   1.000  H
  C421     1.0000 0.80736  0.22031  0.43723  Biso   1.000  C
  C422     1.0000 0.84137  0.12090  0.50271  Biso   1.000  C
  H327     1.0000 0.78929  0.13509  0.49050  Biso   1.000  H
  C423     1.0000 0.86024  0.27239  0.49212  Biso   1.000  C
  C424     1.0000 0.85104  0.36792  0.57101  Biso   1.000  C
  H328     1.0000 0.83780  0.43091  0.63349  Biso   1.000  H
  C425     1.0000 0.78247  0.21208  0.38982  Biso   1.000  C
  C426     1.0000 0.83467  0.27293  0.43763  Biso   1.000  C
  C427     1.0000 0.84448  0.02818  0.51087  Biso   1.000  C
  C428     1.0000 0.86866  0.17378  0.50359  Biso   1.000  C
  H329     1.0000 0.87980  0.31062  0.49248  Biso   1.000  H
  H330     1.0000 0.86981  0.40340  0.57170  Biso   1.000  H
  C429     1.0000 0.78366  0.25800  0.34354  Biso   1.000  C
  H331     1.0000 0.76439  0.17419  0.38950  Biso   1.000  H
  C430     1.0000 0.83677  0.32012  0.39225  Biso   1.000  C
  C431     1.0000 0.87590  0.99163  0.52118  Biso   1.000  C
  H332     1.0000 0.82590  0.99163  0.50941  Biso   1.000  H
  C432     1.0000 0.89966  0.13590  0.51552  Biso   1.000  C
  C433     1.0000 0.75645  0.25037  0.29246  Biso   1.000  C
  C434     1.0000 0.81154  0.31122  0.34532  Biso   1.000  C
  H333     1.0000 0.85500  0.35781  0.39289  Biso   1.000  H
  C435     1.0000 0.90387  0.04418  0.52388  Biso   1.000  C
  O37      1.0000 0.88127  0.90012  0.52801  Biso   1.000  O
  H334     1.0000 0.91821  0.17298  0.51798  Biso   1.000  H
  C436     1.0000 0.76093  0.17432  0.25499  Biso   1.000  C
  H335     1.0000 0.75490  0.30760  0.27241  Biso   1.000  H
  H336     1.0000 0.73550  0.24140  0.30248  Biso   1.000  H
  O38      1.0000 0.81167  0.35594  0.29755  Biso   1.000  O
  C437     1.0000 0.93786  0.00261  0.53617  Biso   1.000  C
  C438     1.0000 0.85409  0.84329  0.51952  Biso   1.000  C
  C439     1.0000 0.75010  0.08763  0.26214  Biso   1.000  C
  C440     1.0000 0.77646  0.18958  0.21296  Biso   1.000  C
  C441     1.0000 0.83910  0.41103  0.29799  Biso   1.000  C
  H337     1.0000 0.95391  0.04713  0.55561  Biso   1.000  H
  C442     1.0000 0.94799  0.97202  0.48719  Biso   1.000  C
  H338     1.0000 0.93839  0.95080  0.56050  Biso   1.000  H
  H339     1.0000 0.84000  0.85339  0.48331  Biso   1.000  H
  H340     1.0000 0.84179  0.85580  0.54660  Biso   1.000  H
  H341     1.0000 0.86150  0.78089  0.52291  Biso   1.000  H
  O39      1.0000 0.73510  0.07725  0.30389  Biso   1.000  O
  C443     1.0000 0.75307  0.01841  0.22730  Biso   1.000  C
  H342     1.0000 0.78419  0.24769  0.20770  Biso   1.000  H
  C444     1.0000 0.78039  0.12063  0.17945  Biso   1.000  C
  H343     1.0000 0.83640  0.43908  0.26251  Biso   1.000  H
  H344     1.0000 0.85899  0.37448  0.30620  Biso   1.000  H
  H345     1.0000 0.84089  0.45749  0.32560  Biso   1.000  H
  C445     1.0000 0.96283  0.03227  0.45829  Biso   1.000  C
  C446     1.0000 0.94351  0.88412  0.46867  Biso   1.000  C
  C447     1.0000 0.73168  0.98849  0.32249  Biso   1.000  C
  C448     1.0000 0.76860  0.03521  0.18608  Biso   1.000  C
  H346     1.0000 0.74470  0.96057  0.23151  Biso   1.000  H
  C449     1.0000 0.79765  0.12512  0.13309  Biso   1.000  C
  C450     1.0000 0.97359  0.00422  0.41266  Biso   1.000  C
  O40      1.0000 0.96614  0.11849  0.47656  Biso   1.000  O
  C451     1.0000 0.95424  0.85567  0.42486  Biso   1.000  C
  H347     1.0000 0.93280  0.84282  0.48670  Biso   1.000  H
  H348     1.0000 0.71549  0.95588  0.29488  Biso   1.000  H
  H349     1.0000 0.72439  0.99123  0.35599  Biso   1.000  H
  H350     1.0000 0.75281  0.95762  0.32932  Biso   1.000  H
  C452     1.0000 0.77477  0.96613  0.14582  Biso   1.000  C
  H351     1.0000 0.80640  0.18590  0.12828  Biso   1.000  H
  C453     1.0000 0.82394  0.05322  0.14599  Biso   1.000  C
  C454     1.0000 0.77232  0.09171  0.08302  Biso   1.000  C
  C455     1.0000 0.96910  0.91518  0.39629  Biso   1.000  C
  H352     1.0000 0.98369  0.04539  0.39362  Biso   1.000  H
  C456     1.0000 0.98049  0.18262  0.44940  Biso   1.000  C
  C457     1.0000 0.95190  0.76068  0.40098  Biso   1.000  C
  C458     1.0000 0.76023  0.00750  0.09005  Biso   1.000  C
  C459     1.0000 0.81169  0.96780  0.15213  Biso   1.000  C
  H353     1.0000 0.76591  0.90528  0.15051  Biso   1.000  H
  C460     1.0000 0.85733  0.06621  0.15148  Biso   1.000  C
  C461     1.0000 0.76182  0.13590  0.03468  Biso   1.000  C
  C462     1.0000 0.97912  0.87261  0.34888  Biso   1.000  C
  H354     1.0000 0.96671  0.19092  0.41270  Biso   1.000  H
  H355     1.0000 0.98251  0.23959  0.46900  Biso   1.000  H
  H356     1.0000 0.00229  0.16200  0.44770  Biso   1.000  H
  C463     1.0000 0.93306  0.77059  0.34136  Biso   1.000  C
  H357     1.0000 0.94129  0.71730  0.42118  Biso   1.000  H
  C464     1.0000 0.98649  0.73390  0.40065  Biso   1.000  C
  C465     1.0000 0.73696  0.96653  0.04858  Biso   1.000  C
  C466     1.0000 0.83306  0.89517  0.16240  Biso   1.000  C
  H358     1.0000 0.86579  0.12438  0.14869  Biso   1.000  H
  C467     1.0000 0.87802  0.99190  0.16122  Biso   1.000  C
  H359     1.0000 0.77001  0.19387  0.03011  Biso   1.000  H
  C468     1.0000 0.73891  0.09493  0.99216  Biso   1.000  C
  C469     1.0000 0.94757  0.83130  0.31331  Biso   1.000  C
  H360     1.0000 0.98971  0.91599  0.32871  Biso   1.000  H
  C470     1.0000 0.00107  0.79562  0.37180  Biso   1.000  C
  C471     1.0000 0.90465  0.72788  0.31558  Biso   1.000  C
  C472     1.0000 0.00350  0.65993  0.42438  Biso   1.000  C
  H361     1.0000 0.72839  0.90922  0.05351  Biso   1.000  H
  C473     1.0000 0.72656  0.01259  0.99919  Biso   1.000  C
  C474     1.0000 0.86633  0.90507  0.16632  Biso   1.000  C
  H362     1.0000 0.82469  0.83753  0.16688  Biso   1.000  H
  O41      1.0000 0.91126  0.99880  0.16656  Biso   1.000  O
  H363     1.0000 0.73200  0.12451  0.95829  Biso   1.000  H
  C475     1.0000 0.93417  0.84918  0.25927  Biso   1.000  C
  C476     1.0000 0.03313  0.78170  0.36880  Biso   1.000  C
  C477     1.0000 0.89035  0.74722  0.26214  Biso   1.000  C
  H364     1.0000 0.89490  0.68543  0.33441  Biso   1.000  H
  H365     1.0000 0.99369  0.61809  0.44349  Biso   1.000  H
  C478     1.0000 0.03554  0.64748  0.41989  Biso   1.000  C
  H366     1.0000 0.71069  0.98608  0.97029  Biso   1.000  H
  C479     1.0000 0.88882  0.82622  0.17339  Biso   1.000  C
  C480     1.0000 0.92498  0.08542  0.16591  Biso   1.000  C
  C481     1.0000 0.90505  0.80593  0.23280  Biso   1.000  C
  H367     1.0000 0.94451  0.89008  0.24040  Biso   1.000  H
  H368     1.0000 0.04320  0.82327  0.34989  Biso   1.000  H
  C482     1.0000 0.05010  0.70933  0.39261  Biso   1.000  C
  O42      1.0000 0.86135  0.70980  0.23353  Biso   1.000  O
  H369     1.0000 0.04750  0.59620  0.43569  Biso   1.000  H
  H370     1.0000 0.90599  0.83773  0.15411  Biso   1.000  H
  H371     1.0000 0.87629  0.77300  0.15670  Biso   1.000  H
  H372     1.0000 0.91430  0.11568  0.13200  Biso   1.000  H
  H373     1.0000 0.94850  0.08013  0.16870  Biso   1.000  H
  H374     1.0000 0.92161  0.12030  0.19651  Biso   1.000  H
  H375     1.0000 0.07209  0.70070  0.39059  Biso   1.000  H
  C483     1.0000 0.84873  0.63650  0.25770  Biso   1.000  C
  H376     1.0000 0.82771  0.61782  0.23422  Biso   1.000  H
  H377     1.0000 0.84560  0.65491  0.29290  Biso   1.000  H
  H378     1.0000 0.86421  0.58642  0.26259  Biso   1.000  H
  C484     1.0000 0.20425  0.73638  0.43028  Biso   1.000  C
  C485     1.0000 0.19514  0.66803  0.39281  Biso   1.000  C
  C486     1.0000 0.18538  0.75331  0.46677  Biso   1.000  C
  H379     1.0000 0.22320  0.77132  0.43101  Biso   1.000  H
  C487     1.0000 0.16805  0.61608  0.39212  Biso   1.000  C
  H380     1.0000 0.20771  0.65678  0.36739  Biso   1.000  H
  C488     1.0000 0.15796  0.69963  0.46597  Biso   1.000  C
  C489     1.0000 0.19117  0.82682  0.50909  Biso   1.000  C
  C490     1.0000 0.14897  0.63208  0.42898  Biso   1.000  C
  H381     1.0000 0.16220  0.56909  0.36650  Biso   1.000  H
  C491     1.0000 0.13976  0.72761  0.50788  Biso   1.000  C
  C492     1.0000 0.15863  0.87910  0.49733  Biso   1.000  C
  H382     1.0000 0.21071  0.86491  0.50950  Biso   1.000  H
  C493     1.0000 0.19265  0.77969  0.56276  Biso   1.000  C
  H383     1.0000 0.13019  0.59660  0.42830  Biso   1.000  H
  C494     1.0000 0.13134  0.82622  0.49640  Biso   1.000  C
  H384     1.0000 0.12020  0.68938  0.50751  Biso   1.000  H
  C495     1.0000 0.16534  0.72707  0.56236  Biso   1.000  C
  C496     1.0000 0.15552  0.97182  0.48913  Biso   1.000  C
  C497     1.0000 0.21753  0.78792  0.61017  Biso   1.000  C
  C498     1.0000 0.10034  0.86410  0.48448  Biso   1.000  C
  C499     1.0000 0.16321  0.67988  0.60775  Biso   1.000  C
  C500     1.0000 0.12410  0.00837  0.47882  Biso   1.000  C
  H385     1.0000 0.17410  0.00837  0.49058  Biso   1.000  H
  H386     1.0000 0.23561  0.82581  0.61050  Biso   1.000  H
  C501     1.0000 0.21634  0.74200  0.65645  Biso   1.000  C
  C502     1.0000 0.09614  0.95582  0.47611  Biso   1.000  C
  H387     1.0000 0.08179  0.82702  0.48201  Biso   1.000  H
  C503     1.0000 0.18847  0.68878  0.65467  Biso   1.000  C
  H388     1.0000 0.14501  0.64219  0.60710  Biso   1.000  H
  O43      1.0000 0.11871  0.09988  0.47199  Biso   1.000  O
  C504     1.0000 0.24356  0.74963  0.70754  Biso   1.000  C
  C505     1.0000 0.06214  0.99739  0.46382  Biso   1.000  C
  O44      1.0000 0.18834  0.64406  0.70245  Biso   1.000  O
  C506     1.0000 0.14592  0.15671  0.48052  Biso   1.000  C
  C507     1.0000 0.23908  0.82568  0.74505  Biso   1.000  C
  H389     1.0000 0.24510  0.69240  0.72758  Biso   1.000  H
  H390     1.0000 0.26450  0.75860  0.69751  Biso   1.000  H
  H391     1.0000 0.04610  0.95287  0.44438  Biso   1.000  H
  C508     1.0000 0.05201  0.02798  0.51281  Biso   1.000  C
  H392     1.0000 0.06161  0.04920  0.43949  Biso   1.000  H
  C509     1.0000 0.16090  0.58897  0.70200  Biso   1.000  C
  H393     1.0000 0.16000  0.14661  0.51669  Biso   1.000  H
  H394     1.0000 0.15821  0.14420  0.45340  Biso   1.000  H
  H395     1.0000 0.13851  0.21911  0.47708  Biso   1.000  H
  C510     1.0000 0.24990  0.91237  0.73785  Biso   1.000  C
  C511     1.0000 0.22354  0.81042  0.78704  Biso   1.000  C
  C512     1.0000 0.03718  0.96773  0.54175  Biso   1.000  C
  C513     1.0000 0.05650  0.11588  0.53132  Biso   1.000  C
  H396     1.0000 0.16360  0.56092  0.73749  Biso   1.000  H
  H397     1.0000 0.14101  0.62552  0.69380  Biso   1.000  H
  H398     1.0000 0.15909  0.54251  0.67440  Biso   1.000  H
  O45      1.0000 0.26488  0.92275  0.69610  Biso   1.000  O
  C514     1.0000 0.24691  0.98159  0.77269  Biso   1.000  C
  H399     1.0000 0.21581  0.75231  0.79229  Biso   1.000  H
  C515     1.0000 0.21962  0.87937  0.82054  Biso   1.000  C
  O46      1.0000 0.03386  0.88151  0.52348  Biso   1.000  O
  C516     1.0000 0.02641  0.99578  0.58734  Biso   1.000  C
  C517     1.0000 0.04574  0.14433  0.57513  Biso   1.000  C
  H400     1.0000 0.06720  0.15718  0.51329  Biso   1.000  H
  C518     1.0000 0.26832  0.01151  0.67751  Biso   1.000  C
  C519     1.0000 0.23141  0.96479  0.81392  Biso   1.000  C
  H401     1.0000 0.25530  0.03943  0.76849  Biso   1.000  H
  C520     1.0000 0.20235  0.87488  0.86690  Biso   1.000  C
  C521     1.0000 0.01949  0.81738  0.55060  Biso   1.000  C
  H402     1.0000 0.01631  0.95461  0.60642  Biso   1.000  H
  C522     1.0000 0.03090  0.08482  0.60371  Biso   1.000  C
  C523     1.0000 0.04808  0.23932  0.59902  Biso   1.000  C
  H403     1.0000 0.28451  0.04412  0.70511  Biso   1.000  H
  H404     1.0000 0.27561  0.00877  0.64400  Biso   1.000  H
  H405     1.0000 0.24720  0.04238  0.67072  Biso   1.000  H
  C524     1.0000 0.22523  0.03387  0.85417  Biso   1.000  C
  H406     1.0000 0.19360  0.81410  0.87171  Biso   1.000  H
  C525     1.0000 0.17607  0.94678  0.85401  Biso   1.000  C
  C526     1.0000 0.22769  0.90829  0.91702  Biso   1.000  C
  H407     1.0000 0.03330  0.80908  0.58730  Biso   1.000  H
  H408     1.0000 0.01749  0.76041  0.53100  Biso   1.000  H
  H409     1.0000 0.99769  0.83800  0.55230  Biso   1.000  H
  C527     1.0000 0.02086  0.12739  0.65112  Biso   1.000  C
  C528     1.0000 0.06692  0.22941  0.65863  Biso   1.000  C
  H410     1.0000 0.05869  0.28270  0.57881  Biso   1.000  H
  C529     1.0000 0.01351  0.26610  0.59934  Biso   1.000  C
  C530     1.0000 0.23977  0.99250  0.90995  Biso   1.000  C
  C531     1.0000 0.18831  0.03220  0.84787  Biso   1.000  C
  H411     1.0000 0.23409  0.09472  0.84948  Biso   1.000  H
  C532     1.0000 0.14265  0.93379  0.84851  Biso   1.000  C
  C533     1.0000 0.23816  0.86410  0.96532  Biso   1.000  C
  C534     1.0000 0.99893  0.20438  0.62820  Biso   1.000  C
  C535     1.0000 0.05243  0.16870  0.68668  Biso   1.000  C
  H412     1.0000 0.01029  0.08401  0.67128  Biso   1.000  H
  C536     1.0000 0.09533  0.27212  0.68442  Biso   1.000  C
  C537     1.0000 0.99651  0.34007  0.57562  Biso   1.000  C
  C538     1.0000 0.26304  0.03347  0.95141  Biso   1.000  C
  C539     1.0000 0.16694  0.10483  0.83760  Biso   1.000  C
  H413     1.0000 0.13419  0.87562  0.85130  Biso   1.000  H
  C540     1.0000 0.12198  0.00810  0.83877  Biso   1.000  C
  H414     1.0000 0.22999  0.80613  0.96988  Biso   1.000  H
  C541     1.0000 0.26107  0.90507  0.00784  Biso   1.000  C
  C542     1.0000 0.96687  0.21830  0.63119  Biso   1.000  C
  C543     1.0000 0.06583  0.15082  0.74072  Biso   1.000  C
  C544     1.0000 0.10966  0.25278  0.73785  Biso   1.000  C
  H415     1.0000 0.10510  0.31457  0.66559  Biso   1.000  H
  C545     1.0000 0.96446  0.35252  0.58010  Biso   1.000  C
  H416     1.0000 0.00631  0.38191  0.55650  Biso   1.000  H
  C546     1.0000 0.27344  0.98741  0.00080  Biso   1.000  C
  H417     1.0000 0.27161  0.09078  0.94648  Biso   1.000  H
  C547     1.0000 0.13365  0.09493  0.83368  Biso   1.000  C
  H418     1.0000 0.17529  0.16247  0.83311  Biso   1.000  H
  O47      1.0000 0.08874  0.00120  0.83348  Biso   1.000  O
  H419     1.0000 0.26800  0.87549  0.04171  Biso   1.000  H
  H420     1.0000 0.95680  0.17673  0.65011  Biso   1.000  H
  C548     1.0000 0.94990  0.29067  0.60739  Biso   1.000  C
  C549     1.0000 0.09496  0.19407  0.76719  Biso   1.000  C
  H421     1.0000 0.05549  0.10992  0.75960  Biso   1.000  H
  O48      1.0000 0.13866  0.29020  0.76647  Biso   1.000  O
  H422     1.0000 0.95250  0.40380  0.56430  Biso   1.000  H
  H423     1.0000 0.28931  0.01392  0.02970  Biso   1.000  H
  C550     1.0000 0.11118  0.17378  0.82661  Biso   1.000  C
  C551     1.0000 0.07502  0.91458  0.83408  Biso   1.000  C
  H424     1.0000 0.92791  0.29930  0.60941  Biso   1.000  H
  C552     1.0000 0.15127  0.36350  0.74230  Biso   1.000  C
  H425     1.0000 0.09399  0.16227  0.84589  Biso   1.000  H
  H426     1.0000 0.12369  0.22700  0.84330  Biso   1.000  H
  H427     1.0000 0.08570  0.88432  0.86799  Biso   1.000  H
  H428     1.0000 0.05150  0.91987  0.83129  Biso   1.000  H
  H429     1.0000 0.07840  0.87970  0.80349  Biso   1.000  H
  H430     1.0000 0.17230  0.38218  0.76582  Biso   1.000  H
  H431     1.0000 0.15440  0.34509  0.70709  Biso   1.000  H
  H432     1.0000 0.13579  0.41358  0.73741  Biso   1.000  H
