data_image0
_cell_length_a       26.255
_cell_length_b       26.255
_cell_length_c       12.756
_cell_angle_alpha    90
_cell_angle_beta     90
_cell_angle_gamma    90

_symmetry_space_group_name_H-M    "P 1"
_symmetry_int_tables_number       1

loop_
  _symmetry_equiv_pos_as_xyz
  'x, y, z'

loop_
  _atom_site_label
  _atom_site_occupancy
  _atom_site_fract_x
  _atom_site_fract_y
  _atom_site_fract_z
  _atom_site_thermal_displace_type
  _atom_site_B_iso_or_equiv
  _atom_site_type_symbol
  O1       1.0000 0.40381  0.40381  0.14393  Biso   1.000  O
  C1       1.0000 0.38118  0.38118  0.21660  Biso   1.000  C
  N1       1.0000 0.39669  0.33780  0.26207  Biso   1.000  N
  N2       1.0000 0.33780  0.39669  0.26207  Biso   1.000  N
  C2       1.0000 0.36020  0.31880  0.33569  Biso   1.000  C
  C3       1.0000 0.43611  0.30630  0.21841  Biso   1.000  C
  C4       1.0000 0.31880  0.36020  0.33569  Biso   1.000  C
  C5       1.0000 0.30630  0.43611  0.21841  Biso   1.000  C
  N3       1.0000 0.37661  0.31739  0.44214  Biso   1.000  N
  H1       1.0000 0.34618  0.28509  0.31295  Biso   1.000  H
  N4       1.0000 0.47960  0.29990  0.28739  Biso   1.000  N
  H2       1.0000 0.44780  0.32150  0.15169  Biso   1.000  H
  H3       1.0000 0.42160  0.27229  0.20226  Biso   1.000  H
  N5       1.0000 0.31739  0.37661  0.44214  Biso   1.000  N
  H4       1.0000 0.28509  0.34618  0.31295  Biso   1.000  H
  N6       1.0000 0.29990  0.47960  0.28739  Biso   1.000  N
  H5       1.0000 0.32150  0.44780  0.15169  Biso   1.000  H
  H6       1.0000 0.27229  0.42160  0.20226  Biso   1.000  H
  C6       1.0000 0.35041  0.35041  0.50729  Biso   1.000  C
  C7       1.0000 0.40491  0.27450  0.48581  Biso   1.000  C
  C8       1.0000 0.48101  0.26090  0.36838  Biso   1.000  C
  C9       1.0000 0.52699  0.31522  0.25792  Biso   1.000  C
  C10      1.0000 0.27450  0.40491  0.48581  Biso   1.000  C
  C11      1.0000 0.26090  0.48101  0.36838  Biso   1.000  C
  C12      1.0000 0.31522  0.52699  0.25792  Biso   1.000  C
  O2       1.0000 0.35479  0.35479  0.59799  Biso   1.000  O
  N7       1.0000 0.45869  0.27648  0.46558  Biso   1.000  N
  H7       1.0000 0.39931  0.27351  0.56256  Biso   1.000  H
  H8       1.0000 0.39101  0.24251  0.45610  Biso   1.000  H
  H9       1.0000 0.46639  0.22788  0.34305  Biso   1.000  H
  C13      1.0000 0.53769  0.25610  0.39425  Biso   1.000  C
  O3       1.0000 0.53780  0.34420  0.18619  Biso   1.000  O
  N8       1.0000 0.56218  0.29198  0.32259  Biso   1.000  N
  N9       1.0000 0.27648  0.45869  0.46558  Biso   1.000  N
  H10      1.0000 0.27351  0.39931  0.56256  Biso   1.000  H
  H11      1.0000 0.24251  0.39101  0.45610  Biso   1.000  H
  H12      1.0000 0.22788  0.46639  0.34305  Biso   1.000  H
  C14      1.0000 0.25610  0.53769  0.39425  Biso   1.000  C
  O4       1.0000 0.34420  0.53780  0.18619  Biso   1.000  O
  N10      1.0000 0.29198  0.56218  0.32259  Biso   1.000  N
  C15      1.0000 0.49419  0.28029  0.54327  Biso   1.000  C
  N11      1.0000 0.54039  0.27050  0.50290  Biso   1.000  N
  H13      1.0000 0.55030  0.22049  0.38311  Biso   1.000  H
  C16      1.0000 0.61581  0.29339  0.30417  Biso   1.000  C
  C17      1.0000 0.28029  0.49419  0.54327  Biso   1.000  C
  N12      1.0000 0.27050  0.54039  0.50290  Biso   1.000  N
  H14      1.0000 0.22049  0.55030  0.38311  Biso   1.000  H
  C18      1.0000 0.29339  0.61581  0.30417  Biso   1.000  C
  O5       1.0000 0.48501  0.29092  0.63547  Biso   1.000  O
  C19      1.0000 0.58431  0.26090  0.56907  Biso   1.000  C
  N13      1.0000 0.64399  0.32150  0.38225  Biso   1.000  N
  H15      1.0000 0.62209  0.30889  0.23471  Biso   1.000  H
  H16      1.0000 0.62891  0.25801  0.30198  Biso   1.000  H
  O6       1.0000 0.29092  0.48501  0.63547  Biso   1.000  O
  C20      1.0000 0.26090  0.58431  0.56907  Biso   1.000  C
  N14      1.0000 0.32150  0.64399  0.38225  Biso   1.000  N
  H17      1.0000 0.30889  0.62209  0.23471  Biso   1.000  H
  H18      1.0000 0.25801  0.62891  0.30198  Biso   1.000  H
  N15      1.0000 0.62400  0.29758  0.56170  Biso   1.000  N
  H19      1.0000 0.57269  0.25930  0.64291  Biso   1.000  H
  H20      1.0000 0.59848  0.22708  0.55080  Biso   1.000  H
  C21      1.0000 0.66170  0.29891  0.47970  Biso   1.000  C
  C22      1.0000 0.67008  0.36500  0.35709  Biso   1.000  C
  N16      1.0000 0.29758  0.62400  0.56170  Biso   1.000  N
  H21      1.0000 0.25930  0.57269  0.64291  Biso   1.000  H
  H22      1.0000 0.22708  0.59848  0.55080  Biso   1.000  H
  C23      1.0000 0.29891  0.66170  0.47970  Biso   1.000  C
  C24      1.0000 0.36500  0.67008  0.35709  Biso   1.000  C
  C25      1.0000 0.63500  0.32988  0.64291  Biso   1.000  C
  H23      1.0000 0.67751  0.26479  0.46809  Biso   1.000  H
  C26      1.0000 0.70109  0.33830  0.52030  Biso   1.000  C
  O7       1.0000 0.66509  0.38979  0.27720  Biso   1.000  O
  N17      1.0000 0.70238  0.37600  0.43830  Biso   1.000  N
  C27      1.0000 0.32988  0.63500  0.64291  Biso   1.000  C
  C28      1.0000 0.33830  0.70109  0.52030  Biso   1.000  C
  H24      1.0000 0.26479  0.67751  0.46809  Biso   1.000  H
  O8       1.0000 0.38979  0.66509  0.27720  Biso   1.000  O
  N18      1.0000 0.37600  0.70238  0.43830  Biso   1.000  N
  O9       1.0000 0.61021  0.33491  0.72280  Biso   1.000  O
  N19      1.0000 0.67850  0.35601  0.61767  Biso   1.000  N
  H25      1.0000 0.73521  0.32249  0.53191  Biso   1.000  H
  C29      1.0000 0.73910  0.41569  0.43086  Biso   1.000  C
  O10      1.0000 0.33491  0.61021  0.72280  Biso   1.000  O
  N20      1.0000 0.35601  0.67850  0.61767  Biso   1.000  N
  H26      1.0000 0.32249  0.73521  0.53191  Biso   1.000  H
  C30      1.0000 0.41569  0.73910  0.43086  Biso   1.000  C
  C31      1.0000 0.70661  0.38419  0.69575  Biso   1.000  C
  N21      1.0000 0.72950  0.45961  0.49710  Biso   1.000  N
  H27      1.0000 0.74070  0.42731  0.35709  Biso   1.000  H
  H28      1.0000 0.77288  0.40149  0.44920  Biso   1.000  H
  C32      1.0000 0.38419  0.70661  0.69575  Biso   1.000  C
  N22      1.0000 0.45961  0.72950  0.49710  Biso   1.000  N
  H29      1.0000 0.42731  0.74070  0.35709  Biso   1.000  H
  H30      1.0000 0.40149  0.77288  0.44920  Biso   1.000  H
  N23      1.0000 0.70798  0.43778  0.67741  Biso   1.000  N
  H31      1.0000 0.69111  0.37791  0.76529  Biso   1.000  H
  H32      1.0000 0.74199  0.37109  0.69795  Biso   1.000  H
  C33      1.0000 0.74390  0.46231  0.60568  Biso   1.000  C
  C34      1.0000 0.71971  0.50581  0.45665  Biso   1.000  C
  N24      1.0000 0.43778  0.70798  0.67741  Biso   1.000  N
  H33      1.0000 0.37791  0.69111  0.76529  Biso   1.000  H
  H34      1.0000 0.37109  0.74199  0.69795  Biso   1.000  H
  C35      1.0000 0.46231  0.74390  0.60568  Biso   1.000  C
  C36      1.0000 0.50581  0.71971  0.45665  Biso   1.000  C
  C37      1.0000 0.68478  0.47301  0.74208  Biso   1.000  C
  C38      1.0000 0.73910  0.51899  0.63155  Biso   1.000  C
  H35      1.0000 0.77951  0.44970  0.61689  Biso   1.000  H
  O11      1.0000 0.70908  0.51499  0.36446  Biso   1.000  O
  N25      1.0000 0.72348  0.54131  0.53442  Biso   1.000  N
  C39      1.0000 0.47301  0.68478  0.74208  Biso   1.000  C
  C40      1.0000 0.51899  0.73910  0.63155  Biso   1.000  C
  H36      1.0000 0.44970  0.77951  0.61689  Biso   1.000  H
  O12      1.0000 0.51499  0.70908  0.36446  Biso   1.000  O
  N26      1.0000 0.54131  0.72348  0.53442  Biso   1.000  N
  O13      1.0000 0.65580  0.46220  0.81373  Biso   1.000  O
  N27      1.0000 0.70010  0.52040  0.71261  Biso   1.000  N
  H37      1.0000 0.77208  0.53361  0.65687  Biso   1.000  H
  C41      1.0000 0.72550  0.59509  0.51419  Biso   1.000  C
  O14      1.0000 0.46220  0.65580  0.81373  Biso   1.000  O
  N28      1.0000 0.52040  0.70010  0.71261  Biso   1.000  N
  H38      1.0000 0.53361  0.77208  0.65687  Biso   1.000  H
  C42      1.0000 0.59509  0.72550  0.51419  Biso   1.000  C
  C43      1.0000 0.69370  0.56389  0.78159  Biso   1.000  C
  N29      1.0000 0.68261  0.62339  0.55778  Biso   1.000  N
  H39      1.0000 0.72649  0.60069  0.43736  Biso   1.000  H
  H40      1.0000 0.75749  0.60899  0.54390  Biso   1.000  H
  C44      1.0000 0.56389  0.69370  0.78159  Biso   1.000  C
  N30      1.0000 0.62339  0.68261  0.55778  Biso   1.000  N
  H41      1.0000 0.60069  0.72649  0.43736  Biso   1.000  H
  H42      1.0000 0.60899  0.75749  0.54390  Biso   1.000  H
  N31      1.0000 0.66220  0.60331  0.73785  Biso   1.000  N
  H43      1.0000 0.67850  0.55220  0.84823  Biso   1.000  H
  H44      1.0000 0.72771  0.57840  0.79766  Biso   1.000  H
  C45      1.0000 0.68120  0.63980  0.66424  Biso   1.000  C
  C46      1.0000 0.64959  0.64959  0.49271  Biso   1.000  C
  N32      1.0000 0.60331  0.66220  0.73785  Biso   1.000  N
  H45      1.0000 0.55220  0.67850  0.84823  Biso   1.000  H
  H46      1.0000 0.57840  0.72771  0.79766  Biso   1.000  H
  C47      1.0000 0.63980  0.68120  0.66424  Biso   1.000  C
  C48      1.0000 0.61878  0.61878  0.78340  Biso   1.000  C
  H47      1.0000 0.71491  0.65378  0.68697  Biso   1.000  H
  O15      1.0000 0.64521  0.64521  0.40201  Biso   1.000  O
  H48      1.0000 0.65378  0.71491  0.68697  Biso   1.000  H
  O16      1.0000 0.59619  0.59619  0.85607  Biso   1.000  O
  C49      1.0000 0.76088  0.51899  0.13162  Biso   1.000  C
  C50      1.0000 0.75608  0.46231  0.10568  Biso   1.000  C
  N33      1.0000 0.77650  0.54131  0.03442  Biso   1.000  N
  N34      1.0000 0.79989  0.52040  0.21261  Biso   1.000  N
  H49      1.0000 0.72790  0.53361  0.15687  Biso   1.000  H
  N35      1.0000 0.77650  0.54131  0.03434  Biso   1.000  N
  N36      1.0000 0.79200  0.43778  0.17741  Biso   1.000  N
  H50      1.0000 0.72051  0.44970  0.11689  Biso   1.000  H
  N37      1.0000 0.79200  0.43778  0.17733  Biso   1.000  N
  C51      1.0000 0.76088  0.51899  0.13155  Biso   1.000  C
  N38      1.0000 0.77052  0.45961  0.99710  Biso   1.000  N
  N39      1.0000 0.77048  0.45961  0.99710  Biso   1.000  N
  C52      1.0000 0.78031  0.50581  0.95673  Biso   1.000  C
  C53      1.0000 0.78031  0.50581  0.95665  Biso   1.000  C
  C54      1.0000 0.77452  0.59509  0.01419  Biso   1.000  C
  C55      1.0000 0.77448  0.59509  0.01419  Biso   1.000  C
  C56      1.0000 0.81520  0.47301  0.24208  Biso   1.000  C
  C57      1.0000 0.80628  0.56389  0.28159  Biso   1.000  C
  C58      1.0000 0.80628  0.56389  0.28151  Biso   1.000  C
  C59      1.0000 0.79341  0.38419  0.19583  Biso   1.000  C
  C60      1.0000 0.79341  0.38419  0.19575  Biso   1.000  C
  C61      1.0000 0.76088  0.41569  0.93093  Biso   1.000  C
  C62      1.0000 0.76088  0.41569  0.93086  Biso   1.000  C
  O17      1.0000 0.79090  0.51499  0.86453  Biso   1.000  O
  O18      1.0000 0.79090  0.51499  0.86446  Biso   1.000  O
  N40      1.0000 0.81741  0.62339  0.05778  Biso   1.000  N
  H51      1.0000 0.74249  0.60899  0.04390  Biso   1.000  H
  H52      1.0000 0.74249  0.60899  0.04382  Biso   1.000  H
  H53      1.0000 0.77349  0.60069  0.93744  Biso   1.000  H
  H54      1.0000 0.77349  0.60069  0.93736  Biso   1.000  H
  O19      1.0000 0.84422  0.46220  0.31381  Biso   1.000  O
  O20      1.0000 0.84422  0.46220  0.31373  Biso   1.000  O
  O21      1.0000 0.84418  0.46220  0.31381  Biso   1.000  O
  O22      1.0000 0.84418  0.46220  0.31373  Biso   1.000  O
  N41      1.0000 0.83778  0.60331  0.23793  Biso   1.000  N
  H55      1.0000 0.82152  0.55220  0.34831  Biso   1.000  H
  H56      1.0000 0.77231  0.57840  0.29766  Biso   1.000  H
  N42      1.0000 0.83778  0.60331  0.23785  Biso   1.000  N
  H57      1.0000 0.82152  0.55220  0.34823  Biso   1.000  H
  H58      1.0000 0.82148  0.55220  0.34831  Biso   1.000  H
  H59      1.0000 0.82148  0.55220  0.34823  Biso   1.000  H
  N43      1.0000 0.82152  0.35601  0.11767  Biso   1.000  N
  H60      1.0000 0.80891  0.37791  0.26529  Biso   1.000  H
  H61      1.0000 0.75799  0.37109  0.19802  Biso   1.000  H
  N44      1.0000 0.82148  0.35601  0.11767  Biso   1.000  N
  N45      1.0000 0.79760  0.37600  0.93830  Biso   1.000  N
  H62      1.0000 0.75928  0.42731  0.85709  Biso   1.000  H
  H63      1.0000 0.72710  0.40149  0.94920  Biso   1.000  H
  N46      1.0000 0.79760  0.37600  0.93823  Biso   1.000  N
  C63      1.0000 0.81882  0.63980  0.16431  Biso   1.000  C
  C64      1.0000 0.81882  0.63980  0.16424  Biso   1.000  C
  C65      1.0000 0.81878  0.63980  0.16431  Biso   1.000  C
  C66      1.0000 0.81878  0.63980  0.16424  Biso   1.000  C
  C67      1.0000 0.85039  0.64959  0.99271  Biso   1.000  C
  C68      1.0000 0.85039  0.64959  0.99263  Biso   1.000  C
  C69      1.0000 0.88120  0.61878  0.28340  Biso   1.000  C
  C70      1.0000 0.88120  0.61878  0.28332  Biso   1.000  C
  C71      1.0000 0.86502  0.32988  0.14291  Biso   1.000  C
  C72      1.0000 0.79890  0.33830  0.02030  Biso   1.000  C
  C73      1.0000 0.86502  0.32988  0.14283  Biso   1.000  C
  C74      1.0000 0.79890  0.33830  0.02023  Biso   1.000  C
  C75      1.0000 0.86498  0.32988  0.14291  Biso   1.000  C
  C76      1.0000 0.86498  0.32988  0.14283  Biso   1.000  C
  C77      1.0000 0.82990  0.36500  0.85709  Biso   1.000  C
  C78      1.0000 0.86022  0.68120  0.16431  Biso   1.000  C
  H64      1.0000 0.78511  0.65378  0.18697  Biso   1.000  H
  C79      1.0000 0.86022  0.68120  0.16424  Biso   1.000  C
  C80      1.0000 0.86018  0.68120  0.16431  Biso   1.000  C
  C81      1.0000 0.86018  0.68120  0.16424  Biso   1.000  C
  N47      1.0000 0.87659  0.68261  0.05778  Biso   1.000  N
  O23      1.0000 0.85481  0.64521  0.90201  Biso   1.000  O
  O24      1.0000 0.85481  0.64521  0.90193  Biso   1.000  O
  O25      1.0000 0.90379  0.59619  0.35607  Biso   1.000  O
  N48      1.0000 0.89671  0.66220  0.23793  Biso   1.000  N
  N49      1.0000 0.89671  0.66220  0.23785  Biso   1.000  N
  O26      1.0000 0.88981  0.33491  0.22280  Biso   1.000  O
  N50      1.0000 0.87599  0.29758  0.06170  Biso   1.000  N
  O27      1.0000 0.88981  0.33491  0.22272  Biso   1.000  O
  H65      1.0000 0.76481  0.32249  0.03191  Biso   1.000  H
  C82      1.0000 0.83832  0.29891  0.97970  Biso   1.000  C
  C83      1.0000 0.83828  0.29891  0.97970  Biso   1.000  C
  O28      1.0000 0.83489  0.38979  0.77720  Biso   1.000  O
  N51      1.0000 0.85599  0.32150  0.88233  Biso   1.000  N
  N52      1.0000 0.85599  0.32150  0.88225  Biso   1.000  N
  H66      1.0000 0.84620  0.71491  0.18697  Biso   1.000  H
  C84      1.0000 0.90489  0.72550  0.01419  Biso   1.000  C
  C85      1.0000 0.93609  0.69370  0.28159  Biso   1.000  C
  C86      1.0000 0.93609  0.69370  0.28151  Biso   1.000  C
  C87      1.0000 0.91571  0.26090  0.06907  Biso   1.000  C
  C88      1.0000 0.91571  0.26090  0.06914  Biso   1.000  C
  H67      1.0000 0.82251  0.26479  0.96809  Biso   1.000  H
  C89      1.0000 0.88421  0.29339  0.80417  Biso   1.000  C
  C90      1.0000 0.88417  0.29339  0.80417  Biso   1.000  C
  N53      1.0000 0.95871  0.72348  0.03442  Biso   1.000  N
  H68      1.0000 0.89099  0.75749  0.04390  Biso   1.000  H
  N54      1.0000 0.95871  0.72348  0.03434  Biso   1.000  N
  H69      1.0000 0.89099  0.75749  0.04382  Biso   1.000  H
  N55      1.0000 0.95867  0.72348  0.03442  Biso   1.000  N
  N56      1.0000 0.95867  0.72348  0.03434  Biso   1.000  N
  H70      1.0000 0.89930  0.72649  0.93744  Biso   1.000  H
  H71      1.0000 0.89930  0.72649  0.93736  Biso   1.000  H
  N57      1.0000 0.97958  0.70010  0.21261  Biso   1.000  N
  H72      1.0000 0.94778  0.67850  0.34831  Biso   1.000  H
  H73      1.0000 0.92161  0.72771  0.29766  Biso   1.000  H
  H74      1.0000 0.94778  0.67850  0.34823  Biso   1.000  H
  H75      1.0000 0.92158  0.72771  0.29766  Biso   1.000  H
  N58      1.0000 0.95959  0.27050  0.00290  Biso   1.000  N
  H76      1.0000 0.92729  0.25930  0.14291  Biso   1.000  H
  H77      1.0000 0.90150  0.22708  0.05080  Biso   1.000  H
  N59      1.0000 0.95959  0.27050  0.00282  Biso   1.000  N
  H78      1.0000 0.92729  0.25930  0.14283  Biso   1.000  H
  N60      1.0000 0.93780  0.29198  0.82259  Biso   1.000  N
  H79      1.0000 0.87789  0.30889  0.73471  Biso   1.000  H
  H80      1.0000 0.87111  0.25801  0.80198  Biso   1.000  H
  H81      1.0000 0.87789  0.30889  0.73463  Biso   1.000  H
  C91      1.0000 0.98099  0.73910  0.13162  Biso   1.000  C
  C92      1.0000 0.98099  0.73910  0.13155  Biso   1.000  C
  C93      1.0000 0.99421  0.71971  0.95673  Biso   1.000  C
  C94      1.0000 0.99421  0.71971  0.95665  Biso   1.000  C
  C95      1.0000 0.02700  0.68478  0.24208  Biso   1.000  C
  C96      1.0000 0.96229  0.25610  0.89432  Biso   1.000  C
  C97      1.0000 0.96229  0.25610  0.89425  Biso   1.000  C
  C98      1.0000 0.00579  0.28029  0.04327  Biso   1.000  C
  C99      1.0000 0.97300  0.31522  0.75792  Biso   1.000  C
  C100     1.0000 0.97300  0.31522  0.75784  Biso   1.000  C
  H82      1.0000 0.96641  0.77208  0.15687  Biso   1.000  H
  C101     1.0000 0.03771  0.74390  0.10568  Biso   1.000  C
  O29      1.0000 0.98499  0.70908  0.86453  Biso   1.000  O
  O30      1.0000 0.98499  0.70908  0.86446  Biso   1.000  O
  N61      1.0000 0.04041  0.72950  0.99710  Biso   1.000  N
  N62      1.0000 0.04037  0.72950  0.99710  Biso   1.000  N
  O31      1.0000 0.03778  0.65580  0.31381  Biso   1.000  O
  N63      1.0000 0.06220  0.70798  0.17741  Biso   1.000  N
  O32      1.0000 0.03778  0.65580  0.31373  Biso   1.000  O
  N64      1.0000 0.06220  0.70798  0.17733  Biso   1.000  N
  H83      1.0000 0.94969  0.22049  0.88311  Biso   1.000  H
  H84      1.0000 0.94969  0.22049  0.88304  Biso   1.000  H
  C102     1.0000 0.01901  0.26090  0.86838  Biso   1.000  C
  N65      1.0000 0.04129  0.27648  0.96558  Biso   1.000  N
  O33      1.0000 0.01501  0.29092  0.13547  Biso   1.000  O
  O34      1.0000 0.96222  0.34420  0.68619  Biso   1.000  O
  O35      1.0000 0.96218  0.34420  0.68619  Biso   1.000  O
  N66      1.0000 0.02042  0.29990  0.78739  Biso   1.000  N
  N67      1.0000 0.02038  0.29990  0.78739  Biso   1.000  N
  H85      1.0000 0.05031  0.77951  0.11689  Biso   1.000  H
  H86      1.0000 0.05028  0.77951  0.11689  Biso   1.000  H
  C103     1.0000 0.08429  0.73910  0.93093  Biso   1.000  C
  C104     1.0000 0.08429  0.73910  0.93086  Biso   1.000  C
  C105     1.0000 0.11579  0.70661  0.19583  Biso   1.000  C
  C106     1.0000 0.11579  0.70661  0.19575  Biso   1.000  C
  H87      1.0000 0.03359  0.22788  0.84313  Biso   1.000  H
  H88      1.0000 0.03359  0.22788  0.84305  Biso   1.000  H
  C107     1.0000 0.09511  0.27450  0.98581  Biso   1.000  C
  C108     1.0000 0.09511  0.27450  0.98573  Biso   1.000  C
  C109     1.0000 0.06391  0.30630  0.71841  Biso   1.000  C
  C110     1.0000 0.06387  0.30630  0.71841  Biso   1.000  C
  N68      1.0000 0.12401  0.70238  0.93830  Biso   1.000  N
  H89      1.0000 0.07271  0.74070  0.85709  Biso   1.000  H
  H90      1.0000 0.09850  0.77288  0.94920  Biso   1.000  H
  N69      1.0000 0.12401  0.70238  0.93823  Biso   1.000  N
  N70      1.0000 0.12398  0.70238  0.93830  Biso   1.000  N
  N71      1.0000 0.12398  0.70238  0.93823  Biso   1.000  N
  N72      1.0000 0.14401  0.67850  0.11767  Biso   1.000  N
  H91      1.0000 0.12211  0.69111  0.26529  Biso   1.000  H
  H92      1.0000 0.12889  0.74199  0.19802  Biso   1.000  H
  N73      1.0000 0.14397  0.67850  0.11767  Biso   1.000  N
  N74      1.0000 0.12341  0.31739  0.94222  Biso   1.000  N
  H93      1.0000 0.10901  0.24251  0.95610  Biso   1.000  H
  N75      1.0000 0.12341  0.31739  0.94214  Biso   1.000  N
  H94      1.0000 0.10070  0.27351  0.06256  Biso   1.000  H
  N76      1.0000 0.10329  0.33780  0.76207  Biso   1.000  N
  H95      1.0000 0.05222  0.32150  0.65169  Biso   1.000  H
  H96      1.0000 0.07839  0.27229  0.70234  Biso   1.000  H
  H97      1.0000 0.07839  0.27229  0.70226  Biso   1.000  H
  H98      1.0000 0.05218  0.32150  0.65169  Biso   1.000  H
  C111     1.0000 0.13498  0.67008  0.85709  Biso   1.000  C
  C112     1.0000 0.16168  0.70109  0.02030  Biso   1.000  C
  C113     1.0000 0.16168  0.70109  0.02023  Biso   1.000  C
  C114     1.0000 0.17010  0.63500  0.14291  Biso   1.000  C
  C115     1.0000 0.17010  0.63500  0.14283  Biso   1.000  C
  C116     1.0000 0.13978  0.31880  0.83569  Biso   1.000  C
  C117     1.0000 0.14961  0.35041  0.00729  Biso   1.000  C
  C118     1.0000 0.11880  0.38118  0.71660  Biso   1.000  C
  O36      1.0000 0.11019  0.66509  0.77720  Biso   1.000  O
  N77      1.0000 0.17848  0.64399  0.88233  Biso   1.000  N
  N78      1.0000 0.17848  0.64399  0.88225  Biso   1.000  N
  C119     1.0000 0.20110  0.66170  0.97970  Biso   1.000  C
  H99      1.0000 0.17749  0.73521  0.03191  Biso   1.000  H
  O37      1.0000 0.16511  0.61021  0.22280  Biso   1.000  O
  N79      1.0000 0.20240  0.62400  0.06170  Biso   1.000  N
  O38      1.0000 0.16511  0.61021  0.22272  Biso   1.000  O
  O39      1.0000 0.16507  0.61021  0.22280  Biso   1.000  O
  O40      1.0000 0.16507  0.61021  0.22272  Biso   1.000  O
  C120     1.0000 0.18118  0.36020  0.83569  Biso   1.000  C
  H100     1.0000 0.15380  0.28509  0.81303  Biso   1.000  H
  H101     1.0000 0.15380  0.28509  0.81295  Biso   1.000  H
  N80      1.0000 0.18259  0.37661  0.94222  Biso   1.000  N
  N81      1.0000 0.18259  0.37661  0.94214  Biso   1.000  N
  O41      1.0000 0.14519  0.35479  0.09799  Biso   1.000  O
  O42      1.0000 0.14519  0.35479  0.09807  Biso   1.000  O
  O43      1.0000 0.09621  0.40381  0.64393  Biso   1.000  O
  N82      1.0000 0.16222  0.39669  0.76207  Biso   1.000  N
  O44      1.0000 0.09621  0.40381  0.64385  Biso   1.000  O
  N83      1.0000 0.16218  0.39669  0.76207  Biso   1.000  N
  C121     1.0000 0.20659  0.61581  0.80417  Biso   1.000  C
  H102     1.0000 0.23519  0.67751  0.96809  Biso   1.000  H
  C122     1.0000 0.23912  0.58431  0.06907  Biso   1.000  C
  C123     1.0000 0.23912  0.58431  0.06914  Biso   1.000  C
  C124     1.0000 0.23908  0.58431  0.06907  Biso   1.000  C
  C125     1.0000 0.23908  0.58431  0.06914  Biso   1.000  C
  H103     1.0000 0.21489  0.34618  0.81303  Biso   1.000  H
  H104     1.0000 0.21489  0.34618  0.81295  Biso   1.000  H
  C126     1.0000 0.22548  0.40491  0.98581  Biso   1.000  C
  C127     1.0000 0.22548  0.40491  0.98573  Biso   1.000  C
  C128     1.0000 0.19372  0.43611  0.71841  Biso   1.000  C
  C129     1.0000 0.19368  0.43611  0.71841  Biso   1.000  C
  N84      1.0000 0.20800  0.56218  0.82259  Biso   1.000  N
  H105     1.0000 0.19109  0.62209  0.73471  Biso   1.000  H
  H106     1.0000 0.24201  0.62891  0.80198  Biso   1.000  H
  H107     1.0000 0.19109  0.62209  0.73463  Biso   1.000  H
  H108     1.0000 0.24197  0.62891  0.80198  Biso   1.000  H
  N85      1.0000 0.22948  0.54039  0.00290  Biso   1.000  N
  H109     1.0000 0.24072  0.57269  0.14291  Biso   1.000  H
  H110     1.0000 0.27290  0.59848  0.05080  Biso   1.000  H
  N86      1.0000 0.22948  0.54039  0.00282  Biso   1.000  N
  H111     1.0000 0.24072  0.57269  0.14283  Biso   1.000  H
  H112     1.0000 0.24068  0.57269  0.14291  Biso   1.000  H
  H113     1.0000 0.24068  0.57269  0.14283  Biso   1.000  H
  N87      1.0000 0.22350  0.45869  0.96558  Biso   1.000  N
  H114     1.0000 0.25751  0.39101  0.95610  Biso   1.000  H
  H115     1.0000 0.25747  0.39101  0.95610  Biso   1.000  H
  H116     1.0000 0.22651  0.39931  0.06256  Biso   1.000  H
  N88      1.0000 0.20011  0.47960  0.78739  Biso   1.000  N
  H117     1.0000 0.17848  0.44780  0.65169  Biso   1.000  H
  H118     1.0000 0.22769  0.42160  0.70234  Biso   1.000  H
  H119     1.0000 0.22769  0.42160  0.70226  Biso   1.000  H
  N89      1.0000 0.20008  0.47960  0.78739  Biso   1.000  N
  C130     1.0000 0.18480  0.52699  0.75792  Biso   1.000  C
  C131     1.0000 0.18480  0.52699  0.75784  Biso   1.000  C
  C132     1.0000 0.24392  0.53769  0.89432  Biso   1.000  C
  C133     1.0000 0.24392  0.53769  0.89425  Biso   1.000  C
  C134     1.0000 0.24388  0.53769  0.89432  Biso   1.000  C
  C135     1.0000 0.24388  0.53769  0.89425  Biso   1.000  C
  C136     1.0000 0.21969  0.49419  0.04327  Biso   1.000  C
  C137     1.0000 0.23912  0.48101  0.86838  Biso   1.000  C
  C138     1.0000 0.23908  0.48101  0.86838  Biso   1.000  C
  O45      1.0000 0.15578  0.53780  0.68619  Biso   1.000  O
  H120     1.0000 0.27949  0.55030  0.88311  Biso   1.000  H
  H121     1.0000 0.27949  0.55030  0.88304  Biso   1.000  H
  O46      1.0000 0.20910  0.48501  0.13547  Biso   1.000  O
  H122     1.0000 0.27210  0.46639  0.84313  Biso   1.000  H
  H123     1.0000 0.27210  0.46639  0.84305  Biso   1.000  H
  C139     1.0000 0.76088  0.51899  0.13162  Biso   1.000  C
  C140     1.0000 0.75608  0.46231  0.10568  Biso   1.000  C
  N90      1.0000 0.79989  0.52040  0.21261  Biso   1.000  N
  H124     1.0000 0.72790  0.53361  0.15687  Biso   1.000  H
  N91      1.0000 0.77650  0.54131  0.03442  Biso   1.000  N
  N92      1.0000 0.77650  0.54131  0.03434  Biso   1.000  N
  H125     1.0000 0.72051  0.44970  0.11689  Biso   1.000  H
  N93      1.0000 0.79200  0.43778  0.17741  Biso   1.000  N
  N94      1.0000 0.79200  0.43778  0.17733  Biso   1.000  N
  C141     1.0000 0.76088  0.51899  0.13155  Biso   1.000  C
  N95      1.0000 0.77052  0.45961  0.99710  Biso   1.000  N
  N96      1.0000 0.77048  0.45961  0.99710  Biso   1.000  N
  C142     1.0000 0.81520  0.47301  0.24208  Biso   1.000  C
  C143     1.0000 0.80628  0.56389  0.28159  Biso   1.000  C
  C144     1.0000 0.80628  0.56389  0.28151  Biso   1.000  C
  C145     1.0000 0.78031  0.50581  0.95673  Biso   1.000  C
  C146     1.0000 0.78031  0.50581  0.95665  Biso   1.000  C
  C147     1.0000 0.77452  0.59509  0.01419  Biso   1.000  C
  C148     1.0000 0.77448  0.59509  0.01419  Biso   1.000  C
  C149     1.0000 0.79341  0.38419  0.19583  Biso   1.000  C
  C150     1.0000 0.79341  0.38419  0.19575  Biso   1.000  C
  C151     1.0000 0.76088  0.41569  0.93093  Biso   1.000  C
  C152     1.0000 0.76088  0.41569  0.93086  Biso   1.000  C
  O47      1.0000 0.84422  0.46220  0.31381  Biso   1.000  O
  O48      1.0000 0.84422  0.46220  0.31373  Biso   1.000  O
  O49      1.0000 0.84418  0.46220  0.31381  Biso   1.000  O
  O50      1.0000 0.84418  0.46220  0.31373  Biso   1.000  O
  H126     1.0000 0.77231  0.57840  0.29766  Biso   1.000  H
  N97      1.0000 0.83778  0.60331  0.23793  Biso   1.000  N
  N98      1.0000 0.83778  0.60331  0.23785  Biso   1.000  N
  H127     1.0000 0.82152  0.55220  0.34831  Biso   1.000  H
  H128     1.0000 0.82152  0.55220  0.34823  Biso   1.000  H
  H129     1.0000 0.82148  0.55220  0.34831  Biso   1.000  H
  H130     1.0000 0.82148  0.55220  0.34823  Biso   1.000  H
  O51      1.0000 0.79090  0.51499  0.86453  Biso   1.000  O
  O52      1.0000 0.79090  0.51499  0.86446  Biso   1.000  O
  N99      1.0000 0.81741  0.62339  0.05778  Biso   1.000  N
  H131     1.0000 0.74249  0.60899  0.04390  Biso   1.000  H
  H132     1.0000 0.74249  0.60899  0.04382  Biso   1.000  H
  H133     1.0000 0.77349  0.60069  0.93744  Biso   1.000  H
  H134     1.0000 0.77349  0.60069  0.93736  Biso   1.000  H
  N100     1.0000 0.82152  0.35601  0.11767  Biso   1.000  N
  H135     1.0000 0.80891  0.37791  0.26529  Biso   1.000  H
  H136     1.0000 0.75799  0.37109  0.19802  Biso   1.000  H
  N101     1.0000 0.82148  0.35601  0.11767  Biso   1.000  N
  N102     1.0000 0.79760  0.37600  0.93830  Biso   1.000  N
  H137     1.0000 0.75928  0.42731  0.85709  Biso   1.000  H
  H138     1.0000 0.72710  0.40149  0.94920  Biso   1.000  H
  N103     1.0000 0.79760  0.37600  0.93823  Biso   1.000  N
  C153     1.0000 0.88120  0.61878  0.28340  Biso   1.000  C
  C154     1.0000 0.88120  0.61878  0.28332  Biso   1.000  C
  C155     1.0000 0.81882  0.63980  0.16431  Biso   1.000  C
  C156     1.0000 0.81882  0.63980  0.16424  Biso   1.000  C
  C157     1.0000 0.81878  0.63980  0.16431  Biso   1.000  C
  C158     1.0000 0.81878  0.63980  0.16424  Biso   1.000  C
  C159     1.0000 0.85039  0.64959  0.99271  Biso   1.000  C
  C160     1.0000 0.85039  0.64959  0.99263  Biso   1.000  C
  C161     1.0000 0.79890  0.33830  0.02030  Biso   1.000  C
  C162     1.0000 0.79890  0.33830  0.02023  Biso   1.000  C
  C163     1.0000 0.86502  0.32988  0.14291  Biso   1.000  C
  C164     1.0000 0.86502  0.32988  0.14283  Biso   1.000  C
  C165     1.0000 0.86498  0.32988  0.14291  Biso   1.000  C
  C166     1.0000 0.86498  0.32988  0.14283  Biso   1.000  C
  C167     1.0000 0.82990  0.36500  0.85709  Biso   1.000  C
  O53      1.0000 0.90379  0.59619  0.35607  Biso   1.000  O
  N104     1.0000 0.89671  0.66220  0.23793  Biso   1.000  N
  N105     1.0000 0.89671  0.66220  0.23785  Biso   1.000  N
  H139     1.0000 0.78511  0.65378  0.18697  Biso   1.000  H
  C168     1.0000 0.86022  0.68120  0.16431  Biso   1.000  C
  C169     1.0000 0.86022  0.68120  0.16424  Biso   1.000  C
  C170     1.0000 0.86018  0.68120  0.16431  Biso   1.000  C
  C171     1.0000 0.86018  0.68120  0.16424  Biso   1.000  C
  N106     1.0000 0.87659  0.68261  0.05778  Biso   1.000  N
  O54      1.0000 0.85481  0.64521  0.90201  Biso   1.000  O
  O55      1.0000 0.85481  0.64521  0.90193  Biso   1.000  O
  H140     1.0000 0.76481  0.32249  0.03191  Biso   1.000  H
  C172     1.0000 0.83832  0.29891  0.97970  Biso   1.000  C
  C173     1.0000 0.83828  0.29891  0.97970  Biso   1.000  C
  N107     1.0000 0.87599  0.29758  0.06170  Biso   1.000  N
  O56      1.0000 0.88981  0.33491  0.22280  Biso   1.000  O
  O57      1.0000 0.88981  0.33491  0.22272  Biso   1.000  O
  O58      1.0000 0.83489  0.38979  0.77720  Biso   1.000  O
  N108     1.0000 0.85599  0.32150  0.88233  Biso   1.000  N
  N109     1.0000 0.85599  0.32150  0.88225  Biso   1.000  N
  C174     1.0000 0.93609  0.69370  0.28159  Biso   1.000  C
  C175     1.0000 0.93609  0.69370  0.28151  Biso   1.000  C
  H141     1.0000 0.84620  0.71491  0.18697  Biso   1.000  H
  C176     1.0000 0.90489  0.72550  0.01419  Biso   1.000  C
  H142     1.0000 0.82251  0.26479  0.96809  Biso   1.000  H
  C177     1.0000 0.91571  0.26090  0.06907  Biso   1.000  C
  C178     1.0000 0.91571  0.26090  0.06914  Biso   1.000  C
  C179     1.0000 0.88421  0.29339  0.80417  Biso   1.000  C
  C180     1.0000 0.88417  0.29339  0.80417  Biso   1.000  C
  N110     1.0000 0.97958  0.70010  0.21261  Biso   1.000  N
  H143     1.0000 0.92161  0.72771  0.29766  Biso   1.000  H
  H144     1.0000 0.94778  0.67850  0.34831  Biso   1.000  H
  H145     1.0000 0.94778  0.67850  0.34823  Biso   1.000  H
  H146     1.0000 0.92158  0.72771  0.29766  Biso   1.000  H
  H147     1.0000 0.89099  0.75749  0.04390  Biso   1.000  H
  H148     1.0000 0.89099  0.75749  0.04382  Biso   1.000  H
  H149     1.0000 0.89930  0.72649  0.93744  Biso   1.000  H
  H150     1.0000 0.89930  0.72649  0.93736  Biso   1.000  H
  N111     1.0000 0.95871  0.72348  0.03442  Biso   1.000  N
  N112     1.0000 0.95871  0.72348  0.03434  Biso   1.000  N
  N113     1.0000 0.95867  0.72348  0.03442  Biso   1.000  N
  N114     1.0000 0.95867  0.72348  0.03434  Biso   1.000  N
  H151     1.0000 0.90150  0.22708  0.05080  Biso   1.000  H
  N115     1.0000 0.95959  0.27050  0.00290  Biso   1.000  N
  H152     1.0000 0.92729  0.25930  0.14291  Biso   1.000  H
  N116     1.0000 0.95959  0.27050  0.00282  Biso   1.000  N
  H153     1.0000 0.92729  0.25930  0.14283  Biso   1.000  H
  N117     1.0000 0.93780  0.29198  0.82259  Biso   1.000  N
  H154     1.0000 0.87789  0.30889  0.73471  Biso   1.000  H
  H155     1.0000 0.87111  0.25801  0.80198  Biso   1.000  H
  H156     1.0000 0.87789  0.30889  0.73463  Biso   1.000  H
  C181     1.0000 0.98099  0.73910  0.13162  Biso   1.000  C
  C182     1.0000 0.98099  0.73910  0.13155  Biso   1.000  C
  C183     1.0000 0.02700  0.68478  0.24208  Biso   1.000  C
  C184     1.0000 0.99421  0.71971  0.95673  Biso   1.000  C
  C185     1.0000 0.99421  0.71971  0.95665  Biso   1.000  C
  C186     1.0000 0.96229  0.25610  0.89432  Biso   1.000  C
  C187     1.0000 0.96229  0.25610  0.89425  Biso   1.000  C
  C188     1.0000 0.00579  0.28029  0.04327  Biso   1.000  C
  C189     1.0000 0.97300  0.31522  0.75792  Biso   1.000  C
  C190     1.0000 0.97300  0.31522  0.75784  Biso   1.000  C
  H157     1.0000 0.96641  0.77208  0.15687  Biso   1.000  H
  C191     1.0000 0.03771  0.74390  0.10568  Biso   1.000  C
  O59      1.0000 0.03778  0.65580  0.31381  Biso   1.000  O
  N118     1.0000 0.06220  0.70798  0.17741  Biso   1.000  N
  O60      1.0000 0.03778  0.65580  0.31373  Biso   1.000  O
  N119     1.0000 0.06220  0.70798  0.17733  Biso   1.000  N
  O61      1.0000 0.98499  0.70908  0.86453  Biso   1.000  O
  O62      1.0000 0.98499  0.70908  0.86446  Biso   1.000  O
  N120     1.0000 0.04041  0.72950  0.99710  Biso   1.000  N
  N121     1.0000 0.04037  0.72950  0.99710  Biso   1.000  N
  H158     1.0000 0.94969  0.22049  0.88311  Biso   1.000  H
  H159     1.0000 0.94969  0.22049  0.88304  Biso   1.000  H
  C192     1.0000 0.01901  0.26090  0.86838  Biso   1.000  C
  N122     1.0000 0.04129  0.27648  0.96558  Biso   1.000  N
  O63      1.0000 0.01501  0.29092  0.13547  Biso   1.000  O
  O64      1.0000 0.96222  0.34420  0.68619  Biso   1.000  O
  O65      1.0000 0.96218  0.34420  0.68619  Biso   1.000  O
  N123     1.0000 0.02042  0.29990  0.78739  Biso   1.000  N
  N124     1.0000 0.02038  0.29990  0.78739  Biso   1.000  N
  H160     1.0000 0.05031  0.77951  0.11689  Biso   1.000  H
  H161     1.0000 0.05028  0.77951  0.11689  Biso   1.000  H
  C193     1.0000 0.11579  0.70661  0.19583  Biso   1.000  C
  C194     1.0000 0.11579  0.70661  0.19575  Biso   1.000  C
  C195     1.0000 0.08429  0.73910  0.93093  Biso   1.000  C
  C196     1.0000 0.08429  0.73910  0.93086  Biso   1.000  C
  H162     1.0000 0.03359  0.22788  0.84313  Biso   1.000  H
  H163     1.0000 0.03359  0.22788  0.84305  Biso   1.000  H
  C197     1.0000 0.09511  0.27450  0.98581  Biso   1.000  C
  C198     1.0000 0.09511  0.27450  0.98573  Biso   1.000  C
  C199     1.0000 0.06391  0.30630  0.71841  Biso   1.000  C
  C200     1.0000 0.06387  0.30630  0.71841  Biso   1.000  C
  N125     1.0000 0.14401  0.67850  0.11767  Biso   1.000  N
  H164     1.0000 0.12211  0.69111  0.26529  Biso   1.000  H
  H165     1.0000 0.12889  0.74199  0.19802  Biso   1.000  H
  N126     1.0000 0.14397  0.67850  0.11767  Biso   1.000  N
  N127     1.0000 0.12401  0.70238  0.93830  Biso   1.000  N
  H166     1.0000 0.07271  0.74070  0.85709  Biso   1.000  H
  H167     1.0000 0.09850  0.77288  0.94920  Biso   1.000  H
  N128     1.0000 0.12401  0.70238  0.93823  Biso   1.000  N
  N129     1.0000 0.12398  0.70238  0.93830  Biso   1.000  N
  N130     1.0000 0.12398  0.70238  0.93823  Biso   1.000  N
  N131     1.0000 0.12341  0.31739  0.94222  Biso   1.000  N
  H168     1.0000 0.10901  0.24251  0.95610  Biso   1.000  H
  N132     1.0000 0.12341  0.31739  0.94214  Biso   1.000  N
  H169     1.0000 0.10070  0.27351  0.06256  Biso   1.000  H
  N133     1.0000 0.10329  0.33780  0.76207  Biso   1.000  N
  H170     1.0000 0.05222  0.32150  0.65169  Biso   1.000  H
  H171     1.0000 0.07839  0.27229  0.70234  Biso   1.000  H
  H172     1.0000 0.07839  0.27229  0.70226  Biso   1.000  H
  H173     1.0000 0.05218  0.32150  0.65169  Biso   1.000  H
  C201     1.0000 0.17010  0.63500  0.14291  Biso   1.000  C
  C202     1.0000 0.16168  0.70109  0.02030  Biso   1.000  C
  C203     1.0000 0.17010  0.63500  0.14283  Biso   1.000  C
  C204     1.0000 0.16168  0.70109  0.02023  Biso   1.000  C
  C205     1.0000 0.13498  0.67008  0.85709  Biso   1.000  C
  C206     1.0000 0.13978  0.31880  0.83569  Biso   1.000  C
  C207     1.0000 0.14961  0.35041  0.00729  Biso   1.000  C
  C208     1.0000 0.11880  0.38118  0.71660  Biso   1.000  C
  O66      1.0000 0.16511  0.61021  0.22280  Biso   1.000  O
  N134     1.0000 0.20240  0.62400  0.06170  Biso   1.000  N
  O67      1.0000 0.16511  0.61021  0.22272  Biso   1.000  O
  O68      1.0000 0.16507  0.61021  0.22280  Biso   1.000  O
  O69      1.0000 0.16507  0.61021  0.22272  Biso   1.000  O
  C209     1.0000 0.20110  0.66170  0.97970  Biso   1.000  C
  H174     1.0000 0.17749  0.73521  0.03191  Biso   1.000  H
  O70      1.0000 0.11019  0.66509  0.77720  Biso   1.000  O
  N135     1.0000 0.17848  0.64399  0.88233  Biso   1.000  N
  N136     1.0000 0.17848  0.64399  0.88225  Biso   1.000  N
  C210     1.0000 0.18118  0.36020  0.83569  Biso   1.000  C
  H175     1.0000 0.15380  0.28509  0.81303  Biso   1.000  H
  H176     1.0000 0.15380  0.28509  0.81295  Biso   1.000  H
  N137     1.0000 0.18259  0.37661  0.94222  Biso   1.000  N
  N138     1.0000 0.18259  0.37661  0.94214  Biso   1.000  N
  O71      1.0000 0.14519  0.35479  0.09799  Biso   1.000  O
  O72      1.0000 0.14519  0.35479  0.09807  Biso   1.000  O
  O73      1.0000 0.09621  0.40381  0.64393  Biso   1.000  O
  N139     1.0000 0.16222  0.39669  0.76207  Biso   1.000  N
  O74      1.0000 0.09621  0.40381  0.64385  Biso   1.000  O
  N140     1.0000 0.16218  0.39669  0.76207  Biso   1.000  N
  C211     1.0000 0.23912  0.58431  0.06907  Biso   1.000  C
  C212     1.0000 0.23912  0.58431  0.06914  Biso   1.000  C
  C213     1.0000 0.23908  0.58431  0.06907  Biso   1.000  C
  C214     1.0000 0.23908  0.58431  0.06914  Biso   1.000  C
  H177     1.0000 0.23519  0.67751  0.96809  Biso   1.000  H
  C215     1.0000 0.20659  0.61581  0.80417  Biso   1.000  C
  H178     1.0000 0.21489  0.34618  0.81303  Biso   1.000  H
  H179     1.0000 0.21489  0.34618  0.81295  Biso   1.000  H
  C216     1.0000 0.22548  0.40491  0.98581  Biso   1.000  C
  C217     1.0000 0.22548  0.40491  0.98573  Biso   1.000  C
  C218     1.0000 0.19372  0.43611  0.71841  Biso   1.000  C
  C219     1.0000 0.19368  0.43611  0.71841  Biso   1.000  C
  N141     1.0000 0.22948  0.54039  0.00290  Biso   1.000  N
  H180     1.0000 0.24072  0.57269  0.14291  Biso   1.000  H
  H181     1.0000 0.27290  0.59848  0.05080  Biso   1.000  H
  N142     1.0000 0.22948  0.54039  0.00282  Biso   1.000  N
  H182     1.0000 0.24072  0.57269  0.14283  Biso   1.000  H
  H183     1.0000 0.24068  0.57269  0.14291  Biso   1.000  H
  H184     1.0000 0.24068  0.57269  0.14283  Biso   1.000  H
  N143     1.0000 0.20800  0.56218  0.82259  Biso   1.000  N
  H185     1.0000 0.19109  0.62209  0.73471  Biso   1.000  H
  H186     1.0000 0.24201  0.62891  0.80198  Biso   1.000  H
  H187     1.0000 0.19109  0.62209  0.73463  Biso   1.000  H
  H188     1.0000 0.24197  0.62891  0.80198  Biso   1.000  H
  N144     1.0000 0.22350  0.45869  0.96558  Biso   1.000  N
  H189     1.0000 0.25751  0.39101  0.95610  Biso   1.000  H
  H190     1.0000 0.25747  0.39101  0.95610  Biso   1.000  H
  H191     1.0000 0.22651  0.39931  0.06256  Biso   1.000  H
  N145     1.0000 0.20011  0.47960  0.78739  Biso   1.000  N
  H192     1.0000 0.17848  0.44780  0.65169  Biso   1.000  H
  H193     1.0000 0.22769  0.42160  0.70234  Biso   1.000  H
  H194     1.0000 0.22769  0.42160  0.70226  Biso   1.000  H
  N146     1.0000 0.20008  0.47960  0.78739  Biso   1.000  N
  C220     1.0000 0.21969  0.49419  0.04327  Biso   1.000  C
  C221     1.0000 0.24392  0.53769  0.89432  Biso   1.000  C
  C222     1.0000 0.24392  0.53769  0.89425  Biso   1.000  C
  C223     1.0000 0.24388  0.53769  0.89432  Biso   1.000  C
  C224     1.0000 0.24388  0.53769  0.89425  Biso   1.000  C
  C225     1.0000 0.18480  0.52699  0.75792  Biso   1.000  C
  C226     1.0000 0.18480  0.52699  0.75784  Biso   1.000  C
  C227     1.0000 0.23912  0.48101  0.86838  Biso   1.000  C
  C228     1.0000 0.23908  0.48101  0.86838  Biso   1.000  C
  O75      1.0000 0.20910  0.48501  0.13547  Biso   1.000  O
  H195     1.0000 0.27949  0.55030  0.88311  Biso   1.000  H
  H196     1.0000 0.27949  0.55030  0.88304  Biso   1.000  H
  O76      1.0000 0.15578  0.53780  0.68619  Biso   1.000  O
  H197     1.0000 0.27210  0.46639  0.84313  Biso   1.000  H
  H198     1.0000 0.27210  0.46639  0.84305  Biso   1.000  H
  C229     1.0000 0.76088  0.51899  0.13162  Biso   1.000  C
  C230     1.0000 0.75608  0.46231  0.10568  Biso   1.000  C
  N147     1.0000 0.79989  0.52040  0.21261  Biso   1.000  N
  H199     1.0000 0.72790  0.53361  0.15687  Biso   1.000  H
  N148     1.0000 0.77650  0.54131  0.03442  Biso   1.000  N
  N149     1.0000 0.77650  0.54131  0.03434  Biso   1.000  N
  H200     1.0000 0.72051  0.44970  0.11689  Biso   1.000  H
  N150     1.0000 0.77052  0.45961  0.99710  Biso   1.000  N
  N151     1.0000 0.77048  0.45961  0.99710  Biso   1.000  N
  N152     1.0000 0.79200  0.43778  0.17741  Biso   1.000  N
  N153     1.0000 0.79200  0.43778  0.17733  Biso   1.000  N
  C231     1.0000 0.76088  0.51899  0.13155  Biso   1.000  C
  C232     1.0000 0.81520  0.47301  0.24208  Biso   1.000  C
  C233     1.0000 0.80628  0.56389  0.28159  Biso   1.000  C
  C234     1.0000 0.80628  0.56389  0.28151  Biso   1.000  C
  C235     1.0000 0.78031  0.50581  0.95673  Biso   1.000  C
  C236     1.0000 0.78031  0.50581  0.95665  Biso   1.000  C
  C237     1.0000 0.77452  0.59509  0.01419  Biso   1.000  C
  C238     1.0000 0.77448  0.59509  0.01419  Biso   1.000  C
  C239     1.0000 0.76088  0.41569  0.93093  Biso   1.000  C
  C240     1.0000 0.76088  0.41569  0.93086  Biso   1.000  C
  C241     1.0000 0.79341  0.38419  0.19583  Biso   1.000  C
  C242     1.0000 0.79341  0.38419  0.19575  Biso   1.000  C
  O77      1.0000 0.84422  0.46220  0.31381  Biso   1.000  O
  O78      1.0000 0.84422  0.46220  0.31373  Biso   1.000  O
  O79      1.0000 0.84418  0.46220  0.31381  Biso   1.000  O
  O80      1.0000 0.84418  0.46220  0.31373  Biso   1.000  O
  H201     1.0000 0.77231  0.57840  0.29766  Biso   1.000  H
  N154     1.0000 0.83778  0.60331  0.23793  Biso   1.000  N
  H202     1.0000 0.82152  0.55220  0.34831  Biso   1.000  H
  N155     1.0000 0.83778  0.60331  0.23785  Biso   1.000  N
  H203     1.0000 0.82152  0.55220  0.34823  Biso   1.000  H
  H204     1.0000 0.82148  0.55220  0.34831  Biso   1.000  H
  H205     1.0000 0.82148  0.55220  0.34823  Biso   1.000  H
  O81      1.0000 0.79090  0.51499  0.86453  Biso   1.000  O
  O82      1.0000 0.79090  0.51499  0.86446  Biso   1.000  O
  N156     1.0000 0.81741  0.62339  0.05778  Biso   1.000  N
  H206     1.0000 0.77349  0.60069  0.93744  Biso   1.000  H
  H207     1.0000 0.77349  0.60069  0.93736  Biso   1.000  H
  H208     1.0000 0.74249  0.60899  0.04390  Biso   1.000  H
  H209     1.0000 0.74249  0.60899  0.04382  Biso   1.000  H
  N157     1.0000 0.79760  0.37600  0.93830  Biso   1.000  N
  H210     1.0000 0.75928  0.42731  0.85709  Biso   1.000  H
  H211     1.0000 0.72710  0.40149  0.94920  Biso   1.000  H
  N158     1.0000 0.79760  0.37600  0.93823  Biso   1.000  N
  H212     1.0000 0.80891  0.37791  0.26529  Biso   1.000  H
  H213     1.0000 0.75799  0.37109  0.19802  Biso   1.000  H
  N159     1.0000 0.82152  0.35601  0.11767  Biso   1.000  N
  N160     1.0000 0.82148  0.35601  0.11767  Biso   1.000  N
  C243     1.0000 0.88120  0.61878  0.28340  Biso   1.000  C
  C244     1.0000 0.81882  0.63980  0.16431  Biso   1.000  C
  C245     1.0000 0.88120  0.61878  0.28332  Biso   1.000  C
  C246     1.0000 0.81882  0.63980  0.16424  Biso   1.000  C
  C247     1.0000 0.81878  0.63980  0.16431  Biso   1.000  C
  C248     1.0000 0.81878  0.63980  0.16424  Biso   1.000  C
  C249     1.0000 0.85039  0.64959  0.99271  Biso   1.000  C
  C250     1.0000 0.85039  0.64959  0.99263  Biso   1.000  C
  C251     1.0000 0.82990  0.36500  0.85709  Biso   1.000  C
  C252     1.0000 0.79890  0.33830  0.02030  Biso   1.000  C
  C253     1.0000 0.79890  0.33830  0.02023  Biso   1.000  C
  C254     1.0000 0.86502  0.32988  0.14291  Biso   1.000  C
  C255     1.0000 0.86502  0.32988  0.14283  Biso   1.000  C
  C256     1.0000 0.86498  0.32988  0.14291  Biso   1.000  C
  C257     1.0000 0.86498  0.32988  0.14283  Biso   1.000  C
  O83      1.0000 0.90379  0.59619  0.35607  Biso   1.000  O
  N161     1.0000 0.89671  0.66220  0.23793  Biso   1.000  N
  N162     1.0000 0.89671  0.66220  0.23785  Biso   1.000  N
  H214     1.0000 0.78511  0.65378  0.18697  Biso   1.000  H
  C258     1.0000 0.86022  0.68120  0.16431  Biso   1.000  C
  C259     1.0000 0.86022  0.68120  0.16424  Biso   1.000  C
  C260     1.0000 0.86018  0.68120  0.16431  Biso   1.000  C
  C261     1.0000 0.86018  0.68120  0.16424  Biso   1.000  C
  N163     1.0000 0.87659  0.68261  0.05778  Biso   1.000  N
  O84      1.0000 0.85481  0.64521  0.90201  Biso   1.000  O
  O85      1.0000 0.85481  0.64521  0.90193  Biso   1.000  O
  O86      1.0000 0.83489  0.38979  0.77720  Biso   1.000  O
  N164     1.0000 0.85599  0.32150  0.88233  Biso   1.000  N
  N165     1.0000 0.85599  0.32150  0.88225  Biso   1.000  N
  H215     1.0000 0.76481  0.32249  0.03191  Biso   1.000  H
  C262     1.0000 0.83832  0.29891  0.97970  Biso   1.000  C
  C263     1.0000 0.83828  0.29891  0.97970  Biso   1.000  C
  N166     1.0000 0.87599  0.29758  0.06170  Biso   1.000  N
  O87      1.0000 0.88981  0.33491  0.22280  Biso   1.000  O
  O88      1.0000 0.88981  0.33491  0.22272  Biso   1.000  O
  C264     1.0000 0.93609  0.69370  0.28159  Biso   1.000  C
  C265     1.0000 0.93609  0.69370  0.28151  Biso   1.000  C
  H216     1.0000 0.84620  0.71491  0.18697  Biso   1.000  H
  C266     1.0000 0.90489  0.72550  0.01419  Biso   1.000  C
  C267     1.0000 0.88421  0.29339  0.80417  Biso   1.000  C
  C268     1.0000 0.88417  0.29339  0.80417  Biso   1.000  C
  H217     1.0000 0.82251  0.26479  0.96809  Biso   1.000  H
  C269     1.0000 0.91571  0.26090  0.06907  Biso   1.000  C
  C270     1.0000 0.91571  0.26090  0.06914  Biso   1.000  C
  N167     1.0000 0.97958  0.70010  0.21261  Biso   1.000  N
  H218     1.0000 0.94778  0.67850  0.34831  Biso   1.000  H
  H219     1.0000 0.92161  0.72771  0.29766  Biso   1.000  H
  H220     1.0000 0.94778  0.67850  0.34823  Biso   1.000  H
  H221     1.0000 0.92158  0.72771  0.29766  Biso   1.000  H
  H222     1.0000 0.89930  0.72649  0.93744  Biso   1.000  H
  H223     1.0000 0.89930  0.72649  0.93736  Biso   1.000  H
  N168     1.0000 0.95871  0.72348  0.03442  Biso   1.000  N
  H224     1.0000 0.89099  0.75749  0.04390  Biso   1.000  H
  N169     1.0000 0.95871  0.72348  0.03434  Biso   1.000  N
  H225     1.0000 0.89099  0.75749  0.04382  Biso   1.000  H
  N170     1.0000 0.95867  0.72348  0.03442  Biso   1.000  N
  N171     1.0000 0.95867  0.72348  0.03434  Biso   1.000  N
  N172     1.0000 0.93780  0.29198  0.82259  Biso   1.000  N
  H226     1.0000 0.87789  0.30889  0.73471  Biso   1.000  H
  H227     1.0000 0.87111  0.25801  0.80198  Biso   1.000  H
  H228     1.0000 0.87789  0.30889  0.73463  Biso   1.000  H
  H229     1.0000 0.90150  0.22708  0.05080  Biso   1.000  H
  N173     1.0000 0.95959  0.27050  0.00290  Biso   1.000  N
  H230     1.0000 0.92729  0.25930  0.14291  Biso   1.000  H
  N174     1.0000 0.95959  0.27050  0.00282  Biso   1.000  N
  H231     1.0000 0.92729  0.25930  0.14283  Biso   1.000  H
  C271     1.0000 0.98099  0.73910  0.13162  Biso   1.000  C
  C272     1.0000 0.98099  0.73910  0.13155  Biso   1.000  C
  C273     1.0000 0.02700  0.68478  0.24208  Biso   1.000  C
  C274     1.0000 0.99421  0.71971  0.95673  Biso   1.000  C
  C275     1.0000 0.99421  0.71971  0.95665  Biso   1.000  C
  C276     1.0000 0.97300  0.31522  0.75792  Biso   1.000  C
  C277     1.0000 0.96229  0.25610  0.89432  Biso   1.000  C
  C278     1.0000 0.97300  0.31522  0.75784  Biso   1.000  C
  C279     1.0000 0.96229  0.25610  0.89425  Biso   1.000  C
  C280     1.0000 0.00579  0.28029  0.04327  Biso   1.000  C
  H232     1.0000 0.96641  0.77208  0.15687  Biso   1.000  H
  C281     1.0000 0.03771  0.74390  0.10568  Biso   1.000  C
  O89      1.0000 0.03778  0.65580  0.31381  Biso   1.000  O
  N175     1.0000 0.06220  0.70798  0.17741  Biso   1.000  N
  O90      1.0000 0.03778  0.65580  0.31373  Biso   1.000  O
  N176     1.0000 0.06220  0.70798  0.17733  Biso   1.000  N
  O91      1.0000 0.98499  0.70908  0.86453  Biso   1.000  O
  O92      1.0000 0.98499  0.70908  0.86446  Biso   1.000  O
  N177     1.0000 0.04041  0.72950  0.99710  Biso   1.000  N
  N178     1.0000 0.04037  0.72950  0.99710  Biso   1.000  N
  O93      1.0000 0.96222  0.34420  0.68619  Biso   1.000  O
  O94      1.0000 0.96218  0.34420  0.68619  Biso   1.000  O
  N179     1.0000 0.02042  0.29990  0.78739  Biso   1.000  N
  N180     1.0000 0.02038  0.29990  0.78739  Biso   1.000  N
  H233     1.0000 0.94969  0.22049  0.88311  Biso   1.000  H
  H234     1.0000 0.94969  0.22049  0.88304  Biso   1.000  H
  C282     1.0000 0.01901  0.26090  0.86838  Biso   1.000  C
  N181     1.0000 0.04129  0.27648  0.96558  Biso   1.000  N
  O95      1.0000 0.01501  0.29092  0.13547  Biso   1.000  O
  H235     1.0000 0.05031  0.77951  0.11689  Biso   1.000  H
  H236     1.0000 0.05028  0.77951  0.11689  Biso   1.000  H
  C283     1.0000 0.11579  0.70661  0.19583  Biso   1.000  C
  C284     1.0000 0.11579  0.70661  0.19575  Biso   1.000  C
  C285     1.0000 0.08429  0.73910  0.93093  Biso   1.000  C
  C286     1.0000 0.08429  0.73910  0.93086  Biso   1.000  C
  C287     1.0000 0.06391  0.30630  0.71841  Biso   1.000  C
  C288     1.0000 0.06387  0.30630  0.71841  Biso   1.000  C
  H237     1.0000 0.03359  0.22788  0.84313  Biso   1.000  H
  H238     1.0000 0.03359  0.22788  0.84305  Biso   1.000  H
  C289     1.0000 0.09511  0.27450  0.98581  Biso   1.000  C
  C290     1.0000 0.09511  0.27450  0.98573  Biso   1.000  C
  N182     1.0000 0.14401  0.67850  0.11767  Biso   1.000  N
  H239     1.0000 0.12211  0.69111  0.26529  Biso   1.000  H
  H240     1.0000 0.12889  0.74199  0.19802  Biso   1.000  H
  N183     1.0000 0.14397  0.67850  0.11767  Biso   1.000  N
  N184     1.0000 0.12401  0.70238  0.93830  Biso   1.000  N
  H241     1.0000 0.07271  0.74070  0.85709  Biso   1.000  H
  H242     1.0000 0.09850  0.77288  0.94920  Biso   1.000  H
  N185     1.0000 0.12401  0.70238  0.93823  Biso   1.000  N
  N186     1.0000 0.12398  0.70238  0.93830  Biso   1.000  N
  N187     1.0000 0.12398  0.70238  0.93823  Biso   1.000  N
  N188     1.0000 0.10329  0.33780  0.76207  Biso   1.000  N
  H243     1.0000 0.05222  0.32150  0.65169  Biso   1.000  H
  H244     1.0000 0.07839  0.27229  0.70234  Biso   1.000  H
  H245     1.0000 0.07839  0.27229  0.70226  Biso   1.000  H
  H246     1.0000 0.05218  0.32150  0.65169  Biso   1.000  H
  N189     1.0000 0.12341  0.31739  0.94222  Biso   1.000  N
  H247     1.0000 0.10901  0.24251  0.95610  Biso   1.000  H
  N190     1.0000 0.12341  0.31739  0.94214  Biso   1.000  N
  H248     1.0000 0.10070  0.27351  0.06256  Biso   1.000  H
  C291     1.0000 0.17010  0.63500  0.14291  Biso   1.000  C
  C292     1.0000 0.16168  0.70109  0.02030  Biso   1.000  C
  C293     1.0000 0.17010  0.63500  0.14283  Biso   1.000  C
  C294     1.0000 0.16168  0.70109  0.02023  Biso   1.000  C
  C295     1.0000 0.13498  0.67008  0.85709  Biso   1.000  C
  C296     1.0000 0.11880  0.38118  0.71660  Biso   1.000  C
  C297     1.0000 0.13978  0.31880  0.83569  Biso   1.000  C
  C298     1.0000 0.14961  0.35041  0.00729  Biso   1.000  C
  O96      1.0000 0.16511  0.61021  0.22280  Biso   1.000  O
  N191     1.0000 0.20240  0.62400  0.06170  Biso   1.000  N
  O97      1.0000 0.16511  0.61021  0.22272  Biso   1.000  O
  O98      1.0000 0.16507  0.61021  0.22280  Biso   1.000  O
  O99      1.0000 0.16507  0.61021  0.22272  Biso   1.000  O
  C299     1.0000 0.20110  0.66170  0.97970  Biso   1.000  C
  H249     1.0000 0.17749  0.73521  0.03191  Biso   1.000  H
  O100     1.0000 0.11019  0.66509  0.77720  Biso   1.000  O
  N192     1.0000 0.17848  0.64399  0.88233  Biso   1.000  N
  N193     1.0000 0.17848  0.64399  0.88225  Biso   1.000  N
  O101     1.0000 0.09621  0.40381  0.64393  Biso   1.000  O
  N194     1.0000 0.16222  0.39669  0.76207  Biso   1.000  N
  O102     1.0000 0.09621  0.40381  0.64385  Biso   1.000  O
  N195     1.0000 0.16218  0.39669  0.76207  Biso   1.000  N
  C300     1.0000 0.18118  0.36020  0.83569  Biso   1.000  C
  H250     1.0000 0.15380  0.28509  0.81303  Biso   1.000  H
  H251     1.0000 0.15380  0.28509  0.81295  Biso   1.000  H
  N196     1.0000 0.18259  0.37661  0.94222  Biso   1.000  N
  N197     1.0000 0.18259  0.37661  0.94214  Biso   1.000  N
  O103     1.0000 0.14519  0.35479  0.09799  Biso   1.000  O
  O104     1.0000 0.14519  0.35479  0.09807  Biso   1.000  O
  C301     1.0000 0.23912  0.58431  0.06907  Biso   1.000  C
  C302     1.0000 0.23912  0.58431  0.06914  Biso   1.000  C
  C303     1.0000 0.23908  0.58431  0.06907  Biso   1.000  C
  C304     1.0000 0.23908  0.58431  0.06914  Biso   1.000  C
  H252     1.0000 0.23519  0.67751  0.96809  Biso   1.000  H
  C305     1.0000 0.20659  0.61581  0.80417  Biso   1.000  C
  C306     1.0000 0.19372  0.43611  0.71841  Biso   1.000  C
  C307     1.0000 0.19368  0.43611  0.71841  Biso   1.000  C
  H253     1.0000 0.21489  0.34618  0.81303  Biso   1.000  H
  H254     1.0000 0.21489  0.34618  0.81295  Biso   1.000  H
  C308     1.0000 0.22548  0.40491  0.98581  Biso   1.000  C
  C309     1.0000 0.22548  0.40491  0.98573  Biso   1.000  C
  N198     1.0000 0.22948  0.54039  0.00290  Biso   1.000  N
  H255     1.0000 0.24072  0.57269  0.14291  Biso   1.000  H
  H256     1.0000 0.27290  0.59848  0.05080  Biso   1.000  H
  N199     1.0000 0.22948  0.54039  0.00282  Biso   1.000  N
  H257     1.0000 0.24072  0.57269  0.14283  Biso   1.000  H
  H258     1.0000 0.24068  0.57269  0.14291  Biso   1.000  H
  H259     1.0000 0.24068  0.57269  0.14283  Biso   1.000  H
  N200     1.0000 0.20800  0.56218  0.82259  Biso   1.000  N
  H260     1.0000 0.19109  0.62209  0.73471  Biso   1.000  H
  H261     1.0000 0.24201  0.62891  0.80198  Biso   1.000  H
  H262     1.0000 0.19109  0.62209  0.73463  Biso   1.000  H
  H263     1.0000 0.24197  0.62891  0.80198  Biso   1.000  H
  N201     1.0000 0.20011  0.47960  0.78739  Biso   1.000  N
  H264     1.0000 0.17848  0.44780  0.65169  Biso   1.000  H
  H265     1.0000 0.22769  0.42160  0.70234  Biso   1.000  H
  H266     1.0000 0.22769  0.42160  0.70226  Biso   1.000  H
  N202     1.0000 0.20008  0.47960  0.78739  Biso   1.000  N
  N203     1.0000 0.22350  0.45869  0.96558  Biso   1.000  N
  H267     1.0000 0.25751  0.39101  0.95610  Biso   1.000  H
  H268     1.0000 0.25747  0.39101  0.95610  Biso   1.000  H
  H269     1.0000 0.22651  0.39931  0.06256  Biso   1.000  H
  C310     1.0000 0.21969  0.49419  0.04327  Biso   1.000  C
  C311     1.0000 0.24392  0.53769  0.89432  Biso   1.000  C
  C312     1.0000 0.24392  0.53769  0.89425  Biso   1.000  C
  C313     1.0000 0.24388  0.53769  0.89432  Biso   1.000  C
  C314     1.0000 0.24388  0.53769  0.89425  Biso   1.000  C
  C315     1.0000 0.18480  0.52699  0.75792  Biso   1.000  C
  C316     1.0000 0.18480  0.52699  0.75784  Biso   1.000  C
  C317     1.0000 0.23912  0.48101  0.86838  Biso   1.000  C
  C318     1.0000 0.23908  0.48101  0.86838  Biso   1.000  C
  O105     1.0000 0.20910  0.48501  0.13547  Biso   1.000  O
  H270     1.0000 0.27949  0.55030  0.88311  Biso   1.000  H
  H271     1.0000 0.27949  0.55030  0.88304  Biso   1.000  H
  O106     1.0000 0.15578  0.53780  0.68619  Biso   1.000  O
  H272     1.0000 0.27210  0.46639  0.84313  Biso   1.000  H
  H273     1.0000 0.27210  0.46639  0.84305  Biso   1.000  H
  C319     1.0000 0.76088  0.51899  0.13162  Biso   1.000  C
  C320     1.0000 0.75608  0.46231  0.10568  Biso   1.000  C
  N204     1.0000 0.79989  0.52040  0.21261  Biso   1.000  N
  H274     1.0000 0.72790  0.53361  0.15687  Biso   1.000  H
  N205     1.0000 0.77650  0.54131  0.03442  Biso   1.000  N
  N206     1.0000 0.77650  0.54131  0.03434  Biso   1.000  N
  H275     1.0000 0.72051  0.44970  0.11689  Biso   1.000  H
  N207     1.0000 0.77052  0.45961  0.99710  Biso   1.000  N
  N208     1.0000 0.77048  0.45961  0.99710  Biso   1.000  N
  N209     1.0000 0.79200  0.43778  0.17741  Biso   1.000  N
  N210     1.0000 0.79200  0.43778  0.17733  Biso   1.000  N
  C321     1.0000 0.76088  0.51899  0.13155  Biso   1.000  C
  C322     1.0000 0.81520  0.47301  0.24208  Biso   1.000  C
  C323     1.0000 0.80628  0.56389  0.28159  Biso   1.000  C
  C324     1.0000 0.80628  0.56389  0.28151  Biso   1.000  C
  C325     1.0000 0.78031  0.50581  0.95673  Biso   1.000  C
  C326     1.0000 0.78031  0.50581  0.95665  Biso   1.000  C
  C327     1.0000 0.77452  0.59509  0.01419  Biso   1.000  C
  C328     1.0000 0.77448  0.59509  0.01419  Biso   1.000  C
  C329     1.0000 0.76088  0.41569  0.93093  Biso   1.000  C
  C330     1.0000 0.76088  0.41569  0.93086  Biso   1.000  C
  C331     1.0000 0.79341  0.38419  0.19583  Biso   1.000  C
  C332     1.0000 0.79341  0.38419  0.19575  Biso   1.000  C
  O107     1.0000 0.84422  0.46220  0.31381  Biso   1.000  O
  O108     1.0000 0.84422  0.46220  0.31373  Biso   1.000  O
  O109     1.0000 0.84418  0.46220  0.31381  Biso   1.000  O
  O110     1.0000 0.84418  0.46220  0.31373  Biso   1.000  O
  H276     1.0000 0.77231  0.57840  0.29766  Biso   1.000  H
  N211     1.0000 0.83778  0.60331  0.23793  Biso   1.000  N
  H277     1.0000 0.82152  0.55220  0.34831  Biso   1.000  H
  N212     1.0000 0.83778  0.60331  0.23785  Biso   1.000  N
  H278     1.0000 0.82152  0.55220  0.34823  Biso   1.000  H
  H279     1.0000 0.82148  0.55220  0.34831  Biso   1.000  H
  H280     1.0000 0.82148  0.55220  0.34823  Biso   1.000  H
  O111     1.0000 0.79090  0.51499  0.86453  Biso   1.000  O
  O112     1.0000 0.79090  0.51499  0.86446  Biso   1.000  O
  N213     1.0000 0.81741  0.62339  0.05778  Biso   1.000  N
  H281     1.0000 0.77349  0.60069  0.93744  Biso   1.000  H
  H282     1.0000 0.77349  0.60069  0.93736  Biso   1.000  H
  H283     1.0000 0.74249  0.60899  0.04390  Biso   1.000  H
  H284     1.0000 0.74249  0.60899  0.04382  Biso   1.000  H
  N214     1.0000 0.79760  0.37600  0.93830  Biso   1.000  N
  H285     1.0000 0.75928  0.42731  0.85709  Biso   1.000  H
  H286     1.0000 0.72710  0.40149  0.94920  Biso   1.000  H
  N215     1.0000 0.79760  0.37600  0.93823  Biso   1.000  N
  H287     1.0000 0.80891  0.37791  0.26529  Biso   1.000  H
  H288     1.0000 0.75799  0.37109  0.19802  Biso   1.000  H
  N216     1.0000 0.82152  0.35601  0.11767  Biso   1.000  N
  N217     1.0000 0.82148  0.35601  0.11767  Biso   1.000  N
  C333     1.0000 0.88120  0.61878  0.28340  Biso   1.000  C
  C334     1.0000 0.81882  0.63980  0.16431  Biso   1.000  C
  C335     1.0000 0.88120  0.61878  0.28332  Biso   1.000  C
  C336     1.0000 0.81882  0.63980  0.16424  Biso   1.000  C
  C337     1.0000 0.81878  0.63980  0.16431  Biso   1.000  C
  C338     1.0000 0.81878  0.63980  0.16424  Biso   1.000  C
  C339     1.0000 0.85039  0.64959  0.99271  Biso   1.000  C
  C340     1.0000 0.85039  0.64959  0.99263  Biso   1.000  C
  C341     1.0000 0.82990  0.36500  0.85709  Biso   1.000  C
  C342     1.0000 0.79890  0.33830  0.02030  Biso   1.000  C
  C343     1.0000 0.79890  0.33830  0.02023  Biso   1.000  C
  C344     1.0000 0.86502  0.32988  0.14291  Biso   1.000  C
  C345     1.0000 0.86502  0.32988  0.14283  Biso   1.000  C
  C346     1.0000 0.86498  0.32988  0.14291  Biso   1.000  C
  C347     1.0000 0.86498  0.32988  0.14283  Biso   1.000  C
  O113     1.0000 0.90379  0.59619  0.35607  Biso   1.000  O
  N218     1.0000 0.89671  0.66220  0.23793  Biso   1.000  N
  N219     1.0000 0.89671  0.66220  0.23785  Biso   1.000  N
  H289     1.0000 0.78511  0.65378  0.18697  Biso   1.000  H
  C348     1.0000 0.86022  0.68120  0.16431  Biso   1.000  C
  C349     1.0000 0.86022  0.68120  0.16424  Biso   1.000  C
  C350     1.0000 0.86018  0.68120  0.16431  Biso   1.000  C
  C351     1.0000 0.86018  0.68120  0.16424  Biso   1.000  C
  N220     1.0000 0.87659  0.68261  0.05778  Biso   1.000  N
  O114     1.0000 0.85481  0.64521  0.90201  Biso   1.000  O
  O115     1.0000 0.85481  0.64521  0.90193  Biso   1.000  O
  O116     1.0000 0.83489  0.38979  0.77720  Biso   1.000  O
  N221     1.0000 0.85599  0.32150  0.88233  Biso   1.000  N
  N222     1.0000 0.85599  0.32150  0.88225  Biso   1.000  N
  H290     1.0000 0.76481  0.32249  0.03191  Biso   1.000  H
  C352     1.0000 0.83832  0.29891  0.97970  Biso   1.000  C
  C353     1.0000 0.83828  0.29891  0.97970  Biso   1.000  C
  N223     1.0000 0.87599  0.29758  0.06170  Biso   1.000  N
  O117     1.0000 0.88981  0.33491  0.22280  Biso   1.000  O
  O118     1.0000 0.88981  0.33491  0.22272  Biso   1.000  O
  C354     1.0000 0.93609  0.69370  0.28159  Biso   1.000  C
  C355     1.0000 0.93609  0.69370  0.28151  Biso   1.000  C
  H291     1.0000 0.84620  0.71491  0.18697  Biso   1.000  H
  C356     1.0000 0.90489  0.72550  0.01419  Biso   1.000  C
  C357     1.0000 0.88421  0.29339  0.80417  Biso   1.000  C
  C358     1.0000 0.88417  0.29339  0.80417  Biso   1.000  C
  H292     1.0000 0.82251  0.26479  0.96809  Biso   1.000  H
  C359     1.0000 0.91571  0.26090  0.06907  Biso   1.000  C
  C360     1.0000 0.91571  0.26090  0.06914  Biso   1.000  C
  N224     1.0000 0.97958  0.70010  0.21261  Biso   1.000  N
  H293     1.0000 0.94778  0.67850  0.34831  Biso   1.000  H
  H294     1.0000 0.92161  0.72771  0.29766  Biso   1.000  H
  H295     1.0000 0.94778  0.67850  0.34823  Biso   1.000  H
  H296     1.0000 0.92158  0.72771  0.29766  Biso   1.000  H
  H297     1.0000 0.89930  0.72649  0.93744  Biso   1.000  H
  H298     1.0000 0.89930  0.72649  0.93736  Biso   1.000  H
  N225     1.0000 0.95871  0.72348  0.03442  Biso   1.000  N
  H299     1.0000 0.89099  0.75749  0.04390  Biso   1.000  H
  N226     1.0000 0.95871  0.72348  0.03434  Biso   1.000  N
  H300     1.0000 0.89099  0.75749  0.04382  Biso   1.000  H
  N227     1.0000 0.95867  0.72348  0.03442  Biso   1.000  N
  N228     1.0000 0.95867  0.72348  0.03434  Biso   1.000  N
  N229     1.0000 0.93780  0.29198  0.82259  Biso   1.000  N
  H301     1.0000 0.87789  0.30889  0.73471  Biso   1.000  H
  H302     1.0000 0.87111  0.25801  0.80198  Biso   1.000  H
  H303     1.0000 0.87789  0.30889  0.73463  Biso   1.000  H
  H304     1.0000 0.90150  0.22708  0.05080  Biso   1.000  H
  N230     1.0000 0.95959  0.27050  0.00290  Biso   1.000  N
  H305     1.0000 0.92729  0.25930  0.14291  Biso   1.000  H
  N231     1.0000 0.95959  0.27050  0.00282  Biso   1.000  N
  H306     1.0000 0.92729  0.25930  0.14283  Biso   1.000  H
  C361     1.0000 0.98099  0.73910  0.13162  Biso   1.000  C
  C362     1.0000 0.98099  0.73910  0.13155  Biso   1.000  C
  C363     1.0000 0.02700  0.68478  0.24208  Biso   1.000  C
  C364     1.0000 0.99421  0.71971  0.95673  Biso   1.000  C
  C365     1.0000 0.99421  0.71971  0.95665  Biso   1.000  C
  C366     1.0000 0.97300  0.31522  0.75792  Biso   1.000  C
  C367     1.0000 0.96229  0.25610  0.89432  Biso   1.000  C
  C368     1.0000 0.97300  0.31522  0.75784  Biso   1.000  C
  C369     1.0000 0.96229  0.25610  0.89425  Biso   1.000  C
  C370     1.0000 0.00579  0.28029  0.04327  Biso   1.000  C
  H307     1.0000 0.96641  0.77208  0.15687  Biso   1.000  H
  C371     1.0000 0.03771  0.74390  0.10568  Biso   1.000  C
  O119     1.0000 0.03778  0.65580  0.31381  Biso   1.000  O
  N232     1.0000 0.06220  0.70798  0.17741  Biso   1.000  N
  O120     1.0000 0.03778  0.65580  0.31373  Biso   1.000  O
  N233     1.0000 0.06220  0.70798  0.17733  Biso   1.000  N
  O121     1.0000 0.98499  0.70908  0.86453  Biso   1.000  O
  O122     1.0000 0.98499  0.70908  0.86446  Biso   1.000  O
  N234     1.0000 0.04041  0.72950  0.99710  Biso   1.000  N
  N235     1.0000 0.04037  0.72950  0.99710  Biso   1.000  N
  O123     1.0000 0.96222  0.34420  0.68619  Biso   1.000  O
  O124     1.0000 0.96218  0.34420  0.68619  Biso   1.000  O
  N236     1.0000 0.02042  0.29990  0.78739  Biso   1.000  N
  N237     1.0000 0.02038  0.29990  0.78739  Biso   1.000  N
  H308     1.0000 0.94969  0.22049  0.88311  Biso   1.000  H
  H309     1.0000 0.94969  0.22049  0.88304  Biso   1.000  H
  C372     1.0000 0.01901  0.26090  0.86838  Biso   1.000  C
  N238     1.0000 0.04129  0.27648  0.96558  Biso   1.000  N
  O125     1.0000 0.01501  0.29092  0.13547  Biso   1.000  O
  H310     1.0000 0.05031  0.77951  0.11689  Biso   1.000  H
  H311     1.0000 0.05028  0.77951  0.11689  Biso   1.000  H
  C373     1.0000 0.11579  0.70661  0.19583  Biso   1.000  C
  C374     1.0000 0.11579  0.70661  0.19575  Biso   1.000  C
  C375     1.0000 0.08429  0.73910  0.93093  Biso   1.000  C
  C376     1.0000 0.08429  0.73910  0.93086  Biso   1.000  C
  C377     1.0000 0.06391  0.30630  0.71841  Biso   1.000  C
  C378     1.0000 0.06387  0.30630  0.71841  Biso   1.000  C
  H312     1.0000 0.03359  0.22788  0.84313  Biso   1.000  H
  H313     1.0000 0.03359  0.22788  0.84305  Biso   1.000  H
  C379     1.0000 0.09511  0.27450  0.98581  Biso   1.000  C
  C380     1.0000 0.09511  0.27450  0.98573  Biso   1.000  C
  N239     1.0000 0.14401  0.67850  0.11767  Biso   1.000  N
  H314     1.0000 0.12211  0.69111  0.26529  Biso   1.000  H
  H315     1.0000 0.12889  0.74199  0.19802  Biso   1.000  H
  N240     1.0000 0.14397  0.67850  0.11767  Biso   1.000  N
  N241     1.0000 0.12401  0.70238  0.93830  Biso   1.000  N
  H316     1.0000 0.07271  0.74070  0.85709  Biso   1.000  H
  H317     1.0000 0.09850  0.77288  0.94920  Biso   1.000  H
  N242     1.0000 0.12401  0.70238  0.93823  Biso   1.000  N
  N243     1.0000 0.12398  0.70238  0.93830  Biso   1.000  N
  N244     1.0000 0.12398  0.70238  0.93823  Biso   1.000  N
  N245     1.0000 0.10329  0.33780  0.76207  Biso   1.000  N
  H318     1.0000 0.05222  0.32150  0.65169  Biso   1.000  H
  H319     1.0000 0.07839  0.27229  0.70234  Biso   1.000  H
  H320     1.0000 0.07839  0.27229  0.70226  Biso   1.000  H
  H321     1.0000 0.05218  0.32150  0.65169  Biso   1.000  H
  N246     1.0000 0.12341  0.31739  0.94222  Biso   1.000  N
  H322     1.0000 0.10901  0.24251  0.95610  Biso   1.000  H
  N247     1.0000 0.12341  0.31739  0.94214  Biso   1.000  N
  H323     1.0000 0.10070  0.27351  0.06256  Biso   1.000  H
  C381     1.0000 0.17010  0.63500  0.14291  Biso   1.000  C
  C382     1.0000 0.16168  0.70109  0.02030  Biso   1.000  C
  C383     1.0000 0.17010  0.63500  0.14283  Biso   1.000  C
  C384     1.0000 0.16168  0.70109  0.02023  Biso   1.000  C
  C385     1.0000 0.13498  0.67008  0.85709  Biso   1.000  C
  C386     1.0000 0.11880  0.38118  0.71660  Biso   1.000  C
  C387     1.0000 0.13978  0.31880  0.83569  Biso   1.000  C
  C388     1.0000 0.14961  0.35041  0.00729  Biso   1.000  C
  O126     1.0000 0.16511  0.61021  0.22280  Biso   1.000  O
  N248     1.0000 0.20240  0.62400  0.06170  Biso   1.000  N
  O127     1.0000 0.16511  0.61021  0.22272  Biso   1.000  O
  O128     1.0000 0.16507  0.61021  0.22280  Biso   1.000  O
  O129     1.0000 0.16507  0.61021  0.22272  Biso   1.000  O
  C389     1.0000 0.20110  0.66170  0.97970  Biso   1.000  C
  H324     1.0000 0.17749  0.73521  0.03191  Biso   1.000  H
  O130     1.0000 0.11019  0.66509  0.77720  Biso   1.000  O
  N249     1.0000 0.17848  0.64399  0.88233  Biso   1.000  N
  N250     1.0000 0.17848  0.64399  0.88225  Biso   1.000  N
  O131     1.0000 0.09621  0.40381  0.64393  Biso   1.000  O
  N251     1.0000 0.16222  0.39669  0.76207  Biso   1.000  N
  O132     1.0000 0.09621  0.40381  0.64385  Biso   1.000  O
  N252     1.0000 0.16218  0.39669  0.76207  Biso   1.000  N
  C390     1.0000 0.18118  0.36020  0.83569  Biso   1.000  C
  H325     1.0000 0.15380  0.28509  0.81303  Biso   1.000  H
  H326     1.0000 0.15380  0.28509  0.81295  Biso   1.000  H
  N253     1.0000 0.18259  0.37661  0.94222  Biso   1.000  N
  N254     1.0000 0.18259  0.37661  0.94214  Biso   1.000  N
  O133     1.0000 0.14519  0.35479  0.09799  Biso   1.000  O
  O134     1.0000 0.14519  0.35479  0.09807  Biso   1.000  O
  C391     1.0000 0.23912  0.58431  0.06907  Biso   1.000  C
  C392     1.0000 0.23912  0.58431  0.06914  Biso   1.000  C
  C393     1.0000 0.23908  0.58431  0.06907  Biso   1.000  C
  C394     1.0000 0.23908  0.58431  0.06914  Biso   1.000  C
  H327     1.0000 0.23519  0.67751  0.96809  Biso   1.000  H
  C395     1.0000 0.20659  0.61581  0.80417  Biso   1.000  C
  C396     1.0000 0.19372  0.43611  0.71841  Biso   1.000  C
  C397     1.0000 0.19368  0.43611  0.71841  Biso   1.000  C
  H328     1.0000 0.21489  0.34618  0.81303  Biso   1.000  H
  H329     1.0000 0.21489  0.34618  0.81295  Biso   1.000  H
  C398     1.0000 0.22548  0.40491  0.98581  Biso   1.000  C
  C399     1.0000 0.22548  0.40491  0.98573  Biso   1.000  C
  N255     1.0000 0.22948  0.54039  0.00290  Biso   1.000  N
  H330     1.0000 0.24072  0.57269  0.14291  Biso   1.000  H
  H331     1.0000 0.27290  0.59848  0.05080  Biso   1.000  H
  N256     1.0000 0.22948  0.54039  0.00282  Biso   1.000  N
  H332     1.0000 0.24072  0.57269  0.14283  Biso   1.000  H
  H333     1.0000 0.24068  0.57269  0.14291  Biso   1.000  H
  H334     1.0000 0.24068  0.57269  0.14283  Biso   1.000  H
  N257     1.0000 0.20800  0.56218  0.82259  Biso   1.000  N
  H335     1.0000 0.19109  0.62209  0.73471  Biso   1.000  H
  H336     1.0000 0.24201  0.62891  0.80198  Biso   1.000  H
  H337     1.0000 0.19109  0.62209  0.73463  Biso   1.000  H
  H338     1.0000 0.24197  0.62891  0.80198  Biso   1.000  H
  N258     1.0000 0.20011  0.47960  0.78739  Biso   1.000  N
  H339     1.0000 0.17848  0.44780  0.65169  Biso   1.000  H
  H340     1.0000 0.22769  0.42160  0.70234  Biso   1.000  H
  H341     1.0000 0.22769  0.42160  0.70226  Biso   1.000  H
  N259     1.0000 0.20008  0.47960  0.78739  Biso   1.000  N
  N260     1.0000 0.22350  0.45869  0.96558  Biso   1.000  N
  H342     1.0000 0.25751  0.39101  0.95610  Biso   1.000  H
  H343     1.0000 0.25747  0.39101  0.95610  Biso   1.000  H
  H344     1.0000 0.22651  0.39931  0.06256  Biso   1.000  H
  C400     1.0000 0.21969  0.49419  0.04327  Biso   1.000  C
  C401     1.0000 0.24392  0.53769  0.89432  Biso   1.000  C
  C402     1.0000 0.24392  0.53769  0.89425  Biso   1.000  C
  C403     1.0000 0.24388  0.53769  0.89432  Biso   1.000  C
  C404     1.0000 0.24388  0.53769  0.89425  Biso   1.000  C
  C405     1.0000 0.18480  0.52699  0.75792  Biso   1.000  C
  C406     1.0000 0.18480  0.52699  0.75784  Biso   1.000  C
  C407     1.0000 0.23912  0.48101  0.86838  Biso   1.000  C
  C408     1.0000 0.23908  0.48101  0.86838  Biso   1.000  C
  O135     1.0000 0.20910  0.48501  0.13547  Biso   1.000  O
  H345     1.0000 0.27949  0.55030  0.88311  Biso   1.000  H
  H346     1.0000 0.27949  0.55030  0.88304  Biso   1.000  H
  O136     1.0000 0.15578  0.53780  0.68619  Biso   1.000  O
  H347     1.0000 0.27210  0.46639  0.84313  Biso   1.000  H
  H348     1.0000 0.27210  0.46639  0.84305  Biso   1.000  H
  C409     1.0000 0.51899  0.76088  0.13162  Biso   1.000  C
  C410     1.0000 0.46231  0.75608  0.10568  Biso   1.000  C
  N261     1.0000 0.52040  0.79989  0.21261  Biso   1.000  N
  N262     1.0000 0.54131  0.77650  0.03442  Biso   1.000  N
  H349     1.0000 0.53361  0.72790  0.15687  Biso   1.000  H
  N263     1.0000 0.54131  0.77650  0.03434  Biso   1.000  N
  N264     1.0000 0.43778  0.79200  0.17741  Biso   1.000  N
  H350     1.0000 0.44970  0.72051  0.11689  Biso   1.000  H
  N265     1.0000 0.43778  0.79200  0.17733  Biso   1.000  N
  C411     1.0000 0.51899  0.76088  0.13155  Biso   1.000  C
  N266     1.0000 0.45961  0.77052  0.99710  Biso   1.000  N
  N267     1.0000 0.45961  0.77048  0.99710  Biso   1.000  N
  C412     1.0000 0.47301  0.81520  0.24208  Biso   1.000  C
  C413     1.0000 0.56389  0.80628  0.28159  Biso   1.000  C
  C414     1.0000 0.56389  0.80628  0.28151  Biso   1.000  C
  C415     1.0000 0.50581  0.78031  0.95673  Biso   1.000  C
  C416     1.0000 0.50581  0.78031  0.95665  Biso   1.000  C
  C417     1.0000 0.59509  0.77452  0.01419  Biso   1.000  C
  C418     1.0000 0.59509  0.77448  0.01419  Biso   1.000  C
  C419     1.0000 0.38419  0.79341  0.19583  Biso   1.000  C
  C420     1.0000 0.38419  0.79341  0.19575  Biso   1.000  C
  C421     1.0000 0.41569  0.76088  0.93093  Biso   1.000  C
  C422     1.0000 0.41569  0.76088  0.93086  Biso   1.000  C
  O137     1.0000 0.46220  0.84422  0.31381  Biso   1.000  O
  O138     1.0000 0.46220  0.84422  0.31373  Biso   1.000  O
  O139     1.0000 0.46220  0.84418  0.31381  Biso   1.000  O
  O140     1.0000 0.46220  0.84418  0.31373  Biso   1.000  O
  N268     1.0000 0.60331  0.83778  0.23793  Biso   1.000  N
  H351     1.0000 0.55220  0.82152  0.34831  Biso   1.000  H
  H352     1.0000 0.57840  0.77231  0.29766  Biso   1.000  H
  N269     1.0000 0.60331  0.83778  0.23785  Biso   1.000  N
  H353     1.0000 0.55220  0.82152  0.34823  Biso   1.000  H
  H354     1.0000 0.55220  0.82148  0.34831  Biso   1.000  H
  H355     1.0000 0.55220  0.82148  0.34823  Biso   1.000  H
  O141     1.0000 0.51499  0.79090  0.86453  Biso   1.000  O
  O142     1.0000 0.51499  0.79090  0.86446  Biso   1.000  O
  N270     1.0000 0.62339  0.81741  0.05778  Biso   1.000  N
  H356     1.0000 0.60899  0.74249  0.04390  Biso   1.000  H
  H357     1.0000 0.60899  0.74249  0.04382  Biso   1.000  H
  H358     1.0000 0.60069  0.77349  0.93744  Biso   1.000  H
  H359     1.0000 0.60069  0.77349  0.93736  Biso   1.000  H
  N271     1.0000 0.35601  0.82152  0.11767  Biso   1.000  N
  H360     1.0000 0.37791  0.80891  0.26529  Biso   1.000  H
  H361     1.0000 0.37109  0.75799  0.19802  Biso   1.000  H
  N272     1.0000 0.35601  0.82148  0.11767  Biso   1.000  N
  N273     1.0000 0.37600  0.79760  0.93830  Biso   1.000  N
  H362     1.0000 0.42731  0.75928  0.85709  Biso   1.000  H
  H363     1.0000 0.40149  0.72710  0.94920  Biso   1.000  H
  N274     1.0000 0.37600  0.79760  0.93823  Biso   1.000  N
  C423     1.0000 0.61878  0.88120  0.28340  Biso   1.000  C
  C424     1.0000 0.63980  0.81882  0.16431  Biso   1.000  C
  C425     1.0000 0.61878  0.88120  0.28332  Biso   1.000  C
  C426     1.0000 0.63980  0.81882  0.16424  Biso   1.000  C
  C427     1.0000 0.63980  0.81878  0.16431  Biso   1.000  C
  C428     1.0000 0.63980  0.81878  0.16424  Biso   1.000  C
  C429     1.0000 0.64959  0.85039  0.99271  Biso   1.000  C
  C430     1.0000 0.64959  0.85039  0.99263  Biso   1.000  C
  C431     1.0000 0.32988  0.86502  0.14291  Biso   1.000  C
  C432     1.0000 0.33830  0.79890  0.02030  Biso   1.000  C
  C433     1.0000 0.32988  0.86502  0.14283  Biso   1.000  C
  C434     1.0000 0.33830  0.79890  0.02023  Biso   1.000  C
  C435     1.0000 0.32988  0.86498  0.14291  Biso   1.000  C
  C436     1.0000 0.32988  0.86498  0.14283  Biso   1.000  C
  C437     1.0000 0.36500  0.82990  0.85709  Biso   1.000  C
  O143     1.0000 0.59619  0.90379  0.35607  Biso   1.000  O
  N275     1.0000 0.66220  0.89671  0.23793  Biso   1.000  N
  N276     1.0000 0.66220  0.89671  0.23785  Biso   1.000  N
  C438     1.0000 0.68120  0.86022  0.16431  Biso   1.000  C
  H364     1.0000 0.65378  0.78511  0.18697  Biso   1.000  H
  C439     1.0000 0.68120  0.86022  0.16424  Biso   1.000  C
  C440     1.0000 0.68120  0.86018  0.16431  Biso   1.000  C
  C441     1.0000 0.68120  0.86018  0.16424  Biso   1.000  C
  N277     1.0000 0.68261  0.87659  0.05778  Biso   1.000  N
  O144     1.0000 0.64521  0.85481  0.90201  Biso   1.000  O
  O145     1.0000 0.64521  0.85481  0.90193  Biso   1.000  O
  O146     1.0000 0.33491  0.88981  0.22280  Biso   1.000  O
  N278     1.0000 0.29758  0.87599  0.06170  Biso   1.000  N
  O147     1.0000 0.33491  0.88981  0.22272  Biso   1.000  O
  H365     1.0000 0.32249  0.76481  0.03191  Biso   1.000  H
  C442     1.0000 0.29891  0.83832  0.97970  Biso   1.000  C
  C443     1.0000 0.29891  0.83828  0.97970  Biso   1.000  C
  O148     1.0000 0.38979  0.83489  0.77720  Biso   1.000  O
  N279     1.0000 0.32150  0.85599  0.88233  Biso   1.000  N
  N280     1.0000 0.32150  0.85599  0.88225  Biso   1.000  N
  C444     1.0000 0.69370  0.93609  0.28159  Biso   1.000  C
  C445     1.0000 0.69370  0.93609  0.28151  Biso   1.000  C
  H366     1.0000 0.71491  0.84620  0.18697  Biso   1.000  H
  C446     1.0000 0.72550  0.90489  0.01419  Biso   1.000  C
  C447     1.0000 0.26090  0.91571  0.06907  Biso   1.000  C
  C448     1.0000 0.26090  0.91571  0.06914  Biso   1.000  C
  H367     1.0000 0.26479  0.82251  0.96809  Biso   1.000  H
  C449     1.0000 0.29339  0.88421  0.80417  Biso   1.000  C
  C450     1.0000 0.29339  0.88417  0.80417  Biso   1.000  C
  N281     1.0000 0.70010  0.97958  0.21261  Biso   1.000  N
  H368     1.0000 0.67850  0.94778  0.34831  Biso   1.000  H
  H369     1.0000 0.72771  0.92161  0.29766  Biso   1.000  H
  H370     1.0000 0.67850  0.94778  0.34823  Biso   1.000  H
  H371     1.0000 0.72771  0.92158  0.29766  Biso   1.000  H
  N282     1.0000 0.72348  0.95871  0.03442  Biso   1.000  N
  H372     1.0000 0.75749  0.89099  0.04390  Biso   1.000  H
  N283     1.0000 0.72348  0.95871  0.03434  Biso   1.000  N
  H373     1.0000 0.75749  0.89099  0.04382  Biso   1.000  H
  N284     1.0000 0.72348  0.95867  0.03442  Biso   1.000  N
  N285     1.0000 0.72348  0.95867  0.03434  Biso   1.000  N
  H374     1.0000 0.72649  0.89930  0.93744  Biso   1.000  H
  H375     1.0000 0.72649  0.89930  0.93736  Biso   1.000  H
  N286     1.0000 0.27050  0.95959  0.00290  Biso   1.000  N
  H376     1.0000 0.25930  0.92729  0.14291  Biso   1.000  H
  H377     1.0000 0.22708  0.90150  0.05080  Biso   1.000  H
  N287     1.0000 0.27050  0.95959  0.00282  Biso   1.000  N
  H378     1.0000 0.25930  0.92729  0.14283  Biso   1.000  H
  N288     1.0000 0.29198  0.93780  0.82259  Biso   1.000  N
  H379     1.0000 0.30889  0.87789  0.73471  Biso   1.000  H
  H380     1.0000 0.25801  0.87111  0.80198  Biso   1.000  H
  H381     1.0000 0.30889  0.87789  0.73463  Biso   1.000  H
  C451     1.0000 0.73910  0.98099  0.13162  Biso   1.000  C
  C452     1.0000 0.73910  0.98099  0.13155  Biso   1.000  C
  C453     1.0000 0.68478  0.02700  0.24208  Biso   1.000  C
  C454     1.0000 0.71971  0.99421  0.95673  Biso   1.000  C
  C455     1.0000 0.71971  0.99421  0.95665  Biso   1.000  C
  C456     1.0000 0.25610  0.96229  0.89432  Biso   1.000  C
  C457     1.0000 0.25610  0.96229  0.89425  Biso   1.000  C
  C458     1.0000 0.28029  0.00579  0.04327  Biso   1.000  C
  C459     1.0000 0.31522  0.97300  0.75792  Biso   1.000  C
  C460     1.0000 0.31522  0.97300  0.75784  Biso   1.000  C
  H382     1.0000 0.77208  0.96641  0.15687  Biso   1.000  H
  C461     1.0000 0.74390  0.03771  0.10568  Biso   1.000  C
  O149     1.0000 0.65580  0.03778  0.31381  Biso   1.000  O
  N289     1.0000 0.70798  0.06220  0.17741  Biso   1.000  N
  O150     1.0000 0.65580  0.03778  0.31373  Biso   1.000  O
  N290     1.0000 0.70798  0.06220  0.17733  Biso   1.000  N
  O151     1.0000 0.70908  0.98499  0.86453  Biso   1.000  O
  O152     1.0000 0.70908  0.98499  0.86446  Biso   1.000  O
  N291     1.0000 0.72950  0.04041  0.99710  Biso   1.000  N
  N292     1.0000 0.72950  0.04037  0.99710  Biso   1.000  N
  H383     1.0000 0.22049  0.94969  0.88311  Biso   1.000  H
  H384     1.0000 0.22049  0.94969  0.88304  Biso   1.000  H
  C462     1.0000 0.26090  0.01901  0.86838  Biso   1.000  C
  N293     1.0000 0.27648  0.04129  0.96558  Biso   1.000  N
  O153     1.0000 0.29092  0.01501  0.13547  Biso   1.000  O
  O154     1.0000 0.34420  0.96222  0.68619  Biso   1.000  O
  O155     1.0000 0.34420  0.96218  0.68619  Biso   1.000  O
  N294     1.0000 0.29990  0.02042  0.78739  Biso   1.000  N
  N295     1.0000 0.29990  0.02038  0.78739  Biso   1.000  N
  H385     1.0000 0.77951  0.05031  0.11689  Biso   1.000  H
  H386     1.0000 0.77951  0.05028  0.11689  Biso   1.000  H
  C463     1.0000 0.70661  0.11579  0.19583  Biso   1.000  C
  C464     1.0000 0.70661  0.11579  0.19575  Biso   1.000  C
  C465     1.0000 0.73910  0.08429  0.93093  Biso   1.000  C
  C466     1.0000 0.73910  0.08429  0.93086  Biso   1.000  C
  H387     1.0000 0.22788  0.03359  0.84313  Biso   1.000  H
  H388     1.0000 0.22788  0.03359  0.84305  Biso   1.000  H
  C467     1.0000 0.27450  0.09511  0.98581  Biso   1.000  C
  C468     1.0000 0.27450  0.09511  0.98573  Biso   1.000  C
  C469     1.0000 0.30630  0.06391  0.71841  Biso   1.000  C
  C470     1.0000 0.30630  0.06387  0.71841  Biso   1.000  C
  N296     1.0000 0.67850  0.14401  0.11767  Biso   1.000  N
  H389     1.0000 0.69111  0.12211  0.26529  Biso   1.000  H
  H390     1.0000 0.74199  0.12889  0.19802  Biso   1.000  H
  N297     1.0000 0.67850  0.14397  0.11767  Biso   1.000  N
  N298     1.0000 0.70238  0.12401  0.93830  Biso   1.000  N
  H391     1.0000 0.74070  0.07271  0.85709  Biso   1.000  H
  H392     1.0000 0.77288  0.09850  0.94920  Biso   1.000  H
  N299     1.0000 0.70238  0.12401  0.93823  Biso   1.000  N
  N300     1.0000 0.70238  0.12398  0.93830  Biso   1.000  N
  N301     1.0000 0.70238  0.12398  0.93823  Biso   1.000  N
  N302     1.0000 0.31739  0.12341  0.94222  Biso   1.000  N
  H393     1.0000 0.24251  0.10901  0.95610  Biso   1.000  H
  N303     1.0000 0.31739  0.12341  0.94214  Biso   1.000  N
  H394     1.0000 0.27351  0.10070  0.06256  Biso   1.000  H
  N304     1.0000 0.33780  0.10329  0.76207  Biso   1.000  N
  H395     1.0000 0.32150  0.05222  0.65169  Biso   1.000  H
  H396     1.0000 0.27229  0.07839  0.70234  Biso   1.000  H
  H397     1.0000 0.27229  0.07839  0.70226  Biso   1.000  H
  H398     1.0000 0.32150  0.05218  0.65169  Biso   1.000  H
  C471     1.0000 0.63500  0.17010  0.14291  Biso   1.000  C
  C472     1.0000 0.70109  0.16168  0.02030  Biso   1.000  C
  C473     1.0000 0.63500  0.17010  0.14283  Biso   1.000  C
  C474     1.0000 0.70109  0.16168  0.02023  Biso   1.000  C
  C475     1.0000 0.67008  0.13498  0.85709  Biso   1.000  C
  C476     1.0000 0.31880  0.13978  0.83569  Biso   1.000  C
  C477     1.0000 0.35041  0.14961  0.00729  Biso   1.000  C
  C478     1.0000 0.38118  0.11880  0.71660  Biso   1.000  C
  O156     1.0000 0.61021  0.16511  0.22280  Biso   1.000  O
  N305     1.0000 0.62400  0.20240  0.06170  Biso   1.000  N
  O157     1.0000 0.61021  0.16511  0.22272  Biso   1.000  O
  O158     1.0000 0.61021  0.16507  0.22280  Biso   1.000  O
  O159     1.0000 0.61021  0.16507  0.22272  Biso   1.000  O
  C479     1.0000 0.66170  0.20110  0.97970  Biso   1.000  C
  H399     1.0000 0.73521  0.17749  0.03191  Biso   1.000  H
  O160     1.0000 0.66509  0.11019  0.77720  Biso   1.000  O
  N306     1.0000 0.64399  0.17848  0.88233  Biso   1.000  N
  N307     1.0000 0.64399  0.17848  0.88225  Biso   1.000  N
  H400     1.0000 0.28509  0.15380  0.81303  Biso   1.000  H
  C480     1.0000 0.36020  0.18118  0.83569  Biso   1.000  C
  H401     1.0000 0.28509  0.15380  0.81295  Biso   1.000  H
  N308     1.0000 0.37661  0.18259  0.94222  Biso   1.000  N
  N309     1.0000 0.37661  0.18259  0.94214  Biso   1.000  N
  O161     1.0000 0.35479  0.14519  0.09799  Biso   1.000  O
  O162     1.0000 0.35479  0.14519  0.09807  Biso   1.000  O
  O163     1.0000 0.40381  0.09621  0.64393  Biso   1.000  O
  N310     1.0000 0.39669  0.16222  0.76207  Biso   1.000  N
  O164     1.0000 0.40381  0.09621  0.64385  Biso   1.000  O
  N311     1.0000 0.39669  0.16218  0.76207  Biso   1.000  N
  C481     1.0000 0.58431  0.23912  0.06907  Biso   1.000  C
  C482     1.0000 0.58431  0.23912  0.06914  Biso   1.000  C
  C483     1.0000 0.58431  0.23908  0.06907  Biso   1.000  C
  C484     1.0000 0.58431  0.23908  0.06914  Biso   1.000  C
  H402     1.0000 0.67751  0.23519  0.96809  Biso   1.000  H
  C485     1.0000 0.61581  0.20659  0.80417  Biso   1.000  C
  H403     1.0000 0.34618  0.21489  0.81303  Biso   1.000  H
  H404     1.0000 0.34618  0.21489  0.81295  Biso   1.000  H
  C486     1.0000 0.40491  0.22548  0.98581  Biso   1.000  C
  C487     1.0000 0.40491  0.22548  0.98573  Biso   1.000  C
  C488     1.0000 0.43611  0.19372  0.71841  Biso   1.000  C
  C489     1.0000 0.43611  0.19368  0.71841  Biso   1.000  C
  N312     1.0000 0.54039  0.22948  0.00290  Biso   1.000  N
  H405     1.0000 0.57269  0.24072  0.14291  Biso   1.000  H
  H406     1.0000 0.59848  0.27290  0.05080  Biso   1.000  H
  N313     1.0000 0.54039  0.22948  0.00282  Biso   1.000  N
  H407     1.0000 0.57269  0.24072  0.14283  Biso   1.000  H
  H408     1.0000 0.57269  0.24068  0.14291  Biso   1.000  H
  H409     1.0000 0.57269  0.24068  0.14283  Biso   1.000  H
  N314     1.0000 0.56218  0.20800  0.82259  Biso   1.000  N
  H410     1.0000 0.62209  0.19109  0.73471  Biso   1.000  H
  H411     1.0000 0.62891  0.24201  0.80198  Biso   1.000  H
  H412     1.0000 0.62209  0.19109  0.73463  Biso   1.000  H
  H413     1.0000 0.62891  0.24197  0.80198  Biso   1.000  H
  N315     1.0000 0.45869  0.22350  0.96558  Biso   1.000  N
  H414     1.0000 0.39101  0.25751  0.95610  Biso   1.000  H
  H415     1.0000 0.39101  0.25747  0.95610  Biso   1.000  H
  H416     1.0000 0.39931  0.22651  0.06256  Biso   1.000  H
  N316     1.0000 0.47960  0.20011  0.78739  Biso   1.000  N
  H417     1.0000 0.44780  0.17848  0.65169  Biso   1.000  H
  H418     1.0000 0.42160  0.22769  0.70234  Biso   1.000  H
  H419     1.0000 0.42160  0.22769  0.70226  Biso   1.000  H
  N317     1.0000 0.47960  0.20008  0.78739  Biso   1.000  N
  C490     1.0000 0.49419  0.21969  0.04327  Biso   1.000  C
  C491     1.0000 0.53769  0.24392  0.89432  Biso   1.000  C
  C492     1.0000 0.53769  0.24392  0.89425  Biso   1.000  C
  C493     1.0000 0.53769  0.24388  0.89432  Biso   1.000  C
  C494     1.0000 0.53769  0.24388  0.89425  Biso   1.000  C
  C495     1.0000 0.52699  0.18480  0.75792  Biso   1.000  C
  C496     1.0000 0.52699  0.18480  0.75784  Biso   1.000  C
  C497     1.0000 0.48101  0.23912  0.86838  Biso   1.000  C
  C498     1.0000 0.48101  0.23908  0.86838  Biso   1.000  C
  O165     1.0000 0.48501  0.20910  0.13547  Biso   1.000  O
  H420     1.0000 0.55030  0.27949  0.88311  Biso   1.000  H
  H421     1.0000 0.55030  0.27949  0.88304  Biso   1.000  H
  O166     1.0000 0.53780  0.15578  0.68619  Biso   1.000  O
  H422     1.0000 0.46639  0.27210  0.84313  Biso   1.000  H
  H423     1.0000 0.46639  0.27210  0.84305  Biso   1.000  H
  C499     1.0000 0.51899  0.76088  0.13162  Biso   1.000  C
  C500     1.0000 0.46231  0.75608  0.10568  Biso   1.000  C
  N318     1.0000 0.52040  0.79989  0.21261  Biso   1.000  N
  H424     1.0000 0.53361  0.72790  0.15687  Biso   1.000  H
  N319     1.0000 0.54131  0.77650  0.03442  Biso   1.000  N
  N320     1.0000 0.54131  0.77650  0.03434  Biso   1.000  N
  H425     1.0000 0.44970  0.72051  0.11689  Biso   1.000  H
  N321     1.0000 0.43778  0.79200  0.17741  Biso   1.000  N
  N322     1.0000 0.43778  0.79200  0.17733  Biso   1.000  N
  C501     1.0000 0.51899  0.76088  0.13155  Biso   1.000  C
  N323     1.0000 0.45961  0.77052  0.99710  Biso   1.000  N
  N324     1.0000 0.45961  0.77048  0.99710  Biso   1.000  N
  C502     1.0000 0.47301  0.81520  0.24208  Biso   1.000  C
  C503     1.0000 0.56389  0.80628  0.28159  Biso   1.000  C
  C504     1.0000 0.56389  0.80628  0.28151  Biso   1.000  C
  C505     1.0000 0.50581  0.78031  0.95673  Biso   1.000  C
  C506     1.0000 0.50581  0.78031  0.95665  Biso   1.000  C
  C507     1.0000 0.59509  0.77452  0.01419  Biso   1.000  C
  C508     1.0000 0.59509  0.77448  0.01419  Biso   1.000  C
  C509     1.0000 0.38419  0.79341  0.19583  Biso   1.000  C
  C510     1.0000 0.38419  0.79341  0.19575  Biso   1.000  C
  C511     1.0000 0.41569  0.76088  0.93093  Biso   1.000  C
  C512     1.0000 0.41569  0.76088  0.93086  Biso   1.000  C
  O167     1.0000 0.46220  0.84422  0.31381  Biso   1.000  O
  O168     1.0000 0.46220  0.84422  0.31373  Biso   1.000  O
  O169     1.0000 0.46220  0.84418  0.31381  Biso   1.000  O
  O170     1.0000 0.46220  0.84418  0.31373  Biso   1.000  O
  H426     1.0000 0.57840  0.77231  0.29766  Biso   1.000  H
  N325     1.0000 0.60331  0.83778  0.23793  Biso   1.000  N
  N326     1.0000 0.60331  0.83778  0.23785  Biso   1.000  N
  H427     1.0000 0.55220  0.82152  0.34831  Biso   1.000  H
  H428     1.0000 0.55220  0.82152  0.34823  Biso   1.000  H
  H429     1.0000 0.55220  0.82148  0.34831  Biso   1.000  H
  H430     1.0000 0.55220  0.82148  0.34823  Biso   1.000  H
  O171     1.0000 0.51499  0.79090  0.86453  Biso   1.000  O
  O172     1.0000 0.51499  0.79090  0.86446  Biso   1.000  O
  N327     1.0000 0.62339  0.81741  0.05778  Biso   1.000  N
  H431     1.0000 0.60899  0.74249  0.04390  Biso   1.000  H
  H432     1.0000 0.60899  0.74249  0.04382  Biso   1.000  H
  H433     1.0000 0.60069  0.77349  0.93744  Biso   1.000  H
  H434     1.0000 0.60069  0.77349  0.93736  Biso   1.000  H
  N328     1.0000 0.35601  0.82152  0.11767  Biso   1.000  N
  H435     1.0000 0.37791  0.80891  0.26529  Biso   1.000  H
  H436     1.0000 0.37109  0.75799  0.19802  Biso   1.000  H
  N329     1.0000 0.35601  0.82148  0.11767  Biso   1.000  N
  N330     1.0000 0.37600  0.79760  0.93830  Biso   1.000  N
  H437     1.0000 0.42731  0.75928  0.85709  Biso   1.000  H
  H438     1.0000 0.40149  0.72710  0.94920  Biso   1.000  H
  N331     1.0000 0.37600  0.79760  0.93823  Biso   1.000  N
  C513     1.0000 0.61878  0.88120  0.28340  Biso   1.000  C
  C514     1.0000 0.61878  0.88120  0.28332  Biso   1.000  C
  C515     1.0000 0.63980  0.81882  0.16431  Biso   1.000  C
  C516     1.0000 0.63980  0.81882  0.16424  Biso   1.000  C
  C517     1.0000 0.63980  0.81878  0.16431  Biso   1.000  C
  C518     1.0000 0.63980  0.81878  0.16424  Biso   1.000  C
  C519     1.0000 0.64959  0.85039  0.99271  Biso   1.000  C
  C520     1.0000 0.64959  0.85039  0.99263  Biso   1.000  C
  C521     1.0000 0.33830  0.79890  0.02030  Biso   1.000  C
  C522     1.0000 0.33830  0.79890  0.02023  Biso   1.000  C
  C523     1.0000 0.32988  0.86502  0.14291  Biso   1.000  C
  C524     1.0000 0.32988  0.86502  0.14283  Biso   1.000  C
  C525     1.0000 0.32988  0.86498  0.14291  Biso   1.000  C
  C526     1.0000 0.32988  0.86498  0.14283  Biso   1.000  C
  C527     1.0000 0.36500  0.82990  0.85709  Biso   1.000  C
  O173     1.0000 0.59619  0.90379  0.35607  Biso   1.000  O
  N332     1.0000 0.66220  0.89671  0.23793  Biso   1.000  N
  N333     1.0000 0.66220  0.89671  0.23785  Biso   1.000  N
  H439     1.0000 0.65378  0.78511  0.18697  Biso   1.000  H
  C528     1.0000 0.68120  0.86022  0.16431  Biso   1.000  C
  C529     1.0000 0.68120  0.86022  0.16424  Biso   1.000  C
  C530     1.0000 0.68120  0.86018  0.16431  Biso   1.000  C
  C531     1.0000 0.68120  0.86018  0.16424  Biso   1.000  C
  N334     1.0000 0.68261  0.87659  0.05778  Biso   1.000  N
  O174     1.0000 0.64521  0.85481  0.90201  Biso   1.000  O
  O175     1.0000 0.64521  0.85481  0.90193  Biso   1.000  O
  H440     1.0000 0.32249  0.76481  0.03191  Biso   1.000  H
  C532     1.0000 0.29891  0.83832  0.97970  Biso   1.000  C
  C533     1.0000 0.29891  0.83828  0.97970  Biso   1.000  C
  N335     1.0000 0.29758  0.87599  0.06170  Biso   1.000  N
  O176     1.0000 0.33491  0.88981  0.22280  Biso   1.000  O
  O177     1.0000 0.33491  0.88981  0.22272  Biso   1.000  O
  O178     1.0000 0.38979  0.83489  0.77720  Biso   1.000  O
  N336     1.0000 0.32150  0.85599  0.88233  Biso   1.000  N
  N337     1.0000 0.32150  0.85599  0.88225  Biso   1.000  N
  C534     1.0000 0.69370  0.93609  0.28159  Biso   1.000  C
  C535     1.0000 0.69370  0.93609  0.28151  Biso   1.000  C
  H441     1.0000 0.71491  0.84620  0.18697  Biso   1.000  H
  C536     1.0000 0.72550  0.90489  0.01419  Biso   1.000  C
  H442     1.0000 0.26479  0.82251  0.96809  Biso   1.000  H
  C537     1.0000 0.26090  0.91571  0.06907  Biso   1.000  C
  C538     1.0000 0.26090  0.91571  0.06914  Biso   1.000  C
  C539     1.0000 0.29339  0.88421  0.80417  Biso   1.000  C
  C540     1.0000 0.29339  0.88417  0.80417  Biso   1.000  C
  N338     1.0000 0.70010  0.97958  0.21261  Biso   1.000  N
  H443     1.0000 0.72771  0.92161  0.29766  Biso   1.000  H
  H444     1.0000 0.67850  0.94778  0.34831  Biso   1.000  H
  H445     1.0000 0.67850  0.94778  0.34823  Biso   1.000  H
  H446     1.0000 0.72771  0.92158  0.29766  Biso   1.000  H
  H447     1.0000 0.75749  0.89099  0.04390  Biso   1.000  H
  H448     1.0000 0.75749  0.89099  0.04382  Biso   1.000  H
  H449     1.0000 0.72649  0.89930  0.93744  Biso   1.000  H
  H450     1.0000 0.72649  0.89930  0.93736  Biso   1.000  H
  N339     1.0000 0.72348  0.95871  0.03442  Biso   1.000  N
  N340     1.0000 0.72348  0.95871  0.03434  Biso   1.000  N
  N341     1.0000 0.72348  0.95867  0.03442  Biso   1.000  N
  N342     1.0000 0.72348  0.95867  0.03434  Biso   1.000  N
  H451     1.0000 0.22708  0.90150  0.05080  Biso   1.000  H
  N343     1.0000 0.27050  0.95959  0.00290  Biso   1.000  N
  H452     1.0000 0.25930  0.92729  0.14291  Biso   1.000  H
  N344     1.0000 0.27050  0.95959  0.00282  Biso   1.000  N
  H453     1.0000 0.25930  0.92729  0.14283  Biso   1.000  H
  N345     1.0000 0.29198  0.93780  0.82259  Biso   1.000  N
  H454     1.0000 0.30889  0.87789  0.73471  Biso   1.000  H
  H455     1.0000 0.25801  0.87111  0.80198  Biso   1.000  H
  H456     1.0000 0.30889  0.87789  0.73463  Biso   1.000  H
  C541     1.0000 0.73910  0.98099  0.13162  Biso   1.000  C
  C542     1.0000 0.73910  0.98099  0.13155  Biso   1.000  C
  C543     1.0000 0.68478  0.02700  0.24208  Biso   1.000  C
  C544     1.0000 0.71971  0.99421  0.95673  Biso   1.000  C
  C545     1.0000 0.71971  0.99421  0.95665  Biso   1.000  C
  C546     1.0000 0.25610  0.96229  0.89432  Biso   1.000  C
  C547     1.0000 0.25610  0.96229  0.89425  Biso   1.000  C
  C548     1.0000 0.28029  0.00579  0.04327  Biso   1.000  C
  C549     1.0000 0.31522  0.97300  0.75792  Biso   1.000  C
  C550     1.0000 0.31522  0.97300  0.75784  Biso   1.000  C
  H457     1.0000 0.77208  0.96641  0.15687  Biso   1.000  H
  C551     1.0000 0.74390  0.03771  0.10568  Biso   1.000  C
  O179     1.0000 0.65580  0.03778  0.31381  Biso   1.000  O
  N346     1.0000 0.70798  0.06220  0.17741  Biso   1.000  N
  O180     1.0000 0.65580  0.03778  0.31373  Biso   1.000  O
  N347     1.0000 0.70798  0.06220  0.17733  Biso   1.000  N
  O181     1.0000 0.70908  0.98499  0.86453  Biso   1.000  O
  O182     1.0000 0.70908  0.98499  0.86446  Biso   1.000  O
  N348     1.0000 0.72950  0.04041  0.99710  Biso   1.000  N
  N349     1.0000 0.72950  0.04037  0.99710  Biso   1.000  N
  H458     1.0000 0.22049  0.94969  0.88311  Biso   1.000  H
  H459     1.0000 0.22049  0.94969  0.88304  Biso   1.000  H
  C552     1.0000 0.26090  0.01901  0.86838  Biso   1.000  C
  N350     1.0000 0.27648  0.04129  0.96558  Biso   1.000  N
  O183     1.0000 0.29092  0.01501  0.13547  Biso   1.000  O
  O184     1.0000 0.34420  0.96222  0.68619  Biso   1.000  O
  O185     1.0000 0.34420  0.96218  0.68619  Biso   1.000  O
  N351     1.0000 0.29990  0.02042  0.78739  Biso   1.000  N
  N352     1.0000 0.29990  0.02038  0.78739  Biso   1.000  N
  H460     1.0000 0.77951  0.05031  0.11689  Biso   1.000  H
  H461     1.0000 0.77951  0.05028  0.11689  Biso   1.000  H
  C553     1.0000 0.70661  0.11579  0.19583  Biso   1.000  C
  C554     1.0000 0.70661  0.11579  0.19575  Biso   1.000  C
  C555     1.0000 0.73910  0.08429  0.93093  Biso   1.000  C
  C556     1.0000 0.73910  0.08429  0.93086  Biso   1.000  C
  H462     1.0000 0.22788  0.03359  0.84313  Biso   1.000  H
  H463     1.0000 0.22788  0.03359  0.84305  Biso   1.000  H
  C557     1.0000 0.27450  0.09511  0.98581  Biso   1.000  C
  C558     1.0000 0.27450  0.09511  0.98573  Biso   1.000  C
  C559     1.0000 0.30630  0.06391  0.71841  Biso   1.000  C
  C560     1.0000 0.30630  0.06387  0.71841  Biso   1.000  C
  N353     1.0000 0.67850  0.14401  0.11767  Biso   1.000  N
  H464     1.0000 0.69111  0.12211  0.26529  Biso   1.000  H
  H465     1.0000 0.74199  0.12889  0.19802  Biso   1.000  H
  N354     1.0000 0.67850  0.14397  0.11767  Biso   1.000  N
  N355     1.0000 0.70238  0.12401  0.93830  Biso   1.000  N
  H466     1.0000 0.74070  0.07271  0.85709  Biso   1.000  H
  H467     1.0000 0.77288  0.09850  0.94920  Biso   1.000  H
  N356     1.0000 0.70238  0.12401  0.93823  Biso   1.000  N
  N357     1.0000 0.70238  0.12398  0.93830  Biso   1.000  N
  N358     1.0000 0.70238  0.12398  0.93823  Biso   1.000  N
  N359     1.0000 0.31739  0.12341  0.94222  Biso   1.000  N
  H468     1.0000 0.24251  0.10901  0.95610  Biso   1.000  H
  N360     1.0000 0.31739  0.12341  0.94214  Biso   1.000  N
  H469     1.0000 0.27351  0.10070  0.06256  Biso   1.000  H
  N361     1.0000 0.33780  0.10329  0.76207  Biso   1.000  N
  H470     1.0000 0.32150  0.05222  0.65169  Biso   1.000  H
  H471     1.0000 0.27229  0.07839  0.70234  Biso   1.000  H
  H472     1.0000 0.27229  0.07839  0.70226  Biso   1.000  H
  H473     1.0000 0.32150  0.05218  0.65169  Biso   1.000  H
  C561     1.0000 0.63500  0.17010  0.14291  Biso   1.000  C
  C562     1.0000 0.70109  0.16168  0.02030  Biso   1.000  C
  C563     1.0000 0.63500  0.17010  0.14283  Biso   1.000  C
  C564     1.0000 0.70109  0.16168  0.02023  Biso   1.000  C
  C565     1.0000 0.67008  0.13498  0.85709  Biso   1.000  C
  C566     1.0000 0.31880  0.13978  0.83569  Biso   1.000  C
  C567     1.0000 0.35041  0.14961  0.00729  Biso   1.000  C
  C568     1.0000 0.38118  0.11880  0.71660  Biso   1.000  C
  O186     1.0000 0.61021  0.16511  0.22280  Biso   1.000  O
  N362     1.0000 0.62400  0.20240  0.06170  Biso   1.000  N
  O187     1.0000 0.61021  0.16511  0.22272  Biso   1.000  O
  O188     1.0000 0.61021  0.16507  0.22280  Biso   1.000  O
  O189     1.0000 0.61021  0.16507  0.22272  Biso   1.000  O
  C569     1.0000 0.66170  0.20110  0.97970  Biso   1.000  C
  H474     1.0000 0.73521  0.17749  0.03191  Biso   1.000  H
  O190     1.0000 0.66509  0.11019  0.77720  Biso   1.000  O
  N363     1.0000 0.64399  0.17848  0.88233  Biso   1.000  N
  N364     1.0000 0.64399  0.17848  0.88225  Biso   1.000  N
  H475     1.0000 0.28509  0.15380  0.81303  Biso   1.000  H
  C570     1.0000 0.36020  0.18118  0.83569  Biso   1.000  C
  H476     1.0000 0.28509  0.15380  0.81295  Biso   1.000  H
  N365     1.0000 0.37661  0.18259  0.94222  Biso   1.000  N
  N366     1.0000 0.37661  0.18259  0.94214  Biso   1.000  N
  O191     1.0000 0.35479  0.14519  0.09799  Biso   1.000  O
  O192     1.0000 0.35479  0.14519  0.09807  Biso   1.000  O
  O193     1.0000 0.40381  0.09621  0.64393  Biso   1.000  O
  N367     1.0000 0.39669  0.16222  0.76207  Biso   1.000  N
  O194     1.0000 0.40381  0.09621  0.64385  Biso   1.000  O
  N368     1.0000 0.39669  0.16218  0.76207  Biso   1.000  N
  C571     1.0000 0.58431  0.23912  0.06907  Biso   1.000  C
  C572     1.0000 0.58431  0.23912  0.06914  Biso   1.000  C
  C573     1.0000 0.58431  0.23908  0.06907  Biso   1.000  C
  C574     1.0000 0.58431  0.23908  0.06914  Biso   1.000  C
  H477     1.0000 0.67751  0.23519  0.96809  Biso   1.000  H
  C575     1.0000 0.61581  0.20659  0.80417  Biso   1.000  C
  H478     1.0000 0.34618  0.21489  0.81303  Biso   1.000  H
  H479     1.0000 0.34618  0.21489  0.81295  Biso   1.000  H
  C576     1.0000 0.40491  0.22548  0.98581  Biso   1.000  C
  C577     1.0000 0.40491  0.22548  0.98573  Biso   1.000  C
  C578     1.0000 0.43611  0.19372  0.71841  Biso   1.000  C
  C579     1.0000 0.43611  0.19368  0.71841  Biso   1.000  C
  N369     1.0000 0.54039  0.22948  0.00290  Biso   1.000  N
  H480     1.0000 0.57269  0.24072  0.14291  Biso   1.000  H
  H481     1.0000 0.59848  0.27290  0.05080  Biso   1.000  H
  N370     1.0000 0.54039  0.22948  0.00282  Biso   1.000  N
  H482     1.0000 0.57269  0.24072  0.14283  Biso   1.000  H
  H483     1.0000 0.57269  0.24068  0.14291  Biso   1.000  H
  H484     1.0000 0.57269  0.24068  0.14283  Biso   1.000  H
  N371     1.0000 0.56218  0.20800  0.82259  Biso   1.000  N
  H485     1.0000 0.62209  0.19109  0.73471  Biso   1.000  H
  H486     1.0000 0.62891  0.24201  0.80198  Biso   1.000  H
  H487     1.0000 0.62209  0.19109  0.73463  Biso   1.000  H
  H488     1.0000 0.62891  0.24197  0.80198  Biso   1.000  H
  N372     1.0000 0.45869  0.22350  0.96558  Biso   1.000  N
  H489     1.0000 0.39101  0.25751  0.95610  Biso   1.000  H
  H490     1.0000 0.39101  0.25747  0.95610  Biso   1.000  H
  H491     1.0000 0.39931  0.22651  0.06256  Biso   1.000  H
  N373     1.0000 0.47960  0.20011  0.78739  Biso   1.000  N
  H492     1.0000 0.44780  0.17848  0.65169  Biso   1.000  H
  H493     1.0000 0.42160  0.22769  0.70234  Biso   1.000  H
  H494     1.0000 0.42160  0.22769  0.70226  Biso   1.000  H
  N374     1.0000 0.47960  0.20008  0.78739  Biso   1.000  N
  C580     1.0000 0.49419  0.21969  0.04327  Biso   1.000  C
  C581     1.0000 0.53769  0.24392  0.89432  Biso   1.000  C
  C582     1.0000 0.53769  0.24392  0.89425  Biso   1.000  C
  C583     1.0000 0.53769  0.24388  0.89432  Biso   1.000  C
  C584     1.0000 0.53769  0.24388  0.89425  Biso   1.000  C
  C585     1.0000 0.52699  0.18480  0.75792  Biso   1.000  C
  C586     1.0000 0.52699  0.18480  0.75784  Biso   1.000  C
  C587     1.0000 0.48101  0.23912  0.86838  Biso   1.000  C
  C588     1.0000 0.48101  0.23908  0.86838  Biso   1.000  C
  O195     1.0000 0.48501  0.20910  0.13547  Biso   1.000  O
  H495     1.0000 0.55030  0.27949  0.88311  Biso   1.000  H
  H496     1.0000 0.55030  0.27949  0.88304  Biso   1.000  H
  O196     1.0000 0.53780  0.15578  0.68619  Biso   1.000  O
  H497     1.0000 0.46639  0.27210  0.84313  Biso   1.000  H
  H498     1.0000 0.46639  0.27210  0.84305  Biso   1.000  H
  C589     1.0000 0.51899  0.76088  0.13162  Biso   1.000  C
  C590     1.0000 0.46231  0.75608  0.10568  Biso   1.000  C
  N375     1.0000 0.52040  0.79989  0.21261  Biso   1.000  N
  H499     1.0000 0.53361  0.72790  0.15687  Biso   1.000  H
  N376     1.0000 0.54131  0.77650  0.03442  Biso   1.000  N
  N377     1.0000 0.54131  0.77650  0.03434  Biso   1.000  N
  H500     1.0000 0.44970  0.72051  0.11689  Biso   1.000  H
  N378     1.0000 0.45961  0.77052  0.99710  Biso   1.000  N
  N379     1.0000 0.45961  0.77048  0.99710  Biso   1.000  N
  N380     1.0000 0.43778  0.79200  0.17741  Biso   1.000  N
  N381     1.0000 0.43778  0.79200  0.17733  Biso   1.000  N
  C591     1.0000 0.51899  0.76088  0.13155  Biso   1.000  C
  C592     1.0000 0.47301  0.81520  0.24208  Biso   1.000  C
  C593     1.0000 0.56389  0.80628  0.28159  Biso   1.000  C
  C594     1.0000 0.56389  0.80628  0.28151  Biso   1.000  C
  C595     1.0000 0.50581  0.78031  0.95673  Biso   1.000  C
  C596     1.0000 0.50581  0.78031  0.95665  Biso   1.000  C
  C597     1.0000 0.59509  0.77452  0.01419  Biso   1.000  C
  C598     1.0000 0.59509  0.77448  0.01419  Biso   1.000  C
  C599     1.0000 0.41569  0.76088  0.93093  Biso   1.000  C
  C600     1.0000 0.41569  0.76088  0.93086  Biso   1.000  C
  C601     1.0000 0.38419  0.79341  0.19583  Biso   1.000  C
  C602     1.0000 0.38419  0.79341  0.19575  Biso   1.000  C
  O197     1.0000 0.46220  0.84422  0.31381  Biso   1.000  O
  O198     1.0000 0.46220  0.84422  0.31373  Biso   1.000  O
  O199     1.0000 0.46220  0.84418  0.31381  Biso   1.000  O
  O200     1.0000 0.46220  0.84418  0.31373  Biso   1.000  O
  H501     1.0000 0.57840  0.77231  0.29766  Biso   1.000  H
  N382     1.0000 0.60331  0.83778  0.23793  Biso   1.000  N
  H502     1.0000 0.55220  0.82152  0.34831  Biso   1.000  H
  N383     1.0000 0.60331  0.83778  0.23785  Biso   1.000  N
  H503     1.0000 0.55220  0.82152  0.34823  Biso   1.000  H
  H504     1.0000 0.55220  0.82148  0.34831  Biso   1.000  H
  H505     1.0000 0.55220  0.82148  0.34823  Biso   1.000  H
  O201     1.0000 0.51499  0.79090  0.86453  Biso   1.000  O
  O202     1.0000 0.51499  0.79090  0.86446  Biso   1.000  O
  N384     1.0000 0.62339  0.81741  0.05778  Biso   1.000  N
  H506     1.0000 0.60069  0.77349  0.93744  Biso   1.000  H
  H507     1.0000 0.60069  0.77349  0.93736  Biso   1.000  H
  H508     1.0000 0.60899  0.74249  0.04390  Biso   1.000  H
  H509     1.0000 0.60899  0.74249  0.04382  Biso   1.000  H
  N385     1.0000 0.37600  0.79760  0.93830  Biso   1.000  N
  H510     1.0000 0.42731  0.75928  0.85709  Biso   1.000  H
  H511     1.0000 0.40149  0.72710  0.94920  Biso   1.000  H
  N386     1.0000 0.37600  0.79760  0.93823  Biso   1.000  N
  H512     1.0000 0.37791  0.80891  0.26529  Biso   1.000  H
  H513     1.0000 0.37109  0.75799  0.19802  Biso   1.000  H
  N387     1.0000 0.35601  0.82152  0.11767  Biso   1.000  N
  N388     1.0000 0.35601  0.82148  0.11767  Biso   1.000  N
  C603     1.0000 0.61878  0.88120  0.28340  Biso   1.000  C
  C604     1.0000 0.63980  0.81882  0.16431  Biso   1.000  C
  C605     1.0000 0.61878  0.88120  0.28332  Biso   1.000  C
  C606     1.0000 0.63980  0.81882  0.16424  Biso   1.000  C
  C607     1.0000 0.63980  0.81878  0.16431  Biso   1.000  C
  C608     1.0000 0.63980  0.81878  0.16424  Biso   1.000  C
  C609     1.0000 0.64959  0.85039  0.99271  Biso   1.000  C
  C610     1.0000 0.64959  0.85039  0.99263  Biso   1.000  C
  C611     1.0000 0.36500  0.82990  0.85709  Biso   1.000  C
  C612     1.0000 0.33830  0.79890  0.02030  Biso   1.000  C
  C613     1.0000 0.33830  0.79890  0.02023  Biso   1.000  C
  C614     1.0000 0.32988  0.86502  0.14291  Biso   1.000  C
  C615     1.0000 0.32988  0.86502  0.14283  Biso   1.000  C
  C616     1.0000 0.32988  0.86498  0.14291  Biso   1.000  C
  C617     1.0000 0.32988  0.86498  0.14283  Biso   1.000  C
  O203     1.0000 0.59619  0.90379  0.35607  Biso   1.000  O
  N389     1.0000 0.66220  0.89671  0.23793  Biso   1.000  N
  N390     1.0000 0.66220  0.89671  0.23785  Biso   1.000  N
  H514     1.0000 0.65378  0.78511  0.18697  Biso   1.000  H
  C618     1.0000 0.68120  0.86022  0.16431  Biso   1.000  C
  C619     1.0000 0.68120  0.86022  0.16424  Biso   1.000  C
  C620     1.0000 0.68120  0.86018  0.16431  Biso   1.000  C
  C621     1.0000 0.68120  0.86018  0.16424  Biso   1.000  C
  N391     1.0000 0.68261  0.87659  0.05778  Biso   1.000  N
  O204     1.0000 0.64521  0.85481  0.90201  Biso   1.000  O
  O205     1.0000 0.64521  0.85481  0.90193  Biso   1.000  O
  O206     1.0000 0.38979  0.83489  0.77720  Biso   1.000  O
  N392     1.0000 0.32150  0.85599  0.88233  Biso   1.000  N
  N393     1.0000 0.32150  0.85599  0.88225  Biso   1.000  N
  H515     1.0000 0.32249  0.76481  0.03191  Biso   1.000  H
  C622     1.0000 0.29891  0.83832  0.97970  Biso   1.000  C
  C623     1.0000 0.29891  0.83828  0.97970  Biso   1.000  C
  N394     1.0000 0.29758  0.87599  0.06170  Biso   1.000  N
  O207     1.0000 0.33491  0.88981  0.22280  Biso   1.000  O
  O208     1.0000 0.33491  0.88981  0.22272  Biso   1.000  O
  C624     1.0000 0.69370  0.93609  0.28159  Biso   1.000  C
  C625     1.0000 0.69370  0.93609  0.28151  Biso   1.000  C
  H516     1.0000 0.71491  0.84620  0.18697  Biso   1.000  H
  C626     1.0000 0.72550  0.90489  0.01419  Biso   1.000  C
  C627     1.0000 0.29339  0.88421  0.80417  Biso   1.000  C
  C628     1.0000 0.29339  0.88417  0.80417  Biso   1.000  C
  H517     1.0000 0.26479  0.82251  0.96809  Biso   1.000  H
  C629     1.0000 0.26090  0.91571  0.06907  Biso   1.000  C
  C630     1.0000 0.26090  0.91571  0.06914  Biso   1.000  C
  N395     1.0000 0.70010  0.97958  0.21261  Biso   1.000  N
  H518     1.0000 0.67850  0.94778  0.34831  Biso   1.000  H
  H519     1.0000 0.72771  0.92161  0.29766  Biso   1.000  H
  H520     1.0000 0.67850  0.94778  0.34823  Biso   1.000  H
  H521     1.0000 0.72771  0.92158  0.29766  Biso   1.000  H
  H522     1.0000 0.72649  0.89930  0.93744  Biso   1.000  H
  H523     1.0000 0.72649  0.89930  0.93736  Biso   1.000  H
  N396     1.0000 0.72348  0.95871  0.03442  Biso   1.000  N
  H524     1.0000 0.75749  0.89099  0.04390  Biso   1.000  H
  N397     1.0000 0.72348  0.95871  0.03434  Biso   1.000  N
  H525     1.0000 0.75749  0.89099  0.04382  Biso   1.000  H
  N398     1.0000 0.72348  0.95867  0.03442  Biso   1.000  N
  N399     1.0000 0.72348  0.95867  0.03434  Biso   1.000  N
  N400     1.0000 0.29198  0.93780  0.82259  Biso   1.000  N
  H526     1.0000 0.30889  0.87789  0.73471  Biso   1.000  H
  H527     1.0000 0.25801  0.87111  0.80198  Biso   1.000  H
  H528     1.0000 0.30889  0.87789  0.73463  Biso   1.000  H
  H529     1.0000 0.22708  0.90150  0.05080  Biso   1.000  H
  N401     1.0000 0.27050  0.95959  0.00290  Biso   1.000  N
  H530     1.0000 0.25930  0.92729  0.14291  Biso   1.000  H
  N402     1.0000 0.27050  0.95959  0.00282  Biso   1.000  N
  H531     1.0000 0.25930  0.92729  0.14283  Biso   1.000  H
  C631     1.0000 0.73910  0.98099  0.13162  Biso   1.000  C
  C632     1.0000 0.73910  0.98099  0.13155  Biso   1.000  C
  C633     1.0000 0.68478  0.02700  0.24208  Biso   1.000  C
  C634     1.0000 0.71971  0.99421  0.95673  Biso   1.000  C
  C635     1.0000 0.71971  0.99421  0.95665  Biso   1.000  C
  C636     1.0000 0.25610  0.96229  0.89432  Biso   1.000  C
  C637     1.0000 0.31522  0.97300  0.75792  Biso   1.000  C
  C638     1.0000 0.25610  0.96229  0.89425  Biso   1.000  C
  C639     1.0000 0.31522  0.97300  0.75784  Biso   1.000  C
  C640     1.0000 0.28029  0.00579  0.04327  Biso   1.000  C
  H532     1.0000 0.77208  0.96641  0.15687  Biso   1.000  H
  C641     1.0000 0.74390  0.03771  0.10568  Biso   1.000  C
  O209     1.0000 0.65580  0.03778  0.31381  Biso   1.000  O
  N403     1.0000 0.70798  0.06220  0.17741  Biso   1.000  N
  O210     1.0000 0.65580  0.03778  0.31373  Biso   1.000  O
  N404     1.0000 0.70798  0.06220  0.17733  Biso   1.000  N
  O211     1.0000 0.70908  0.98499  0.86453  Biso   1.000  O
  O212     1.0000 0.70908  0.98499  0.86446  Biso   1.000  O
  N405     1.0000 0.72950  0.04041  0.99710  Biso   1.000  N
  N406     1.0000 0.72950  0.04037  0.99710  Biso   1.000  N
  H533     1.0000 0.22049  0.94969  0.88311  Biso   1.000  H
  H534     1.0000 0.22049  0.94969  0.88304  Biso   1.000  H
  C642     1.0000 0.26090  0.01901  0.86838  Biso   1.000  C
  O213     1.0000 0.34420  0.96222  0.68619  Biso   1.000  O
  O214     1.0000 0.34420  0.96218  0.68619  Biso   1.000  O
  N407     1.0000 0.29990  0.02042  0.78739  Biso   1.000  N
  N408     1.0000 0.29990  0.02038  0.78739  Biso   1.000  N
  N409     1.0000 0.27648  0.04129  0.96558  Biso   1.000  N
  O215     1.0000 0.29092  0.01501  0.13547  Biso   1.000  O
  H535     1.0000 0.77951  0.05031  0.11689  Biso   1.000  H
  H536     1.0000 0.77951  0.05028  0.11689  Biso   1.000  H
  C643     1.0000 0.70661  0.11579  0.19583  Biso   1.000  C
  C644     1.0000 0.70661  0.11579  0.19575  Biso   1.000  C
  C645     1.0000 0.73910  0.08429  0.93093  Biso   1.000  C
  C646     1.0000 0.73910  0.08429  0.93086  Biso   1.000  C
  H537     1.0000 0.22788  0.03359  0.84313  Biso   1.000  H
  H538     1.0000 0.22788  0.03359  0.84305  Biso   1.000  H
  C647     1.0000 0.30630  0.06391  0.71841  Biso   1.000  C
  C648     1.0000 0.30630  0.06387  0.71841  Biso   1.000  C
  C649     1.0000 0.27450  0.09511  0.98581  Biso   1.000  C
  C650     1.0000 0.27450  0.09511  0.98573  Biso   1.000  C
  N410     1.0000 0.67850  0.14401  0.11767  Biso   1.000  N
  H539     1.0000 0.69111  0.12211  0.26529  Biso   1.000  H
  H540     1.0000 0.74199  0.12889  0.19802  Biso   1.000  H
  N411     1.0000 0.67850  0.14397  0.11767  Biso   1.000  N
  N412     1.0000 0.70238  0.12401  0.93830  Biso   1.000  N
  H541     1.0000 0.74070  0.07271  0.85709  Biso   1.000  H
  H542     1.0000 0.77288  0.09850  0.94920  Biso   1.000  H
  N413     1.0000 0.70238  0.12401  0.93823  Biso   1.000  N
  N414     1.0000 0.70238  0.12398  0.93830  Biso   1.000  N
  N415     1.0000 0.70238  0.12398  0.93823  Biso   1.000  N
  N416     1.0000 0.33780  0.10329  0.76207  Biso   1.000  N
  H543     1.0000 0.32150  0.05222  0.65169  Biso   1.000  H
  H544     1.0000 0.27229  0.07839  0.70234  Biso   1.000  H
  H545     1.0000 0.27229  0.07839  0.70226  Biso   1.000  H
  H546     1.0000 0.32150  0.05218  0.65169  Biso   1.000  H
  N417     1.0000 0.31739  0.12341  0.94222  Biso   1.000  N
  H547     1.0000 0.24251  0.10901  0.95610  Biso   1.000  H
  N418     1.0000 0.31739  0.12341  0.94214  Biso   1.000  N
  H548     1.0000 0.27351  0.10070  0.06256  Biso   1.000  H
  C651     1.0000 0.63500  0.17010  0.14291  Biso   1.000  C
  C652     1.0000 0.70109  0.16168  0.02030  Biso   1.000  C
  C653     1.0000 0.63500  0.17010  0.14283  Biso   1.000  C
  C654     1.0000 0.70109  0.16168  0.02023  Biso   1.000  C
  C655     1.0000 0.67008  0.13498  0.85709  Biso   1.000  C
  C656     1.0000 0.31880  0.13978  0.83569  Biso   1.000  C
  C657     1.0000 0.38118  0.11880  0.71660  Biso   1.000  C
  C658     1.0000 0.35041  0.14961  0.00729  Biso   1.000  C
  O216     1.0000 0.61021  0.16511  0.22280  Biso   1.000  O
  N419     1.0000 0.62400  0.20240  0.06170  Biso   1.000  N
  O217     1.0000 0.61021  0.16511  0.22272  Biso   1.000  O
  O218     1.0000 0.61021  0.16507  0.22280  Biso   1.000  O
  O219     1.0000 0.61021  0.16507  0.22272  Biso   1.000  O
  C659     1.0000 0.66170  0.20110  0.97970  Biso   1.000  C
  H549     1.0000 0.73521  0.17749  0.03191  Biso   1.000  H
  O220     1.0000 0.66509  0.11019  0.77720  Biso   1.000  O
  N420     1.0000 0.64399  0.17848  0.88233  Biso   1.000  N
  N421     1.0000 0.64399  0.17848  0.88225  Biso   1.000  N
  H550     1.0000 0.28509  0.15380  0.81303  Biso   1.000  H
  C660     1.0000 0.36020  0.18118  0.83569  Biso   1.000  C
  H551     1.0000 0.28509  0.15380  0.81295  Biso   1.000  H
  O221     1.0000 0.40381  0.09621  0.64393  Biso   1.000  O
  N422     1.0000 0.39669  0.16222  0.76207  Biso   1.000  N
  O222     1.0000 0.40381  0.09621  0.64385  Biso   1.000  O
  N423     1.0000 0.39669  0.16218  0.76207  Biso   1.000  N
  N424     1.0000 0.37661  0.18259  0.94222  Biso   1.000  N
  N425     1.0000 0.37661  0.18259  0.94214  Biso   1.000  N
  O223     1.0000 0.35479  0.14519  0.09799  Biso   1.000  O
  O224     1.0000 0.35479  0.14519  0.09807  Biso   1.000  O
  C661     1.0000 0.58431  0.23912  0.06907  Biso   1.000  C
  C662     1.0000 0.58431  0.23912  0.06914  Biso   1.000  C
  C663     1.0000 0.58431  0.23908  0.06907  Biso   1.000  C
  C664     1.0000 0.58431  0.23908  0.06914  Biso   1.000  C
  H552     1.0000 0.67751  0.23519  0.96809  Biso   1.000  H
  C665     1.0000 0.61581  0.20659  0.80417  Biso   1.000  C
  H553     1.0000 0.34618  0.21489  0.81303  Biso   1.000  H
  H554     1.0000 0.34618  0.21489  0.81295  Biso   1.000  H
  C666     1.0000 0.43611  0.19372  0.71841  Biso   1.000  C
  C667     1.0000 0.43611  0.19368  0.71841  Biso   1.000  C
  C668     1.0000 0.40491  0.22548  0.98581  Biso   1.000  C
  C669     1.0000 0.40491  0.22548  0.98573  Biso   1.000  C
  N426     1.0000 0.54039  0.22948  0.00290  Biso   1.000  N
  H555     1.0000 0.57269  0.24072  0.14291  Biso   1.000  H
  H556     1.0000 0.59848  0.27290  0.05080  Biso   1.000  H
  N427     1.0000 0.54039  0.22948  0.00282  Biso   1.000  N
  H557     1.0000 0.57269  0.24072  0.14283  Biso   1.000  H
  H558     1.0000 0.57269  0.24068  0.14291  Biso   1.000  H
  H559     1.0000 0.57269  0.24068  0.14283  Biso   1.000  H
  N428     1.0000 0.56218  0.20800  0.82259  Biso   1.000  N
  H560     1.0000 0.62209  0.19109  0.73471  Biso   1.000  H
  H561     1.0000 0.62891  0.24201  0.80198  Biso   1.000  H
  H562     1.0000 0.62209  0.19109  0.73463  Biso   1.000  H
  H563     1.0000 0.62891  0.24197  0.80198  Biso   1.000  H
  N429     1.0000 0.47960  0.20011  0.78739  Biso   1.000  N
  H564     1.0000 0.44780  0.17848  0.65169  Biso   1.000  H
  H565     1.0000 0.42160  0.22769  0.70234  Biso   1.000  H
  H566     1.0000 0.42160  0.22769  0.70226  Biso   1.000  H
  N430     1.0000 0.47960  0.20008  0.78739  Biso   1.000  N
  N431     1.0000 0.45869  0.22350  0.96558  Biso   1.000  N
  H567     1.0000 0.39101  0.25751  0.95610  Biso   1.000  H
  H568     1.0000 0.39101  0.25747  0.95610  Biso   1.000  H
  H569     1.0000 0.39931  0.22651  0.06256  Biso   1.000  H
  C670     1.0000 0.49419  0.21969  0.04327  Biso   1.000  C
  C671     1.0000 0.53769  0.24392  0.89432  Biso   1.000  C
  C672     1.0000 0.53769  0.24392  0.89425  Biso   1.000  C
  C673     1.0000 0.53769  0.24388  0.89432  Biso   1.000  C
  C674     1.0000 0.53769  0.24388  0.89425  Biso   1.000  C
  C675     1.0000 0.52699  0.18480  0.75792  Biso   1.000  C
  C676     1.0000 0.52699  0.18480  0.75784  Biso   1.000  C
  C677     1.0000 0.48101  0.23912  0.86838  Biso   1.000  C
  C678     1.0000 0.48101  0.23908  0.86838  Biso   1.000  C
  O225     1.0000 0.48501  0.20910  0.13547  Biso   1.000  O
  H570     1.0000 0.55030  0.27949  0.88311  Biso   1.000  H
  H571     1.0000 0.55030  0.27949  0.88304  Biso   1.000  H
  O226     1.0000 0.53780  0.15578  0.68619  Biso   1.000  O
  H572     1.0000 0.46639  0.27210  0.84313  Biso   1.000  H
  H573     1.0000 0.46639  0.27210  0.84305  Biso   1.000  H
  C679     1.0000 0.51899  0.76088  0.13162  Biso   1.000  C
  C680     1.0000 0.46231  0.75608  0.10568  Biso   1.000  C
  N432     1.0000 0.52040  0.79989  0.21261  Biso   1.000  N
  H574     1.0000 0.53361  0.72790  0.15687  Biso   1.000  H
  N433     1.0000 0.54131  0.77650  0.03442  Biso   1.000  N
  N434     1.0000 0.54131  0.77650  0.03434  Biso   1.000  N
  H575     1.0000 0.44970  0.72051  0.11689  Biso   1.000  H
  N435     1.0000 0.45961  0.77052  0.99710  Biso   1.000  N
  N436     1.0000 0.45961  0.77048  0.99710  Biso   1.000  N
  N437     1.0000 0.43778  0.79200  0.17741  Biso   1.000  N
  N438     1.0000 0.43778  0.79200  0.17733  Biso   1.000  N
  C681     1.0000 0.51899  0.76088  0.13155  Biso   1.000  C
  C682     1.0000 0.47301  0.81520  0.24208  Biso   1.000  C
  C683     1.0000 0.56389  0.80628  0.28159  Biso   1.000  C
  C684     1.0000 0.56389  0.80628  0.28151  Biso   1.000  C
  C685     1.0000 0.50581  0.78031  0.95673  Biso   1.000  C
  C686     1.0000 0.50581  0.78031  0.95665  Biso   1.000  C
  C687     1.0000 0.59509  0.77452  0.01419  Biso   1.000  C
  C688     1.0000 0.59509  0.77448  0.01419  Biso   1.000  C
  C689     1.0000 0.41569  0.76088  0.93093  Biso   1.000  C
  C690     1.0000 0.41569  0.76088  0.93086  Biso   1.000  C
  C691     1.0000 0.38419  0.79341  0.19583  Biso   1.000  C
  C692     1.0000 0.38419  0.79341  0.19575  Biso   1.000  C
  O227     1.0000 0.46220  0.84422  0.31381  Biso   1.000  O
  O228     1.0000 0.46220  0.84422  0.31373  Biso   1.000  O
  O229     1.0000 0.46220  0.84418  0.31381  Biso   1.000  O
  O230     1.0000 0.46220  0.84418  0.31373  Biso   1.000  O
  H576     1.0000 0.57840  0.77231  0.29766  Biso   1.000  H
  N439     1.0000 0.60331  0.83778  0.23793  Biso   1.000  N
  H577     1.0000 0.55220  0.82152  0.34831  Biso   1.000  H
  N440     1.0000 0.60331  0.83778  0.23785  Biso   1.000  N
  H578     1.0000 0.55220  0.82152  0.34823  Biso   1.000  H
  H579     1.0000 0.55220  0.82148  0.34831  Biso   1.000  H
  H580     1.0000 0.55220  0.82148  0.34823  Biso   1.000  H
  O231     1.0000 0.51499  0.79090  0.86453  Biso   1.000  O
  O232     1.0000 0.51499  0.79090  0.86446  Biso   1.000  O
  N441     1.0000 0.62339  0.81741  0.05778  Biso   1.000  N
  H581     1.0000 0.60069  0.77349  0.93744  Biso   1.000  H
  H582     1.0000 0.60069  0.77349  0.93736  Biso   1.000  H
  H583     1.0000 0.60899  0.74249  0.04390  Biso   1.000  H
  H584     1.0000 0.60899  0.74249  0.04382  Biso   1.000  H
  N442     1.0000 0.37600  0.79760  0.93830  Biso   1.000  N
  H585     1.0000 0.42731  0.75928  0.85709  Biso   1.000  H
  H586     1.0000 0.40149  0.72710  0.94920  Biso   1.000  H
  N443     1.0000 0.37600  0.79760  0.93823  Biso   1.000  N
  H587     1.0000 0.37791  0.80891  0.26529  Biso   1.000  H
  H588     1.0000 0.37109  0.75799  0.19802  Biso   1.000  H
  N444     1.0000 0.35601  0.82152  0.11767  Biso   1.000  N
  N445     1.0000 0.35601  0.82148  0.11767  Biso   1.000  N
  C693     1.0000 0.61878  0.88120  0.28340  Biso   1.000  C
  C694     1.0000 0.63980  0.81882  0.16431  Biso   1.000  C
  C695     1.0000 0.61878  0.88120  0.28332  Biso   1.000  C
  C696     1.0000 0.63980  0.81882  0.16424  Biso   1.000  C
  C697     1.0000 0.63980  0.81878  0.16431  Biso   1.000  C
  C698     1.0000 0.63980  0.81878  0.16424  Biso   1.000  C
  C699     1.0000 0.64959  0.85039  0.99271  Biso   1.000  C
  C700     1.0000 0.64959  0.85039  0.99263  Biso   1.000  C
  C701     1.0000 0.36500  0.82990  0.85709  Biso   1.000  C
  C702     1.0000 0.33830  0.79890  0.02030  Biso   1.000  C
  C703     1.0000 0.33830  0.79890  0.02023  Biso   1.000  C
  C704     1.0000 0.32988  0.86502  0.14291  Biso   1.000  C
  C705     1.0000 0.32988  0.86502  0.14283  Biso   1.000  C
  C706     1.0000 0.32988  0.86498  0.14291  Biso   1.000  C
  C707     1.0000 0.32988  0.86498  0.14283  Biso   1.000  C
  O233     1.0000 0.59619  0.90379  0.35607  Biso   1.000  O
  N446     1.0000 0.66220  0.89671  0.23793  Biso   1.000  N
  N447     1.0000 0.66220  0.89671  0.23785  Biso   1.000  N
  H589     1.0000 0.65378  0.78511  0.18697  Biso   1.000  H
  C708     1.0000 0.68120  0.86022  0.16431  Biso   1.000  C
  C709     1.0000 0.68120  0.86022  0.16424  Biso   1.000  C
  C710     1.0000 0.68120  0.86018  0.16431  Biso   1.000  C
  C711     1.0000 0.68120  0.86018  0.16424  Biso   1.000  C
  N448     1.0000 0.68261  0.87659  0.05778  Biso   1.000  N
  O234     1.0000 0.64521  0.85481  0.90201  Biso   1.000  O
  O235     1.0000 0.64521  0.85481  0.90193  Biso   1.000  O
  O236     1.0000 0.38979  0.83489  0.77720  Biso   1.000  O
  N449     1.0000 0.32150  0.85599  0.88233  Biso   1.000  N
  N450     1.0000 0.32150  0.85599  0.88225  Biso   1.000  N
  H590     1.0000 0.32249  0.76481  0.03191  Biso   1.000  H
  C712     1.0000 0.29891  0.83832  0.97970  Biso   1.000  C
  C713     1.0000 0.29891  0.83828  0.97970  Biso   1.000  C
  N451     1.0000 0.29758  0.87599  0.06170  Biso   1.000  N
  O237     1.0000 0.33491  0.88981  0.22280  Biso   1.000  O
  O238     1.0000 0.33491  0.88981  0.22272  Biso   1.000  O
  C714     1.0000 0.69370  0.93609  0.28159  Biso   1.000  C
  C715     1.0000 0.69370  0.93609  0.28151  Biso   1.000  C
  H591     1.0000 0.71491  0.84620  0.18697  Biso   1.000  H
  C716     1.0000 0.72550  0.90489  0.01419  Biso   1.000  C
  C717     1.0000 0.29339  0.88421  0.80417  Biso   1.000  C
  C718     1.0000 0.29339  0.88417  0.80417  Biso   1.000  C
  H592     1.0000 0.26479  0.82251  0.96809  Biso   1.000  H
  C719     1.0000 0.26090  0.91571  0.06907  Biso   1.000  C
  C720     1.0000 0.26090  0.91571  0.06914  Biso   1.000  C
  N452     1.0000 0.70010  0.97958  0.21261  Biso   1.000  N
  H593     1.0000 0.67850  0.94778  0.34831  Biso   1.000  H
  H594     1.0000 0.72771  0.92161  0.29766  Biso   1.000  H
  H595     1.0000 0.67850  0.94778  0.34823  Biso   1.000  H
  H596     1.0000 0.72771  0.92158  0.29766  Biso   1.000  H
  H597     1.0000 0.72649  0.89930  0.93744  Biso   1.000  H
  H598     1.0000 0.72649  0.89930  0.93736  Biso   1.000  H
  N453     1.0000 0.72348  0.95871  0.03442  Biso   1.000  N
  H599     1.0000 0.75749  0.89099  0.04390  Biso   1.000  H
  N454     1.0000 0.72348  0.95871  0.03434  Biso   1.000  N
  H600     1.0000 0.75749  0.89099  0.04382  Biso   1.000  H
  N455     1.0000 0.72348  0.95867  0.03442  Biso   1.000  N
  N456     1.0000 0.72348  0.95867  0.03434  Biso   1.000  N
  N457     1.0000 0.29198  0.93780  0.82259  Biso   1.000  N
  H601     1.0000 0.30889  0.87789  0.73471  Biso   1.000  H
  H602     1.0000 0.25801  0.87111  0.80198  Biso   1.000  H
  H603     1.0000 0.30889  0.87789  0.73463  Biso   1.000  H
  H604     1.0000 0.22708  0.90150  0.05080  Biso   1.000  H
  N458     1.0000 0.27050  0.95959  0.00290  Biso   1.000  N
  H605     1.0000 0.25930  0.92729  0.14291  Biso   1.000  H
  N459     1.0000 0.27050  0.95959  0.00282  Biso   1.000  N
  H606     1.0000 0.25930  0.92729  0.14283  Biso   1.000  H
  C721     1.0000 0.73910  0.98099  0.13162  Biso   1.000  C
  C722     1.0000 0.73910  0.98099  0.13155  Biso   1.000  C
  C723     1.0000 0.68478  0.02700  0.24208  Biso   1.000  C
  C724     1.0000 0.71971  0.99421  0.95673  Biso   1.000  C
  C725     1.0000 0.71971  0.99421  0.95665  Biso   1.000  C
  C726     1.0000 0.25610  0.96229  0.89432  Biso   1.000  C
  C727     1.0000 0.31522  0.97300  0.75792  Biso   1.000  C
  C728     1.0000 0.25610  0.96229  0.89425  Biso   1.000  C
  C729     1.0000 0.31522  0.97300  0.75784  Biso   1.000  C
  C730     1.0000 0.28029  0.00579  0.04327  Biso   1.000  C
  H607     1.0000 0.77208  0.96641  0.15687  Biso   1.000  H
  C731     1.0000 0.74390  0.03771  0.10568  Biso   1.000  C
  O239     1.0000 0.65580  0.03778  0.31381  Biso   1.000  O
  N460     1.0000 0.70798  0.06220  0.17741  Biso   1.000  N
  O240     1.0000 0.65580  0.03778  0.31373  Biso   1.000  O
  N461     1.0000 0.70798  0.06220  0.17733  Biso   1.000  N
  O241     1.0000 0.70908  0.98499  0.86453  Biso   1.000  O
  O242     1.0000 0.70908  0.98499  0.86446  Biso   1.000  O
  N462     1.0000 0.72950  0.04041  0.99710  Biso   1.000  N
  N463     1.0000 0.72950  0.04037  0.99710  Biso   1.000  N
  H608     1.0000 0.22049  0.94969  0.88311  Biso   1.000  H
  H609     1.0000 0.22049  0.94969  0.88304  Biso   1.000  H
  C732     1.0000 0.26090  0.01901  0.86838  Biso   1.000  C
  O243     1.0000 0.34420  0.96222  0.68619  Biso   1.000  O
  O244     1.0000 0.34420  0.96218  0.68619  Biso   1.000  O
  N464     1.0000 0.29990  0.02042  0.78739  Biso   1.000  N
  N465     1.0000 0.29990  0.02038  0.78739  Biso   1.000  N
  N466     1.0000 0.27648  0.04129  0.96558  Biso   1.000  N
  O245     1.0000 0.29092  0.01501  0.13547  Biso   1.000  O
  H610     1.0000 0.77951  0.05031  0.11689  Biso   1.000  H
  H611     1.0000 0.77951  0.05028  0.11689  Biso   1.000  H
  C733     1.0000 0.70661  0.11579  0.19583  Biso   1.000  C
  C734     1.0000 0.70661  0.11579  0.19575  Biso   1.000  C
  C735     1.0000 0.73910  0.08429  0.93093  Biso   1.000  C
  C736     1.0000 0.73910  0.08429  0.93086  Biso   1.000  C
  H612     1.0000 0.22788  0.03359  0.84313  Biso   1.000  H
  H613     1.0000 0.22788  0.03359  0.84305  Biso   1.000  H
  C737     1.0000 0.30630  0.06391  0.71841  Biso   1.000  C
  C738     1.0000 0.30630  0.06387  0.71841  Biso   1.000  C
  C739     1.0000 0.27450  0.09511  0.98581  Biso   1.000  C
  C740     1.0000 0.27450  0.09511  0.98573  Biso   1.000  C
  N467     1.0000 0.67850  0.14401  0.11767  Biso   1.000  N
  H614     1.0000 0.69111  0.12211  0.26529  Biso   1.000  H
  H615     1.0000 0.74199  0.12889  0.19802  Biso   1.000  H
  N468     1.0000 0.67850  0.14397  0.11767  Biso   1.000  N
  N469     1.0000 0.70238  0.12401  0.93830  Biso   1.000  N
  H616     1.0000 0.74070  0.07271  0.85709  Biso   1.000  H
  H617     1.0000 0.77288  0.09850  0.94920  Biso   1.000  H
  N470     1.0000 0.70238  0.12401  0.93823  Biso   1.000  N
  N471     1.0000 0.70238  0.12398  0.93830  Biso   1.000  N
  N472     1.0000 0.70238  0.12398  0.93823  Biso   1.000  N
  N473     1.0000 0.33780  0.10329  0.76207  Biso   1.000  N
  H618     1.0000 0.32150  0.05222  0.65169  Biso   1.000  H
  H619     1.0000 0.27229  0.07839  0.70234  Biso   1.000  H
  H620     1.0000 0.27229  0.07839  0.70226  Biso   1.000  H
  H621     1.0000 0.32150  0.05218  0.65169  Biso   1.000  H
  N474     1.0000 0.31739  0.12341  0.94222  Biso   1.000  N
  H622     1.0000 0.24251  0.10901  0.95610  Biso   1.000  H
  N475     1.0000 0.31739  0.12341  0.94214  Biso   1.000  N
  H623     1.0000 0.27351  0.10070  0.06256  Biso   1.000  H
  C741     1.0000 0.63500  0.17010  0.14291  Biso   1.000  C
  C742     1.0000 0.70109  0.16168  0.02030  Biso   1.000  C
  C743     1.0000 0.63500  0.17010  0.14283  Biso   1.000  C
  C744     1.0000 0.70109  0.16168  0.02023  Biso   1.000  C
  C745     1.0000 0.67008  0.13498  0.85709  Biso   1.000  C
  C746     1.0000 0.31880  0.13978  0.83569  Biso   1.000  C
  C747     1.0000 0.38118  0.11880  0.71660  Biso   1.000  C
  C748     1.0000 0.35041  0.14961  0.00729  Biso   1.000  C
  O246     1.0000 0.61021  0.16511  0.22280  Biso   1.000  O
  N476     1.0000 0.62400  0.20240  0.06170  Biso   1.000  N
  O247     1.0000 0.61021  0.16511  0.22272  Biso   1.000  O
  O248     1.0000 0.61021  0.16507  0.22280  Biso   1.000  O
  O249     1.0000 0.61021  0.16507  0.22272  Biso   1.000  O
  C749     1.0000 0.66170  0.20110  0.97970  Biso   1.000  C
  H624     1.0000 0.73521  0.17749  0.03191  Biso   1.000  H
  O250     1.0000 0.66509  0.11019  0.77720  Biso   1.000  O
  N477     1.0000 0.64399  0.17848  0.88233  Biso   1.000  N
  N478     1.0000 0.64399  0.17848  0.88225  Biso   1.000  N
  H625     1.0000 0.28509  0.15380  0.81303  Biso   1.000  H
  C750     1.0000 0.36020  0.18118  0.83569  Biso   1.000  C
  H626     1.0000 0.28509  0.15380  0.81295  Biso   1.000  H
  O251     1.0000 0.40381  0.09621  0.64393  Biso   1.000  O
  N479     1.0000 0.39669  0.16222  0.76207  Biso   1.000  N
  O252     1.0000 0.40381  0.09621  0.64385  Biso   1.000  O
  N480     1.0000 0.39669  0.16218  0.76207  Biso   1.000  N
  N481     1.0000 0.37661  0.18259  0.94222  Biso   1.000  N
  N482     1.0000 0.37661  0.18259  0.94214  Biso   1.000  N
  O253     1.0000 0.35479  0.14519  0.09799  Biso   1.000  O
  O254     1.0000 0.35479  0.14519  0.09807  Biso   1.000  O
  C751     1.0000 0.58431  0.23912  0.06907  Biso   1.000  C
  C752     1.0000 0.58431  0.23912  0.06914  Biso   1.000  C
  C753     1.0000 0.58431  0.23908  0.06907  Biso   1.000  C
  C754     1.0000 0.58431  0.23908  0.06914  Biso   1.000  C
  H627     1.0000 0.67751  0.23519  0.96809  Biso   1.000  H
  C755     1.0000 0.61581  0.20659  0.80417  Biso   1.000  C
  H628     1.0000 0.34618  0.21489  0.81303  Biso   1.000  H
  H629     1.0000 0.34618  0.21489  0.81295  Biso   1.000  H
  C756     1.0000 0.43611  0.19372  0.71841  Biso   1.000  C
  C757     1.0000 0.43611  0.19368  0.71841  Biso   1.000  C
  C758     1.0000 0.40491  0.22548  0.98581  Biso   1.000  C
  C759     1.0000 0.40491  0.22548  0.98573  Biso   1.000  C
  N483     1.0000 0.54039  0.22948  0.00290  Biso   1.000  N
  H630     1.0000 0.57269  0.24072  0.14291  Biso   1.000  H
  H631     1.0000 0.59848  0.27290  0.05080  Biso   1.000  H
  N484     1.0000 0.54039  0.22948  0.00282  Biso   1.000  N
  H632     1.0000 0.57269  0.24072  0.14283  Biso   1.000  H
  H633     1.0000 0.57269  0.24068  0.14291  Biso   1.000  H
  H634     1.0000 0.57269  0.24068  0.14283  Biso   1.000  H
  N485     1.0000 0.56218  0.20800  0.82259  Biso   1.000  N
  H635     1.0000 0.62209  0.19109  0.73471  Biso   1.000  H
  H636     1.0000 0.62891  0.24201  0.80198  Biso   1.000  H
  H637     1.0000 0.62209  0.19109  0.73463  Biso   1.000  H
  H638     1.0000 0.62891  0.24197  0.80198  Biso   1.000  H
  N486     1.0000 0.47960  0.20011  0.78739  Biso   1.000  N
  H639     1.0000 0.44780  0.17848  0.65169  Biso   1.000  H
  H640     1.0000 0.42160  0.22769  0.70234  Biso   1.000  H
  H641     1.0000 0.42160  0.22769  0.70226  Biso   1.000  H
  N487     1.0000 0.47960  0.20008  0.78739  Biso   1.000  N
  N488     1.0000 0.45869  0.22350  0.96558  Biso   1.000  N
  H642     1.0000 0.39101  0.25751  0.95610  Biso   1.000  H
  H643     1.0000 0.39101  0.25747  0.95610  Biso   1.000  H
  H644     1.0000 0.39931  0.22651  0.06256  Biso   1.000  H
  C760     1.0000 0.49419  0.21969  0.04327  Biso   1.000  C
  C761     1.0000 0.53769  0.24392  0.89432  Biso   1.000  C
  C762     1.0000 0.53769  0.24392  0.89425  Biso   1.000  C
  C763     1.0000 0.53769  0.24388  0.89432  Biso   1.000  C
  C764     1.0000 0.53769  0.24388  0.89425  Biso   1.000  C
  C765     1.0000 0.52699  0.18480  0.75792  Biso   1.000  C
  C766     1.0000 0.52699  0.18480  0.75784  Biso   1.000  C
  C767     1.0000 0.48101  0.23912  0.86838  Biso   1.000  C
  C768     1.0000 0.48101  0.23908  0.86838  Biso   1.000  C
  O255     1.0000 0.48501  0.20910  0.13547  Biso   1.000  O
  H645     1.0000 0.55030  0.27949  0.88311  Biso   1.000  H
  H646     1.0000 0.55030  0.27949  0.88304  Biso   1.000  H
  O256     1.0000 0.53780  0.15578  0.68619  Biso   1.000  O
  H647     1.0000 0.46639  0.27210  0.84313  Biso   1.000  H
  H648     1.0000 0.46639  0.27210  0.84305  Biso   1.000  H
  C769     1.0000 0.18118  0.13978  0.33569  Biso   1.000  C
  C770     1.0000 0.13978  0.18118  0.33569  Biso   1.000  C
  N489     1.0000 0.18259  0.12341  0.44214  Biso   1.000  N
  N490     1.0000 0.16222  0.10329  0.26207  Biso   1.000  N
  H649     1.0000 0.21489  0.15380  0.31295  Biso   1.000  H
  N491     1.0000 0.16218  0.10329  0.26207  Biso   1.000  N
  N492     1.0000 0.12341  0.18259  0.44214  Biso   1.000  N
  H650     1.0000 0.15380  0.21489  0.31295  Biso   1.000  H
  N493     1.0000 0.10329  0.16222  0.26207  Biso   1.000  N
  N494     1.0000 0.10329  0.16218  0.26207  Biso   1.000  N
  C771     1.0000 0.14961  0.14961  0.50729  Biso   1.000  C
  C772     1.0000 0.22548  0.09511  0.48581  Biso   1.000  C
  C773     1.0000 0.19372  0.06391  0.21841  Biso   1.000  C
  C774     1.0000 0.11880  0.11880  0.21660  Biso   1.000  C
  C775     1.0000 0.19372  0.06387  0.21841  Biso   1.000  C
  C776     1.0000 0.19368  0.06391  0.21841  Biso   1.000  C
  C777     1.0000 0.19368  0.06387  0.21841  Biso   1.000  C
  C778     1.0000 0.09511  0.22548  0.48581  Biso   1.000  C
  C779     1.0000 0.06391  0.19372  0.21841  Biso   1.000  C
  C780     1.0000 0.06391  0.19368  0.21841  Biso   1.000  C
  C781     1.0000 0.06387  0.19372  0.21841  Biso   1.000  C
  C782     1.0000 0.06387  0.19368  0.21841  Biso   1.000  C
  O257     1.0000 0.14519  0.14519  0.59799  Biso   1.000  O
  N495     1.0000 0.22350  0.04129  0.46558  Biso   1.000  N
  H651     1.0000 0.22651  0.10070  0.56256  Biso   1.000  H
  H652     1.0000 0.25751  0.10901  0.45610  Biso   1.000  H
  H653     1.0000 0.25747  0.10901  0.45610  Biso   1.000  H
  N496     1.0000 0.20011  0.02042  0.28739  Biso   1.000  N
  H654     1.0000 0.17848  0.05222  0.15169  Biso   1.000  H
  H655     1.0000 0.22769  0.07839  0.20226  Biso   1.000  H
  N497     1.0000 0.20011  0.02038  0.28739  Biso   1.000  N
  H656     1.0000 0.17848  0.05218  0.15169  Biso   1.000  H
  N498     1.0000 0.20008  0.02042  0.28739  Biso   1.000  N
  N499     1.0000 0.20008  0.02038  0.28739  Biso   1.000  N
  O258     1.0000 0.09621  0.09621  0.14393  Biso   1.000  O
  N500     1.0000 0.04129  0.22350  0.46558  Biso   1.000  N
  H657     1.0000 0.10070  0.22651  0.56256  Biso   1.000  H
  H658     1.0000 0.10901  0.25751  0.45610  Biso   1.000  H
  H659     1.0000 0.10901  0.25747  0.45610  Biso   1.000  H
  N501     1.0000 0.02042  0.20011  0.28739  Biso   1.000  N
  H660     1.0000 0.05222  0.17848  0.15169  Biso   1.000  H
  H661     1.0000 0.07839  0.22769  0.20226  Biso   1.000  H
  N502     1.0000 0.02042  0.20008  0.28739  Biso   1.000  N
  N503     1.0000 0.02038  0.20011  0.28739  Biso   1.000  N
  H662     1.0000 0.05218  0.17848  0.15169  Biso   1.000  H
  N504     1.0000 0.02038  0.20008  0.28739  Biso   1.000  N
  C783     1.0000 0.21969  0.00579  0.54327  Biso   1.000  C
  C784     1.0000 0.23912  0.01901  0.36838  Biso   1.000  C
  C785     1.0000 0.23908  0.01901  0.36838  Biso   1.000  C
  C786     1.0000 0.18480  0.97300  0.25792  Biso   1.000  C
  C787     1.0000 0.00579  0.21969  0.54327  Biso   1.000  C
  C788     1.0000 0.01901  0.23912  0.36838  Biso   1.000  C
  C789     1.0000 0.01901  0.23908  0.36838  Biso   1.000  C
  C790     1.0000 0.97300  0.18480  0.25792  Biso   1.000  C
  O259     1.0000 0.20910  0.01501  0.63547  Biso   1.000  O
  N505     1.0000 0.22948  0.95959  0.50290  Biso   1.000  N
  H663     1.0000 0.27210  0.03359  0.34305  Biso   1.000  H
  C791     1.0000 0.24392  0.96229  0.39425  Biso   1.000  C
  C792     1.0000 0.24388  0.96229  0.39425  Biso   1.000  C
  O260     1.0000 0.15578  0.96222  0.18619  Biso   1.000  O
  N506     1.0000 0.20800  0.93780  0.32259  Biso   1.000  N
  O261     1.0000 0.15578  0.96218  0.18619  Biso   1.000  O
  O262     1.0000 0.01501  0.20910  0.63547  Biso   1.000  O
  N507     1.0000 0.95959  0.22948  0.50290  Biso   1.000  N
  H664     1.0000 0.03359  0.27210  0.34305  Biso   1.000  H
  C793     1.0000 0.96229  0.24392  0.39425  Biso   1.000  C
  C794     1.0000 0.96229  0.24388  0.39425  Biso   1.000  C
  O263     1.0000 0.96222  0.15578  0.18619  Biso   1.000  O
  N508     1.0000 0.93780  0.20800  0.32259  Biso   1.000  N
  O264     1.0000 0.96218  0.15578  0.18619  Biso   1.000  O
  C795     1.0000 0.23912  0.91571  0.56907  Biso   1.000  C
  C796     1.0000 0.23908  0.91571  0.56907  Biso   1.000  C
  H665     1.0000 0.27949  0.94969  0.38311  Biso   1.000  H
  C797     1.0000 0.20659  0.88421  0.30417  Biso   1.000  C
  C798     1.0000 0.20659  0.88417  0.30417  Biso   1.000  C
  C799     1.0000 0.91571  0.23912  0.56907  Biso   1.000  C
  C800     1.0000 0.91571  0.23908  0.56907  Biso   1.000  C
  H666     1.0000 0.94969  0.27949  0.38311  Biso   1.000  H
  C801     1.0000 0.88421  0.20659  0.30417  Biso   1.000  C
  C802     1.0000 0.88417  0.20659  0.30417  Biso   1.000  C
  N509     1.0000 0.20240  0.87599  0.56170  Biso   1.000  N
  H667     1.0000 0.24072  0.92729  0.64291  Biso   1.000  H
  H668     1.0000 0.27290  0.90150  0.55080  Biso   1.000  H
  H669     1.0000 0.24068  0.92729  0.64291  Biso   1.000  H
  N510     1.0000 0.17848  0.85599  0.38225  Biso   1.000  N
  H670     1.0000 0.19109  0.87789  0.23471  Biso   1.000  H
  H671     1.0000 0.24201  0.87111  0.30198  Biso   1.000  H
  H672     1.0000 0.24197  0.87111  0.30198  Biso   1.000  H
  N511     1.0000 0.87599  0.20240  0.56170  Biso   1.000  N
  H673     1.0000 0.92729  0.24072  0.64291  Biso   1.000  H
  H674     1.0000 0.90150  0.27290  0.55080  Biso   1.000  H
  H675     1.0000 0.92729  0.24068  0.64291  Biso   1.000  H
  N512     1.0000 0.85599  0.17848  0.38225  Biso   1.000  N
  H676     1.0000 0.87789  0.19109  0.23471  Biso   1.000  H
  H677     1.0000 0.87111  0.24201  0.30198  Biso   1.000  H
  H678     1.0000 0.87111  0.24197  0.30198  Biso   1.000  H
  C803     1.0000 0.17010  0.86502  0.64291  Biso   1.000  C
  C804     1.0000 0.20110  0.83832  0.47970  Biso   1.000  C
  C805     1.0000 0.17010  0.86498  0.64291  Biso   1.000  C
  C806     1.0000 0.20110  0.83828  0.47970  Biso   1.000  C
  C807     1.0000 0.13498  0.82990  0.35709  Biso   1.000  C
  C808     1.0000 0.86502  0.17010  0.64291  Biso   1.000  C
  C809     1.0000 0.83832  0.20110  0.47970  Biso   1.000  C
  C810     1.0000 0.86498  0.17010  0.64291  Biso   1.000  C
  C811     1.0000 0.83828  0.20110  0.47970  Biso   1.000  C
  C812     1.0000 0.82990  0.13498  0.35709  Biso   1.000  C
  O265     1.0000 0.16511  0.88981  0.72280  Biso   1.000  O
  N513     1.0000 0.14401  0.82152  0.61767  Biso   1.000  N
  N514     1.0000 0.14401  0.82148  0.61767  Biso   1.000  N
  O266     1.0000 0.16507  0.88981  0.72280  Biso   1.000  O
  N515     1.0000 0.14397  0.82152  0.61767  Biso   1.000  N
  N516     1.0000 0.14397  0.82148  0.61767  Biso   1.000  N
  C813     1.0000 0.16168  0.79890  0.52030  Biso   1.000  C
  H679     1.0000 0.23519  0.82251  0.46809  Biso   1.000  H
  O267     1.0000 0.11019  0.83489  0.27720  Biso   1.000  O
  N517     1.0000 0.12401  0.79760  0.43830  Biso   1.000  N
  N518     1.0000 0.12398  0.79760  0.43830  Biso   1.000  N
  O268     1.0000 0.88981  0.16511  0.72280  Biso   1.000  O
  N519     1.0000 0.82152  0.14401  0.61767  Biso   1.000  N
  O269     1.0000 0.88981  0.16507  0.72280  Biso   1.000  O
  N520     1.0000 0.82152  0.14397  0.61767  Biso   1.000  N
  N521     1.0000 0.82148  0.14401  0.61767  Biso   1.000  N
  N522     1.0000 0.82148  0.14397  0.61767  Biso   1.000  N
  H680     1.0000 0.82251  0.23519  0.46809  Biso   1.000  H
  C814     1.0000 0.79890  0.16168  0.52030  Biso   1.000  C
  O270     1.0000 0.83489  0.11019  0.27720  Biso   1.000  O
  N523     1.0000 0.79760  0.12401  0.43830  Biso   1.000  N
  N524     1.0000 0.79760  0.12398  0.43830  Biso   1.000  N
  C815     1.0000 0.11579  0.79341  0.69575  Biso   1.000  C
  H681     1.0000 0.17749  0.76481  0.53191  Biso   1.000  H
  C816     1.0000 0.08429  0.76088  0.43086  Biso   1.000  C
  C817     1.0000 0.79341  0.11579  0.69575  Biso   1.000  C
  H682     1.0000 0.76481  0.17749  0.53191  Biso   1.000  H
  C818     1.0000 0.76088  0.08429  0.43086  Biso   1.000  C
  N525     1.0000 0.06220  0.79200  0.67741  Biso   1.000  N
  H683     1.0000 0.12211  0.80891  0.76529  Biso   1.000  H
  H684     1.0000 0.12889  0.75799  0.69795  Biso   1.000  H
  N526     1.0000 0.04041  0.77052  0.49710  Biso   1.000  N
  H685     1.0000 0.07271  0.75928  0.35709  Biso   1.000  H
  H686     1.0000 0.09850  0.72710  0.44920  Biso   1.000  H
  N527     1.0000 0.04041  0.77048  0.49710  Biso   1.000  N
  N528     1.0000 0.04037  0.77052  0.49710  Biso   1.000  N
  N529     1.0000 0.04037  0.77048  0.49710  Biso   1.000  N
  N530     1.0000 0.79200  0.06220  0.67741  Biso   1.000  N
  H687     1.0000 0.80891  0.12211  0.76529  Biso   1.000  H
  H688     1.0000 0.75799  0.12889  0.69795  Biso   1.000  H
  N531     1.0000 0.77052  0.04041  0.49710  Biso   1.000  N
  H689     1.0000 0.75928  0.07271  0.35709  Biso   1.000  H
  H690     1.0000 0.72710  0.09850  0.44920  Biso   1.000  H
  N532     1.0000 0.77052  0.04037  0.49710  Biso   1.000  N
  N533     1.0000 0.77048  0.04041  0.49710  Biso   1.000  N
  N534     1.0000 0.77048  0.04037  0.49710  Biso   1.000  N
  C819     1.0000 0.02700  0.81520  0.74208  Biso   1.000  C
  C820     1.0000 0.03771  0.75608  0.60568  Biso   1.000  C
  C821     1.0000 0.99421  0.78031  0.45665  Biso   1.000  C
  C822     1.0000 0.81520  0.02700  0.74208  Biso   1.000  C
  C823     1.0000 0.75608  0.03771  0.60568  Biso   1.000  C
  C824     1.0000 0.78031  0.99421  0.45665  Biso   1.000  C
  N535     1.0000 0.97958  0.79989  0.71261  Biso   1.000  N
  O271     1.0000 0.03778  0.84422  0.81373  Biso   1.000  O
  O272     1.0000 0.03778  0.84418  0.81373  Biso   1.000  O
  C825     1.0000 0.98099  0.76088  0.63155  Biso   1.000  C
  H691     1.0000 0.05031  0.72051  0.61689  Biso   1.000  H
  H692     1.0000 0.05028  0.72051  0.61689  Biso   1.000  H
  O273     1.0000 0.98499  0.79090  0.36446  Biso   1.000  O
  N536     1.0000 0.95871  0.77650  0.53442  Biso   1.000  N
  N537     1.0000 0.95867  0.77650  0.53442  Biso   1.000  N
  N538     1.0000 0.79989  0.97958  0.71261  Biso   1.000  N
  O274     1.0000 0.84422  0.03778  0.81373  Biso   1.000  O
  O275     1.0000 0.84418  0.03778  0.81373  Biso   1.000  O
  C826     1.0000 0.76088  0.98099  0.63155  Biso   1.000  C
  H693     1.0000 0.72051  0.05031  0.61689  Biso   1.000  H
  H694     1.0000 0.72051  0.05028  0.61689  Biso   1.000  H
  O276     1.0000 0.79090  0.98499  0.36446  Biso   1.000  O
  N539     1.0000 0.77650  0.95871  0.53442  Biso   1.000  N
  N540     1.0000 0.77650  0.95867  0.53442  Biso   1.000  N
  C827     1.0000 0.93609  0.80628  0.78159  Biso   1.000  C
  H695     1.0000 0.96641  0.72790  0.65687  Biso   1.000  H
  C828     1.0000 0.90489  0.77452  0.51419  Biso   1.000  C
  C829     1.0000 0.90489  0.77448  0.51419  Biso   1.000  C
  C830     1.0000 0.80628  0.93609  0.78159  Biso   1.000  C
  H696     1.0000 0.72790  0.96641  0.65687  Biso   1.000  H
  C831     1.0000 0.77452  0.90489  0.51419  Biso   1.000  C
  C832     1.0000 0.77448  0.90489  0.51419  Biso   1.000  C
  N541     1.0000 0.89671  0.83778  0.73785  Biso   1.000  N
  H697     1.0000 0.94778  0.82152  0.84823  Biso   1.000  H
  H698     1.0000 0.92161  0.77231  0.79766  Biso   1.000  H
  H699     1.0000 0.94778  0.82148  0.84823  Biso   1.000  H
  H700     1.0000 0.92158  0.77231  0.79766  Biso   1.000  H
  N542     1.0000 0.87659  0.81741  0.55778  Biso   1.000  N
  H701     1.0000 0.89930  0.77349  0.43736  Biso   1.000  H
  H702     1.0000 0.89099  0.74249  0.54390  Biso   1.000  H
  N543     1.0000 0.83778  0.89671  0.73785  Biso   1.000  N
  H703     1.0000 0.82152  0.94778  0.84823  Biso   1.000  H
  H704     1.0000 0.77231  0.92161  0.79766  Biso   1.000  H
  H705     1.0000 0.77231  0.92158  0.79766  Biso   1.000  H
  H706     1.0000 0.82148  0.94778  0.84823  Biso   1.000  H
  N544     1.0000 0.81741  0.87659  0.55778  Biso   1.000  N
  H707     1.0000 0.77349  0.89930  0.43736  Biso   1.000  H
  H708     1.0000 0.74249  0.89099  0.54390  Biso   1.000  H
  C833     1.0000 0.88120  0.88120  0.78340  Biso   1.000  C
  C834     1.0000 0.86022  0.81882  0.66424  Biso   1.000  C
  C835     1.0000 0.86022  0.81878  0.66424  Biso   1.000  C
  C836     1.0000 0.86018  0.81882  0.66424  Biso   1.000  C
  C837     1.0000 0.86018  0.81878  0.66424  Biso   1.000  C
  C838     1.0000 0.85039  0.85039  0.49271  Biso   1.000  C
  C839     1.0000 0.81882  0.86022  0.66424  Biso   1.000  C
  C840     1.0000 0.81882  0.86018  0.66424  Biso   1.000  C
  C841     1.0000 0.81878  0.86022  0.66424  Biso   1.000  C
  C842     1.0000 0.81878  0.86018  0.66424  Biso   1.000  C
  O277     1.0000 0.90379  0.90379  0.85607  Biso   1.000  O
  H709     1.0000 0.84620  0.78511  0.68697  Biso   1.000  H
  O278     1.0000 0.85481  0.85481  0.40201  Biso   1.000  O
  H710     1.0000 0.78511  0.84620  0.68697  Biso   1.000  H
  C843     1.0000 0.18118  0.13978  0.33569  Biso   1.000  C
  C844     1.0000 0.13978  0.18118  0.33569  Biso   1.000  C
  N545     1.0000 0.18259  0.12341  0.44214  Biso   1.000  N
  N546     1.0000 0.16222  0.10329  0.26207  Biso   1.000  N
  H711     1.0000 0.21489  0.15380  0.31295  Biso   1.000  H
  N547     1.0000 0.16218  0.10329  0.26207  Biso   1.000  N
  N548     1.0000 0.12341  0.18259  0.44214  Biso   1.000  N
  H712     1.0000 0.15380  0.21489  0.31295  Biso   1.000  H
  N549     1.0000 0.10329  0.16222  0.26207  Biso   1.000  N
  N550     1.0000 0.10329  0.16218  0.26207  Biso   1.000  N
  C845     1.0000 0.14961  0.14961  0.50729  Biso   1.000  C
  C846     1.0000 0.22548  0.09511  0.48581  Biso   1.000  C
  C847     1.0000 0.11880  0.11880  0.21660  Biso   1.000  C
  C848     1.0000 0.19372  0.06391  0.21841  Biso   1.000  C
  C849     1.0000 0.19372  0.06387  0.21841  Biso   1.000  C
  C850     1.0000 0.19368  0.06391  0.21841  Biso   1.000  C
  C851     1.0000 0.19368  0.06387  0.21841  Biso   1.000  C
  C852     1.0000 0.09511  0.22548  0.48581  Biso   1.000  C
  C853     1.0000 0.06391  0.19372  0.21841  Biso   1.000  C
  C854     1.0000 0.06391  0.19368  0.21841  Biso   1.000  C
  C855     1.0000 0.06387  0.19372  0.21841  Biso   1.000  C
  C856     1.0000 0.06387  0.19368  0.21841  Biso   1.000  C
  O279     1.0000 0.14519  0.14519  0.59799  Biso   1.000  O
  N551     1.0000 0.22350  0.04129  0.46558  Biso   1.000  N
  H713     1.0000 0.22651  0.10070  0.56256  Biso   1.000  H
  H714     1.0000 0.25751  0.10901  0.45610  Biso   1.000  H
  H715     1.0000 0.25747  0.10901  0.45610  Biso   1.000  H
  O280     1.0000 0.09621  0.09621  0.14393  Biso   1.000  O
  H716     1.0000 0.22769  0.07839  0.20226  Biso   1.000  H
  H717     1.0000 0.17848  0.05222  0.15169  Biso   1.000  H
  H718     1.0000 0.17848  0.05218  0.15169  Biso   1.000  H
  N552     1.0000 0.20011  0.02042  0.28739  Biso   1.000  N
  N553     1.0000 0.20011  0.02038  0.28739  Biso   1.000  N
  N554     1.0000 0.20008  0.02042  0.28739  Biso   1.000  N
  N555     1.0000 0.20008  0.02038  0.28739  Biso   1.000  N
  N556     1.0000 0.04129  0.22350  0.46558  Biso   1.000  N
  H719     1.0000 0.10070  0.22651  0.56256  Biso   1.000  H
  H720     1.0000 0.10901  0.25751  0.45610  Biso   1.000  H
  H721     1.0000 0.10901  0.25747  0.45610  Biso   1.000  H
  H722     1.0000 0.05222  0.17848  0.15169  Biso   1.000  H
  H723     1.0000 0.07839  0.22769  0.20226  Biso   1.000  H
  H724     1.0000 0.05218  0.17848  0.15169  Biso   1.000  H
  N557     1.0000 0.02042  0.20011  0.28739  Biso   1.000  N
  N558     1.0000 0.02042  0.20008  0.28739  Biso   1.000  N
  N559     1.0000 0.02038  0.20011  0.28739  Biso   1.000  N
  N560     1.0000 0.02038  0.20008  0.28739  Biso   1.000  N
  C857     1.0000 0.21969  0.00579  0.54327  Biso   1.000  C
  C858     1.0000 0.23912  0.01901  0.36838  Biso   1.000  C
  C859     1.0000 0.23908  0.01901  0.36838  Biso   1.000  C
  C860     1.0000 0.18480  0.97300  0.25792  Biso   1.000  C
  C861     1.0000 0.00579  0.21969  0.54327  Biso   1.000  C
  C862     1.0000 0.01901  0.23912  0.36838  Biso   1.000  C
  C863     1.0000 0.01901  0.23908  0.36838  Biso   1.000  C
  C864     1.0000 0.97300  0.18480  0.25792  Biso   1.000  C
  O281     1.0000 0.20910  0.01501  0.63547  Biso   1.000  O
  N561     1.0000 0.22948  0.95959  0.50290  Biso   1.000  N
  H725     1.0000 0.27210  0.03359  0.34305  Biso   1.000  H
  C865     1.0000 0.24392  0.96229  0.39425  Biso   1.000  C
  C866     1.0000 0.24388  0.96229  0.39425  Biso   1.000  C
  O282     1.0000 0.15578  0.96222  0.18619  Biso   1.000  O
  N562     1.0000 0.20800  0.93780  0.32259  Biso   1.000  N
  O283     1.0000 0.15578  0.96218  0.18619  Biso   1.000  O
  O284     1.0000 0.01501  0.20910  0.63547  Biso   1.000  O
  N563     1.0000 0.95959  0.22948  0.50290  Biso   1.000  N
  H726     1.0000 0.03359  0.27210  0.34305  Biso   1.000  H
  C867     1.0000 0.96229  0.24392  0.39425  Biso   1.000  C
  C868     1.0000 0.96229  0.24388  0.39425  Biso   1.000  C
  O285     1.0000 0.96222  0.15578  0.18619  Biso   1.000  O
  N564     1.0000 0.93780  0.20800  0.32259  Biso   1.000  N
  O286     1.0000 0.96218  0.15578  0.18619  Biso   1.000  O
  C869     1.0000 0.23912  0.91571  0.56907  Biso   1.000  C
  C870     1.0000 0.23908  0.91571  0.56907  Biso   1.000  C
  H727     1.0000 0.27949  0.94969  0.38311  Biso   1.000  H
  C871     1.0000 0.20659  0.88421  0.30417  Biso   1.000  C
  C872     1.0000 0.20659  0.88417  0.30417  Biso   1.000  C
  C873     1.0000 0.91571  0.23912  0.56907  Biso   1.000  C
  C874     1.0000 0.91571  0.23908  0.56907  Biso   1.000  C
  H728     1.0000 0.94969  0.27949  0.38311  Biso   1.000  H
  C875     1.0000 0.88421  0.20659  0.30417  Biso   1.000  C
  C876     1.0000 0.88417  0.20659  0.30417  Biso   1.000  C
  N565     1.0000 0.20240  0.87599  0.56170  Biso   1.000  N
  H729     1.0000 0.24072  0.92729  0.64291  Biso   1.000  H
  H730     1.0000 0.27290  0.90150  0.55080  Biso   1.000  H
  H731     1.0000 0.24068  0.92729  0.64291  Biso   1.000  H
  N566     1.0000 0.17848  0.85599  0.38225  Biso   1.000  N
  H732     1.0000 0.19109  0.87789  0.23471  Biso   1.000  H
  H733     1.0000 0.24201  0.87111  0.30198  Biso   1.000  H
  H734     1.0000 0.24197  0.87111  0.30198  Biso   1.000  H
  N567     1.0000 0.87599  0.20240  0.56170  Biso   1.000  N
  H735     1.0000 0.92729  0.24072  0.64291  Biso   1.000  H
  H736     1.0000 0.90150  0.27290  0.55080  Biso   1.000  H
  H737     1.0000 0.92729  0.24068  0.64291  Biso   1.000  H
  N568     1.0000 0.85599  0.17848  0.38225  Biso   1.000  N
  H738     1.0000 0.87789  0.19109  0.23471  Biso   1.000  H
  H739     1.0000 0.87111  0.24201  0.30198  Biso   1.000  H
  H740     1.0000 0.87111  0.24197  0.30198  Biso   1.000  H
  C877     1.0000 0.17010  0.86502  0.64291  Biso   1.000  C
  C878     1.0000 0.20110  0.83832  0.47970  Biso   1.000  C
  C879     1.0000 0.17010  0.86498  0.64291  Biso   1.000  C
  C880     1.0000 0.20110  0.83828  0.47970  Biso   1.000  C
  C881     1.0000 0.13498  0.82990  0.35709  Biso   1.000  C
  C882     1.0000 0.86502  0.17010  0.64291  Biso   1.000  C
  C883     1.0000 0.83832  0.20110  0.47970  Biso   1.000  C
  C884     1.0000 0.86498  0.17010  0.64291  Biso   1.000  C
  C885     1.0000 0.83828  0.20110  0.47970  Biso   1.000  C
  C886     1.0000 0.82990  0.13498  0.35709  Biso   1.000  C
  O287     1.0000 0.16511  0.88981  0.72280  Biso   1.000  O
  N569     1.0000 0.14401  0.82152  0.61767  Biso   1.000  N
  N570     1.0000 0.14401  0.82148  0.61767  Biso   1.000  N
  O288     1.0000 0.16507  0.88981  0.72280  Biso   1.000  O
  N571     1.0000 0.14397  0.82152  0.61767  Biso   1.000  N
  N572     1.0000 0.14397  0.82148  0.61767  Biso   1.000  N
  C887     1.0000 0.16168  0.79890  0.52030  Biso   1.000  C
  H741     1.0000 0.23519  0.82251  0.46809  Biso   1.000  H
  O289     1.0000 0.11019  0.83489  0.27720  Biso   1.000  O
  N573     1.0000 0.12401  0.79760  0.43830  Biso   1.000  N
  N574     1.0000 0.12398  0.79760  0.43830  Biso   1.000  N
  O290     1.0000 0.88981  0.16511  0.72280  Biso   1.000  O
  N575     1.0000 0.82152  0.14401  0.61767  Biso   1.000  N
  O291     1.0000 0.88981  0.16507  0.72280  Biso   1.000  O
  N576     1.0000 0.82152  0.14397  0.61767  Biso   1.000  N
  N577     1.0000 0.82148  0.14401  0.61767  Biso   1.000  N
  N578     1.0000 0.82148  0.14397  0.61767  Biso   1.000  N
  H742     1.0000 0.82251  0.23519  0.46809  Biso   1.000  H
  C888     1.0000 0.79890  0.16168  0.52030  Biso   1.000  C
  O292     1.0000 0.83489  0.11019  0.27720  Biso   1.000  O
  N579     1.0000 0.79760  0.12401  0.43830  Biso   1.000  N
  N580     1.0000 0.79760  0.12398  0.43830  Biso   1.000  N
  C889     1.0000 0.11579  0.79341  0.69575  Biso   1.000  C
  H743     1.0000 0.17749  0.76481  0.53191  Biso   1.000  H
  C890     1.0000 0.08429  0.76088  0.43086  Biso   1.000  C
  C891     1.0000 0.79341  0.11579  0.69575  Biso   1.000  C
  H744     1.0000 0.76481  0.17749  0.53191  Biso   1.000  H
  C892     1.0000 0.76088  0.08429  0.43086  Biso   1.000  C
  N581     1.0000 0.06220  0.79200  0.67741  Biso   1.000  N
  H745     1.0000 0.12211  0.80891  0.76529  Biso   1.000  H
  H746     1.0000 0.12889  0.75799  0.69795  Biso   1.000  H
  N582     1.0000 0.04041  0.77052  0.49710  Biso   1.000  N
  H747     1.0000 0.07271  0.75928  0.35709  Biso   1.000  H
  H748     1.0000 0.09850  0.72710  0.44920  Biso   1.000  H
  N583     1.0000 0.04041  0.77048  0.49710  Biso   1.000  N
  N584     1.0000 0.04037  0.77052  0.49710  Biso   1.000  N
  N585     1.0000 0.04037  0.77048  0.49710  Biso   1.000  N
  N586     1.0000 0.79200  0.06220  0.67741  Biso   1.000  N
  H749     1.0000 0.80891  0.12211  0.76529  Biso   1.000  H
  H750     1.0000 0.75799  0.12889  0.69795  Biso   1.000  H
  N587     1.0000 0.77052  0.04041  0.49710  Biso   1.000  N
  H751     1.0000 0.75928  0.07271  0.35709  Biso   1.000  H
  H752     1.0000 0.72710  0.09850  0.44920  Biso   1.000  H
  N588     1.0000 0.77052  0.04037  0.49710  Biso   1.000  N
  N589     1.0000 0.77048  0.04041  0.49710  Biso   1.000  N
  N590     1.0000 0.77048  0.04037  0.49710  Biso   1.000  N
  C893     1.0000 0.02700  0.81520  0.74208  Biso   1.000  C
  C894     1.0000 0.03771  0.75608  0.60568  Biso   1.000  C
  C895     1.0000 0.99421  0.78031  0.45665  Biso   1.000  C
  C896     1.0000 0.81520  0.02700  0.74208  Biso   1.000  C
  C897     1.0000 0.75608  0.03771  0.60568  Biso   1.000  C
  C898     1.0000 0.78031  0.99421  0.45665  Biso   1.000  C
  N591     1.0000 0.97958  0.79989  0.71261  Biso   1.000  N
  O293     1.0000 0.03778  0.84422  0.81373  Biso   1.000  O
  O294     1.0000 0.03778  0.84418  0.81373  Biso   1.000  O
  C899     1.0000 0.98099  0.76088  0.63155  Biso   1.000  C
  H753     1.0000 0.05031  0.72051  0.61689  Biso   1.000  H
  H754     1.0000 0.05028  0.72051  0.61689  Biso   1.000  H
  O295     1.0000 0.98499  0.79090  0.36446  Biso   1.000  O
  N592     1.0000 0.95871  0.77650  0.53442  Biso   1.000  N
  N593     1.0000 0.95867  0.77650  0.53442  Biso   1.000  N
  N594     1.0000 0.79989  0.97958  0.71261  Biso   1.000  N
  O296     1.0000 0.84422  0.03778  0.81373  Biso   1.000  O
  O297     1.0000 0.84418  0.03778  0.81373  Biso   1.000  O
  C900     1.0000 0.76088  0.98099  0.63155  Biso   1.000  C
  H755     1.0000 0.72051  0.05031  0.61689  Biso   1.000  H
  H756     1.0000 0.72051  0.05028  0.61689  Biso   1.000  H
  O298     1.0000 0.79090  0.98499  0.36446  Biso   1.000  O
  N595     1.0000 0.77650  0.95871  0.53442  Biso   1.000  N
  N596     1.0000 0.77650  0.95867  0.53442  Biso   1.000  N
  C901     1.0000 0.93609  0.80628  0.78159  Biso   1.000  C
  H757     1.0000 0.96641  0.72790  0.65687  Biso   1.000  H
  C902     1.0000 0.90489  0.77452  0.51419  Biso   1.000  C
  C903     1.0000 0.90489  0.77448  0.51419  Biso   1.000  C
  C904     1.0000 0.80628  0.93609  0.78159  Biso   1.000  C
  H758     1.0000 0.72790  0.96641  0.65687  Biso   1.000  H
  C905     1.0000 0.77452  0.90489  0.51419  Biso   1.000  C
  C906     1.0000 0.77448  0.90489  0.51419  Biso   1.000  C
  N597     1.0000 0.89671  0.83778  0.73785  Biso   1.000  N
  H759     1.0000 0.94778  0.82152  0.84823  Biso   1.000  H
  H760     1.0000 0.92161  0.77231  0.79766  Biso   1.000  H
  H761     1.0000 0.94778  0.82148  0.84823  Biso   1.000  H
  H762     1.0000 0.92158  0.77231  0.79766  Biso   1.000  H
  N598     1.0000 0.87659  0.81741  0.55778  Biso   1.000  N
  H763     1.0000 0.89930  0.77349  0.43736  Biso   1.000  H
  H764     1.0000 0.89099  0.74249  0.54390  Biso   1.000  H
  N599     1.0000 0.83778  0.89671  0.73785  Biso   1.000  N
  H765     1.0000 0.82152  0.94778  0.84823  Biso   1.000  H
  H766     1.0000 0.77231  0.92161  0.79766  Biso   1.000  H
  H767     1.0000 0.77231  0.92158  0.79766  Biso   1.000  H
  H768     1.0000 0.82148  0.94778  0.84823  Biso   1.000  H
  N600     1.0000 0.81741  0.87659  0.55778  Biso   1.000  N
  H769     1.0000 0.77349  0.89930  0.43736  Biso   1.000  H
  H770     1.0000 0.74249  0.89099  0.54390  Biso   1.000  H
  C907     1.0000 0.88120  0.88120  0.78340  Biso   1.000  C
  C908     1.0000 0.86022  0.81882  0.66424  Biso   1.000  C
  C909     1.0000 0.86022  0.81878  0.66424  Biso   1.000  C
  C910     1.0000 0.86018  0.81882  0.66424  Biso   1.000  C
  C911     1.0000 0.86018  0.81878  0.66424  Biso   1.000  C
  C912     1.0000 0.85039  0.85039  0.49271  Biso   1.000  C
  C913     1.0000 0.81882  0.86022  0.66424  Biso   1.000  C
  C914     1.0000 0.81882  0.86018  0.66424  Biso   1.000  C
  C915     1.0000 0.81878  0.86022  0.66424  Biso   1.000  C
  C916     1.0000 0.81878  0.86018  0.66424  Biso   1.000  C
  O299     1.0000 0.90379  0.90379  0.85607  Biso   1.000  O
  H771     1.0000 0.84620  0.78511  0.68697  Biso   1.000  H
  O300     1.0000 0.85481  0.85481  0.40201  Biso   1.000  O
  H772     1.0000 0.78511  0.84620  0.68697  Biso   1.000  H
  C917     1.0000 0.18118  0.13978  0.33569  Biso   1.000  C
  C918     1.0000 0.13978  0.18118  0.33569  Biso   1.000  C
  N601     1.0000 0.18259  0.12341  0.44214  Biso   1.000  N
  H773     1.0000 0.21489  0.15380  0.31295  Biso   1.000  H
  N602     1.0000 0.16222  0.10329  0.26207  Biso   1.000  N
  N603     1.0000 0.16218  0.10329  0.26207  Biso   1.000  N
  N604     1.0000 0.12341  0.18259  0.44214  Biso   1.000  N
  H774     1.0000 0.15380  0.21489  0.31295  Biso   1.000  H
  N605     1.0000 0.10329  0.16222  0.26207  Biso   1.000  N
  N606     1.0000 0.10329  0.16218  0.26207  Biso   1.000  N
  C919     1.0000 0.14961  0.14961  0.50729  Biso   1.000  C
  C920     1.0000 0.22548  0.09511  0.48581  Biso   1.000  C
  C921     1.0000 0.11880  0.11880  0.21660  Biso   1.000  C
  C922     1.0000 0.19372  0.06391  0.21841  Biso   1.000  C
  C923     1.0000 0.19372  0.06387  0.21841  Biso   1.000  C
  C924     1.0000 0.19368  0.06391  0.21841  Biso   1.000  C
  C925     1.0000 0.19368  0.06387  0.21841  Biso   1.000  C
  C926     1.0000 0.09511  0.22548  0.48581  Biso   1.000  C
  C927     1.0000 0.06391  0.19372  0.21841  Biso   1.000  C
  C928     1.0000 0.06391  0.19368  0.21841  Biso   1.000  C
  C929     1.0000 0.06387  0.19372  0.21841  Biso   1.000  C
  C930     1.0000 0.06387  0.19368  0.21841  Biso   1.000  C
  O301     1.0000 0.14519  0.14519  0.59799  Biso   1.000  O
  N607     1.0000 0.22350  0.04129  0.46558  Biso   1.000  N
  H775     1.0000 0.22651  0.10070  0.56256  Biso   1.000  H
  H776     1.0000 0.25751  0.10901  0.45610  Biso   1.000  H
  H777     1.0000 0.25747  0.10901  0.45610  Biso   1.000  H
  O302     1.0000 0.09621  0.09621  0.14393  Biso   1.000  O
  H778     1.0000 0.22769  0.07839  0.20226  Biso   1.000  H
  N608     1.0000 0.20011  0.02042  0.28739  Biso   1.000  N
  H779     1.0000 0.17848  0.05222  0.15169  Biso   1.000  H
  N609     1.0000 0.20011  0.02038  0.28739  Biso   1.000  N
  H780     1.0000 0.17848  0.05218  0.15169  Biso   1.000  H
  N610     1.0000 0.20008  0.02042  0.28739  Biso   1.000  N
  N611     1.0000 0.20008  0.02038  0.28739  Biso   1.000  N
  N612     1.0000 0.04129  0.22350  0.46558  Biso   1.000  N
  H781     1.0000 0.10070  0.22651  0.56256  Biso   1.000  H
  H782     1.0000 0.10901  0.25751  0.45610  Biso   1.000  H
  H783     1.0000 0.10901  0.25747  0.45610  Biso   1.000  H
  H784     1.0000 0.07839  0.22769  0.20226  Biso   1.000  H
  N613     1.0000 0.02042  0.20011  0.28739  Biso   1.000  N
  H785     1.0000 0.05222  0.17848  0.15169  Biso   1.000  H
  N614     1.0000 0.02042  0.20008  0.28739  Biso   1.000  N
  N615     1.0000 0.02038  0.20011  0.28739  Biso   1.000  N
  H786     1.0000 0.05218  0.17848  0.15169  Biso   1.000  H
  N616     1.0000 0.02038  0.20008  0.28739  Biso   1.000  N
  C931     1.0000 0.21969  0.00579  0.54327  Biso   1.000  C
  C932     1.0000 0.23912  0.01901  0.36838  Biso   1.000  C
  C933     1.0000 0.23908  0.01901  0.36838  Biso   1.000  C
  C934     1.0000 0.18480  0.97300  0.25792  Biso   1.000  C
  C935     1.0000 0.00579  0.21969  0.54327  Biso   1.000  C
  C936     1.0000 0.01901  0.23912  0.36838  Biso   1.000  C
  C937     1.0000 0.01901  0.23908  0.36838  Biso   1.000  C
  C938     1.0000 0.97300  0.18480  0.25792  Biso   1.000  C
  O303     1.0000 0.20910  0.01501  0.63547  Biso   1.000  O
  N617     1.0000 0.22948  0.95959  0.50290  Biso   1.000  N
  H787     1.0000 0.27210  0.03359  0.34305  Biso   1.000  H
  C939     1.0000 0.24392  0.96229  0.39425  Biso   1.000  C
  C940     1.0000 0.24388  0.96229  0.39425  Biso   1.000  C
  O304     1.0000 0.15578  0.96222  0.18619  Biso   1.000  O
  N618     1.0000 0.20800  0.93780  0.32259  Biso   1.000  N
  O305     1.0000 0.15578  0.96218  0.18619  Biso   1.000  O
  O306     1.0000 0.01501  0.20910  0.63547  Biso   1.000  O
  N619     1.0000 0.95959  0.22948  0.50290  Biso   1.000  N
  H788     1.0000 0.03359  0.27210  0.34305  Biso   1.000  H
  C941     1.0000 0.96229  0.24392  0.39425  Biso   1.000  C
  C942     1.0000 0.96229  0.24388  0.39425  Biso   1.000  C
  O307     1.0000 0.96222  0.15578  0.18619  Biso   1.000  O
  N620     1.0000 0.93780  0.20800  0.32259  Biso   1.000  N
  O308     1.0000 0.96218  0.15578  0.18619  Biso   1.000  O
  C943     1.0000 0.23912  0.91571  0.56907  Biso   1.000  C
  C944     1.0000 0.23908  0.91571  0.56907  Biso   1.000  C
  H789     1.0000 0.27949  0.94969  0.38311  Biso   1.000  H
  C945     1.0000 0.20659  0.88421  0.30417  Biso   1.000  C
  C946     1.0000 0.20659  0.88417  0.30417  Biso   1.000  C
  C947     1.0000 0.91571  0.23912  0.56907  Biso   1.000  C
  C948     1.0000 0.91571  0.23908  0.56907  Biso   1.000  C
  H790     1.0000 0.94969  0.27949  0.38311  Biso   1.000  H
  C949     1.0000 0.88421  0.20659  0.30417  Biso   1.000  C
  C950     1.0000 0.88417  0.20659  0.30417  Biso   1.000  C
  N621     1.0000 0.20240  0.87599  0.56170  Biso   1.000  N
  H791     1.0000 0.24072  0.92729  0.64291  Biso   1.000  H
  H792     1.0000 0.27290  0.90150  0.55080  Biso   1.000  H
  H793     1.0000 0.24068  0.92729  0.64291  Biso   1.000  H
  N622     1.0000 0.17848  0.85599  0.38225  Biso   1.000  N
  H794     1.0000 0.19109  0.87789  0.23471  Biso   1.000  H
  H795     1.0000 0.24201  0.87111  0.30198  Biso   1.000  H
  H796     1.0000 0.24197  0.87111  0.30198  Biso   1.000  H
  N623     1.0000 0.87599  0.20240  0.56170  Biso   1.000  N
  H797     1.0000 0.92729  0.24072  0.64291  Biso   1.000  H
  H798     1.0000 0.90150  0.27290  0.55080  Biso   1.000  H
  H799     1.0000 0.92729  0.24068  0.64291  Biso   1.000  H
  N624     1.0000 0.85599  0.17848  0.38225  Biso   1.000  N
  H800     1.0000 0.87789  0.19109  0.23471  Biso   1.000  H
  H801     1.0000 0.87111  0.24201  0.30198  Biso   1.000  H
  H802     1.0000 0.87111  0.24197  0.30198  Biso   1.000  H
  C951     1.0000 0.17010  0.86502  0.64291  Biso   1.000  C
  C952     1.0000 0.20110  0.83832  0.47970  Biso   1.000  C
  C953     1.0000 0.17010  0.86498  0.64291  Biso   1.000  C
  C954     1.0000 0.20110  0.83828  0.47970  Biso   1.000  C
  C955     1.0000 0.13498  0.82990  0.35709  Biso   1.000  C
  C956     1.0000 0.86502  0.17010  0.64291  Biso   1.000  C
  C957     1.0000 0.83832  0.20110  0.47970  Biso   1.000  C
  C958     1.0000 0.86498  0.17010  0.64291  Biso   1.000  C
  C959     1.0000 0.83828  0.20110  0.47970  Biso   1.000  C
  C960     1.0000 0.82990  0.13498  0.35709  Biso   1.000  C
  O309     1.0000 0.16511  0.88981  0.72280  Biso   1.000  O
  N625     1.0000 0.14401  0.82152  0.61767  Biso   1.000  N
  N626     1.0000 0.14401  0.82148  0.61767  Biso   1.000  N
  O310     1.0000 0.16507  0.88981  0.72280  Biso   1.000  O
  N627     1.0000 0.14397  0.82152  0.61767  Biso   1.000  N
  N628     1.0000 0.14397  0.82148  0.61767  Biso   1.000  N
  C961     1.0000 0.16168  0.79890  0.52030  Biso   1.000  C
  H803     1.0000 0.23519  0.82251  0.46809  Biso   1.000  H
  O311     1.0000 0.11019  0.83489  0.27720  Biso   1.000  O
  N629     1.0000 0.12401  0.79760  0.43830  Biso   1.000  N
  N630     1.0000 0.12398  0.79760  0.43830  Biso   1.000  N
  O312     1.0000 0.88981  0.16511  0.72280  Biso   1.000  O
  N631     1.0000 0.82152  0.14401  0.61767  Biso   1.000  N
  O313     1.0000 0.88981  0.16507  0.72280  Biso   1.000  O
  N632     1.0000 0.82152  0.14397  0.61767  Biso   1.000  N
  N633     1.0000 0.82148  0.14401  0.61767  Biso   1.000  N
  N634     1.0000 0.82148  0.14397  0.61767  Biso   1.000  N
  H804     1.0000 0.82251  0.23519  0.46809  Biso   1.000  H
  C962     1.0000 0.79890  0.16168  0.52030  Biso   1.000  C
  O314     1.0000 0.83489  0.11019  0.27720  Biso   1.000  O
  N635     1.0000 0.79760  0.12401  0.43830  Biso   1.000  N
  N636     1.0000 0.79760  0.12398  0.43830  Biso   1.000  N
  C963     1.0000 0.11579  0.79341  0.69575  Biso   1.000  C
  H805     1.0000 0.17749  0.76481  0.53191  Biso   1.000  H
  C964     1.0000 0.08429  0.76088  0.43086  Biso   1.000  C
  C965     1.0000 0.79341  0.11579  0.69575  Biso   1.000  C
  H806     1.0000 0.76481  0.17749  0.53191  Biso   1.000  H
  C966     1.0000 0.76088  0.08429  0.43086  Biso   1.000  C
  N637     1.0000 0.06220  0.79200  0.67741  Biso   1.000  N
  H807     1.0000 0.12211  0.80891  0.76529  Biso   1.000  H
  H808     1.0000 0.12889  0.75799  0.69795  Biso   1.000  H
  N638     1.0000 0.04041  0.77052  0.49710  Biso   1.000  N
  H809     1.0000 0.07271  0.75928  0.35709  Biso   1.000  H
  H810     1.0000 0.09850  0.72710  0.44920  Biso   1.000  H
  N639     1.0000 0.04041  0.77048  0.49710  Biso   1.000  N
  N640     1.0000 0.04037  0.77052  0.49710  Biso   1.000  N
  N641     1.0000 0.04037  0.77048  0.49710  Biso   1.000  N
  N642     1.0000 0.79200  0.06220  0.67741  Biso   1.000  N
  H811     1.0000 0.80891  0.12211  0.76529  Biso   1.000  H
  H812     1.0000 0.75799  0.12889  0.69795  Biso   1.000  H
  N643     1.0000 0.77052  0.04041  0.49710  Biso   1.000  N
  H813     1.0000 0.75928  0.07271  0.35709  Biso   1.000  H
  H814     1.0000 0.72710  0.09850  0.44920  Biso   1.000  H
  N644     1.0000 0.77052  0.04037  0.49710  Biso   1.000  N
  N645     1.0000 0.77048  0.04041  0.49710  Biso   1.000  N
  N646     1.0000 0.77048  0.04037  0.49710  Biso   1.000  N
  C967     1.0000 0.02700  0.81520  0.74208  Biso   1.000  C
  C968     1.0000 0.03771  0.75608  0.60568  Biso   1.000  C
  C969     1.0000 0.99421  0.78031  0.45665  Biso   1.000  C
  C970     1.0000 0.81520  0.02700  0.74208  Biso   1.000  C
  C971     1.0000 0.75608  0.03771  0.60568  Biso   1.000  C
  C972     1.0000 0.78031  0.99421  0.45665  Biso   1.000  C
  N647     1.0000 0.97958  0.79989  0.71261  Biso   1.000  N
  O315     1.0000 0.03778  0.84422  0.81373  Biso   1.000  O
  O316     1.0000 0.03778  0.84418  0.81373  Biso   1.000  O
  C973     1.0000 0.98099  0.76088  0.63155  Biso   1.000  C
  H815     1.0000 0.05031  0.72051  0.61689  Biso   1.000  H
  H816     1.0000 0.05028  0.72051  0.61689  Biso   1.000  H
  O317     1.0000 0.98499  0.79090  0.36446  Biso   1.000  O
  N648     1.0000 0.95871  0.77650  0.53442  Biso   1.000  N
  N649     1.0000 0.95867  0.77650  0.53442  Biso   1.000  N
  N650     1.0000 0.79989  0.97958  0.71261  Biso   1.000  N
  O318     1.0000 0.84422  0.03778  0.81373  Biso   1.000  O
  O319     1.0000 0.84418  0.03778  0.81373  Biso   1.000  O
  C974     1.0000 0.76088  0.98099  0.63155  Biso   1.000  C
  H817     1.0000 0.72051  0.05031  0.61689  Biso   1.000  H
  H818     1.0000 0.72051  0.05028  0.61689  Biso   1.000  H
  O320     1.0000 0.79090  0.98499  0.36446  Biso   1.000  O
  N651     1.0000 0.77650  0.95871  0.53442  Biso   1.000  N
  N652     1.0000 0.77650  0.95867  0.53442  Biso   1.000  N
  C975     1.0000 0.93609  0.80628  0.78159  Biso   1.000  C
  H819     1.0000 0.96641  0.72790  0.65687  Biso   1.000  H
  C976     1.0000 0.90489  0.77452  0.51419  Biso   1.000  C
  C977     1.0000 0.90489  0.77448  0.51419  Biso   1.000  C
  C978     1.0000 0.80628  0.93609  0.78159  Biso   1.000  C
  H820     1.0000 0.72790  0.96641  0.65687  Biso   1.000  H
  C979     1.0000 0.77452  0.90489  0.51419  Biso   1.000  C
  C980     1.0000 0.77448  0.90489  0.51419  Biso   1.000  C
  N653     1.0000 0.89671  0.83778  0.73785  Biso   1.000  N
  H821     1.0000 0.94778  0.82152  0.84823  Biso   1.000  H
  H822     1.0000 0.92161  0.77231  0.79766  Biso   1.000  H
  H823     1.0000 0.94778  0.82148  0.84823  Biso   1.000  H
  H824     1.0000 0.92158  0.77231  0.79766  Biso   1.000  H
  N654     1.0000 0.87659  0.81741  0.55778  Biso   1.000  N
  H825     1.0000 0.89930  0.77349  0.43736  Biso   1.000  H
  H826     1.0000 0.89099  0.74249  0.54390  Biso   1.000  H
  N655     1.0000 0.83778  0.89671  0.73785  Biso   1.000  N
  H827     1.0000 0.82152  0.94778  0.84823  Biso   1.000  H
  H828     1.0000 0.77231  0.92161  0.79766  Biso   1.000  H
  H829     1.0000 0.77231  0.92158  0.79766  Biso   1.000  H
  H830     1.0000 0.82148  0.94778  0.84823  Biso   1.000  H
  N656     1.0000 0.81741  0.87659  0.55778  Biso   1.000  N
  H831     1.0000 0.77349  0.89930  0.43736  Biso   1.000  H
  H832     1.0000 0.74249  0.89099  0.54390  Biso   1.000  H
  C981     1.0000 0.88120  0.88120  0.78340  Biso   1.000  C
  C982     1.0000 0.86022  0.81882  0.66424  Biso   1.000  C
  C983     1.0000 0.86022  0.81878  0.66424  Biso   1.000  C
  C984     1.0000 0.86018  0.81882  0.66424  Biso   1.000  C
  C985     1.0000 0.86018  0.81878  0.66424  Biso   1.000  C
  C986     1.0000 0.85039  0.85039  0.49271  Biso   1.000  C
  C987     1.0000 0.81882  0.86022  0.66424  Biso   1.000  C
  C988     1.0000 0.81882  0.86018  0.66424  Biso   1.000  C
  C989     1.0000 0.81878  0.86022  0.66424  Biso   1.000  C
  C990     1.0000 0.81878  0.86018  0.66424  Biso   1.000  C
  O321     1.0000 0.90379  0.90379  0.85607  Biso   1.000  O
  H833     1.0000 0.84620  0.78511  0.68697  Biso   1.000  H
  O322     1.0000 0.85481  0.85481  0.40201  Biso   1.000  O
  H834     1.0000 0.78511  0.84620  0.68697  Biso   1.000  H
  C991     1.0000 0.18118  0.13978  0.33569  Biso   1.000  C
  C992     1.0000 0.13978  0.18118  0.33569  Biso   1.000  C
  N657     1.0000 0.18259  0.12341  0.44214  Biso   1.000  N
  H835     1.0000 0.21489  0.15380  0.31295  Biso   1.000  H
  N658     1.0000 0.16222  0.10329  0.26207  Biso   1.000  N
  N659     1.0000 0.16218  0.10329  0.26207  Biso   1.000  N
  N660     1.0000 0.12341  0.18259  0.44214  Biso   1.000  N
  H836     1.0000 0.15380  0.21489  0.31295  Biso   1.000  H
  N661     1.0000 0.10329  0.16222  0.26207  Biso   1.000  N
  N662     1.0000 0.10329  0.16218  0.26207  Biso   1.000  N
  C993     1.0000 0.14961  0.14961  0.50729  Biso   1.000  C
  C994     1.0000 0.22548  0.09511  0.48581  Biso   1.000  C
  C995     1.0000 0.11880  0.11880  0.21660  Biso   1.000  C
  C996     1.0000 0.19372  0.06391  0.21841  Biso   1.000  C
  C997     1.0000 0.19372  0.06387  0.21841  Biso   1.000  C
  C998     1.0000 0.19368  0.06391  0.21841  Biso   1.000  C
  C999     1.0000 0.19368  0.06387  0.21841  Biso   1.000  C
  C1000    1.0000 0.09511  0.22548  0.48581  Biso   1.000  C
  C1001    1.0000 0.06391  0.19372  0.21841  Biso   1.000  C
  C1002    1.0000 0.06391  0.19368  0.21841  Biso   1.000  C
  C1003    1.0000 0.06387  0.19372  0.21841  Biso   1.000  C
  C1004    1.0000 0.06387  0.19368  0.21841  Biso   1.000  C
  O323     1.0000 0.14519  0.14519  0.59799  Biso   1.000  O
  N663     1.0000 0.22350  0.04129  0.46558  Biso   1.000  N
  H837     1.0000 0.22651  0.10070  0.56256  Biso   1.000  H
  H838     1.0000 0.25751  0.10901  0.45610  Biso   1.000  H
  H839     1.0000 0.25747  0.10901  0.45610  Biso   1.000  H
  O324     1.0000 0.09621  0.09621  0.14393  Biso   1.000  O
  H840     1.0000 0.22769  0.07839  0.20226  Biso   1.000  H
  N664     1.0000 0.20011  0.02042  0.28739  Biso   1.000  N
  H841     1.0000 0.17848  0.05222  0.15169  Biso   1.000  H
  N665     1.0000 0.20011  0.02038  0.28739  Biso   1.000  N
  H842     1.0000 0.17848  0.05218  0.15169  Biso   1.000  H
  N666     1.0000 0.20008  0.02042  0.28739  Biso   1.000  N
  N667     1.0000 0.20008  0.02038  0.28739  Biso   1.000  N
  N668     1.0000 0.04129  0.22350  0.46558  Biso   1.000  N
  H843     1.0000 0.10070  0.22651  0.56256  Biso   1.000  H
  H844     1.0000 0.10901  0.25751  0.45610  Biso   1.000  H
  H845     1.0000 0.10901  0.25747  0.45610  Biso   1.000  H
  H846     1.0000 0.07839  0.22769  0.20226  Biso   1.000  H
  N669     1.0000 0.02042  0.20011  0.28739  Biso   1.000  N
  H847     1.0000 0.05222  0.17848  0.15169  Biso   1.000  H
  N670     1.0000 0.02042  0.20008  0.28739  Biso   1.000  N
  N671     1.0000 0.02038  0.20011  0.28739  Biso   1.000  N
  H848     1.0000 0.05218  0.17848  0.15169  Biso   1.000  H
  N672     1.0000 0.02038  0.20008  0.28739  Biso   1.000  N
  C1005    1.0000 0.21969  0.00579  0.54327  Biso   1.000  C
  C1006    1.0000 0.23912  0.01901  0.36838  Biso   1.000  C
  C1007    1.0000 0.23908  0.01901  0.36838  Biso   1.000  C
  C1008    1.0000 0.18480  0.97300  0.25792  Biso   1.000  C
  C1009    1.0000 0.00579  0.21969  0.54327  Biso   1.000  C
  C1010    1.0000 0.01901  0.23912  0.36838  Biso   1.000  C
  C1011    1.0000 0.01901  0.23908  0.36838  Biso   1.000  C
  C1012    1.0000 0.97300  0.18480  0.25792  Biso   1.000  C
  O325     1.0000 0.20910  0.01501  0.63547  Biso   1.000  O
  N673     1.0000 0.22948  0.95959  0.50290  Biso   1.000  N
  H849     1.0000 0.27210  0.03359  0.34305  Biso   1.000  H
  C1013    1.0000 0.24392  0.96229  0.39425  Biso   1.000  C
  C1014    1.0000 0.24388  0.96229  0.39425  Biso   1.000  C
  O326     1.0000 0.15578  0.96222  0.18619  Biso   1.000  O
  N674     1.0000 0.20800  0.93780  0.32259  Biso   1.000  N
  O327     1.0000 0.15578  0.96218  0.18619  Biso   1.000  O
  O328     1.0000 0.01501  0.20910  0.63547  Biso   1.000  O
  N675     1.0000 0.95959  0.22948  0.50290  Biso   1.000  N
  H850     1.0000 0.03359  0.27210  0.34305  Biso   1.000  H
  C1015    1.0000 0.96229  0.24392  0.39425  Biso   1.000  C
  C1016    1.0000 0.96229  0.24388  0.39425  Biso   1.000  C
  O329     1.0000 0.96222  0.15578  0.18619  Biso   1.000  O
  N676     1.0000 0.93780  0.20800  0.32259  Biso   1.000  N
  O330     1.0000 0.96218  0.15578  0.18619  Biso   1.000  O
  C1017    1.0000 0.23912  0.91571  0.56907  Biso   1.000  C
  C1018    1.0000 0.23908  0.91571  0.56907  Biso   1.000  C
  H851     1.0000 0.27949  0.94969  0.38311  Biso   1.000  H
  C1019    1.0000 0.20659  0.88421  0.30417  Biso   1.000  C
  C1020    1.0000 0.20659  0.88417  0.30417  Biso   1.000  C
  C1021    1.0000 0.91571  0.23912  0.56907  Biso   1.000  C
  C1022    1.0000 0.91571  0.23908  0.56907  Biso   1.000  C
  H852     1.0000 0.94969  0.27949  0.38311  Biso   1.000  H
  C1023    1.0000 0.88421  0.20659  0.30417  Biso   1.000  C
  C1024    1.0000 0.88417  0.20659  0.30417  Biso   1.000  C
  N677     1.0000 0.20240  0.87599  0.56170  Biso   1.000  N
  H853     1.0000 0.24072  0.92729  0.64291  Biso   1.000  H
  H854     1.0000 0.27290  0.90150  0.55080  Biso   1.000  H
  H855     1.0000 0.24068  0.92729  0.64291  Biso   1.000  H
  N678     1.0000 0.17848  0.85599  0.38225  Biso   1.000  N
  H856     1.0000 0.19109  0.87789  0.23471  Biso   1.000  H
  H857     1.0000 0.24201  0.87111  0.30198  Biso   1.000  H
  H858     1.0000 0.24197  0.87111  0.30198  Biso   1.000  H
  N679     1.0000 0.87599  0.20240  0.56170  Biso   1.000  N
  H859     1.0000 0.92729  0.24072  0.64291  Biso   1.000  H
  H860     1.0000 0.90150  0.27290  0.55080  Biso   1.000  H
  H861     1.0000 0.92729  0.24068  0.64291  Biso   1.000  H
  N680     1.0000 0.85599  0.17848  0.38225  Biso   1.000  N
  H862     1.0000 0.87789  0.19109  0.23471  Biso   1.000  H
  H863     1.0000 0.87111  0.24201  0.30198  Biso   1.000  H
  H864     1.0000 0.87111  0.24197  0.30198  Biso   1.000  H
  C1025    1.0000 0.17010  0.86502  0.64291  Biso   1.000  C
  C1026    1.0000 0.20110  0.83832  0.47970  Biso   1.000  C
  C1027    1.0000 0.17010  0.86498  0.64291  Biso   1.000  C
  C1028    1.0000 0.20110  0.83828  0.47970  Biso   1.000  C
  C1029    1.0000 0.13498  0.82990  0.35709  Biso   1.000  C
  C1030    1.0000 0.86502  0.17010  0.64291  Biso   1.000  C
  C1031    1.0000 0.83832  0.20110  0.47970  Biso   1.000  C
  C1032    1.0000 0.86498  0.17010  0.64291  Biso   1.000  C
  C1033    1.0000 0.83828  0.20110  0.47970  Biso   1.000  C
  C1034    1.0000 0.82990  0.13498  0.35709  Biso   1.000  C
  O331     1.0000 0.16511  0.88981  0.72280  Biso   1.000  O
  N681     1.0000 0.14401  0.82152  0.61767  Biso   1.000  N
  N682     1.0000 0.14401  0.82148  0.61767  Biso   1.000  N
  O332     1.0000 0.16507  0.88981  0.72280  Biso   1.000  O
  N683     1.0000 0.14397  0.82152  0.61767  Biso   1.000  N
  N684     1.0000 0.14397  0.82148  0.61767  Biso   1.000  N
  C1035    1.0000 0.16168  0.79890  0.52030  Biso   1.000  C
  H865     1.0000 0.23519  0.82251  0.46809  Biso   1.000  H
  O333     1.0000 0.11019  0.83489  0.27720  Biso   1.000  O
  N685     1.0000 0.12401  0.79760  0.43830  Biso   1.000  N
  N686     1.0000 0.12398  0.79760  0.43830  Biso   1.000  N
  O334     1.0000 0.88981  0.16511  0.72280  Biso   1.000  O
  N687     1.0000 0.82152  0.14401  0.61767  Biso   1.000  N
  O335     1.0000 0.88981  0.16507  0.72280  Biso   1.000  O
  N688     1.0000 0.82152  0.14397  0.61767  Biso   1.000  N
  N689     1.0000 0.82148  0.14401  0.61767  Biso   1.000  N
  N690     1.0000 0.82148  0.14397  0.61767  Biso   1.000  N
  H866     1.0000 0.82251  0.23519  0.46809  Biso   1.000  H
  C1036    1.0000 0.79890  0.16168  0.52030  Biso   1.000  C
  O336     1.0000 0.83489  0.11019  0.27720  Biso   1.000  O
  N691     1.0000 0.79760  0.12401  0.43830  Biso   1.000  N
  N692     1.0000 0.79760  0.12398  0.43830  Biso   1.000  N
  C1037    1.0000 0.11579  0.79341  0.69575  Biso   1.000  C
  H867     1.0000 0.17749  0.76481  0.53191  Biso   1.000  H
  C1038    1.0000 0.08429  0.76088  0.43086  Biso   1.000  C
  C1039    1.0000 0.79341  0.11579  0.69575  Biso   1.000  C
  H868     1.0000 0.76481  0.17749  0.53191  Biso   1.000  H
  C1040    1.0000 0.76088  0.08429  0.43086  Biso   1.000  C
  N693     1.0000 0.06220  0.79200  0.67741  Biso   1.000  N
  H869     1.0000 0.12211  0.80891  0.76529  Biso   1.000  H
  H870     1.0000 0.12889  0.75799  0.69795  Biso   1.000  H
  N694     1.0000 0.04041  0.77052  0.49710  Biso   1.000  N
  H871     1.0000 0.07271  0.75928  0.35709  Biso   1.000  H
  H872     1.0000 0.09850  0.72710  0.44920  Biso   1.000  H
  N695     1.0000 0.04041  0.77048  0.49710  Biso   1.000  N
  N696     1.0000 0.04037  0.77052  0.49710  Biso   1.000  N
  N697     1.0000 0.04037  0.77048  0.49710  Biso   1.000  N
  N698     1.0000 0.79200  0.06220  0.67741  Biso   1.000  N
  H873     1.0000 0.80891  0.12211  0.76529  Biso   1.000  H
  H874     1.0000 0.75799  0.12889  0.69795  Biso   1.000  H
  N699     1.0000 0.77052  0.04041  0.49710  Biso   1.000  N
  H875     1.0000 0.75928  0.07271  0.35709  Biso   1.000  H
  H876     1.0000 0.72710  0.09850  0.44920  Biso   1.000  H
  N700     1.0000 0.77052  0.04037  0.49710  Biso   1.000  N
  N701     1.0000 0.77048  0.04041  0.49710  Biso   1.000  N
  N702     1.0000 0.77048  0.04037  0.49710  Biso   1.000  N
  C1041    1.0000 0.02700  0.81520  0.74208  Biso   1.000  C
  C1042    1.0000 0.03771  0.75608  0.60568  Biso   1.000  C
  C1043    1.0000 0.99421  0.78031  0.45665  Biso   1.000  C
  C1044    1.0000 0.81520  0.02700  0.74208  Biso   1.000  C
  C1045    1.0000 0.75608  0.03771  0.60568  Biso   1.000  C
  C1046    1.0000 0.78031  0.99421  0.45665  Biso   1.000  C
  N703     1.0000 0.97958  0.79989  0.71261  Biso   1.000  N
  O337     1.0000 0.03778  0.84422  0.81373  Biso   1.000  O
  O338     1.0000 0.03778  0.84418  0.81373  Biso   1.000  O
  C1047    1.0000 0.98099  0.76088  0.63155  Biso   1.000  C
  H877     1.0000 0.05031  0.72051  0.61689  Biso   1.000  H
  H878     1.0000 0.05028  0.72051  0.61689  Biso   1.000  H
  O339     1.0000 0.98499  0.79090  0.36446  Biso   1.000  O
  N704     1.0000 0.95871  0.77650  0.53442  Biso   1.000  N
  N705     1.0000 0.95867  0.77650  0.53442  Biso   1.000  N
  N706     1.0000 0.79989  0.97958  0.71261  Biso   1.000  N
  O340     1.0000 0.84422  0.03778  0.81373  Biso   1.000  O
  O341     1.0000 0.84418  0.03778  0.81373  Biso   1.000  O
  C1048    1.0000 0.76088  0.98099  0.63155  Biso   1.000  C
  H879     1.0000 0.72051  0.05031  0.61689  Biso   1.000  H
  H880     1.0000 0.72051  0.05028  0.61689  Biso   1.000  H
  O342     1.0000 0.79090  0.98499  0.36446  Biso   1.000  O
  N707     1.0000 0.77650  0.95871  0.53442  Biso   1.000  N
  N708     1.0000 0.77650  0.95867  0.53442  Biso   1.000  N
  C1049    1.0000 0.93609  0.80628  0.78159  Biso   1.000  C
  H881     1.0000 0.96641  0.72790  0.65687  Biso   1.000  H
  C1050    1.0000 0.90489  0.77452  0.51419  Biso   1.000  C
  C1051    1.0000 0.90489  0.77448  0.51419  Biso   1.000  C
  C1052    1.0000 0.80628  0.93609  0.78159  Biso   1.000  C
  H882     1.0000 0.72790  0.96641  0.65687  Biso   1.000  H
  C1053    1.0000 0.77452  0.90489  0.51419  Biso   1.000  C
  C1054    1.0000 0.77448  0.90489  0.51419  Biso   1.000  C
  N709     1.0000 0.89671  0.83778  0.73785  Biso   1.000  N
  H883     1.0000 0.94778  0.82152  0.84823  Biso   1.000  H
  H884     1.0000 0.92161  0.77231  0.79766  Biso   1.000  H
  H885     1.0000 0.94778  0.82148  0.84823  Biso   1.000  H
  H886     1.0000 0.92158  0.77231  0.79766  Biso   1.000  H
  N710     1.0000 0.87659  0.81741  0.55778  Biso   1.000  N
  H887     1.0000 0.89930  0.77349  0.43736  Biso   1.000  H
  H888     1.0000 0.89099  0.74249  0.54390  Biso   1.000  H
  N711     1.0000 0.83778  0.89671  0.73785  Biso   1.000  N
  H889     1.0000 0.82152  0.94778  0.84823  Biso   1.000  H
  H890     1.0000 0.77231  0.92161  0.79766  Biso   1.000  H
  H891     1.0000 0.77231  0.92158  0.79766  Biso   1.000  H
  H892     1.0000 0.82148  0.94778  0.84823  Biso   1.000  H
  N712     1.0000 0.81741  0.87659  0.55778  Biso   1.000  N
  H893     1.0000 0.77349  0.89930  0.43736  Biso   1.000  H
  H894     1.0000 0.74249  0.89099  0.54390  Biso   1.000  H
  C1055    1.0000 0.88120  0.88120  0.78340  Biso   1.000  C
  C1056    1.0000 0.86022  0.81882  0.66424  Biso   1.000  C
  C1057    1.0000 0.86022  0.81878  0.66424  Biso   1.000  C
  C1058    1.0000 0.86018  0.81882  0.66424  Biso   1.000  C
  C1059    1.0000 0.86018  0.81878  0.66424  Biso   1.000  C
  C1060    1.0000 0.85039  0.85039  0.49271  Biso   1.000  C
  C1061    1.0000 0.81882  0.86022  0.66424  Biso   1.000  C
  C1062    1.0000 0.81882  0.86018  0.66424  Biso   1.000  C
  C1063    1.0000 0.81878  0.86022  0.66424  Biso   1.000  C
  C1064    1.0000 0.81878  0.86018  0.66424  Biso   1.000  C
  O343     1.0000 0.90379  0.90379  0.85607  Biso   1.000  O
  H895     1.0000 0.84620  0.78511  0.68697  Biso   1.000  H
  O344     1.0000 0.85481  0.85481  0.40201  Biso   1.000  O
  H896     1.0000 0.78511  0.84620  0.68697  Biso   1.000  H
