data_image0
_cell_length_a       15.521
_cell_length_b       25.567
_cell_length_c       32.448
_cell_angle_alpha    90
_cell_angle_beta     101.04
_cell_angle_gamma    90

_symmetry_space_group_name_H-M    "P 1"
_symmetry_int_tables_number       1

loop_
  _symmetry_equiv_pos_as_xyz
  'x, y, z'

loop_
  _atom_site_label
  _atom_site_occupancy
  _atom_site_fract_x
  _atom_site_fract_y
  _atom_site_fract_z
  _atom_site_thermal_displace_type
  _atom_site_B_iso_or_equiv
  _atom_site_type_symbol
  C1       1.0000 0.40938  0.53761  0.33459  Biso   1.000  C
  N1       1.0000 0.44412  0.48527  0.33751  Biso   1.000  N
  N2       1.0000 0.38381  0.55638  0.29180  Biso   1.000  N
  H1       1.0000 0.35760  0.53858  0.34832  Biso   1.000  H
  H2       1.0000 0.45422  0.56151  0.35020  Biso   1.000  H
  C2       1.0000 0.38652  0.43908  0.33350  Biso   1.000  C
  C3       1.0000 0.52683  0.47338  0.35629  Biso   1.000  C
  C4       1.0000 0.29921  0.54570  0.26492  Biso   1.000  C
  C5       1.0000 0.42924  0.59459  0.27541  Biso   1.000  C
  N3       1.0000 0.35231  0.42359  0.29020  Biso   1.000  N
  C6       1.0000 0.45220  0.39371  0.35061  Biso   1.000  C
  H3       1.0000 0.33890  0.44280  0.35020  Biso   1.000  H
  N4       1.0000 0.53470  0.42070  0.36229  Biso   1.000  N
  O1       1.0000 0.58639  0.50589  0.36603  Biso   1.000  O
  N5       1.0000 0.29390  0.49497  0.24441  Biso   1.000  N
  C7       1.0000 0.29672  0.58497  0.22859  Biso   1.000  C
  H4       1.0000 0.24952  0.55130  0.27999  Biso   1.000  H
  N6       1.0000 0.38159  0.61020  0.23829  Biso   1.000  N
  O2       1.0000 0.50179  0.61169  0.29280  Biso   1.000  O
  C8       1.0000 0.38759  0.37799  0.28081  Biso   1.000  C
  C9       1.0000 0.27754  0.44769  0.26501  Biso   1.000  C
  N7       1.0000 0.44653  0.36050  0.31440  Biso   1.000  N
  H5       1.0000 0.43519  0.37509  0.37491  Biso   1.000  H
  C10      1.0000 0.61000  0.39750  0.38910  Biso   1.000  C
  C11      1.0000 0.28120  0.49971  0.20190  Biso   1.000  C
  N8       1.0000 0.28469  0.55188  0.19210  Biso   1.000  N
  H6       1.0000 0.24771  0.61079  0.22721  Biso   1.000  H
  C12      1.0000 0.40200  0.65710  0.21751  Biso   1.000  C
  O3       1.0000 0.36883  0.35511  0.24602  Biso   1.000  O
  H7       1.0000 0.25021  0.42230  0.24341  Biso   1.000  H
  H8       1.0000 0.23440  0.45520  0.28310  Biso   1.000  H
  C13      1.0000 0.48443  0.30798  0.31701  Biso   1.000  C
  N9       1.0000 0.66403  0.36790  0.36524  Biso   1.000  N
  H9       1.0000 0.64599  0.42539  0.40499  Biso   1.000  H
  H10      1.0000 0.58982  0.37400  0.40951  Biso   1.000  H
  O4       1.0000 0.26539  0.46407  0.17656  Biso   1.000  O
  C14      1.0000 0.25731  0.57167  0.14899  Biso   1.000  C
  N10      1.0000 0.42900  0.64728  0.17791  Biso   1.000  N
  H11      1.0000 0.44974  0.67599  0.23631  Biso   1.000  H
  H12      1.0000 0.34970  0.67998  0.21239  Biso   1.000  H
  N11      1.0000 0.57679  0.30778  0.31550  Biso   1.000  N
  H13      1.0000 0.45240  0.28670  0.29349  Biso   1.000  H
  H14      1.0000 0.47600  0.29151  0.34361  Biso   1.000  H
  C15      1.0000 0.64473  0.31439  0.35290  Biso   1.000  C
  C16      1.0000 0.74351  0.38288  0.36081  Biso   1.000  C
  N12      1.0000 0.33123  0.59107  0.13182  Biso   1.000  N
  H15      1.0000 0.21428  0.60031  0.14899  Biso   1.000  H
  H16      1.0000 0.22778  0.54328  0.13091  Biso   1.000  H
  C17      1.0000 0.36811  0.64220  0.13879  Biso   1.000  C
  C18      1.0000 0.51140  0.66257  0.17292  Biso   1.000  C
  C19      1.0000 0.60860  0.28588  0.28341  Biso   1.000  C
  H17      1.0000 0.63320  0.29249  0.37689  Biso   1.000  H
  C20      1.0000 0.73009  0.29691  0.33761  Biso   1.000  C
  N13      1.0000 0.78322  0.34341  0.34301  Biso   1.000  N
  O5       1.0000 0.77949  0.42500  0.37168  Biso   1.000  O
  C21      1.0000 0.36210  0.56510  0.10029  Biso   1.000  C
  H18      1.0000 0.32213  0.67008  0.13499  Biso   1.000  H
  C22      1.0000 0.42830  0.64618  0.10601  Biso   1.000  C
  N14      1.0000 0.51300  0.65839  0.13072  Biso   1.000  N
  O6       1.0000 0.57268  0.67599  0.20077  Biso   1.000  O
  O7       1.0000 0.56483  0.27230  0.24956  Biso   1.000  O
  N15      1.0000 0.69803  0.28181  0.29390  Biso   1.000  N
  H19      1.0000 0.75974  0.26718  0.35469  Biso   1.000  H
  C23      1.0000 0.87583  0.34318  0.34292  Biso   1.000  C
  O8       1.0000 0.33780  0.52110  0.08625  Biso   1.000  O
  N16      1.0000 0.42373  0.59639  0.08751  Biso   1.000  N
  H20      1.0000 0.40783  0.67399  0.08481  Biso   1.000  H
  C24      1.0000 0.58009  0.68498  0.11389  Biso   1.000  C
  C25      1.0000 0.74742  0.24798  0.27161  Biso   1.000  C
  N17      1.0000 0.89444  0.33950  0.30040  Biso   1.000  N
  H21      1.0000 0.90232  0.37568  0.35629  Biso   1.000  H
  H22      1.0000 0.90340  0.31329  0.35981  Biso   1.000  H
  C26      1.0000 0.45520  0.58478  0.04880  Biso   1.000  C
  N18      1.0000 0.63491  0.64959  0.09439  Biso   1.000  N
  H23      1.0000 0.55213  0.71080  0.09279  Biso   1.000  H
  H24      1.0000 0.61813  0.70450  0.13681  Biso   1.000  H
  N19      1.0000 0.81508  0.27328  0.25459  Biso   1.000  N
  H25      1.0000 0.70633  0.23120  0.24831  Biso   1.000  H
  H26      1.0000 0.77454  0.22001  0.29092  Biso   1.000  H
  C27      1.0000 0.89528  0.28760  0.28109  Biso   1.000  C
  C28      1.0000 0.95343  0.37298  0.28731  Biso   1.000  C
  N20      1.0000 0.54922  0.58180  0.05479  Biso   1.000  N
  H27      1.0000 0.43416  0.61227  0.02779  Biso   1.000  H
  H28      1.0000 0.42992  0.55110  0.03730  Biso   1.000  H
  C29      1.0000 0.60540  0.62737  0.05429  Biso   1.000  C
  C30      1.0000 0.72438  0.64650  0.10801  Biso   1.000  C
  C31      1.0000 0.82640  0.26460  0.21462  Biso   1.000  C
  H29      1.0000 0.91613  0.26010  0.30260  Biso   1.000  H
  C32      1.0000 0.95830  0.29468  0.25120  Biso   1.000  C
  N21      1.0000 0.98541  0.34830  0.25550  Biso   1.000  N
  O9       1.0000 0.97159  0.41628  0.30144  Biso   1.000  O
  C33      1.0000 0.59062  0.53647  0.04522  Biso   1.000  C
  C34      1.0000 0.69071  0.60410  0.04321  Biso   1.000  C
  H30      1.0000 0.57780  0.65409  0.03332  Biso   1.000  H
  N22      1.0000 0.75703  0.61900  0.07900  Biso   1.000  N
  O10      1.0000 0.76652  0.66609  0.14051  Biso   1.000  O
  O11      1.0000 0.76992  0.24731  0.18620  Biso   1.000  O
  N23      1.0000 0.90743  0.28169  0.21151  Biso   1.000  N
  H31      1.0000 0.00991  0.27070  0.25861  Biso   1.000  H
  C35      1.0000 0.06679  0.36680  0.24360  Biso   1.000  C
  O12      1.0000 0.55649  0.49341  0.04157  Biso   1.000  O
  N24      1.0000 0.67246  0.54887  0.04029  Biso   1.000  N
  H32      1.0000 0.70319  0.61857  0.01630  Biso   1.000  H
  C36      1.0000 0.84991  0.61908  0.07699  Biso   1.000  C
  C37      1.0000 0.94651  0.26949  0.17329  Biso   1.000  C
  N25      1.0000 0.05282  0.38080  0.20002  Biso   1.000  N
  H33      1.0000 0.11181  0.33887  0.24919  Biso   1.000  H
  H34      1.0000 0.08911  0.39750  0.26090  Biso   1.000  H
  C38      1.0000 0.71930  0.51359  0.01661  Biso   1.000  C
  N26      1.0000 0.89052  0.56370  0.08010  Biso   1.000  N
  H35      1.0000 0.85748  0.63519  0.05021  Biso   1.000  H
  H36      1.0000 0.88200  0.64079  0.10020  Biso   1.000  H
  N27      1.0000 0.97101  0.31560  0.15370  Biso   1.000  N
  H37      1.0000 0.90319  0.24970  0.15279  Biso   1.000  H
  H38      1.0000 0.99888  0.24708  0.18180  Biso   1.000  H
  C39      1.0000 0.05173  0.34369  0.16592  Biso   1.000  C
  C40      1.0000 0.05669  0.43310  0.18812  Biso   1.000  C
  N28      1.0000 0.80307  0.49669  0.04079  Biso   1.000  N
  H39      1.0000 0.68229  0.48258  0.00769  Biso   1.000  H
  H40      1.0000 0.72936  0.53170  0.99089  Biso   1.000  H
  C41      1.0000 0.88299  0.52799  0.04569  Biso   1.000  C
  C42      1.0000 0.95788  0.55157  0.10980  Biso   1.000  C
  C43      1.0000 0.93101  0.32628  0.11269  Biso   1.000  C
  H41      1.0000 0.10330  0.31959  0.17160  Biso   1.000  H
  C44      1.0000 0.05610  0.38119  0.12789  Biso   1.000  C
  N29      1.0000 0.04943  0.43361  0.14519  Biso   1.000  N
  O13      1.0000 0.06121  0.47088  0.21019  Biso   1.000  O
  C45      1.0000 0.82033  0.44628  0.04559  Biso   1.000  C
  C46      1.0000 0.95299  0.48899  0.05800  Biso   1.000  C
  H42      1.0000 0.88839  0.54617  0.01909  Biso   1.000  H
  N30      1.0000 0.99468  0.50679  0.09969  Biso   1.000  N
  O14      1.0000 0.98451  0.57617  0.14350  Biso   1.000  O
  O15      1.0000 0.86712  0.30559  0.09279  Biso   1.000  O
  N31      1.0000 0.97872  0.36469  0.09699  Biso   1.000  N
  H43      1.0000 0.11172  0.37650  0.11700  Biso   1.000  H
  C47      1.0000 0.07041  0.48109  0.12390  Biso   1.000  C
  N32      1.0000 0.90914  0.43830  0.05821  Biso   1.000  N
  O16      1.0000 0.76708  0.40928  0.03859  Biso   1.000  O
  H44      1.0000 0.99523  0.48899  0.03831  Biso   1.000  H
  C48      1.0000 0.95119  0.38859  0.05721  Biso   1.000  C
  H45      1.0000 0.11127  0.47209  0.10509  Biso   1.000  H
  H46      1.0000 0.10089  0.50589  0.14532  Biso   1.000  H
  H47      1.0000 0.91022  0.36461  0.03919  Biso   1.000  H
  H48      1.0000 0.00311  0.39320  0.04399  Biso   1.000  H
  C49      1.0000 0.29835  0.65279  0.38860  Biso   1.000  C
  N33      1.0000 0.22201  0.63641  0.39862  Biso   1.000  N
  O17      1.0000 0.32953  0.63758  0.35868  Biso   1.000  O
  N34      1.0000 0.33614  0.69007  0.41670  Biso   1.000  N
  C50      1.0000 0.15953  0.60359  0.37161  Biso   1.000  C
  C51      1.0000 0.19621  0.66930  0.43121  Biso   1.000  C
  C52      1.0000 0.27471  0.70747  0.44270  Biso   1.000  C
  C53      1.0000 0.40704  0.72347  0.40920  Biso   1.000  C
  N35      1.0000 0.14540  0.55290  0.39121  Biso   1.000  N
  H49      1.0000 0.18072  0.59710  0.34521  Biso   1.000  H
  H50      1.0000 0.10283  0.62240  0.36452  Biso   1.000  H
  N36      1.0000 0.19482  0.64059  0.47071  Biso   1.000  N
  H51      1.0000 0.13981  0.68807  0.42069  Biso   1.000  H
  N37      1.0000 0.30493  0.69809  0.48729  Biso   1.000  N
  H52      1.0000 0.25654  0.74467  0.43689  Biso   1.000  H
  N38      1.0000 0.48348  0.72238  0.44179  Biso   1.000  N
  H53      1.0000 0.38501  0.75910  0.40600  Biso   1.000  H
  H54      1.0000 0.42352  0.71389  0.38311  Biso   1.000  H
  C54      1.0000 0.16702  0.50718  0.37519  Biso   1.000  C
  C55      1.0000 0.08183  0.54668  0.41780  Biso   1.000  C
  C56      1.0000 0.11895  0.61310  0.47721  Biso   1.000  C
  C57      1.0000 0.25383  0.66289  0.50321  Biso   1.000  C
  C58      1.0000 0.36040  0.73489  0.51351  Biso   1.000  C
  C59      1.0000 0.56149  0.70219  0.43580  Biso   1.000  C
  C60      1.0000 0.49233  0.75249  0.47982  Biso   1.000  C
  N39      1.0000 0.12613  0.46810  0.39231  Biso   1.000  N
  O18      1.0000 0.21382  0.50151  0.34967  Biso   1.000  O
  C61      1.0000 0.06640  0.48739  0.41790  Biso   1.000  C
  N40      1.0000 0.11173  0.55939  0.46110  Biso   1.000  N
  H55      1.0000 0.02624  0.56569  0.40609  Biso   1.000  H
  H56      1.0000 0.06634  0.63289  0.46362  Biso   1.000  H
  H57      1.0000 0.11904  0.61220  0.50770  Biso   1.000  H
  O19      1.0000 0.25979  0.65119  0.54014  Biso   1.000  O
  N41      1.0000 0.45270  0.72879  0.51232  Biso   1.000  N
  H58      1.0000 0.35091  0.73337  0.54211  Biso   1.000  H
  H59      1.0000 0.34403  0.77080  0.50400  Biso   1.000  H
  O20      1.0000 0.57351  0.67830  0.40531  Biso   1.000  O
  N42      1.0000 0.62549  0.71487  0.47062  Biso   1.000  N
  H60      1.0000 0.47232  0.78938  0.47410  Biso   1.000  H
  C62      1.0000 0.59220  0.74960  0.49850  Biso   1.000  C
  C63      1.0000 0.12723  0.41389  0.37912  Biso   1.000  C
  N43      1.0000 0.09071  0.47409  0.46252  Biso   1.000  N
  H61      1.0000 0.00413  0.47800  0.40590  Biso   1.000  H
  C64      1.0000 0.11011  0.51680  0.48701  Biso   1.000  C
  C65      1.0000 0.51440  0.71827  0.54880  Biso   1.000  C
  C66      1.0000 0.71960  0.71377  0.46911  Biso   1.000  C
  N44      1.0000 0.59372  0.72750  0.54029  Biso   1.000  N
  H62      1.0000 0.62072  0.78480  0.49991  Biso   1.000  H
  N45      1.0000 0.17669  0.37971  0.41061  Biso   1.000  N
  H63      1.0000 0.06599  0.40099  0.37180  Biso   1.000  H
  H64      1.0000 0.15269  0.41221  0.35340  Biso   1.000  H
  C67      1.0000 0.06951  0.42527  0.47910  Biso   1.000  C
  O21      1.0000 0.12380  0.51758  0.52522  Biso   1.000  O
  O22      1.0000 0.49704  0.70290  0.58155  Biso   1.000  O
  N46      1.0000 0.76863  0.67779  0.49872  Biso   1.000  N
  H65      1.0000 0.74422  0.74940  0.47492  Biso   1.000  H
  H66      1.0000 0.72673  0.70388  0.44041  Biso   1.000  H
  C68      1.0000 0.67224  0.72840  0.57292  Biso   1.000  C
  C69      1.0000 0.24773  0.35319  0.40170  Biso   1.000  C
  C70      1.0000 0.13613  0.35339  0.44110  Biso   1.000  C
  N47      1.0000 0.13331  0.38288  0.47800  Biso   1.000  N
  H67      1.0000 0.01170  0.41378  0.46311  Biso   1.000  H
  H68      1.0000 0.06329  0.43067  0.50861  Biso   1.000  H
  C71      1.0000 0.81250  0.63688  0.48729  Biso   1.000  C
  C72      1.0000 0.79925  0.69148  0.54271  Biso   1.000  C
  N48      1.0000 0.73434  0.68690  0.56871  Biso   1.000  N
  H69      1.0000 0.70172  0.76258  0.57220  Biso   1.000  H
  H70      1.0000 0.65492  0.72508  0.60061  Biso   1.000  H
  O23      1.0000 0.28619  0.36089  0.37353  Biso   1.000  O
  N49      1.0000 0.26570  0.31310  0.43131  Biso   1.000  N
  C73      1.0000 0.20079  0.30848  0.45730  Biso   1.000  C
  H71      1.0000 0.07680  0.33958  0.42810  Biso   1.000  H
  C74      1.0000 0.18753  0.36309  0.51269  Biso   1.000  C
  N50      1.0000 0.86674  0.61708  0.52202  Biso   1.000  N
  O24      1.0000 0.80702  0.61978  0.45172  Biso   1.000  O
  C75      1.0000 0.86392  0.64658  0.55891  Biso   1.000  C
  H72      1.0000 0.82875  0.72641  0.54591  Biso   1.000  H
  C76      1.0000 0.75232  0.64677  0.59832  Biso   1.000  C
  C77      1.0000 0.32780  0.27160  0.42710  Biso   1.000  C
  N51      1.0000 0.23142  0.32221  0.50130  Biso   1.000  N
  H73      1.0000 0.17129  0.27359  0.45410  Biso   1.000  H
  O25      1.0000 0.19302  0.38018  0.54830  Biso   1.000  O
  C78      1.0000 0.93053  0.57469  0.52092  Biso   1.000  C
  N52      1.0000 0.82329  0.62029  0.58940  Biso   1.000  N
  H74      1.0000 0.92324  0.66038  0.57191  Biso   1.000  H
  O26      1.0000 0.71384  0.63911  0.62645  Biso   1.000  O
  N53      1.0000 0.40631  0.27250  0.45969  Biso   1.000  N
  H75      1.0000 0.29833  0.23738  0.42782  Biso   1.000  H
  H76      1.0000 0.34513  0.27489  0.39940  Biso   1.000  H
  C79      1.0000 0.28045  0.28619  0.53090  Biso   1.000  C
  N54      1.0000 0.90934  0.52587  0.53750  Biso   1.000  N
  H77      1.0000 0.98834  0.58619  0.53690  Biso   1.000  H
  H78      1.0000 0.93669  0.56929  0.49140  Biso   1.000  H
  C80      1.0000 0.87282  0.58611  0.62090  Biso   1.000  C
  C81      1.0000 0.48564  0.28169  0.45121  Biso   1.000  C
  C82      1.0000 0.40785  0.25040  0.50151  Biso   1.000  C
  N55      1.0000 0.37449  0.28509  0.52940  Biso   1.000  N
  H79      1.0000 0.25583  0.25060  0.52510  Biso   1.000  H
  H80      1.0000 0.27332  0.29608  0.55960  Biso   1.000  H
  C83      1.0000 0.88993  0.48320  0.51301  Biso   1.000  C
  C84      1.0000 0.93364  0.51257  0.58212  Biso   1.000  C
  N56      1.0000 0.87392  0.53190  0.60771  Biso   1.000  N
  H81      1.0000 0.93405  0.59898  0.62821  Biso   1.000  H
  H82      1.0000 0.84735  0.58779  0.64661  Biso   1.000  H
  O27      1.0000 0.50299  0.29710  0.41843  Biso   1.000  O
  N57      1.0000 0.54735  0.27121  0.48770  Biso   1.000  N
  C85      1.0000 0.50772  0.24751  0.52020  Biso   1.000  C
  H83      1.0000 0.37932  0.21520  0.50010  Biso   1.000  H
  C86      1.0000 0.43856  0.29781  0.56422  Biso   1.000  C
  N58      1.0000 0.88832  0.44061  0.53891  Biso   1.000  N
  O28      1.0000 0.87624  0.48238  0.47479  Biso   1.000  O
  C87      1.0000 0.91822  0.45328  0.58221  Biso   1.000  C
  H84      1.0000 0.99591  0.52200  0.59411  Biso   1.000  H
  C88      1.0000 0.83303  0.49278  0.62482  Biso   1.000  C
  C89      1.0000 0.63965  0.26511  0.48651  Biso   1.000  C
  N59      1.0000 0.51650  0.27758  0.55822  Biso   1.000  N
  H85      1.0000 0.52772  0.21058  0.52591  Biso   1.000  H
  O29      1.0000 0.42654  0.32170  0.59471  Biso   1.000  O
  C90      1.0000 0.88110  0.38690  0.52280  Biso   1.000  C
  N60      1.0000 0.85464  0.44710  0.60881  Biso   1.000  N
  H86      1.0000 0.97379  0.43431  0.59389  Biso   1.000  H
  O30      1.0000 0.78623  0.49849  0.65035  Biso   1.000  O
  N61      1.0000 0.69510  0.30191  0.51269  Biso   1.000  N
  H87      1.0000 0.64913  0.26659  0.45790  Biso   1.000  H
  H88      1.0000 0.65602  0.22920  0.49602  Biso   1.000  H
  C91      1.0000 0.59301  0.27649  0.59082  Biso   1.000  C
  N62      1.0000 0.80522  0.35941  0.52930  Biso   1.000  N
  H89      1.0000 0.93370  0.36707  0.53640  Biso   1.000  H
  H90      1.0000 0.88100  0.38780  0.49231  Biso   1.000  H
  C92      1.0000 0.84052  0.39641  0.62840  Biso   1.000  C
  C93      1.0000 0.74621  0.33708  0.49680  Biso   1.000  C
  C94      1.0000 0.72533  0.29249  0.55731  Biso   1.000  C
  N63      1.0000 0.66390  0.30989  0.58331  Biso   1.000  N
  H91      1.0000 0.61504  0.24090  0.59402  Biso   1.000  H
  H92      1.0000 0.57652  0.28611  0.61691  Biso   1.000  H
  C95      1.0000 0.80384  0.33070  0.56880  Biso   1.000  C
  N64      1.0000 0.77803  0.36359  0.60140  Biso   1.000  N
  H93      1.0000 0.81932  0.40290  0.65481  Biso   1.000  H
  H94      1.0000 0.89722  0.37760  0.63550  Biso   1.000  H
  O31      1.0000 0.74019  0.34881  0.45988  Biso   1.000  O
  H95      1.0000 0.74351  0.25529  0.56312  Biso   1.000  H
  C96      1.0000 0.70170  0.34721  0.61141  Biso   1.000  C
  H96      1.0000 0.86022  0.31189  0.57929  Biso   1.000  H
  O32      1.0000 0.67051  0.36238  0.64134  Biso   1.000  O
  C97      1.0000 0.39005  0.60250  0.61091  Biso   1.000  C
  N65      1.0000 0.46533  0.57930  0.63770  Biso   1.000  N
  N66      1.0000 0.33601  0.63210  0.63477  Biso   1.000  N
  H97      1.0000 0.35405  0.57461  0.59502  Biso   1.000  H
  H98      1.0000 0.41023  0.62600  0.59050  Biso   1.000  H
  C98      1.0000 0.47322  0.52658  0.64372  Biso   1.000  C
  C99      1.0000 0.54785  0.60629  0.64941  Biso   1.000  C
  C100     1.0000 0.25654  0.61708  0.63920  Biso   1.000  C
  C101     1.0000 0.35532  0.68557  0.64711  Biso   1.000  C
  O33      1.0000 0.41359  0.49407  0.63399  Biso   1.000  O
  N67      1.0000 0.55593  0.51469  0.66250  Biso   1.000  N
  C102     1.0000 0.61352  0.56088  0.66652  Biso   1.000  C
  N68      1.0000 0.55352  0.63950  0.68561  Biso   1.000  N
  H99      1.0000 0.56479  0.62491  0.62510  Biso   1.000  H
  O34      1.0000 0.22056  0.57500  0.62834  Biso   1.000  O
  N69      1.0000 0.21683  0.65659  0.65701  Biso   1.000  N
  N70      1.0000 0.42325  0.69218  0.68451  Biso   1.000  N
  H100     1.0000 0.36684  0.70747  0.62309  Biso   1.000  H
  C103     1.0000 0.26995  0.70309  0.66241  Biso   1.000  C
  C104     1.0000 0.59066  0.46239  0.66542  Biso   1.000  C
  N71      1.0000 0.64774  0.57641  0.70982  Biso   1.000  N
  H101     1.0000 0.66115  0.55720  0.64982  Biso   1.000  H
  C105     1.0000 0.61245  0.62197  0.71921  Biso   1.000  C
  C106     1.0000 0.51562  0.69199  0.68300  Biso   1.000  C
  C107     1.0000 0.12422  0.65678  0.65710  Biso   1.000  C
  C108     1.0000 0.39145  0.71408  0.71660  Biso   1.000  C
  N72      1.0000 0.30201  0.71819  0.70611  Biso   1.000  N
  H102     1.0000 0.24029  0.73278  0.64529  Biso   1.000  H
  N73      1.0000 0.61624  0.44358  0.70822  Biso   1.000  N
  H103     1.0000 0.64245  0.46138  0.65170  Biso   1.000  H
  H104     1.0000 0.54582  0.43849  0.64982  Biso   1.000  H
  C109     1.0000 0.72251  0.55227  0.73500  Biso   1.000  C
  O35      1.0000 0.63121  0.64489  0.75400  Biso   1.000  O
  H105     1.0000 0.54765  0.71330  0.70652  Biso   1.000  H
  H106     1.0000 0.52404  0.70849  0.65641  Biso   1.000  H
  N74      1.0000 0.10561  0.66050  0.69962  Biso   1.000  N
  H107     1.0000 0.09773  0.62428  0.64372  Biso   1.000  H
  H108     1.0000 0.09664  0.68671  0.64021  Biso   1.000  H
  O36      1.0000 0.43522  0.72770  0.75045  Biso   1.000  O
  C110     1.0000 0.25263  0.75198  0.72841  Biso   1.000  C
  C111     1.0000 0.57080  0.40541  0.72461  Biso   1.000  C
  C112     1.0000 0.70083  0.45430  0.73510  Biso   1.000  C
  N75      1.0000 0.70614  0.50499  0.75560  Biso   1.000  N
  H109     1.0000 0.74984  0.57770  0.75661  Biso   1.000  H
  H110     1.0000 0.76565  0.54480  0.71692  Biso   1.000  H
  C113     1.0000 0.04661  0.62698  0.71271  Biso   1.000  C
  C114     1.0000 0.10469  0.71240  0.71889  Biso   1.000  C
  N76      1.0000 0.18495  0.72668  0.74540  Biso   1.000  N
  H111     1.0000 0.29372  0.76880  0.75171  Biso   1.000  H
  H112     1.0000 0.22550  0.77999  0.70910  Biso   1.000  H
  O37      1.0000 0.49825  0.38827  0.70721  Biso   1.000  O
  N77      1.0000 0.61846  0.38980  0.76172  Biso   1.000  N
  C115     1.0000 0.70331  0.41499  0.77139  Biso   1.000  C
  H113     1.0000 0.75052  0.44870  0.71999  Biso   1.000  H
  C116     1.0000 0.71884  0.50029  0.79812  Biso   1.000  C
  O38      1.0000 0.02846  0.58368  0.69858  Biso   1.000  O
  N78      1.0000 0.01463  0.65170  0.74452  Biso   1.000  N
  H114     1.0000 0.08392  0.73990  0.69742  Biso   1.000  H
  C117     1.0000 0.04174  0.70528  0.74882  Biso   1.000  C
  C118     1.0000 0.17365  0.73540  0.78540  Biso   1.000  C
  C119     1.0000 0.59804  0.34290  0.78251  Biso   1.000  C
  N79      1.0000 0.71536  0.44808  0.80791  Biso   1.000  N
  H115     1.0000 0.75233  0.38917  0.77281  Biso   1.000  H
  O39      1.0000 0.73466  0.53589  0.82346  Biso   1.000  O
  C120     1.0000 0.93326  0.63320  0.75642  Biso   1.000  C
  N80      1.0000 0.09261  0.71827  0.78851  Biso   1.000  N
  H116     1.0000 0.99013  0.72930  0.74141  Biso   1.000  H
  O40      1.0000 0.23012  0.75269  0.81382  Biso   1.000  O
  N81      1.0000 0.57105  0.35268  0.82211  Biso   1.000  N
  H117     1.0000 0.55031  0.32401  0.76370  Biso   1.000  H
  H118     1.0000 0.65033  0.31998  0.78760  Biso   1.000  H
  C121     1.0000 0.74273  0.42829  0.85102  Biso   1.000  C
  N82      1.0000 0.94723  0.61920  0.80000  Biso   1.000  N
  H119     1.0000 0.88823  0.66109  0.75080  Biso   1.000  H
  H120     1.0000 0.91093  0.60250  0.73912  Biso   1.000  H
  C122     1.0000 0.05354  0.73047  0.82672  Biso   1.000  C
  C123     1.0000 0.48864  0.33739  0.82710  Biso   1.000  C
  C124     1.0000 0.63193  0.35780  0.86120  Biso   1.000  C
  N83      1.0000 0.66881  0.40889  0.86820  Biso   1.000  N
  H121     1.0000 0.78571  0.39969  0.85102  Biso   1.000  H
  H122     1.0000 0.77226  0.45668  0.86911  Biso   1.000  H
  C125     1.0000 0.94336  0.56690  0.81190  Biso   1.000  C
  C126     1.0000 0.94831  0.65628  0.83410  Biso   1.000  C
  N84      1.0000 0.02904  0.68440  0.84631  Biso   1.000  N
  H123     1.0000 0.09686  0.75030  0.84722  Biso   1.000  H
  H124     1.0000 0.00116  0.75288  0.81821  Biso   1.000  H
  O41      1.0000 0.42730  0.32401  0.79925  Biso   1.000  O
  N85      1.0000 0.48705  0.34161  0.86930  Biso   1.000  N
  H125     1.0000 0.67790  0.32988  0.86500  Biso   1.000  H
  C127     1.0000 0.57174  0.35378  0.89401  Biso   1.000  C
  C128     1.0000 0.63794  0.43490  0.89973  Biso   1.000  C
  O42      1.0000 0.93882  0.52908  0.78979  Biso   1.000  O
  N86      1.0000 0.95062  0.56639  0.85482  Biso   1.000  N
  H126     1.0000 0.89675  0.68037  0.82842  Biso   1.000  H
  C129     1.0000 0.94395  0.61881  0.87212  Biso   1.000  C
  C130     1.0000 0.06903  0.67368  0.88732  Biso   1.000  C
  C131     1.0000 0.41994  0.31498  0.88610  Biso   1.000  C
  N87      1.0000 0.57631  0.40361  0.91250  Biso   1.000  N
  H127     1.0000 0.59221  0.32601  0.91521  Biso   1.000  H
  O43      1.0000 0.66225  0.47890  0.91376  Biso   1.000  O
  C132     1.0000 0.92963  0.51887  0.87611  Biso   1.000  C
  N88      1.0000 0.02133  0.63527  0.90302  Biso   1.000  N
  H128     1.0000 0.88833  0.62350  0.88302  Biso   1.000  H
  O44      1.0000 0.13291  0.69437  0.90720  Biso   1.000  O
  N89      1.0000 0.36512  0.35041  0.90560  Biso   1.000  N
  H129     1.0000 0.44791  0.28920  0.90720  Biso   1.000  H
  H130     1.0000 0.38191  0.29550  0.86321  Biso   1.000  H
  C133     1.0000 0.54484  0.41518  0.95122  Biso   1.000  C
  N90      1.0000 0.00536  0.49317  0.90032  Biso   1.000  N
  H131     1.0000 0.88871  0.52791  0.89492  Biso   1.000  H
  H132     1.0000 0.89915  0.49407  0.85470  Biso   1.000  H
  C134     1.0000 0.04885  0.61137  0.94281  Biso   1.000  C
  C135     1.0000 0.27560  0.35350  0.89200  Biso   1.000  C
  C136     1.0000 0.39465  0.37259  0.94573  Biso   1.000  C
  N91      1.0000 0.45082  0.41820  0.94522  Biso   1.000  N
  H133     1.0000 0.56582  0.38769  0.97223  Biso   1.000  H
  H134     1.0000 0.57013  0.44890  0.96271  Biso   1.000  H
  C137     1.0000 0.04216  0.44839  0.89021  Biso   1.000  C
  C138     1.0000 0.04706  0.51097  0.94202  Biso   1.000  C
  N92      1.0000 0.09091  0.56170  0.94180  Biso   1.000  N
  H135     1.0000 0.08981  0.63539  0.96080  Biso   1.000  H
  H136     1.0000 0.99693  0.60680  0.95602  Biso   1.000  H
  O45      1.0000 0.23353  0.33391  0.85950  Biso   1.000  O
  N93      1.0000 0.24301  0.38100  0.92101  Biso   1.000  N
  C139     1.0000 0.30934  0.39590  0.95681  Biso   1.000  C
  H137     1.0000 0.42225  0.34588  0.96670  Biso   1.000  H
  C140     1.0000 0.40943  0.46349  0.95480  Biso   1.000  C
  N94      1.0000 0.10953  0.43630  0.91991  Biso   1.000  N
  O46      1.0000 0.01553  0.42379  0.85652  Biso   1.000  O
  C141     1.0000 0.11704  0.47198  0.95430  Biso   1.000  C
  H138     1.0000 0.00481  0.51097  0.96171  Biso   1.000  H
  C142     1.0000 0.17972  0.55368  0.95442  Biso   1.000  C
  C143     1.0000 0.15014  0.38088  0.92302  Biso   1.000  C
  N95      1.0000 0.32750  0.45109  0.95970  Biso   1.000  N
  H139     1.0000 0.29685  0.38139  0.98372  Biso   1.000  H
  O47      1.0000 0.44355  0.50659  0.95844  Biso   1.000  O
  N96      1.0000 0.19691  0.50331  0.95923  Biso   1.000  N
  H140     1.0000 0.11166  0.45379  0.98092  Biso   1.000  H
  O48      1.0000 0.23297  0.59068  0.96143  Biso   1.000  O
  H141     1.0000 0.14256  0.36481  0.94981  Biso   1.000  H
  H142     1.0000 0.11804  0.35917  0.89982  Biso   1.000  H
  C144     1.0000 0.28075  0.48641  0.98341  Biso   1.000  C
  H143     1.0000 0.31776  0.51739  0.99232  Biso   1.000  H
  H144     1.0000 0.27068  0.46830  0.00912  Biso   1.000  H
  C145     1.0000 0.55351  0.76947  0.32671  Biso   1.000  C
  N97      1.0000 0.59259  0.78167  0.28850  Biso   1.000  N
  N98      1.0000 0.52901  0.81558  0.34631  Biso   1.000  N
  H145     1.0000 0.59683  0.74968  0.34722  Biso   1.000  H
  H146     1.0000 0.50114  0.74710  0.31820  Biso   1.000  H
  C146     1.0000 0.67362  0.76458  0.28539  Biso   1.000  C
  C147     1.0000 0.54172  0.79470  0.24881  Biso   1.000  C
  C148     1.0000 0.56901  0.82630  0.38731  Biso   1.000  C
  C149     1.0000 0.44829  0.84367  0.33409  Biso   1.000  C
  O49      1.0000 0.73010  0.74729  0.31381  Biso   1.000  O
  N99      1.0000 0.68493  0.77330  0.24539  Biso   1.000  N
  N100     1.0000 0.51461  0.84828  0.24451  Biso   1.000  N
  C150     1.0000 0.60468  0.78758  0.21892  Biso   1.000  C
  H147     1.0000 0.49011  0.77068  0.24140  Biso   1.000  H
  O50      1.0000 0.63289  0.80557  0.40719  Biso   1.000  O
  N101     1.0000 0.52130  0.86467  0.40301  Biso   1.000  N
  N102     1.0000 0.44720  0.88078  0.29999  Biso   1.000  N
  H148     1.0000 0.39673  0.81957  0.32841  Biso   1.000  H
  C151     1.0000 0.44393  0.88117  0.37212  Biso   1.000  C
  C152     1.0000 0.75261  0.74800  0.22840  Biso   1.000  C
  C153     1.0000 0.54659  0.87300  0.21270  Biso   1.000  C
  C154     1.0000 0.43323  0.86678  0.25641  Biso   1.000  C
  N103     1.0000 0.60558  0.83948  0.19961  Biso   1.000  N
  H149     1.0000 0.58389  0.76008  0.19741  Biso   1.000  H
  C155     1.0000 0.54883  0.88857  0.44280  Biso   1.000  C
  C156     1.0000 0.44333  0.93308  0.31189  Biso   1.000  C
  N104     1.0000 0.45060  0.93359  0.35482  Biso   1.000  N
  H150     1.0000 0.38831  0.87648  0.38301  Biso   1.000  H
  N105     1.0000 0.80199  0.78179  0.20611  Biso   1.000  N
  H151     1.0000 0.79370  0.73118  0.25170  Biso   1.000  H
  H152     1.0000 0.72548  0.71999  0.20909  Biso   1.000  H
  O51      1.0000 0.52844  0.91630  0.19857  Biso   1.000  O
  H153     1.0000 0.38820  0.83889  0.25079  Biso   1.000  H
  H154     1.0000 0.41091  0.89749  0.23911  Biso   1.000  H
  C157     1.0000 0.62419  0.84320  0.15709  Biso   1.000  C
  N106     1.0000 0.59089  0.93828  0.44179  Biso   1.000  N
  H155     1.0000 0.58980  0.86459  0.46082  Biso   1.000  H
  H156     1.0000 0.49691  0.89318  0.45602  Biso   1.000  H
  O52      1.0000 0.43881  0.97090  0.28982  Biso   1.000  O
  C158     1.0000 0.42961  0.98107  0.37610  Biso   1.000  C
  C159     1.0000 0.89143  0.78590  0.21659  Biso   1.000  C
  C160     1.0000 0.76993  0.79689  0.16240  Biso   1.000  C
  N107     1.0000 0.71680  0.84339  0.15700  Biso   1.000  N
  H157     1.0000 0.59771  0.87570  0.14372  Biso   1.000  H
  H158     1.0000 0.59662  0.81327  0.14020  Biso   1.000  H
  C161     1.0000 0.67970  0.94630  0.45442  Biso   1.000  C
  C162     1.0000 0.54703  0.98897  0.44201  Biso   1.000  C
  H159     1.0000 0.38869  0.97207  0.39491  Biso   1.000  H
  N108     1.0000 0.50534  0.00681  0.40031  Biso   1.000  N
  H160     1.0000 0.39913  0.00591  0.35469  Biso   1.000  H
  O53      1.0000 0.93519  0.77228  0.25044  Biso   1.000  O
  N109     1.0000 0.92323  0.80780  0.18450  Biso   1.000  N
  C163     1.0000 0.85530  0.81437  0.14711  Biso   1.000  C
  H161     1.0000 0.74028  0.76720  0.14532  Biso   1.000  H
  C164     1.0000 0.75652  0.88290  0.13919  Biso   1.000  C
  O54      1.0000 0.73295  0.90930  0.46142  Biso   1.000  O
  N110     1.0000 0.69695  0.99668  0.45922  Biso   1.000  N
  H162     1.0000 0.50479  0.98897  0.46170  Biso   1.000  H
  C165     1.0000 0.61703  0.02800  0.45432  Biso   1.000  C
  C166     1.0000 0.54214  0.05159  0.39020  Biso   1.000  C
  C167     1.0000 0.01560  0.80799  0.18300  Biso   1.000  C
  N111     1.0000 0.83599  0.86788  0.13477  Biso   1.000  N
  H163     1.0000 0.86681  0.79247  0.12309  Biso   1.000  H
  O55      1.0000 0.72053  0.92498  0.12833  Biso   1.000  O
  C168     1.0000 0.78073  0.01361  0.48340  Biso   1.000  C
  N112     1.0000 0.60951  0.06371  0.41991  Biso   1.000  N
  H164     1.0000 0.61164  0.04619  0.48092  Biso   1.000  H
  O56      1.0000 0.51551  0.07619  0.35651  Biso   1.000  O
  N113     1.0000 0.05349  0.86048  0.18560  Biso   1.000  N
  H165     1.0000 0.04763  0.78668  0.20652  Biso   1.000  H
  H166     1.0000 0.02402  0.79149  0.15640  Biso   1.000  H
  C169     1.0000 0.89003  0.89749  0.11090  Biso   1.000  C
  H167     1.0000 0.81773  0.98259  0.49231  Biso   1.000  H
  N114     1.0000 0.82748  0.04889  0.45969  Biso   1.000  N
  H168     1.0000 0.77073  0.03168  0.50911  Biso   1.000  H
  C170     1.0000 0.65012  0.11910  0.42302  Biso   1.000  C
  C171     1.0000 0.11243  0.87797  0.21920  Biso   1.000  C
  C172     1.0000 0.04783  0.89369  0.14940  Biso   1.000  C
  N115     1.0000 0.96531  0.92068  0.13769  Biso   1.000  N
  H169     1.0000 0.85403  0.92537  0.09502  Biso   1.000  H
  H170     1.0000 0.91021  0.87398  0.09049  Biso   1.000  H
  C173     1.0000 0.90941  0.03649  0.45479  Biso   1.000  C
  C174     1.0000 0.80932  0.10408  0.45680  Biso   1.000  C
  N116     1.0000 0.74299  0.11898  0.42101  Biso   1.000  N
  H171     1.0000 0.64254  0.13521  0.44980  Biso   1.000  H
  H172     1.0000 0.61802  0.14081  0.39981  Biso   1.000  H
  O57      1.0000 0.13119  0.85509  0.25399  Biso   1.000  O
  N117     1.0000 0.14772  0.92357  0.20981  Biso   1.000  N
  C175     1.0000 0.11350  0.93910  0.16651  Biso   1.000  C
  H173     1.0000 0.06483  0.87507  0.12510  Biso   1.000  H
  C176     1.0000 0.97320  0.97336  0.14372  Biso   1.000  C
  O58      1.0000 0.94353  0.99339  0.45843  Biso   1.000  O
  N118     1.0000 0.95080  0.08179  0.44522  Biso   1.000  N
  H174     1.0000 0.79683  0.11859  0.48371  Biso   1.000  H
  C177     1.0000 0.89463  0.12739  0.44572  Biso   1.000  C
  C178     1.0000 0.77564  0.14648  0.39199  Biso   1.000  C
  C179     1.0000 0.22248  0.94767  0.23499  Biso   1.000  C
  N119     1.0000 0.05590  0.98529  0.16249  Biso   1.000  N
  H175     1.0000 0.16113  0.94278  0.14981  Biso   1.000  H
  O59      1.0000 0.91363  0.00591  0.13398  Biso   1.000  O
  C180     1.0000 0.04482  0.08480  0.45121  Biso   1.000  C
  N120     1.0000 0.86511  0.14961  0.40562  Biso   1.000  N
  H176     1.0000 0.92222  0.15410  0.46669  Biso   1.000  H
  O60      1.0000 0.73351  0.16611  0.35949  Biso   1.000  O
  N121     1.0000 0.20612  0.99499  0.25559  Biso   1.000  N
  H177     1.0000 0.24982  0.92228  0.25660  Biso   1.000  H
  H178     1.0000 0.26563  0.95518  0.21691  Biso   1.000  H
  C181     1.0000 0.09064  0.03759  0.16541  Biso   1.000  C
  N122     1.0000 0.07629  0.09641  0.41250  Biso   1.000  N
  H179     1.0000 0.06579  0.11229  0.47222  Biso   1.000  H
  H180     1.0000 0.07010  0.05108  0.46270  Biso   1.000  H
  C182     1.0000 0.91992  0.18500  0.38609  Biso   1.000  C
  C183     1.0000 0.21882  0.99969  0.29811  Biso   1.000  C
  C184     1.0000 0.20081  0.04568  0.23509  Biso   1.000  C
  N123     1.0000 0.11621  0.05640  0.20821  Biso   1.000  N
  H181     1.0000 0.14242  0.03860  0.15169  Biso   1.000  H
  H182     1.0000 0.04580  0.06149  0.14981  Biso   1.000  H
  C185     1.0000 0.13792  0.06508  0.39972  Biso   1.000  C
  C186     1.0000 0.07172  0.14620  0.39400  Biso   1.000  C
  N124     1.0000 0.98703  0.15841  0.36929  Biso   1.000  N
  H183     1.0000 0.94788  0.21078  0.40719  Biso   1.000  H
  H184     1.0000 0.88189  0.20448  0.36320  Biso   1.000  H
  O61      1.0000 0.23464  0.96409  0.32345  Biso   1.000  O
  N125     1.0000 0.21533  0.05190  0.30790  Biso   1.000  N
  C187     1.0000 0.20330  0.08499  0.27142  Biso   1.000  C
  H185     1.0000 0.25051  0.05132  0.22002  Biso   1.000  H
  C188     1.0000 0.07078  0.09461  0.22460  Biso   1.000  C
  O62      1.0000 0.16223  0.02108  0.41375  Biso   1.000  O
  N126     1.0000 0.16879  0.09109  0.36819  Biso   1.000  N
  C189     1.0000 0.13190  0.14221  0.36119  Biso   1.000  C
  H186     1.0000 0.09219  0.17401  0.41520  Biso   1.000  H
  C190     1.0000 0.98862  0.16259  0.32709  Biso   1.000  C
  C191     1.0000 0.24271  0.07169  0.35102  Biso   1.000  C
  N127     1.0000 0.11843  0.11018  0.26172  Biso   1.000  N
  H187     1.0000 0.25231  0.11081  0.27280  Biso   1.000  H
  O63      1.0000 0.99823  0.11171  0.20721  Biso   1.000  O
  N128     1.0000 0.07103  0.14730  0.32210  Biso   1.000  N
  H188     1.0000 0.17788  0.17010  0.36499  Biso   1.000  H
  O64      1.0000 0.92728  0.17601  0.29924  Biso   1.000  O
  H189     1.0000 0.28575  0.10029  0.35102  Biso   1.000  H
  H190     1.0000 0.27224  0.04330  0.36910  Biso   1.000  H
  C192     1.0000 0.09802  0.15708  0.28250  Biso   1.000  C
  H191     1.0000 0.05029  0.17601  0.26369  Biso   1.000  H
  H192     1.0000 0.15031  0.18000  0.28759  Biso   1.000  H
  O65      1.0000 0.36714  0.19439  0.59279  Biso   1.000  O
  C193     1.0000 0.43103  0.17370  0.61270  Biso   1.000  C
  N129     1.0000 0.47874  0.13529  0.59700  Biso   1.000  N
  N130     1.0000 0.47103  0.18438  0.65371  Biso   1.000  N
  C194     1.0000 0.45122  0.11139  0.55722  Biso   1.000  C
  C195     1.0000 0.55612  0.11879  0.62790  Biso   1.000  C
  C196     1.0000 0.55175  0.15630  0.66592  Biso   1.000  C
  C197     1.0000 0.44653  0.23049  0.67330  Biso   1.000  C
  N131     1.0000 0.40910  0.06168  0.55822  Biso   1.000  N
  H193     1.0000 0.41024  0.13541  0.53919  Biso   1.000  H
  H194     1.0000 0.50314  0.10682  0.54400  Biso   1.000  H
  N132     1.0000 0.54945  0.06641  0.64520  Biso   1.000  N
  H195     1.0000 0.61174  0.12348  0.61700  Biso   1.000  H
  N133     1.0000 0.55284  0.11922  0.70002  Biso   1.000  N
  H196     1.0000 0.60332  0.18039  0.67161  Biso   1.000  H
  N134     1.0000 0.40745  0.21829  0.71152  Biso   1.000  N
  H197     1.0000 0.40321  0.25028  0.65280  Biso   1.000  H
  H198     1.0000 0.49891  0.25290  0.68181  Biso   1.000  H
  C198     1.0000 0.32035  0.05370  0.54560  Biso   1.000  C
  C199     1.0000 0.45301  0.01099  0.55800  Biso   1.000  C
  C200     1.0000 0.57044  0.01889  0.62391  Biso   1.000  C
  C201     1.0000 0.55671  0.06688  0.68812  Biso   1.000  C
  C202     1.0000 0.56681  0.13318  0.74361  Biso   1.000  C
  C203     1.0000 0.32642  0.23538  0.71462  Biso   1.000  C
  C204     1.0000 0.45833  0.20530  0.75120  Biso   1.000  C
  O66      1.0000 0.26710  0.09070  0.53860  Biso   1.000  O
  N135     1.0000 0.30309  0.00329  0.54080  Biso   1.000  N
  C205     1.0000 0.38301  0.97200  0.54569  Biso   1.000  C
  H199     1.0000 0.49519  0.01099  0.53832  Biso   1.000  H
  N136     1.0000 0.49470  0.99319  0.59970  Biso   1.000  N
  H200     1.0000 0.61129  0.02789  0.60510  Biso   1.000  H
  H201     1.0000 0.60090  0.99409  0.64529  Biso   1.000  H
  O67      1.0000 0.56123  0.02910  0.71020  Biso   1.000  O
  N137     1.0000 0.48543  0.15168  0.75551  Biso   1.000  N
  H202     1.0000 0.61183  0.16111  0.74920  Biso   1.000  H
  H203     1.0000 0.58914  0.10251  0.76091  Biso   1.000  H
  O68      1.0000 0.26995  0.25271  0.68621  Biso   1.000  O
  N138     1.0000 0.31511  0.22670  0.75460  Biso   1.000  N
  C206     1.0000 0.39530  0.21238  0.78110  Biso   1.000  C
  H204     1.0000 0.50994  0.22928  0.75862  Biso   1.000  H
  C207     1.0000 0.21932  0.98639  0.51662  Biso   1.000  C
  N139     1.0000 0.39054  0.93629  0.58011  Biso   1.000  N
  H205     1.0000 0.38841  0.95377  0.51910  Biso   1.000  H
  C208     1.0000 0.45790  0.94837  0.60981  Biso   1.000  C
  C209     1.0000 0.45345  0.12700  0.78731  Biso   1.000  C
  C210     1.0000 0.24744  0.25200  0.77161  Biso   1.000  C
  N140     1.0000 0.39446  0.16048  0.80041  Biso   1.000  N
  H206     1.0000 0.41615  0.23988  0.80261  Biso   1.000  H
  H207     1.0000 0.18231  0.01741  0.50770  Biso   1.000  H
  N141     1.0000 0.17249  0.95107  0.54029  Biso   1.000  N
  H208     1.0000 0.22932  0.96828  0.49090  Biso   1.000  H
  C211     1.0000 0.34993  0.88090  0.57700  Biso   1.000  C
  O69      1.0000 0.48454  0.92377  0.64350  Biso   1.000  O
  O70      1.0000 0.47161  0.08370  0.80144  Biso   1.000  O
  N142     1.0000 0.19806  0.21821  0.79391  Biso   1.000  N
  H209     1.0000 0.20635  0.26878  0.74832  Biso   1.000  H
  H210     1.0000 0.27456  0.28001  0.79093  Biso   1.000  H
  C212     1.0000 0.37585  0.15680  0.84292  Biso   1.000  C
  C213     1.0000 0.09063  0.96347  0.54519  Biso   1.000  C
  C214     1.0000 0.19073  0.89588  0.54321  Biso   1.000  C
  N143     1.0000 0.25705  0.88098  0.57901  Biso   1.000  N
  H211     1.0000 0.35750  0.86479  0.55022  Biso   1.000  H
  H212     1.0000 0.38203  0.85919  0.60020  Biso   1.000  H
  C215     1.0000 0.10862  0.21410  0.78342  Biso   1.000  C
  C216     1.0000 0.23012  0.20311  0.83762  Biso   1.000  C
  N144     1.0000 0.28324  0.15661  0.84302  Biso   1.000  N
  H213     1.0000 0.40234  0.12430  0.85630  Biso   1.000  H
  H214     1.0000 0.40342  0.18669  0.85982  Biso   1.000  H
  O71      1.0000 0.05652  0.00661  0.54158  Biso   1.000  O
  N145     1.0000 0.04924  0.91818  0.55480  Biso   1.000  N
  H215     1.0000 0.20322  0.88137  0.51630  Biso   1.000  H
  C217     1.0000 0.10542  0.87257  0.55430  Biso   1.000  C
  C218     1.0000 0.22441  0.85348  0.60802  Biso   1.000  C
  O72      1.0000 0.06485  0.22768  0.74957  Biso   1.000  O
  N146     1.0000 0.07682  0.19220  0.81551  Biso   1.000  N
  C219     1.0000 0.14475  0.18559  0.85291  Biso   1.000  C
  H216     1.0000 0.25970  0.23280  0.85470  Biso   1.000  H
  C220     1.0000 0.24353  0.11710  0.86082  Biso   1.000  C
  C221     1.0000 0.95522  0.91516  0.54880  Biso   1.000  C
  N147     1.0000 0.13494  0.85039  0.59440  Biso   1.000  N
  H217     1.0000 0.07781  0.84590  0.53329  Biso   1.000  H
  O73      1.0000 0.26654  0.83389  0.64052  Biso   1.000  O
  C222     1.0000 0.98445  0.19201  0.81702  Biso   1.000  C
  N148     1.0000 0.16406  0.13208  0.86525  Biso   1.000  N
  H218     1.0000 0.13322  0.20749  0.87690  Biso   1.000  H
  O74      1.0000 0.27951  0.07498  0.87169  Biso   1.000  O
  N149     1.0000 0.92376  0.90359  0.58752  Biso   1.000  N
  H219     1.0000 0.93419  0.88767  0.52780  Biso   1.000  H
  H220     1.0000 0.92994  0.94888  0.53731  Biso   1.000  H
  C223     1.0000 0.08012  0.81500  0.61389  Biso   1.000  C
  N150     1.0000 0.94655  0.13952  0.81441  Biso   1.000  N
  H221     1.0000 0.95242  0.21328  0.79350  Biso   1.000  H
  H222     1.0000 0.97602  0.20851  0.84361  Biso   1.000  H
  C224     1.0000 0.11002  0.10251  0.88911  Biso   1.000  C
  C225     1.0000 0.86212  0.93488  0.60030  Biso   1.000  C
  C226     1.0000 0.92832  0.85380  0.60601  Biso   1.000  C
  N151     1.0000 0.01301  0.84159  0.63069  Biso   1.000  N
  H223     1.0000 0.05215  0.78918  0.59279  Biso   1.000  H
  H224     1.0000 0.11816  0.79548  0.63682  Biso   1.000  H
  C227     1.0000 0.88762  0.12199  0.78081  Biso   1.000  C
  C228     1.0000 0.95222  0.10631  0.85062  Biso   1.000  C
  N152     1.0000 0.03473  0.07928  0.86230  Biso   1.000  N
  H225     1.0000 0.14602  0.07459  0.90500  Biso   1.000  H
  H226     1.0000 0.08984  0.12598  0.90952  Biso   1.000  H
  O75      1.0000 0.83782  0.97888  0.58626  Biso   1.000  O
  N153     1.0000 0.83125  0.90887  0.63182  Biso   1.000  N
  C229     1.0000 0.86813  0.85779  0.63879  Biso   1.000  C
  H227     1.0000 0.90786  0.82599  0.58482  Biso   1.000  H
  C230     1.0000 0.01141  0.83737  0.67289  Biso   1.000  C
  N154     1.0000 0.85233  0.07639  0.79020  Biso   1.000  N
  O76      1.0000 0.86885  0.14491  0.74602  Biso   1.000  O
  C231     1.0000 0.88654  0.06090  0.83350  Biso   1.000  C
  H228     1.0000 0.93521  0.12489  0.87492  Biso   1.000  H
  C232     1.0000 0.02685  0.02660  0.85630  Biso   1.000  C
  C233     1.0000 0.75734  0.92827  0.64900  Biso   1.000  C
  N155     1.0000 0.92902  0.85270  0.67792  Biso   1.000  N
  H229     1.0000 0.82209  0.82990  0.63499  Biso   1.000  H
  O77      1.0000 0.07270  0.82399  0.70078  Biso   1.000  O
  C234     1.0000 0.77756  0.05229  0.76502  Biso   1.000  C
  N156     1.0000 0.94414  0.01471  0.83752  Biso   1.000  N
  H230     1.0000 0.83892  0.05718  0.85021  Biso   1.000  H
  O78      1.0000 0.08641  0.99409  0.86603  Biso   1.000  O
  N157     1.0000 0.78471  0.94810  0.69211  Biso   1.000  N
  H231     1.0000 0.71430  0.89968  0.64900  Biso   1.000  H
  H232     1.0000 0.72780  0.95666  0.63091  Biso   1.000  H
  C235     1.0000 0.90203  0.84288  0.71751  Biso   1.000  C
  N158     1.0000 0.79393  0.00501  0.74442  Biso   1.000  N
  H233     1.0000 0.75023  0.07772  0.74342  Biso   1.000  H
  H234     1.0000 0.73442  0.04478  0.78311  Biso   1.000  H
  C236     1.0000 0.90941  0.96237  0.83460  Biso   1.000  C
  C237     1.0000 0.79674  0.91497  0.72860  Biso   1.000  C
  C238     1.0000 0.78122  0.00031  0.70191  Biso   1.000  C
  N159     1.0000 0.88161  0.88978  0.73830  Biso   1.000  N
  H235     1.0000 0.94976  0.82399  0.73632  Biso   1.000  H
  H236     1.0000 0.84972  0.82000  0.71239  Biso   1.000  H
  C239     1.0000 0.79922  0.95428  0.76489  Biso   1.000  C
  N160     1.0000 0.88383  0.94360  0.79180  Biso   1.000  N
  H237     1.0000 0.85762  0.96140  0.84832  Biso   1.000  H
  H238     1.0000 0.95425  0.93848  0.85021  Biso   1.000  H
  H239     1.0000 0.74774  0.88919  0.72722  Biso   1.000  H
  O79      1.0000 0.76541  0.03591  0.67657  Biso   1.000  O
  C240     1.0000 0.92920  0.90539  0.77541  Biso   1.000  C
  H240     1.0000 0.74954  0.94868  0.78000  Biso   1.000  H
  O80      1.0000 0.00182  0.88829  0.79281  Biso   1.000  O
  O81      1.0000 0.21382  0.86088  0.12645  Biso   1.000  O
  C241     1.0000 0.25230  0.85317  0.09831  Biso   1.000  C
  N161     1.0000 0.23432  0.81308  0.06870  Biso   1.000  N
  N162     1.0000 0.32327  0.87969  0.08939  Biso   1.000  N
  C242     1.0000 0.17222  0.77158  0.07291  Biso   1.000  C
  C243     1.0000 0.29923  0.80850  0.04270  Biso   1.000  C
  C244     1.0000 0.36390  0.85337  0.05891  Biso   1.000  C
  C245     1.0000 0.37280  0.91387  0.12089  Biso   1.000  C
  N163     1.0000 0.09370  0.77248  0.04029  Biso   1.000  N
  H241     1.0000 0.20170  0.73740  0.07219  Biso   1.000  H
  H242     1.0000 0.15489  0.77487  0.10060  Biso   1.000  H
  H243     1.0000 0.32873  0.77358  0.04591  Biso   1.000  H
  N164     1.0000 0.26867  0.82219  0.99871  Biso   1.000  N
  N165     1.0000 0.36671  0.88290  0.02201  Biso   1.000  N
  H244     1.0000 0.42322  0.83960  0.07191  Biso   1.000  H
  N166     1.0000 0.37389  0.96808  0.10770  Biso   1.000  N
  H245     1.0000 0.43403  0.90097  0.12820  Biso   1.000  H
  H246     1.0000 0.34733  0.91219  0.14660  Biso   1.000  H
  C246     1.0000 0.01438  0.78167  0.04880  Biso   1.000  C
  C247     1.0000 0.09224  0.75038  0.99849  Biso   1.000  C
  C248     1.0000 0.21964  0.78617  0.96910  Biso   1.000  C
  C249     1.0000 0.31254  0.86307  0.98728  Biso   1.000  C
  C250     1.0000 0.43051  0.92529  0.02091  Biso   1.000  C
  C251     1.0000 0.43362  0.98737  0.08211  Biso   1.000  C
  C252     1.0000 0.33300  0.00720  0.12481  Biso   1.000  C
  O82      1.0000 0.99703  0.79708  0.08158  Biso   1.000  O
  N167     1.0000 0.95268  0.77119  0.01231  Biso   1.000  N
  C253     1.0000 0.99237  0.74749  0.97981  Biso   1.000  C
  N168     1.0000 0.12553  0.78507  0.97061  Biso   1.000  N
  H247     1.0000 0.12077  0.71518  0.99991  Biso   1.000  H
  H248     1.0000 0.24426  0.75058  0.97491  Biso   1.000  H
  H249     1.0000 0.22677  0.79607  0.94040  Biso   1.000  H
  O83      1.0000 0.30706  0.88020  0.95171  Biso   1.000  O
  N169     1.0000 0.40931  0.97407  0.03749  Biso   1.000  N
  H250     1.0000 0.48832  0.91380  0.03689  Biso   1.000  H
  H251     1.0000 0.43673  0.93069  0.99140  Biso   1.000  H
  H252     1.0000 0.49589  0.97798  0.09410  Biso   1.000  H
  C254     1.0000 0.41819  0.04670  0.08220  Biso   1.000  C
  O84      1.0000 0.28620  0.00149  0.15034  Biso   1.000  O
  N170     1.0000 0.35462  0.05288  0.10880  Biso   1.000  N
  C255     1.0000 0.86038  0.76509  0.01350  Biso   1.000  C
  N171     1.0000 0.98352  0.77760  0.94179  Biso   1.000  N
  H253     1.0000 0.97236  0.71060  0.97410  Biso   1.000  H
  C256     1.0000 0.06153  0.79779  0.93579  Biso   1.000  C
  C257     1.0000 0.38991  0.01682  0.01300  Biso   1.000  C
  N172     1.0000 0.38830  0.05941  0.03890  Biso   1.000  N
  H254     1.0000 0.47378  0.06571  0.09392  Biso   1.000  H
  C258     1.0000 0.34049  0.10361  0.12839  Biso   1.000  C
  N173     1.0000 0.80497  0.80189  0.98728  Biso   1.000  N
  H255     1.0000 0.85089  0.76657  0.04211  Biso   1.000  H
  H256     1.0000 0.84400  0.72918  0.00399  Biso   1.000  H
  C259     1.0000 0.90708  0.77647  0.90919  Biso   1.000  C
  O85      1.0000 0.07355  0.82168  0.90530  Biso   1.000  O
  O86      1.0000 0.37622  0.01760  0.97479  Biso   1.000  O
  C260     1.0000 0.38107  0.11311  0.02280  Biso   1.000  C
  N174     1.0000 0.27801  0.13639  0.10139  Biso   1.000  N
  H257     1.0000 0.31930  0.09712  0.15480  Biso   1.000  H
  H258     1.0000 0.39720  0.12238  0.13549  Biso   1.000  H
  C261     1.0000 0.77475  0.79247  0.94270  Biso   1.000  C
  C262     1.0000 0.75381  0.83709  0.00320  Biso   1.000  C
  N175     1.0000 0.83618  0.80987  0.91670  Biso   1.000  N
  H259     1.0000 0.88505  0.74088  0.90599  Biso   1.000  H
  H260     1.0000 0.92356  0.78609  0.88310  Biso   1.000  H
  H261     1.0000 0.38104  0.11221  0.99231  Biso   1.000  H
  N176     1.0000 0.30520  0.14061  0.02930  Biso   1.000  N
  H262     1.0000 0.43368  0.13291  0.03639  Biso   1.000  H
  C263     1.0000 0.20168  0.15281  0.11141  Biso   1.000  C
  C264     1.0000 0.30381  0.16928  0.06880  Biso   1.000  C
  C265     1.0000 0.69625  0.83068  0.93120  Biso   1.000  C
  H263     1.0000 0.75658  0.75527  0.93689  Biso   1.000  H
  N177     1.0000 0.69486  0.85939  0.97070  Biso   1.000  N
  O87      1.0000 0.75983  0.84879  0.04013  Biso   1.000  O
  C266     1.0000 0.79832  0.84719  0.88859  Biso   1.000  C
  C267     1.0000 0.24625  0.16291  0.99680  Biso   1.000  C
  O88      1.0000 0.17049  0.13760  0.14133  Biso   1.000  O
  N178     1.0000 0.16388  0.19009  0.08330  Biso   1.000  N
  H264     1.0000 0.36021  0.18809  0.07932  Biso   1.000  H
  C268     1.0000 0.22531  0.20749  0.05730  Biso   1.000  C
  N179     1.0000 0.72205  0.86357  0.89861  Biso   1.000  N
  H265     1.0000 0.63985  0.81187  0.92068  Biso   1.000  H
  C269     1.0000 0.61893  0.88689  0.97720  Biso   1.000  C
  O89      1.0000 0.82957  0.86240  0.85867  Biso   1.000  O
  O90      1.0000 0.24023  0.15121  0.95987  Biso   1.000  O
  N180     1.0000 0.19508  0.19811  0.01269  Biso   1.000  N
  C270     1.0000 0.09299  0.22349  0.09081  Biso   1.000  C
  H266     1.0000 0.24349  0.24469  0.06311  Biso   1.000  H
  C271     1.0000 0.65957  0.89639  0.87161  Biso   1.000  C
  N181     1.0000 0.61177  0.94059  0.96110  Biso   1.000  N
  H267     1.0000 0.56639  0.86709  0.96361  Biso   1.000  H
  H268     1.0000 0.61902  0.88779  0.00769  Biso   1.000  H
  C272     1.0000 0.13969  0.23491  0.98650  Biso   1.000  C
  N182     1.0000 0.01648  0.22240  0.05821  Biso   1.000  N
  H269     1.0000 0.11501  0.25908  0.09401  Biso   1.000  H
  H270     1.0000 0.07650  0.21391  0.11690  Biso   1.000  H
  N183     1.0000 0.64545  0.94708  0.89120  Biso   1.000  N
  H271     1.0000 0.68076  0.90288  0.84520  Biso   1.000  H
  H272     1.0000 0.60287  0.87758  0.86451  Biso   1.000  H
  C273     1.0000 0.61016  0.98318  0.98700  Biso   1.000  C
  C274     1.0000 0.58187  0.95330  0.91780  Biso   1.000  C
  N184     1.0000 0.04732  0.22881  0.98769  Biso   1.000  N
  H273     1.0000 0.14918  0.23339  0.95789  Biso   1.000  H
  H274     1.0000 0.15606  0.27078  0.99601  Biso   1.000  H
  C275     1.0000 0.93853  0.20221  0.06421  Biso   1.000  C
  C276     1.0000 0.00770  0.25251  0.02019  Biso   1.000  C
  C277     1.0000 0.66706  0.99276  0.87519  Biso   1.000  C
  O91      1.0000 0.62378  0.98240  0.02521  Biso   1.000  O
  N185     1.0000 0.59075  0.02589  0.96251  Biso   1.000  N
  H275     1.0000 0.52622  0.93429  0.90608  Biso   1.000  H
  C278     1.0000 0.56645  0.01259  0.91789  Biso   1.000  C
  C279     1.0000 0.98568  0.21829  0.95120  Biso   1.000  C
  O92      1.0000 0.92651  0.17832  0.09470  Biso   1.000  O
  N186     1.0000 0.87447  0.21489  0.02939  Biso   1.000  N
  C280     1.0000 0.90783  0.24958  0.00151  Biso   1.000  C
  H276     1.0000 0.02770  0.28940  0.02590  Biso   1.000  H
  O93      1.0000 0.71386  0.99847  0.84966  Biso   1.000  O
  N187     1.0000 0.62617  0.03192  0.89230  Biso   1.000  N
  C281     1.0000 0.56955  0.07471  0.97909  Biso   1.000  C
  H277     1.0000 0.50417  0.02198  0.90590  Biso   1.000  H
  N188     1.0000 0.90635  0.22748  0.95968  Biso   1.000  N
  O94      1.0000 0.00304  0.20288  0.91842  Biso   1.000  O
  C282     1.0000 0.78043  0.21379  0.03090  Biso   1.000  C
  H278     1.0000 0.87930  0.28478  0.00009  Biso   1.000  H
  C283     1.0000 0.62726  0.08609  0.87908  Biso   1.000  C
  N189     1.0000 0.63335  0.11710  0.97799  Biso   1.000  N
  H279     1.0000 0.51174  0.08620  0.96311  Biso   1.000  H
  H280     1.0000 0.56333  0.06931  0.00860  Biso   1.000  H
  C284     1.0000 0.82784  0.22838  0.92709  Biso   1.000  C
  N190     1.0000 0.73140  0.17781  0.00129  Biso   1.000  N
  H281     1.0000 0.75581  0.24938  0.02509  Biso   1.000  H
  H282     1.0000 0.77329  0.20390  0.05960  Biso   1.000  H
  N191     1.0000 0.67673  0.12031  0.91061  Biso   1.000  N
  H283     1.0000 0.56603  0.09899  0.87180  Biso   1.000  H
  H284     1.0000 0.65273  0.08781  0.85340  Biso   1.000  H
  C285     1.0000 0.63617  0.14660  0.94109  Biso   1.000  C
  C286     1.0000 0.68751  0.13690  0.01269  Biso   1.000  C
  N192     1.0000 0.76574  0.18688  0.93130  Biso   1.000  N
  H285     1.0000 0.79835  0.26260  0.92778  Biso   1.000  H
  H286     1.0000 0.84517  0.22509  0.89940  Biso   1.000  H
  C287     1.0000 0.70083  0.19150  0.95730  Biso   1.000  C
  C288     1.0000 0.74777  0.14679  0.90169  Biso   1.000  C
  H287     1.0000 0.57684  0.16040  0.92809  Biso   1.000  H
  O95      1.0000 0.69300  0.11980  0.04829  Biso   1.000  O
  H288     1.0000 0.67133  0.22639  0.95409  Biso   1.000  H
  O96      1.0000 0.78623  0.13909  0.87352  Biso   1.000  O
  Ne1      1.0000 0.66920  0.46367  0.19636  Biso   1.000  Ne
  He1      1.0000 0.78164  0.55121  0.25171  Biso   1.000  He
  He2      1.0000 0.57630  0.37031  0.13855  Biso   1.000  He
  Ar1      1.0000 0.65684  0.46913  0.20621  Biso   1.000  Ar
  Ne2      1.0000 0.50002  0.49999  0.50001  Biso   1.000  Ne
  He3      1.0000 0.47109  0.51174  0.59116  Biso   1.000  He
  He4      1.0000 0.53331  0.48715  0.39936  Biso   1.000  He
  Ar2      1.0000 0.50003  0.49998  0.50001  Biso   1.000  Ar
  Ne3      1.0000 0.16922  0.03631  0.69637  Biso   1.000  Ne
  He5      1.0000 0.28149  0.94889  0.75162  Biso   1.000  He
  He6      1.0000 0.07506  0.13054  0.63789  Biso   1.000  He
  Ar3      1.0000 0.15686  0.03075  0.70623  Biso   1.000  Ar
  Ne4      1.0000 0.33084  0.53631  0.80365  Biso   1.000  Ne
  He7      1.0000 0.41350  0.62296  0.85616  Biso   1.000  He
  He8      1.0000 0.24038  0.45584  0.73794  Biso   1.000  He
  Ar4      1.0000 0.34321  0.53080  0.79380  Biso   1.000  Ar
  Ne5      1.0000 0.83082  0.96367  0.30364  Biso   1.000  Ne
  He9      1.0000 0.97646  0.89083  0.35221  Biso   1.000  He
  He10     1.0000 0.73118  0.05081  0.23296  Biso   1.000  He
  Ar5      1.0000 0.84319  0.96917  0.29379  Biso   1.000  Ar
  Ne6      1.0000 0.00003  0.99999  1.00000  Biso   1.000  Ne
  He11     1.0000 0.97235  0.98860  0.08836  Biso   1.000  He
  He12     1.0000 0.03564  0.01342  0.89444  Biso   1.000  He
  Ar6      1.0000 0.00255  0.99842  0.99935  Biso   1.000  Ar
