data_image0
_cell_length_a       14.014
_cell_length_b       14.014
_cell_length_c       43.771
_cell_angle_alpha    90
_cell_angle_beta     90
_cell_angle_gamma    120

_symmetry_space_group_name_H-M    "P 1"
_symmetry_int_tables_number       1

loop_
  _symmetry_equiv_pos_as_xyz
  'x, y, z'

loop_
  _atom_site_label
  _atom_site_occupancy
  _atom_site_fract_x
  _atom_site_fract_y
  _atom_site_fract_z
  _atom_site_thermal_displace_type
  _atom_site_B_iso_or_equiv
  _atom_site_type_symbol
  C1       1.0000 0.44896  0.75178  0.48411  Biso   1.000  C
  C2       1.0000 0.33326  0.66667  0.49565  Biso   1.000  C
  C3       1.0000 0.50702  0.85519  0.49722  Biso   1.000  C
  C4       1.0000 0.49802  0.73160  0.45928  Biso   1.000  C
  C5       1.0000 0.30282  0.55098  0.48411  Biso   1.000  C
  C6       1.0000 0.24822  0.69724  0.48411  Biso   1.000  C
  C7       1.0000 0.33326  0.66667  0.53113  Biso   1.000  C
  C8       1.0000 0.61007  0.93429  0.48694  Biso   1.000  C
  H1       1.0000 0.47562  0.87233  0.51351  Biso   1.000  H
  C9       1.0000 0.60018  0.80946  0.44865  Biso   1.000  C
  H2       1.0000 0.46089  0.66362  0.44957  Biso   1.000  H
  C10      1.0000 0.34817  0.49298  0.49722  Biso   1.000  C
  C11      1.0000 0.23361  0.50204  0.45928  Biso   1.000  C
  C12      1.0000 0.14481  0.65184  0.49722  Biso   1.000  C
  C13      1.0000 0.26837  0.76637  0.45928  Biso   1.000  C
  H3       1.0000 0.39263  0.65711  0.53844  Biso   1.000  H
  H4       1.0000 0.26454  0.60742  0.53844  Biso   1.000  H
  H5       1.0000 0.34290  0.73547  0.53844  Biso   1.000  H
  C14      1.0000 0.65762  0.91122  0.46264  Biso   1.000  C
  H6       1.0000 0.64716  0.00276  0.49645  Biso   1.000  H
  H7       1.0000 0.63072  0.79348  0.43193  Biso   1.000  H
  C15      1.0000 0.32418  0.38990  0.48694  Biso   1.000  C
  H8       1.0000 0.39669  0.52437  0.51351  Biso   1.000  H
  C16      1.0000 0.20931  0.39979  0.44865  Biso   1.000  C
  H9       1.0000 0.20270  0.53912  0.44957  Biso   1.000  H
  C17      1.0000 0.06568  0.67581  0.48694  Biso   1.000  C
  H10      1.0000 0.12768  0.60331  0.51351  Biso   1.000  H
  C18      1.0000 0.19047  0.79067  0.44865  Biso   1.000  C
  H11      1.0000 0.33641  0.79727  0.44957  Biso   1.000  H
  O1       1.0000 0.75987  0.98142  0.45085  Biso   1.000  O
  C19      1.0000 0.25364  0.34244  0.46264  Biso   1.000  C
  H12      1.0000 0.35559  0.35282  0.49645  Biso   1.000  H
  H13      1.0000 0.16281  0.36930  0.43193  Biso   1.000  H
  C20      1.0000 0.08878  0.74643  0.46264  Biso   1.000  C
  H14      1.0000 0.99718  0.64442  0.49645  Biso   1.000  H
  H15      1.0000 0.20654  0.83723  0.43193  Biso   1.000  H
  C21      1.0000 0.82887  0.08046  0.46700  Biso   1.000  C
  O2       1.0000 0.22156  0.24018  0.45085  Biso   1.000  O
  O3       1.0000 0.01861  0.77848  0.45085  Biso   1.000  O
  C22      1.0000 0.93029  0.14728  0.44767  Biso   1.000  C
  H16      1.0000 0.84917  0.06398  0.48665  Biso   1.000  H
  H17      1.0000 0.79071  0.12117  0.47040  Biso   1.000  H
  C23      1.0000 0.25162  0.17114  0.46700  Biso   1.000  C
  C24      1.0000 0.91951  0.74840  0.46700  Biso   1.000  C
  C25      1.0000 0.90417  0.17555  0.41642  Biso   1.000  C
  H18      1.0000 0.96849  0.10609  0.44507  Biso   1.000  H
  H19      1.0000 0.97960  0.21510  0.45836  Biso   1.000  H
  C26      1.0000 0.21703  0.06971  0.44767  Biso   1.000  C
  H20      1.0000 0.21482  0.15079  0.48665  Biso   1.000  H
  H21      1.0000 0.33049  0.20929  0.47040  Biso   1.000  H
  C27      1.0000 0.85269  0.78301  0.44767  Biso   1.000  C
  H22      1.0000 0.93600  0.78524  0.48665  Biso   1.000  H
  H23      1.0000 0.87876  0.66947  0.47040  Biso   1.000  H
  C28      1.0000 0.84225  0.23751  0.41692  Biso   1.000  C
  H24      1.0000 0.97276  0.21938  0.40545  Biso   1.000  H
  H25      1.0000 0.86109  0.10765  0.40506  Biso   1.000  H
  C29      1.0000 0.27140  0.09583  0.41642  Biso   1.000  C
  H26      1.0000 0.13762  0.03148  0.44507  Biso   1.000  H
  H27      1.0000 0.23549  0.02043  0.45836  Biso   1.000  H
  C30      1.0000 0.82443  0.72863  0.41642  Biso   1.000  C
  H28      1.0000 0.89390  0.86244  0.44507  Biso   1.000  H
  H29      1.0000 0.78490  0.76447  0.45836  Biso   1.000  H
  C31      1.0000 0.81399  0.26363  0.38564  Biso   1.000  C
  H30      1.0000 0.88601  0.30606  0.42786  Biso   1.000  H
  H31      1.0000 0.77439  0.19442  0.42827  Biso   1.000  H
  C32      1.0000 0.39525  0.15771  0.41692  Biso   1.000  C
  H32      1.0000 0.24658  0.02719  0.40545  Biso   1.000  H
  H33      1.0000 0.24664  0.13892  0.40506  Biso   1.000  H
  C33      1.0000 0.76246  0.60471  0.41692  Biso   1.000  C
  H34      1.0000 0.78060  0.75343  0.40545  Biso   1.000  H
  H35      1.0000 0.89234  0.75343  0.40506  Biso   1.000  H
  C34      1.0000 0.74715  0.16220  0.36634  Biso   1.000  C
  H36      1.0000 0.77277  0.30178  0.38827  Biso   1.000  H
  H37      1.0000 0.88173  0.31290  0.37497  Biso   1.000  H
  C35      1.0000 0.44967  0.18605  0.38564  Biso   1.000  C
  H38      1.0000 0.42004  0.11395  0.42786  Biso   1.000  H
  H39      1.0000 0.42006  0.22560  0.42827  Biso   1.000  H
  C36      1.0000 0.73634  0.55032  0.38564  Biso   1.000  C
  H40      1.0000 0.69383  0.57990  0.42786  Biso   1.000  H
  H41      1.0000 0.80558  0.57990  0.42827  Biso   1.000  H
  O4       1.0000 0.64805  0.09315  0.38249  Biso   1.000  O
  H42      1.0000 0.73067  0.18247  0.34669  Biso   1.000  H
  H43      1.0000 0.78783  0.12397  0.36293  Biso   1.000  H
  C37      1.0000 0.41508  0.25287  0.36634  Biso   1.000  C
  H44      1.0000 0.52907  0.22725  0.38827  Biso   1.000  H
  H45      1.0000 0.43118  0.11824  0.37497  Biso   1.000  H
  C38      1.0000 0.83778  0.58493  0.36634  Biso   1.000  C
  H46      1.0000 0.69813  0.47089  0.38827  Biso   1.000  H
  H47      1.0000 0.68710  0.56886  0.37497  Biso   1.000  H
  C39      1.0000 0.57787  0.99090  0.37070  Biso   1.000  C
  O5       1.0000 0.44512  0.35191  0.38249  Biso   1.000  O
  H48      1.0000 0.45186  0.26935  0.34669  Biso   1.000  H
  H49      1.0000 0.33621  0.21217  0.36293  Biso   1.000  H
  O6       1.0000 0.90680  0.55486  0.38249  Biso   1.000  O
  H50      1.0000 0.81743  0.54810  0.34669  Biso   1.000  H
  H51      1.0000 0.87596  0.66387  0.36293  Biso   1.000  H
  C40      1.0000 0.60095  0.94344  0.34639  Biso   1.000  C
  C41      1.0000 0.47619  0.93355  0.38468  Biso   1.000  C
  C42      1.0000 0.41307  0.42212  0.37070  Biso   1.000  C
  C43      1.0000 0.00902  0.58691  0.37070  Biso   1.000  C
  C44      1.0000 0.52186  0.84036  0.33611  Biso   1.000  C
  H52      1.0000 0.66944  0.98051  0.33689  Biso   1.000  H
  C45      1.0000 0.39824  0.83130  0.37406  Biso   1.000  C
  H53      1.0000 0.46018  0.96404  0.40141  Biso   1.000  H
  C46      1.0000 0.34245  0.39904  0.34639  Biso   1.000  C
  C47      1.0000 0.45734  0.52379  0.38468  Biso   1.000  C
  C48      1.0000 0.05653  0.65752  0.34639  Biso   1.000  C
  C49      1.0000 0.06646  0.54266  0.38468  Biso   1.000  C
  C50      1.0000 0.41851  0.78235  0.34923  Biso   1.000  C
  H54      1.0000 0.53899  0.80897  0.31982  Biso   1.000  H
  H55      1.0000 0.33025  0.79422  0.38377  Biso   1.000  H
  C51      1.0000 0.31849  0.47815  0.33611  Biso   1.000  C
  H56      1.0000 0.31107  0.33057  0.33689  Biso   1.000  H
  C52      1.0000 0.43309  0.60174  0.37406  Biso   1.000  C
  H57      1.0000 0.50391  0.53986  0.40141  Biso   1.000  H
  C53      1.0000 0.15964  0.68150  0.33611  Biso   1.000  C
  H58      1.0000 0.01943  0.68891  0.33689  Biso   1.000  H
  C54      1.0000 0.16867  0.56697  0.37406  Biso   1.000  C
  H59      1.0000 0.03598  0.49611  0.40141  Biso   1.000  H
  C55      1.0000 0.33341  0.66667  0.33769  Biso   1.000  C
  C56      1.0000 0.36385  0.58155  0.34923  Biso   1.000  C
  H60      1.0000 0.26996  0.46101  0.31982  Biso   1.000  H
  H61      1.0000 0.46394  0.66972  0.38377  Biso   1.000  H
  C57      1.0000 0.21765  0.63610  0.34923  Biso   1.000  C
  H62      1.0000 0.19105  0.73003  0.31982  Biso   1.000  H
  H63      1.0000 0.20581  0.53607  0.38377  Biso   1.000  H
  C58      1.0000 0.33341  0.66667  0.30221  Biso   1.000  C
  H64      1.0000 0.32378  0.72591  0.29490  Biso   1.000  H
  H65      1.0000 0.27410  0.59787  0.29490  Biso   1.000  H
  H66      1.0000 0.40219  0.67623  0.29490  Biso   1.000  H
  C59      1.0000 0.67580  0.61006  0.51306  Biso   1.000  C
  C60      1.0000 0.65181  0.50698  0.50278  Biso   1.000  C
  H67      1.0000 0.64443  0.64722  0.50355  Biso   1.000  H
  C61      1.0000 0.74638  0.65760  0.53736  Biso   1.000  C
  C62      1.0000 0.69716  0.44898  0.51589  Biso   1.000  C
  H68      1.0000 0.60329  0.47559  0.48649  Biso   1.000  H
  C63      1.0000 0.79067  0.60017  0.55135  Biso   1.000  C
  O7       1.0000 0.77846  0.75986  0.54915  Biso   1.000  O
  C64      1.0000 0.66672  0.33329  0.50435  Biso   1.000  C
  C65      1.0000 0.76641  0.49800  0.54072  Biso   1.000  C
  H69      1.0000 0.83717  0.63066  0.56807  Biso   1.000  H
  C66      1.0000 0.74840  0.82891  0.53300  Biso   1.000  C
  C67      1.0000 0.66672  0.33329  0.46887  Biso   1.000  C
  C68      1.0000 0.75180  0.30281  0.51589  Biso   1.000  C
  C69      1.0000 0.55102  0.24818  0.51589  Biso   1.000  C
  H70      1.0000 0.79732  0.46092  0.55043  Biso   1.000  H
  H71      1.0000 0.78516  0.84918  0.51335  Biso   1.000  H
  H72      1.0000 0.66949  0.79067  0.52960  Biso   1.000  H
  C70      1.0000 0.78299  0.93034  0.55233  Biso   1.000  C
  H73      1.0000 0.60739  0.34293  0.46156  Biso   1.000  H
  H74      1.0000 0.73548  0.39262  0.46156  Biso   1.000  H
  H75      1.0000 0.65708  0.26449  0.46156  Biso   1.000  H
  C71      1.0000 0.85521  0.34821  0.50278  Biso   1.000  C
  C72      1.0000 0.73161  0.23359  0.54072  Biso   1.000  C
  C73      1.0000 0.49296  0.14477  0.50278  Biso   1.000  C
  C74      1.0000 0.50196  0.26836  0.54072  Biso   1.000  C
  H76      1.0000 0.86236  0.96849  0.55493  Biso   1.000  H
  H77      1.0000 0.76453  0.97961  0.54164  Biso   1.000  H
  C75      1.0000 0.72862  0.90422  0.58358  Biso   1.000  C
  H78      1.0000 0.87234  0.39674  0.48649  Biso   1.000  H
  C76      1.0000 0.93434  0.32423  0.51306  Biso   1.000  C
  C77      1.0000 0.80951  0.20929  0.55135  Biso   1.000  C
  H79      1.0000 0.66357  0.20269  0.55043  Biso   1.000  H
  H80      1.0000 0.52440  0.12771  0.48649  Biso   1.000  H
  C78      1.0000 0.38991  0.06567  0.51306  Biso   1.000  C
  C79      1.0000 0.39980  0.19050  0.55135  Biso   1.000  C
  H81      1.0000 0.53913  0.33642  0.55043  Biso   1.000  H
  C80      1.0000 0.60473  0.84225  0.58308  Biso   1.000  C
  H82      1.0000 0.75340  0.97277  0.59455  Biso   1.000  H
  H83      1.0000 0.75338  0.86112  0.59494  Biso   1.000  H
  C81      1.0000 0.91124  0.25362  0.53736  Biso   1.000  C
  H84      1.0000 0.00284  0.35562  0.50355  Biso   1.000  H
  H85      1.0000 0.79348  0.16281  0.56807  Biso   1.000  H
  C82      1.0000 0.34240  0.08882  0.53736  Biso   1.000  C
  H86      1.0000 0.35282  0.99720  0.50355  Biso   1.000  H
  H87      1.0000 0.36926  0.20648  0.56807  Biso   1.000  H
  C83      1.0000 0.55035  0.81399  0.61436  Biso   1.000  C
  H88      1.0000 0.57998  0.88609  0.57214  Biso   1.000  H
  H89      1.0000 0.57992  0.77436  0.57173  Biso   1.000  H
  O8       1.0000 0.98141  0.22156  0.54915  Biso   1.000  O
  O9       1.0000 0.24015  0.01862  0.54915  Biso   1.000  O
  C84      1.0000 0.58494  0.74717  0.63366  Biso   1.000  C
  H90      1.0000 0.47096  0.77279  0.61173  Biso   1.000  H
  H91      1.0000 0.56885  0.88180  0.62503  Biso   1.000  H
  C85      1.0000 0.08051  0.25164  0.53300  Biso   1.000  C
  C86      1.0000 0.17111  0.91950  0.53300  Biso   1.000  C
  O10      1.0000 0.55486  0.64805  0.61751  Biso   1.000  O
  H92      1.0000 0.54816  0.73069  0.65331  Biso   1.000  H
  H93      1.0000 0.66381  0.78787  0.63707  Biso   1.000  H
  H94      1.0000 0.06402  0.21481  0.51335  Biso   1.000  H
  H95      1.0000 0.12122  0.33049  0.52960  Biso   1.000  H
  C87      1.0000 0.14733  0.21703  0.55233  Biso   1.000  C
  H96      1.0000 0.15085  0.93606  0.51335  Biso   1.000  H
  H97      1.0000 0.20931  0.87888  0.52960  Biso   1.000  H
  C88      1.0000 0.06974  0.85276  0.55233  Biso   1.000  C
  C89      1.0000 0.58691  0.57784  0.62930  Biso   1.000  C
  H98      1.0000 0.10612  0.13760  0.55493  Biso   1.000  H
  H99      1.0000 0.21508  0.23549  0.54164  Biso   1.000  H
  C90      1.0000 0.17560  0.27141  0.58358  Biso   1.000  C
  H100     1.0000 0.03154  0.89396  0.55493  Biso   1.000  H
  H101     1.0000 0.02042  0.78495  0.54164  Biso   1.000  H
  C91      1.0000 0.09581  0.82441  0.58358  Biso   1.000  C
  C92      1.0000 0.65757  0.60100  0.65361  Biso   1.000  C
  C93      1.0000 0.54264  0.47617  0.61532  Biso   1.000  C
  C94      1.0000 0.23752  0.39525  0.58308  Biso   1.000  C
  H102     1.0000 0.21942  0.24661  0.59455  Biso   1.000  H
  H103     1.0000 0.10768  0.24661  0.59494  Biso   1.000  H
  C95      1.0000 0.15778  0.76253  0.58308  Biso   1.000  C
  H104     1.0000 0.02727  0.78066  0.59455  Biso   1.000  H
  H105     1.0000 0.13889  0.89231  0.59494  Biso   1.000  H
  C96      1.0000 0.68153  0.52190  0.66389  Biso   1.000  C
  H106     1.0000 0.68895  0.66947  0.66311  Biso   1.000  H
  H107     1.0000 0.49611  0.46018  0.59859  Biso   1.000  H
  C97      1.0000 0.56693  0.39830  0.62594  Biso   1.000  C
  C98      1.0000 0.26364  0.44964  0.61436  Biso   1.000  C
  H108     1.0000 0.30615  0.42006  0.57214  Biso   1.000  H
  H109     1.0000 0.19440  0.42006  0.57173  Biso   1.000  H
  C99      1.0000 0.18603  0.73641  0.61436  Biso   1.000  C
  H110     1.0000 0.11397  0.69390  0.57214  Biso   1.000  H
  H111     1.0000 0.22563  0.80563  0.57173  Biso   1.000  H
  C100     1.0000 0.63618  0.41849  0.65077  Biso   1.000  C
  H112     1.0000 0.73002  0.53895  0.68018  Biso   1.000  H
  H113     1.0000 0.53604  0.33024  0.61623  Biso   1.000  H
  C101     1.0000 0.16220  0.41503  0.63366  Biso   1.000  C
  H114     1.0000 0.30185  0.52907  0.61173  Biso   1.000  H
  H115     1.0000 0.31292  0.43118  0.62503  Biso   1.000  H
  C102     1.0000 0.25287  0.83784  0.63366  Biso   1.000  C
  H116     1.0000 0.22721  0.69818  0.61173  Biso   1.000  H
  H117     1.0000 0.11830  0.68714  0.62503  Biso   1.000  H
  C103     1.0000 0.66662  0.33338  0.66231  Biso   1.000  C
  O11      1.0000 0.09318  0.44510  0.61751  Biso   1.000  O
  H118     1.0000 0.18255  0.45186  0.65331  Biso   1.000  H
  H119     1.0000 0.12406  0.33618  0.63707  Biso   1.000  H
  O12      1.0000 0.35198  0.90689  0.61751  Biso   1.000  O
  H120     1.0000 0.26931  0.81749  0.65331  Biso   1.000  H
  H121     1.0000 0.21215  0.87599  0.63707  Biso   1.000  H
  C104     1.0000 0.78233  0.36386  0.65077  Biso   1.000  C
  C105     1.0000 0.58152  0.21769  0.65077  Biso   1.000  C
  C106     1.0000 0.66662  0.33338  0.69779  Biso   1.000  C
  C107     1.0000 0.99096  0.41305  0.62930  Biso   1.000  C
  C108     1.0000 0.42211  0.00906  0.62930  Biso   1.000  C
  C109     1.0000 0.84034  0.31846  0.66389  Biso   1.000  C
  C110     1.0000 0.83135  0.43307  0.62594  Biso   1.000  C
  C111     1.0000 0.47816  0.15968  0.66389  Biso   1.000  C
  C112     1.0000 0.60174  0.16867  0.62594  Biso   1.000  C
  H122     1.0000 0.67620  0.27405  0.70510  Biso   1.000  H
  H123     1.0000 0.72592  0.40218  0.70510  Biso   1.000  H
  H124     1.0000 0.59779  0.32373  0.70510  Biso   1.000  H
  C113     1.0000 0.94345  0.34244  0.65361  Biso   1.000  C
  C114     1.0000 0.93356  0.45738  0.61532  Biso   1.000  C
  C115     1.0000 0.39908  0.05661  0.65361  Biso   1.000  C
  C116     1.0000 0.52383  0.06649  0.61532  Biso   1.000  C
  H125     1.0000 0.80893  0.26993  0.68018  Biso   1.000  H
  H126     1.0000 0.79421  0.46397  0.61623  Biso   1.000  H
  H127     1.0000 0.46103  0.19108  0.68018  Biso   1.000  H
  H128     1.0000 0.66973  0.20574  0.61623  Biso   1.000  H
  H129     1.0000 0.98055  0.31105  0.66311  Biso   1.000  H
  H130     1.0000 0.96400  0.50385  0.59859  Biso   1.000  H
  H131     1.0000 0.33054  0.01945  0.66311  Biso   1.000  H
  H132     1.0000 0.53984  0.03601  0.59859  Biso   1.000  H
  C117     1.0000 0.00005  0.99996  0.63556  Biso   1.000  C
  C118     1.0000 0.00005  0.99996  0.67104  Biso   1.000  C
  H133     1.0000 0.94075  0.93116  0.62825  Biso   1.000  H
  H134     1.0000 0.99043  0.05920  0.62825  Biso   1.000  H
  H135     1.0000 0.06884  0.00952  0.62825  Biso   1.000  H
  C119     1.0000 0.03049  0.91485  0.68255  Biso   1.000  C
  C120     1.0000 0.88434  0.96947  0.68255  Biso   1.000  C
  C121     1.0000 0.08515  0.11564  0.68255  Biso   1.000  C
  C122     1.0000 0.98514  0.81144  0.66944  Biso   1.000  C
  C123     1.0000 0.09974  0.93503  0.70739  Biso   1.000  C
  C124     1.0000 0.83532  0.90026  0.70739  Biso   1.000  C
  C125     1.0000 0.82629  0.01479  0.66944  Biso   1.000  C
  C126     1.0000 0.18851  0.17365  0.66944  Biso   1.000  C
  C127     1.0000 0.06488  0.16459  0.70739  Biso   1.000  C
  H136     1.0000 0.93665  0.79438  0.65315  Biso   1.000  H
  C128     1.0000 0.00910  0.73234  0.67972  Biso   1.000  C
  C129     1.0000 0.12403  0.85717  0.71801  Biso   1.000  C
  H137     1.0000 0.13059  0.00301  0.71710  Biso   1.000  H
  C130     1.0000 0.73311  0.87595  0.71801  Biso   1.000  C
  H138     1.0000 0.87246  0.86936  0.71710  Biso   1.000  H
  C131     1.0000 0.72322  0.99090  0.67972  Biso   1.000  C
  H139     1.0000 0.85769  0.06332  0.65315  Biso   1.000  H
  H140     1.0000 0.20564  0.14226  0.65315  Biso   1.000  H
  C132     1.0000 0.26759  0.27673  0.67972  Biso   1.000  C
  H141     1.0000 0.99689  0.12751  0.71710  Biso   1.000  H
  C133     1.0000 0.14284  0.26684  0.71801  Biso   1.000  C
  H142     1.0000 0.97772  0.66387  0.67022  Biso   1.000  H
  C134     1.0000 0.07976  0.75549  0.70403  Biso   1.000  C
  H143     1.0000 0.17056  0.87315  0.73473  Biso   1.000  H
  C135     1.0000 0.67571  0.92028  0.70403  Biso   1.000  C
  H144     1.0000 0.70267  0.82948  0.73473  Biso   1.000  H
  H145     1.0000 0.68607  0.02221  0.67022  Biso   1.000  H
  H146     1.0000 0.33608  0.31381  0.67022  Biso   1.000  H
  C136     1.0000 0.24451  0.32419  0.70403  Biso   1.000  C
  H147     1.0000 0.12683  0.29733  0.73473  Biso   1.000  H
  O13      1.0000 0.11180  0.68529  0.71582  Biso   1.000  O
  O14      1.0000 0.57349  0.88823  0.71582  Biso   1.000  O
  O15      1.0000 0.31469  0.42644  0.71582  Biso   1.000  O
  C137     1.0000 0.08172  0.58617  0.69969  Biso   1.000  C
  C138     1.0000 0.50446  0.91831  0.69969  Biso   1.000  C
  C139     1.0000 0.41379  0.49549  0.69969  Biso   1.000  C
  H148     1.0000 0.11851  0.60265  0.68002  Biso   1.000  H
  H149     1.0000 0.00286  0.54546  0.69626  Biso   1.000  H
  C140     1.0000 0.11632  0.51934  0.71899  Biso   1.000  C
  H150     1.0000 0.48412  0.88147  0.68002  Biso   1.000  H
  H151     1.0000 0.54261  0.99716  0.69626  Biso   1.000  H
  C141     1.0000 0.40303  0.88370  0.71899  Biso   1.000  C
  H152     1.0000 0.39735  0.51584  0.68002  Biso   1.000  H
  H153     1.0000 0.45452  0.45734  0.69626  Biso   1.000  H
  C142     1.0000 0.48064  0.59692  0.71899  Biso   1.000  C
  H154     1.0000 0.19571  0.56054  0.72160  Biso   1.000  H
  H155     1.0000 0.09782  0.45153  0.70830  Biso   1.000  H
  C143     1.0000 0.06194  0.49108  0.75025  Biso   1.000  C
  H156     1.0000 0.36481  0.80427  0.72160  Biso   1.000  H
  H157     1.0000 0.35375  0.90216  0.70830  Biso   1.000  H
  C144     1.0000 0.42915  0.93808  0.75025  Biso   1.000  C
  H158     1.0000 0.43945  0.63515  0.72160  Biso   1.000  H
  H159     1.0000 0.54837  0.64619  0.70830  Biso   1.000  H
  C145     1.0000 0.50889  0.57080  0.75025  Biso   1.000  C
  C146     1.0000 0.93805  0.42912  0.74974  Biso   1.000  C
  H160     1.0000 0.08669  0.44725  0.76121  Biso   1.000  H
  H161     1.0000 0.08675  0.55898  0.76160  Biso   1.000  H
  H162     1.0000 0.36052  0.91328  0.76121  Biso   1.000  H
  H163     1.0000 0.47227  0.91328  0.76160  Biso   1.000  H
  C147     1.0000 0.49107  0.06192  0.74974  Biso   1.000  C
  C148     1.0000 0.57086  0.50892  0.74974  Biso   1.000  C
  H164     1.0000 0.55270  0.63944  0.76121  Biso   1.000  H
  H165     1.0000 0.44103  0.52771  0.76160  Biso   1.000  H
  C149     1.0000 0.88367  0.40300  0.78102  Biso   1.000  C
  H166     1.0000 0.91326  0.36057  0.73880  Biso   1.000  H
  H167     1.0000 0.91329  0.47221  0.73841  Biso   1.000  H
  C150     1.0000 0.51933  0.11630  0.78102  Biso   1.000  C
  H168     1.0000 0.44724  0.08672  0.73880  Biso   1.000  H
  H169     1.0000 0.55899  0.08672  0.73841  Biso   1.000  H
  C151     1.0000 0.59693  0.48058  0.78102  Biso   1.000  C
  H170     1.0000 0.63940  0.55267  0.73880  Biso   1.000  H
  H171     1.0000 0.52778  0.44103  0.73841  Biso   1.000  H
  C152     1.0000 0.91826  0.50443  0.80032  Biso   1.000  C
  H172     1.0000 0.80430  0.36485  0.77839  Biso   1.000  H
  H173     1.0000 0.90214  0.35373  0.79171  Biso   1.000  H
  C153     1.0000 0.58616  0.08170  0.80032  Biso   1.000  C
  H174     1.0000 0.56055  0.19573  0.77839  Biso   1.000  H
  H175     1.0000 0.45155  0.09776  0.79171  Biso   1.000  H
  C154     1.0000 0.49552  0.41375  0.80032  Biso   1.000  C
  H176     1.0000 0.63513  0.43938  0.77839  Biso   1.000  H
  H177     1.0000 0.64625  0.54839  0.79171  Biso   1.000  H
  O16      1.0000 0.88821  0.57348  0.78417  Biso   1.000  O
  H178     1.0000 0.88151  0.48416  0.81997  Biso   1.000  H
  H179     1.0000 0.99718  0.54266  0.80375  Biso   1.000  H
  O17      1.0000 0.68526  0.11177  0.78417  Biso   1.000  O
  H180     1.0000 0.60265  0.11853  0.81997  Biso   1.000  H
  H181     1.0000 0.54541  0.00276  0.80375  Biso   1.000  H
  O18      1.0000 0.42652  0.31471  0.78417  Biso   1.000  O
  H182     1.0000 0.51582  0.39727  0.81997  Biso   1.000  H
  H183     1.0000 0.45736  0.45446  0.80375  Biso   1.000  H
  C155     1.0000 0.92028  0.67573  0.79598  Biso   1.000  C
  C156     1.0000 0.75543  0.07972  0.79598  Biso   1.000  C
  C157     1.0000 0.32427  0.24451  0.79598  Biso   1.000  C
  C158     1.0000 0.99086  0.72327  0.82029  Biso   1.000  C
  C159     1.0000 0.87600  0.73316  0.78198  Biso   1.000  C
  C160     1.0000 0.73233  0.00911  0.82029  Biso   1.000  C
  C161     1.0000 0.85712  0.12397  0.78198  Biso   1.000  C
  C162     1.0000 0.27672  0.26758  0.82029  Biso   1.000  C
  C163     1.0000 0.26682  0.14275  0.78198  Biso   1.000  C
  C164     1.0000 0.01486  0.82635  0.83055  Biso   1.000  C
  H184     1.0000 0.02223  0.68611  0.82977  Biso   1.000  H
  H185     1.0000 0.82946  0.70259  0.76526  Biso   1.000  H
  C165     1.0000 0.90026  0.83533  0.79260  Biso   1.000  C
  C166     1.0000 0.81146  0.98513  0.83055  Biso   1.000  C
  H186     1.0000 0.66382  0.97771  0.82977  Biso   1.000  H
  H187     1.0000 0.87319  0.17052  0.76526  Biso   1.000  H
  C167     1.0000 0.93502  0.09966  0.79260  Biso   1.000  C
  C168     1.0000 0.17366  0.18848  0.83055  Biso   1.000  C
  H188     1.0000 0.31381  0.33605  0.82977  Biso   1.000  H
  H189     1.0000 0.29736  0.12677  0.76526  Biso   1.000  H
  C169     1.0000 0.16467  0.06489  0.79260  Biso   1.000  C
  C170     1.0000 0.96951  0.88436  0.81744  Biso   1.000  C
  H190     1.0000 0.06338  0.85774  0.84686  Biso   1.000  H
  H191     1.0000 0.86934  0.87241  0.78289  Biso   1.000  H
  C171     1.0000 0.91487  0.03053  0.81744  Biso   1.000  C
  H192     1.0000 0.79433  0.93660  0.84686  Biso   1.000  H
  H193     1.0000 0.00306  0.13056  0.78289  Biso   1.000  H
  C172     1.0000 0.11561  0.08508  0.81744  Biso   1.000  C
  H194     1.0000 0.14227  0.20562  0.84686  Biso   1.000  H
  H195     1.0000 0.12754  0.99691  0.78289  Biso   1.000  H
  C173     1.0000 0.99991  0.99996  0.82897  Biso   1.000  C
  C174     1.0000 0.99991  0.99996  0.86445  Biso   1.000  C
  H196     1.0000 0.93118  0.94072  0.87176  Biso   1.000  H
  H197     1.0000 0.05928  0.99040  0.87176  Biso   1.000  H
  H198     1.0000 0.00955  0.06876  0.87176  Biso   1.000  H
  C175     1.0000 0.27678  0.00911  0.32028  Biso   1.000  C
  C176     1.0000 0.32429  0.07972  0.29597  Biso   1.000  C
  C177     1.0000 0.17367  0.98513  0.33056  Biso   1.000  C
  H199     1.0000 0.31389  0.97771  0.32978  Biso   1.000  H
  O19      1.0000 0.42652  0.11177  0.28418  Biso   1.000  O
  C178     1.0000 0.26685  0.12397  0.28199  Biso   1.000  C
  H200     1.0000 0.14227  0.93660  0.34685  Biso   1.000  H
  C179     1.0000 0.11566  0.03053  0.31745  Biso   1.000  C
  C180     1.0000 0.49554  0.08170  0.30031  Biso   1.000  C
  H201     1.0000 0.29733  0.17052  0.26527  Biso   1.000  H
  C181     1.0000 0.16464  0.09966  0.29261  Biso   1.000  C
  C182     1.0000 0.99991  0.99996  0.32896  Biso   1.000  C
  C183     1.0000 0.59697  0.11630  0.28101  Biso   1.000  C
  H202     1.0000 0.51588  0.11853  0.31998  Biso   1.000  H
  H203     1.0000 0.45735  0.00276  0.30374  Biso   1.000  H
  H204     1.0000 0.12750  0.13056  0.28290  Biso   1.000  H
  C184     1.0000 0.91485  0.88436  0.31745  Biso   1.000  C
  C185     1.0000 0.96947  0.08508  0.31745  Biso   1.000  C
  C186     1.0000 0.99991  0.99996  0.36444  Biso   1.000  C
  C187     1.0000 0.57085  0.06192  0.24975  Biso   1.000  C
  H205     1.0000 0.63519  0.19573  0.27840  Biso   1.000  H
  H206     1.0000 0.64621  0.09776  0.29170  Biso   1.000  H
  C188     1.0000 0.81149  0.82635  0.33056  Biso   1.000  C
  C189     1.0000 0.93508  0.83533  0.29261  Biso   1.000  C
  C190     1.0000 0.90022  0.06489  0.29261  Biso   1.000  C
  C191     1.0000 0.01482  0.18848  0.33056  Biso   1.000  C
  H207     1.0000 0.00953  0.94072  0.37175  Biso   1.000  H
  H208     1.0000 0.93112  0.99040  0.37175  Biso   1.000  H
  H209     1.0000 0.05921  0.06876  0.37175  Biso   1.000  H
  C192     1.0000 0.50893  0.93808  0.25026  Biso   1.000  C
  H210     1.0000 0.63948  0.08672  0.23879  Biso   1.000  H
  H211     1.0000 0.52773  0.08672  0.23840  Biso   1.000  H
  H212     1.0000 0.79436  0.85774  0.34685  Biso   1.000  H
  C193     1.0000 0.73241  0.72327  0.32028  Biso   1.000  C
  H213     1.0000 0.00307  0.87241  0.28290  Biso   1.000  H
  C194     1.0000 0.85716  0.73316  0.28199  Biso   1.000  C
  H214     1.0000 0.86937  0.99691  0.28290  Biso   1.000  H
  C195     1.0000 0.87593  0.14275  0.28199  Biso   1.000  C
  C196     1.0000 0.99086  0.26758  0.32028  Biso   1.000  C
  H215     1.0000 0.06335  0.20562  0.34685  Biso   1.000  H
  C197     1.0000 0.48067  0.88370  0.21898  Biso   1.000  C
  H216     1.0000 0.55276  0.91328  0.26120  Biso   1.000  H
  H217     1.0000 0.44101  0.91328  0.26159  Biso   1.000  H
  H218     1.0000 0.66388  0.68611  0.32978  Biso   1.000  H
  C198     1.0000 0.75545  0.67573  0.29597  Biso   1.000  C
  H219     1.0000 0.87313  0.70259  0.26527  Biso   1.000  H
  C199     1.0000 0.92024  0.24451  0.29597  Biso   1.000  C
  H220     1.0000 0.82940  0.12677  0.26527  Biso   1.000  H
  H221     1.0000 0.02224  0.33605  0.32978  Biso   1.000  H
  C200     1.0000 0.41384  0.91831  0.19968  Biso   1.000  C
  H222     1.0000 0.43945  0.80427  0.22161  Biso   1.000  H
  H223     1.0000 0.54841  0.90216  0.20829  Biso   1.000  H
  O20      1.0000 0.68527  0.57348  0.28418  Biso   1.000  O
  O21      1.0000 0.88820  0.31471  0.28418  Biso   1.000  O
  O22      1.0000 0.31474  0.88823  0.21583  Biso   1.000  O
  H224     1.0000 0.39735  0.88147  0.18003  Biso   1.000  H
  H225     1.0000 0.45455  0.99716  0.19625  Biso   1.000  H
  C201     1.0000 0.58617  0.50443  0.30031  Biso   1.000  C
  C202     1.0000 0.91824  0.41375  0.30031  Biso   1.000  C
  C203     1.0000 0.24457  0.92028  0.20402  Biso   1.000  C
  C204     1.0000 0.51932  0.40300  0.28101  Biso   1.000  C
  H226     1.0000 0.60265  0.48416  0.31998  Biso   1.000  H
  H227     1.0000 0.54549  0.54266  0.30374  Biso   1.000  H
  C205     1.0000 0.88365  0.48058  0.28101  Biso   1.000  C
  H228     1.0000 0.88145  0.39727  0.31998  Biso   1.000  H
  H229     1.0000 0.99710  0.45446  0.30374  Biso   1.000  H
  C206     1.0000 0.26768  0.99090  0.17971  Biso   1.000  C
  C207     1.0000 0.14284  0.87595  0.21802  Biso   1.000  C
  C208     1.0000 0.49107  0.42912  0.24975  Biso   1.000  C
  H230     1.0000 0.56055  0.36485  0.27840  Biso   1.000  H
  H231     1.0000 0.45159  0.35373  0.29170  Biso   1.000  H
  C209     1.0000 0.93806  0.50892  0.24975  Biso   1.000  C
  H232     1.0000 0.80425  0.43938  0.27840  Biso   1.000  H
  H233     1.0000 0.90214  0.54839  0.29170  Biso   1.000  H
  C210     1.0000 0.18850  0.01479  0.16945  Biso   1.000  C
  H234     1.0000 0.33614  0.02221  0.17023  Biso   1.000  H
  H235     1.0000 0.12681  0.82948  0.23474  Biso   1.000  H
  C211     1.0000 0.06494  0.90026  0.20740  Biso   1.000  C
  C212     1.0000 0.42914  0.49108  0.25026  Biso   1.000  C
  H236     1.0000 0.44730  0.36057  0.23879  Biso   1.000  H
  H237     1.0000 0.55893  0.47221  0.23840  Biso   1.000  H
  C213     1.0000 0.06191  0.57080  0.25026  Biso   1.000  C
  H238     1.0000 0.91327  0.55267  0.23879  Biso   1.000  H
  H239     1.0000 0.91325  0.44103  0.23840  Biso   1.000  H
  C214     1.0000 0.08514  0.96947  0.18256  Biso   1.000  C
  H240     1.0000 0.20563  0.06332  0.15314  Biso   1.000  H
  H241     1.0000 0.99690  0.86936  0.21711  Biso   1.000  H
  C215     1.0000 0.40303  0.51934  0.21898  Biso   1.000  C
  H242     1.0000 0.36056  0.44725  0.26120  Biso   1.000  H
  H243     1.0000 0.47222  0.55898  0.26159  Biso   1.000  H
  C216     1.0000 0.11629  0.59692  0.21898  Biso   1.000  C
  H244     1.0000 0.08674  0.63944  0.26120  Biso   1.000  H
  H245     1.0000 0.08667  0.52771  0.26159  Biso   1.000  H
  C217     1.0000 0.00005  0.99996  0.17103  Biso   1.000  C
  C218     1.0000 0.50444  0.58617  0.19968  Biso   1.000  C
  H246     1.0000 0.36483  0.56054  0.22161  Biso   1.000  H
  H247     1.0000 0.35371  0.45153  0.20829  Biso   1.000  H
  C219     1.0000 0.08170  0.49549  0.19968  Biso   1.000  C
  H248     1.0000 0.19570  0.63515  0.22161  Biso   1.000  H
  H249     1.0000 0.09782  0.64619  0.20829  Biso   1.000  H
  C220     1.0000 0.00005  0.99996  0.13555  Biso   1.000  C
  C221     1.0000 0.88435  0.91485  0.18256  Biso   1.000  C
  C222     1.0000 0.03049  0.11564  0.18256  Biso   1.000  C
  O23      1.0000 0.57349  0.68529  0.21583  Biso   1.000  O
  H250     1.0000 0.48414  0.60265  0.18003  Biso   1.000  H
  H251     1.0000 0.54260  0.54546  0.19625  Biso   1.000  H
  O24      1.0000 0.11175  0.42644  0.21583  Biso   1.000  O
  H252     1.0000 0.11849  0.51584  0.18003  Biso   1.000  H
  H253     1.0000 0.00283  0.45734  0.19625  Biso   1.000  H
  H254     1.0000 0.99041  0.93116  0.12824  Biso   1.000  H
  H255     1.0000 0.94068  0.00952  0.12824  Biso   1.000  H
  H256     1.0000 0.06878  0.05920  0.12824  Biso   1.000  H
  C223     1.0000 0.82630  0.81144  0.16945  Biso   1.000  C
  C224     1.0000 0.83529  0.93503  0.20740  Biso   1.000  C
  C225     1.0000 0.98514  0.17365  0.16945  Biso   1.000  C
  C226     1.0000 0.09971  0.16459  0.20740  Biso   1.000  C
  C227     1.0000 0.67573  0.75549  0.20402  Biso   1.000  C
  C228     1.0000 0.07968  0.32419  0.20402  Biso   1.000  C
  H257     1.0000 0.85773  0.79438  0.15314  Biso   1.000  H
  C229     1.0000 0.72324  0.73234  0.17971  Biso   1.000  C
  C230     1.0000 0.73314  0.85717  0.21802  Biso   1.000  C
  H258     1.0000 0.87242  0.00301  0.21711  Biso   1.000  H
  H259     1.0000 0.93662  0.14226  0.15314  Biso   1.000  H
  C231     1.0000 0.00914  0.27673  0.17971  Biso   1.000  C
  C232     1.0000 0.12400  0.26684  0.21802  Biso   1.000  C
  H260     1.0000 0.13062  0.12751  0.21711  Biso   1.000  H
  H261     1.0000 0.68615  0.66387  0.17023  Biso   1.000  H
  H262     1.0000 0.70260  0.87315  0.23474  Biso   1.000  H
  H263     1.0000 0.97773  0.31381  0.17023  Biso   1.000  H
  H264     1.0000 0.17050  0.29733  0.23474  Biso   1.000  H
  C233     1.0000 0.33341  0.66667  0.80222  Biso   1.000  C
  C234     1.0000 0.33341  0.66667  0.83770  Biso   1.000  C
  H265     1.0000 0.27403  0.67623  0.79491  Biso   1.000  H
  H266     1.0000 0.40213  0.72591  0.79491  Biso   1.000  H
  H267     1.0000 0.32377  0.59787  0.79491  Biso   1.000  H
  C235     1.0000 0.36385  0.78235  0.84922  Biso   1.000  C
  C236     1.0000 0.41845  0.63610  0.84922  Biso   1.000  C
  C237     1.0000 0.21771  0.58155  0.84922  Biso   1.000  C
  C238     1.0000 0.31850  0.84036  0.83612  Biso   1.000  C
  C239     1.0000 0.43306  0.83130  0.87405  Biso   1.000  C
  C240     1.0000 0.52185  0.68150  0.83612  Biso   1.000  C
  C241     1.0000 0.39830  0.56697  0.87405  Biso   1.000  C
  C242     1.0000 0.15965  0.47815  0.83612  Biso   1.000  C
  C243     1.0000 0.16864  0.60174  0.87405  Biso   1.000  C
  H268     1.0000 0.26997  0.80897  0.81981  Biso   1.000  H
  C244     1.0000 0.34249  0.94344  0.84638  Biso   1.000  C
  C245     1.0000 0.45736  0.93355  0.88467  Biso   1.000  C
  H269     1.0000 0.46397  0.79422  0.88378  Biso   1.000  H
  H270     1.0000 0.53898  0.73003  0.81981  Biso   1.000  H
  C246     1.0000 0.60099  0.65752  0.84638  Biso   1.000  C
  C247     1.0000 0.47620  0.54266  0.88467  Biso   1.000  C
  H271     1.0000 0.33026  0.53607  0.88378  Biso   1.000  H
  H272     1.0000 0.19104  0.46101  0.81981  Biso   1.000  H
  C248     1.0000 0.05659  0.39904  0.84638  Biso   1.000  C
  C249     1.0000 0.06645  0.52379  0.88467  Biso   1.000  C
  H273     1.0000 0.20577  0.66972  0.88378  Biso   1.000  H
  H274     1.0000 0.31108  0.98051  0.83690  Biso   1.000  H
  C250     1.0000 0.41303  0.99090  0.87069  Biso   1.000  C
  H275     1.0000 0.50385  0.96404  0.90140  Biso   1.000  H
  H276     1.0000 0.66949  0.68891  0.83690  Biso   1.000  H
  C251     1.0000 0.57788  0.58691  0.87069  Biso   1.000  C
  H277     1.0000 0.46013  0.49611  0.90140  Biso   1.000  H
  H278     1.0000 0.01950  0.33057  0.83690  Biso   1.000  H
  C252     1.0000 0.00905  0.42212  0.87069  Biso   1.000  C
  H279     1.0000 0.03595  0.53986  0.90140  Biso   1.000  H
  O25      1.0000 0.44511  0.09315  0.88248  Biso   1.000  O
  O26      1.0000 0.64806  0.55486  0.88248  Biso   1.000  O
  O27      1.0000 0.90680  0.35191  0.88248  Biso   1.000  O
  C253     1.0000 0.41505  0.16220  0.86635  Biso   1.000  C
  C254     1.0000 0.74715  0.58493  0.86635  Biso   1.000  C
  C255     1.0000 0.83780  0.25287  0.86635  Biso   1.000  C
  H280     1.0000 0.45180  0.18247  0.84670  Biso   1.000  H
  H281     1.0000 0.33614  0.12397  0.86292  Biso   1.000  H
  C256     1.0000 0.44964  0.26363  0.88565  Biso   1.000  C
  H282     1.0000 0.73066  0.54810  0.84670  Biso   1.000  H
  H283     1.0000 0.78791  0.66387  0.86292  Biso   1.000  H
  C257     1.0000 0.81398  0.55032  0.88565  Biso   1.000  C
  H284     1.0000 0.81749  0.26935  0.84670  Biso   1.000  H
  H285     1.0000 0.87596  0.21217  0.86292  Biso   1.000  H
  C258     1.0000 0.73638  0.18605  0.88565  Biso   1.000  C
  H286     1.0000 0.52901  0.30178  0.88828  Biso   1.000  H
  H287     1.0000 0.43118  0.31290  0.87496  Biso   1.000  H
  C259     1.0000 0.39526  0.23751  0.91693  Biso   1.000  C
  H288     1.0000 0.77277  0.47089  0.88828  Biso   1.000  H
  H289     1.0000 0.88176  0.56886  0.87496  Biso   1.000  H
  C260     1.0000 0.84224  0.60471  0.91693  Biso   1.000  C
  H290     1.0000 0.69818  0.22725  0.88828  Biso   1.000  H
  H291     1.0000 0.68706  0.11824  0.87496  Biso   1.000  H
  C261     1.0000 0.76246  0.15771  0.91693  Biso   1.000  C
  C262     1.0000 0.27138  0.17555  0.91641  Biso   1.000  C
  H292     1.0000 0.42005  0.30606  0.92787  Biso   1.000  H
  H293     1.0000 0.42003  0.19442  0.92826  Biso   1.000  H
  C263     1.0000 0.90420  0.72863  0.91641  Biso   1.000  C
  H294     1.0000 0.88607  0.57990  0.92787  Biso   1.000  H
  H295     1.0000 0.77433  0.57990  0.92826  Biso   1.000  H
  C264     1.0000 0.82442  0.09583  0.91641  Biso   1.000  C
  H296     1.0000 0.69391  0.11395  0.92787  Biso   1.000  H
  H297     1.0000 0.80554  0.22560  0.92826  Biso   1.000  H
  C265     1.0000 0.21700  0.14728  0.94768  Biso   1.000  C
  H298     1.0000 0.24663  0.21938  0.90546  Biso   1.000  H
  H299     1.0000 0.24656  0.10765  0.90507  Biso   1.000  H
  C266     1.0000 0.93032  0.78301  0.94768  Biso   1.000  C
  H300     1.0000 0.97283  0.75343  0.90546  Biso   1.000  H
  H301     1.0000 0.86109  0.75343  0.90507  Biso   1.000  H
  C267     1.0000 0.85268  0.06971  0.94768  Biso   1.000  C
  H302     1.0000 0.78061  0.02719  0.90546  Biso   1.000  H
  H303     1.0000 0.89228  0.13892  0.90507  Biso   1.000  H
  C268     1.0000 0.25159  0.08046  0.96699  Biso   1.000  C
  H304     1.0000 0.13760  0.10609  0.94505  Biso   1.000  H
  H305     1.0000 0.23549  0.21510  0.95837  Biso   1.000  H
  C269     1.0000 0.82889  0.74840  0.96699  Biso   1.000  C
  H306     1.0000 0.96854  0.86244  0.94505  Biso   1.000  H
  H307     1.0000 0.97957  0.76447  0.95837  Biso   1.000  H
  C270     1.0000 0.91952  0.17114  0.96699  Biso   1.000  C
  H308     1.0000 0.89386  0.03148  0.94505  Biso   1.000  H
  H309     1.0000 0.78494  0.02043  0.95837  Biso   1.000  H
  O28      1.0000 0.22155  0.98142  0.95086  Biso   1.000  O
  H310     1.0000 0.21481  0.06398  0.98663  Biso   1.000  H
  H311     1.0000 0.33046  0.12117  0.97041  Biso   1.000  H
  O29      1.0000 0.75987  0.77848  0.95086  Biso   1.000  O
  H312     1.0000 0.84923  0.78524  0.98663  Biso   1.000  H
  H313     1.0000 0.79071  0.66947  0.97041  Biso   1.000  H
  O30      1.0000 0.01862  0.24018  0.95086  Biso   1.000  O
  H314     1.0000 0.93596  0.15079  0.98663  Biso   1.000  H
  H315     1.0000 0.87880  0.20929  0.97041  Biso   1.000  H
  C271     1.0000 0.25360  0.91122  0.96265  Biso   1.000  C
  C272     1.0000 0.65764  0.74643  0.96265  Biso   1.000  C
  C273     1.0000 0.08880  0.34244  0.96265  Biso   1.000  C
  C274     1.0000 0.32422  0.93429  0.98695  Biso   1.000  C
  C275     1.0000 0.20928  0.80946  0.94864  Biso   1.000  C
  C276     1.0000 0.61013  0.67581  0.98695  Biso   1.000  C
  C277     1.0000 0.60020  0.79067  0.94864  Biso   1.000  C
  C278     1.0000 0.06572  0.38990  0.98695  Biso   1.000  C
  C279     1.0000 0.19047  0.39979  0.94864  Biso   1.000  C
  C280     1.0000 0.34817  0.85519  0.99721  Biso   1.000  C
  H316     1.0000 0.35560  0.00276  0.99644  Biso   1.000  H
  H317     1.0000 0.16276  0.79348  0.93194  Biso   1.000  H
  C281     1.0000 0.23357  0.73160  0.95929  Biso   1.000  C
  C282     1.0000 0.50702  0.65184  0.99721  Biso   1.000  C
  H318     1.0000 0.64724  0.64442  0.99644  Biso   1.000  H
  H319     1.0000 0.63069  0.83723  0.93194  Biso   1.000  H
  C283     1.0000 0.49800  0.76637  0.95929  Biso   1.000  C
  C284     1.0000 0.14480  0.49298  0.99721  Biso   1.000  C
  H320     1.0000 0.99723  0.35282  0.99644  Biso   1.000  H
  H321     1.0000 0.20649  0.36930  0.93194  Biso   1.000  H
  C285     1.0000 0.26843  0.50204  0.95929  Biso   1.000  C
  C286     1.0000 0.30282  0.75178  0.98410  Biso   1.000  C
  H322     1.0000 0.39670  0.87233  0.01352  Biso   1.000  H
  H323     1.0000 0.20272  0.66362  0.94956  Biso   1.000  H
  C287     1.0000 0.44902  0.69724  0.98410  Biso   1.000  C
  H324     1.0000 0.47562  0.60331  0.01352  Biso   1.000  H
  H325     1.0000 0.46086  0.79727  0.94956  Biso   1.000  H
  C288     1.0000 0.24816  0.55098  0.98410  Biso   1.000  C
  H326     1.0000 0.12768  0.52437  0.01352  Biso   1.000  H
  H327     1.0000 0.33642  0.53912  0.94956  Biso   1.000  H
  C289     1.0000 0.33326  0.66667  0.99564  Biso   1.000  C
  C290     1.0000 0.33326  0.66667  0.03112  Biso   1.000  C
  H328     1.0000 0.34289  0.60742  0.03843  Biso   1.000  H
  H329     1.0000 0.39257  0.73547  0.03843  Biso   1.000  H
  H330     1.0000 0.26448  0.65711  0.03843  Biso   1.000  H
  C291     1.0000 0.66662  0.33338  0.19778  Biso   1.000  C
  C292     1.0000 0.66662  0.33338  0.16230  Biso   1.000  C
  H331     1.0000 0.72595  0.32373  0.20509  Biso   1.000  H
  H332     1.0000 0.59785  0.27405  0.20509  Biso   1.000  H
  H333     1.0000 0.67626  0.40218  0.20509  Biso   1.000  H
  C293     1.0000 0.58153  0.36386  0.15078  Biso   1.000  C
  C294     1.0000 0.63618  0.21769  0.15078  Biso   1.000  C
  C295     1.0000 0.78231  0.41849  0.15078  Biso   1.000  C
  C296     1.0000 0.47813  0.31846  0.16388  Biso   1.000  C
  C297     1.0000 0.60172  0.43307  0.12595  Biso   1.000  C
  C298     1.0000 0.68153  0.15968  0.16388  Biso   1.000  C
  C299     1.0000 0.56692  0.16867  0.12595  Biso   1.000  C
  C300     1.0000 0.84037  0.52190  0.16388  Biso   1.000  C
  C301     1.0000 0.83138  0.39830  0.12595  Biso   1.000  C
  C302     1.0000 0.39899  0.34244  0.15362  Biso   1.000  C
  H334     1.0000 0.46100  0.26993  0.18019  Biso   1.000  H
  C303     1.0000 0.52382  0.45738  0.11533  Biso   1.000  C
  H335     1.0000 0.66976  0.46397  0.11622  Biso   1.000  H
  H336     1.0000 0.73005  0.19108  0.18019  Biso   1.000  H
  C304     1.0000 0.65753  0.05661  0.15362  Biso   1.000  C
  C305     1.0000 0.54267  0.06649  0.11533  Biso   1.000  C
  H337     1.0000 0.53601  0.20574  0.11622  Biso   1.000  H
  H338     1.0000 0.80894  0.53895  0.18019  Biso   1.000  H
  C306     1.0000 0.94343  0.60100  0.15362  Biso   1.000  C
  C307     1.0000 0.93353  0.47617  0.11533  Biso   1.000  C
  H339     1.0000 0.79421  0.33024  0.11622  Biso   1.000  H
  H340     1.0000 0.33049  0.31105  0.16310  Biso   1.000  H
  C308     1.0000 0.42210  0.41305  0.12931  Biso   1.000  C
  H341     1.0000 0.53985  0.50385  0.09860  Biso   1.000  H
  H342     1.0000 0.68890  0.01945  0.16310  Biso   1.000  H
  C309     1.0000 0.58695  0.00906  0.12931  Biso   1.000  C
  H343     1.0000 0.49617  0.03601  0.09860  Biso   1.000  H
  H344     1.0000 0.98052  0.66947  0.16310  Biso   1.000  H
  C310     1.0000 0.99093  0.57784  0.12931  Biso   1.000  C
  H345     1.0000 0.96407  0.46018  0.09860  Biso   1.000  H
  O31      1.0000 0.35192  0.44510  0.11752  Biso   1.000  O
  O32      1.0000 0.55492  0.90689  0.11752  Biso   1.000  O
  O33      1.0000 0.09318  0.64805  0.11752  Biso   1.000  O
  C311     1.0000 0.25283  0.41503  0.13365  Biso   1.000  C
  C312     1.0000 0.58497  0.83784  0.13365  Biso   1.000  C
  C313     1.0000 0.16222  0.74717  0.13365  Biso   1.000  C
  H346     1.0000 0.26932  0.45186  0.15330  Biso   1.000  H
  H347     1.0000 0.21212  0.33618  0.13708  Biso   1.000  H
  C314     1.0000 0.18600  0.44964  0.11435  Biso   1.000  C
  H348     1.0000 0.54818  0.81749  0.15330  Biso   1.000  H
  H349     1.0000 0.66384  0.87599  0.13708  Biso   1.000  H
  C315     1.0000 0.55038  0.73641  0.11435  Biso   1.000  C
  H350     1.0000 0.18253  0.73069  0.15330  Biso   1.000  H
  H351     1.0000 0.12406  0.78787  0.13708  Biso   1.000  H
  C316     1.0000 0.26364  0.81399  0.11435  Biso   1.000  C
  H352     1.0000 0.22721  0.52907  0.11172  Biso   1.000  H
  H353     1.0000 0.11826  0.43118  0.12504  Biso   1.000  H
  C317     1.0000 0.15774  0.39525  0.08307  Biso   1.000  C
  H354     1.0000 0.47097  0.69818  0.11172  Biso   1.000  H
  H355     1.0000 0.56885  0.68714  0.12504  Biso   1.000  H
  C318     1.0000 0.60476  0.76253  0.08307  Biso   1.000  C
  H356     1.0000 0.30184  0.77279  0.11172  Biso   1.000  H
  H357     1.0000 0.31296  0.88180  0.12504  Biso   1.000  H
  C319     1.0000 0.23752  0.84225  0.08307  Biso   1.000  C
  C320     1.0000 0.09582  0.27141  0.08359  Biso   1.000  C
  H358     1.0000 0.11391  0.42006  0.07213  Biso   1.000  H
  H359     1.0000 0.22566  0.42006  0.07174  Biso   1.000  H
  C321     1.0000 0.72860  0.82441  0.08359  Biso   1.000  C
  H360     1.0000 0.57993  0.69390  0.07213  Biso   1.000  H
  H361     1.0000 0.57999  0.80563  0.07174  Biso   1.000  H
  C322     1.0000 0.17560  0.90422  0.08359  Biso   1.000  C
  H362     1.0000 0.30611  0.88609  0.07213  Biso   1.000  H
  H363     1.0000 0.19444  0.77436  0.07174  Biso   1.000  H
  C323     1.0000 0.06970  0.21703  0.05232  Biso   1.000  C
  H364     1.0000 0.02719  0.24661  0.09454  Biso   1.000  H
  H365     1.0000 0.13893  0.24661  0.09493  Biso   1.000  H
  C324     1.0000 0.78302  0.85276  0.05232  Biso   1.000  C
  H366     1.0000 0.75340  0.78066  0.09454  Biso   1.000  H
  H367     1.0000 0.75342  0.89231  0.09493  Biso   1.000  H
  C325     1.0000 0.14734  0.93034  0.05232  Biso   1.000  C
  H368     1.0000 0.21937  0.97277  0.09454  Biso   1.000  H
  H369     1.0000 0.10774  0.86112  0.09493  Biso   1.000  H
  C326     1.0000 0.17113  0.25164  0.03301  Biso   1.000  C
  H370     1.0000 0.03148  0.13760  0.05495  Biso   1.000  H
  H371     1.0000 0.02041  0.23549  0.04163  Biso   1.000  H
  C327     1.0000 0.74839  0.91950  0.03301  Biso   1.000  C
  H372     1.0000 0.86242  0.89396  0.05495  Biso   1.000  H
  H373     1.0000 0.76453  0.78495  0.04163  Biso   1.000  H
  C328     1.0000 0.08050  0.82891  0.03301  Biso   1.000  C
  H374     1.0000 0.10612  0.96849  0.05495  Biso   1.000  H
  H375     1.0000 0.21508  0.97961  0.04163  Biso   1.000  H
  O34      1.0000 0.24015  0.22156  0.04914  Biso   1.000  O
  H376     1.0000 0.15079  0.21481  0.01337  Biso   1.000  H
  H377     1.0000 0.20927  0.33049  0.02959  Biso   1.000  H
  O35      1.0000 0.77847  0.01862  0.04914  Biso   1.000  O
  H378     1.0000 0.78521  0.93606  0.01337  Biso   1.000  H
  H379     1.0000 0.66957  0.87888  0.02959  Biso   1.000  H
  O36      1.0000 0.98140  0.75986  0.04914  Biso   1.000  O
  H380     1.0000 0.06402  0.84918  0.01337  Biso   1.000  H
  H381     1.0000 0.12118  0.79067  0.02959  Biso   1.000  H
  C329     1.0000 0.34238  0.25362  0.03735  Biso   1.000  C
  C330     1.0000 0.74642  0.08882  0.03735  Biso   1.000  C
  C331     1.0000 0.91122  0.65760  0.03735  Biso   1.000  C
  C332     1.0000 0.38989  0.32423  0.01305  Biso   1.000  C
  C333     1.0000 0.39978  0.20929  0.05136  Biso   1.000  C
  C334     1.0000 0.67576  0.06567  0.01305  Biso   1.000  C
  C335     1.0000 0.79070  0.19050  0.05136  Biso   1.000  C
  C336     1.0000 0.93426  0.61006  0.01305  Biso   1.000  C
  C337     1.0000 0.80951  0.60017  0.05136  Biso   1.000  C
  C338     1.0000 0.49300  0.34821  0.00279  Biso   1.000  C
  H382     1.0000 0.35278  0.35562  0.00356  Biso   1.000  H
  H383     1.0000 0.36933  0.16281  0.06806  Biso   1.000  H
  C339     1.0000 0.50198  0.23359  0.04071  Biso   1.000  C
  C340     1.0000 0.65181  0.14477  0.00279  Biso   1.000  C
  H384     1.0000 0.64438  0.99720  0.00356  Biso   1.000  H
  C341     1.0000 0.76641  0.26836  0.04071  Biso   1.000  C
  H385     1.0000 0.83722  0.20648  0.06806  Biso   1.000  H
  C342     1.0000 0.85518  0.50698  0.00279  Biso   1.000  C
  H386     1.0000 0.00279  0.64722  0.00356  Biso   1.000  H
  C343     1.0000 0.73159  0.49800  0.04071  Biso   1.000  C
  H387     1.0000 0.79350  0.63066  0.06806  Biso   1.000  H
  C344     1.0000 0.55100  0.30281  0.01590  Biso   1.000  C
  H388     1.0000 0.52440  0.39674  0.98648  Biso   1.000  H
  H389     1.0000 0.53912  0.20269  0.05044  Biso   1.000  H
  C345     1.0000 0.69716  0.24818  0.01590  Biso   1.000  C
  H390     1.0000 0.60332  0.12771  0.98648  Biso   1.000  H
  H391     1.0000 0.79730  0.33642  0.05044  Biso   1.000  H
  C346     1.0000 0.75182  0.44898  0.01590  Biso   1.000  C
  H392     1.0000 0.87230  0.47559  0.98648  Biso   1.000  H
  H393     1.0000 0.66360  0.46092  0.05044  Biso   1.000  H
  C347     1.0000 0.66672  0.33329  0.00436  Biso   1.000  C
  C348     1.0000 0.66672  0.33329  0.96888  Biso   1.000  C
  H394     1.0000 0.65713  0.39262  0.96157  Biso   1.000  H
  H395     1.0000 0.60741  0.26449  0.96157  Biso   1.000  H
  H396     1.0000 0.73555  0.34293  0.96157  Biso   1.000  H
