data_image0
_cell_length_a       42.473
_cell_length_b       13.299
_cell_length_c       29.371
_cell_angle_alpha    90
_cell_angle_beta     133.71
_cell_angle_gamma    90

_symmetry_space_group_name_H-M    "P 1"
_symmetry_int_tables_number       1

loop_
  _symmetry_equiv_pos_as_xyz
  'x, y, z'

loop_
  _atom_site_label
  _atom_site_occupancy
  _atom_site_fract_x
  _atom_site_fract_y
  _atom_site_fract_z
  _atom_site_thermal_displace_type
  _atom_site_B_iso_or_equiv
  _atom_site_type_symbol
  C1       1.0000 0.43789  0.48267  0.42198  Biso   1.000  C
  C2       1.0000 0.42291  0.46146  0.45090  Biso   1.000  C
  C3       1.0000 0.41348  0.45748  0.35948  Biso   1.000  C
  H1       1.0000 0.46472  0.51417  0.44502  Biso   1.000  H
  C4       1.0000 0.38389  0.41417  0.41718  Biso   1.000  C
  H2       1.0000 0.43930  0.47958  0.49259  Biso   1.000  H
  C5       1.0000 0.37382  0.41259  0.32712  Biso   1.000  C
  C6       1.0000 0.43141  0.47951  0.32929  Biso   1.000  C
  C7       1.0000 0.35790  0.39183  0.35402  Biso   1.000  C
  O1       1.0000 0.37350  0.39251  0.45170  Biso   1.000  O
  H3       1.0000 0.35689  0.39552  0.28511  Biso   1.000  H
  O2       1.0000 0.47816  0.47643  0.37851  Biso   1.000  O
  C8       1.0000 0.41570  0.39717  0.28120  Biso   1.000  C
  C9       1.0000 0.41810  0.58538  0.30070  Biso   1.000  C
  H4       1.0000 0.33052  0.36341  0.33042  Biso   1.000  H
  C10      1.0000 0.33401  0.34048  0.42081  Biso   1.000  C
  C11      1.0000 0.43511  0.30378  0.30202  Biso   1.000  C
  C12      1.0000 0.38271  0.41048  0.21601  Biso   1.000  C
  C13      1.0000 0.44719  0.64418  0.30621  Biso   1.000  C
  C14      1.0000 0.37780  0.62388  0.26810  Biso   1.000  C
  H5       1.0000 0.33570  0.30777  0.45199  Biso   1.000  H
  H6       1.0000 0.33001  0.28882  0.39391  Biso   1.000  H
  C15      1.0000 0.29641  0.40823  0.38261  Biso   1.000  C
  H7       1.0000 0.45741  0.29220  0.34502  Biso   1.000  H
  C16      1.0000 0.42200  0.22633  0.26019  Biso   1.000  C
  C17      1.0000 0.36979  0.33333  0.17329  Biso   1.000  C
  H8       1.0000 0.36891  0.47259  0.20032  Biso   1.000  H
  H9       1.0000 0.47549  0.62140  0.32971  Biso   1.000  H
  C18      1.0000 0.43490  0.73690  0.27738  Biso   1.000  C
  C19      1.0000 0.36420  0.71772  0.23862  Biso   1.000  C
  H10      1.0000 0.35820  0.58568  0.26542  Biso   1.000  H
  C20      1.0000 0.26690  0.46823  0.35402  Biso   1.000  C
  H11      1.0000 0.43511  0.16347  0.27540  Biso   1.000  H
  C21      1.0000 0.39031  0.24227  0.19731  Biso   1.000  C
  H12      1.0000 0.34790  0.34371  0.13009  Biso   1.000  H
  H13      1.0000 0.45450  0.77517  0.28030  Biso   1.000  H
  C22      1.0000 0.39430  0.77246  0.24479  Biso   1.000  C
  H14      1.0000 0.33621  0.74171  0.21601  Biso   1.000  H
  C23      1.0000 0.23341  0.53372  0.32020  Biso   1.000  C
  O3       1.0000 0.37940  0.15881  0.16010  Biso   1.000  O
  O4       1.0000 0.38542  0.86540  0.21502  Biso   1.000  O
  C24      1.0000 0.20330  0.59140  0.28920  Biso   1.000  C
  C25      1.0000 0.34392  0.16520  0.09392  Biso   1.000  C
  C26      1.0000 0.34838  0.91969  0.19368  Biso   1.000  C
  C27      1.0000 0.16590  0.65862  0.25190  Biso   1.000  C
  H15      1.0000 0.34640  0.11166  0.07409  Biso   1.000  H
  H16      1.0000 0.34551  0.22866  0.07941  Biso   1.000  H
  C28      1.0000 0.30169  0.15783  0.07409  Biso   1.000  C
  H17      1.0000 0.35331  0.99083  0.19330  Biso   1.000  H
  H18      1.0000 0.34561  0.90969  0.22350  Biso   1.000  H
  C29      1.0000 0.30809  0.89089  0.13188  Biso   1.000  C
  H19      1.0000 0.16431  0.69253  0.27950  Biso   1.000  H
  H20      1.0000 0.16988  0.70953  0.23259  Biso   1.000  H
  O5       1.0000 0.12629  0.60711  0.20419  Biso   1.000  O
  C30      1.0000 0.26680  0.14490  0.05572  Biso   1.000  C
  C31      1.0000 0.27429  0.87187  0.08229  Biso   1.000  C
  C32      1.0000 0.11578  0.58583  0.14898  Biso   1.000  C
  C33      1.0000 0.22540  0.12813  0.03382  Biso   1.000  C
  C34      1.0000 0.23400  0.85337  0.02299  Biso   1.000  C
  C35      1.0000 0.14190  0.60847  0.13890  Biso   1.000  C
  C36      1.0000 0.07690  0.53936  0.10471  Biso   1.000  C
  C37      1.0000 0.19180  0.11023  0.01578  Biso   1.000  C
  C38      1.0000 0.19811  0.84292  0.96990  Biso   1.000  C
  H21      1.0000 0.16920  0.63727  0.17051  Biso   1.000  H
  C39      1.0000 0.12649  0.58741  0.07970  Biso   1.000  C
  C40      1.0000 0.06220  0.51944  0.04630  Biso   1.000  C
  H22      1.0000 0.06030  0.52117  0.11328  Biso   1.000  H
  C41      1.0000 0.15081  0.08121  0.99661  Biso   1.000  C
  C42      1.0000 0.15569  0.83442  0.90509  Biso   1.000  C
  H23      1.0000 0.14371  0.60373  0.07202  Biso   1.000  H
  C43      1.0000 0.08679  0.54327  0.03288  Biso   1.000  C
  H24      1.0000 0.03510  0.48913  0.01540  Biso   1.000  H
  H25      1.0000 0.15340  0.09241  0.03170  Biso   1.000  H
  H26      1.0000 0.14619  0.00978  0.98719  Biso   1.000  H
  O6       1.0000 0.11438  0.13339  0.94418  Biso   1.000  O
  H27      1.0000 0.15300  0.88744  0.87989  Biso   1.000  H
  H28      1.0000 0.15422  0.77051  0.88771  Biso   1.000  H
  O7       1.0000 0.12030  0.84112  0.90099  Biso   1.000  O
  C44      1.0000 0.06891  0.52109  0.96722  Biso   1.000  C
  C45      1.0000 0.10580  0.22678  0.95638  Biso   1.000  C
  C46      1.0000 0.10971  0.75863  0.91710  Biso   1.000  C
  O8       1.0000 0.02191  0.52380  0.92228  Biso   1.000  O
  C47      1.0000 0.08211  0.41469  0.96430  Biso   1.000  C
  C48      1.0000 0.08469  0.60283  0.94970  Biso   1.000  C
  C49      1.0000 0.13509  0.28107  0.00989  Biso   1.000  C
  C50      1.0000 0.06551  0.26258  0.90881  Biso   1.000  C
  C51      1.0000 0.07721  0.77382  0.91621  Biso   1.000  C
  C52      1.0000 0.13042  0.66817  0.93462  Biso   1.000  C
  C53      1.0000 0.12251  0.37657  0.01262  Biso   1.000  C
  C54      1.0000 0.05270  0.35642  0.91201  Biso   1.000  C
  C55      1.0000 0.06499  0.69577  0.93208  Biso   1.000  C
  C56      1.0000 0.11741  0.58952  0.95012  Biso   1.000  C
  H29      1.0000 0.16281  0.25588  0.04371  Biso   1.000  H
  H30      1.0000 0.04558  0.22363  0.87278  Biso   1.000  H
  H31      1.0000 0.06371  0.83608  0.90500  Biso   1.000  H
  H32      1.0000 0.15289  0.65900  0.93618  Biso   1.000  H
  H33      1.0000 0.14229  0.41507  0.04880  Biso   1.000  H
  H34      1.0000 0.02449  0.37920  0.87900  Biso   1.000  H
  H35      1.0000 0.04279  0.70622  0.93090  Biso   1.000  H
  H36      1.0000 0.13089  0.52711  0.96100  Biso   1.000  H
  C57      1.0000 0.56209  0.51733  0.57798  Biso   1.000  C
  C58      1.0000 0.58649  0.54252  0.64049  Biso   1.000  C
  H37      1.0000 0.53531  0.48583  0.55500  Biso   1.000  H
  C59      1.0000 0.57711  0.53854  0.54911  Biso   1.000  C
  C60      1.0000 0.56859  0.52049  0.67068  Biso   1.000  C
  C61      1.0000 0.62620  0.58741  0.67289  Biso   1.000  C
  H38      1.0000 0.56070  0.52042  0.50738  Biso   1.000  H
  C62      1.0000 0.61609  0.58583  0.58279  Biso   1.000  C
  O9       1.0000 0.52183  0.52357  0.62150  Biso   1.000  O
  C63      1.0000 0.58430  0.60283  0.71882  Biso   1.000  C
  C64      1.0000 0.58190  0.41462  0.69932  Biso   1.000  C
  C65      1.0000 0.64210  0.60817  0.64600  Biso   1.000  C
  H39      1.0000 0.64310  0.60448  0.71491  Biso   1.000  H
  O10      1.0000 0.62650  0.60749  0.54831  Biso   1.000  O
  C66      1.0000 0.56491  0.69622  0.69800  Biso   1.000  C
  C67      1.0000 0.61731  0.58952  0.78401  Biso   1.000  C
  C68      1.0000 0.55280  0.35582  0.69381  Biso   1.000  C
  C69      1.0000 0.62220  0.37612  0.73191  Biso   1.000  C
  H40      1.0000 0.66950  0.63659  0.66960  Biso   1.000  H
  C70      1.0000 0.66601  0.65952  0.57921  Biso   1.000  C
  H41      1.0000 0.54259  0.70780  0.65499  Biso   1.000  H
  C71      1.0000 0.57800  0.77367  0.73978  Biso   1.000  C
  C72      1.0000 0.63019  0.66667  0.82668  Biso   1.000  C
  H42      1.0000 0.63109  0.52741  0.79969  Biso   1.000  H
  H43      1.0000 0.52450  0.37860  0.67030  Biso   1.000  H
  C73      1.0000 0.56510  0.26310  0.72258  Biso   1.000  C
  C74      1.0000 0.63579  0.28228  0.76140  Biso   1.000  C
  H44      1.0000 0.64180  0.41432  0.73460  Biso   1.000  H
  H45      1.0000 0.66429  0.69223  0.54798  Biso   1.000  H
  H46      1.0000 0.67001  0.71118  0.60610  Biso   1.000  H
  C75      1.0000 0.70359  0.59177  0.61741  Biso   1.000  C
  H47      1.0000 0.56491  0.83653  0.72461  Biso   1.000  H
  C76      1.0000 0.60969  0.75773  0.80270  Biso   1.000  C
  H48      1.0000 0.65210  0.65629  0.86992  Biso   1.000  H
  H49      1.0000 0.54550  0.22483  0.71971  Biso   1.000  H
  C77      1.0000 0.60570  0.22754  0.75518  Biso   1.000  C
  H50      1.0000 0.66381  0.25829  0.78401  Biso   1.000  H
  C78      1.0000 0.73310  0.53177  0.64600  Biso   1.000  C
  O11      1.0000 0.62060  0.84119  0.83991  Biso   1.000  O
  O12      1.0000 0.61460  0.13460  0.78499  Biso   1.000  O
  C79      1.0000 0.76661  0.46628  0.67982  Biso   1.000  C
  C80      1.0000 0.65610  0.83480  0.90609  Biso   1.000  C
  C81      1.0000 0.65159  0.08031  0.80628  Biso   1.000  C
  C82      1.0000 0.79670  0.40860  0.71081  Biso   1.000  C
  H51      1.0000 0.65362  0.88834  0.92592  Biso   1.000  H
  H52      1.0000 0.65449  0.77134  0.92060  Biso   1.000  H
  C83      1.0000 0.69831  0.84217  0.92592  Biso   1.000  C
  H53      1.0000 0.64671  0.00917  0.80671  Biso   1.000  H
  H54      1.0000 0.65441  0.09031  0.77652  Biso   1.000  H
  C84      1.0000 0.69188  0.10911  0.86808  Biso   1.000  C
  C85      1.0000 0.83412  0.34138  0.74811  Biso   1.000  C
  C86      1.0000 0.73319  0.85510  0.94429  Biso   1.000  C
  C87      1.0000 0.72568  0.12813  0.91768  Biso   1.000  C
  H55      1.0000 0.83571  0.30747  0.72051  Biso   1.000  H
  H56      1.0000 0.83009  0.29047  0.76738  Biso   1.000  H
  O13      1.0000 0.87368  0.39289  0.79578  Biso   1.000  O
  C88      1.0000 0.77460  0.87187  0.96619  Biso   1.000  C
  C89      1.0000 0.76600  0.14663  0.97698  Biso   1.000  C
  C90      1.0000 0.88419  0.41417  0.85098  Biso   1.000  C
  C91      1.0000 0.80820  0.88977  0.98419  Biso   1.000  C
  C92      1.0000 0.80191  0.15708  0.03011  Biso   1.000  C
  C93      1.0000 0.85812  0.39153  0.86111  Biso   1.000  C
  C94      1.0000 0.92310  0.46064  0.89531  Biso   1.000  C
  C95      1.0000 0.84919  0.91879  0.00340  Biso   1.000  C
  C96      1.0000 0.84430  0.16558  0.09492  Biso   1.000  C
  H57      1.0000 0.83079  0.36273  0.82951  Biso   1.000  H
  C97      1.0000 0.87351  0.41259  0.92032  Biso   1.000  C
  C98      1.0000 0.93780  0.48056  0.95371  Biso   1.000  C
  H58      1.0000 0.93970  0.47883  0.88669  Biso   1.000  H
  H59      1.0000 0.84660  0.90759  0.96831  Biso   1.000  H
  H60      1.0000 0.85379  0.99022  0.01278  Biso   1.000  H
  O14      1.0000 0.88559  0.86661  0.05578  Biso   1.000  O
  H61      1.0000 0.84702  0.11256  0.12012  Biso   1.000  H
  H62      1.0000 0.84580  0.22949  0.11230  Biso   1.000  H
  O15      1.0000 0.87972  0.15888  0.09902  Biso   1.000  O
  H63      1.0000 0.85629  0.39627  0.92799  Biso   1.000  H
  C99      1.0000 0.91318  0.45673  0.96709  Biso   1.000  C
  H64      1.0000 0.96490  0.51087  0.98461  Biso   1.000  H
  C100     1.0000 0.89419  0.77322  0.04358  Biso   1.000  C
  C101     1.0000 0.89032  0.24137  0.08291  Biso   1.000  C
  C102     1.0000 0.93109  0.47891  0.03280  Biso   1.000  C
  C103     1.0000 0.86491  0.71893  0.99012  Biso   1.000  C
  C104     1.0000 0.93449  0.73742  0.09120  Biso   1.000  C
  C105     1.0000 0.92281  0.22618  0.08381  Biso   1.000  C
  C106     1.0000 0.86961  0.33183  0.06539  Biso   1.000  C
  C107     1.0000 0.91791  0.58531  0.03572  Biso   1.000  C
  C108     1.0000 0.91531  0.39717  0.05032  Biso   1.000  C
  O16      1.0000 0.97806  0.47620  0.07768  Biso   1.000  O
  C109     1.0000 0.87749  0.62343  0.98739  Biso   1.000  C
  H65      1.0000 0.83721  0.74412  0.95630  Biso   1.000  H
  H66      1.0000 0.95439  0.77637  0.12719  Biso   1.000  H
  C110     1.0000 0.94730  0.64358  0.08800  Biso   1.000  C
  H67      1.0000 0.93631  0.16392  0.09502  Biso   1.000  H
  C111     1.0000 0.93500  0.30423  0.06789  Biso   1.000  C
  C112     1.0000 0.88259  0.41048  0.04989  Biso   1.000  C
  H68      1.0000 0.84708  0.34100  0.06379  Biso   1.000  H
  H69      1.0000 0.85771  0.58493  0.95122  Biso   1.000  H
  H70      1.0000 0.97551  0.62080  0.12102  Biso   1.000  H
  H71      1.0000 0.95720  0.29378  0.06911  Biso   1.000  H
  H72      1.0000 0.86910  0.47289  0.03901  Biso   1.000  H
  C113     1.0000 0.43500  0.19580  0.56790  Biso   1.000  C
  C114     1.0000 0.41529  0.10279  0.55029  Biso   1.000  C
  C115     1.0000 0.42279  0.27378  0.58378  Biso   1.000  C
  H73      1.0000 0.45718  0.20618  0.56908  Biso   1.000  H
  C116     1.0000 0.43112  0.02113  0.53281  Biso   1.000  C
  C117     1.0000 0.38261  0.08948  0.54991  Biso   1.000  C
  C118     1.0000 0.39029  0.25859  0.58288  Biso   1.000  C
  H74      1.0000 0.43629  0.33612  0.59499  Biso   1.000  H
  C119     1.0000 0.41321  0.04331  0.46711  Biso   1.000  C
  O17      1.0000 0.47806  0.02384  0.57770  Biso   1.000  O
  C120     1.0000 0.41789  0.91473  0.53569  Biso   1.000  C
  H75      1.0000 0.36908  0.02707  0.53898  Biso   1.000  H
  C121     1.0000 0.36961  0.16821  0.56541  Biso   1.000  C
  O18      1.0000 0.37970  0.34108  0.59899  Biso   1.000  O
  C122     1.0000 0.37348  0.08737  0.42029  Biso   1.000  C
  C123     1.0000 0.43780  0.01940  0.45368  Biso   1.000  C
  C124     1.0000 0.44730  0.85638  0.58802  Biso   1.000  C
  C125     1.0000 0.37749  0.87661  0.48741  Biso   1.000  C
  H76      1.0000 0.34711  0.15903  0.56381  Biso   1.000  H
  C126     1.0000 0.34431  0.33439  0.59489  Biso   1.000  C
  C127     1.0000 0.35809  0.10850  0.36108  Biso   1.000  C
  H77      1.0000 0.35631  0.10369  0.42801  Biso   1.000  H
  C128     1.0000 0.42310  0.03940  0.39532  Biso   1.000  C
  H78      1.0000 0.46488  0.98910  0.48458  Biso   1.000  H
  C129     1.0000 0.43451  0.76261  0.59122  Biso   1.000  C
  H79      1.0000 0.47549  0.87916  0.62099  Biso   1.000  H
  H80      1.0000 0.35769  0.91511  0.45119  Biso   1.000  H
  C130     1.0000 0.36491  0.78111  0.49009  Biso   1.000  C
  C131     1.0000 0.30189  0.34288  0.53008  Biso   1.000  C
  H81      1.0000 0.34700  0.38740  0.62009  Biso   1.000  H
  H82      1.0000 0.34581  0.27047  0.61232  Biso   1.000  H
  C132     1.0000 0.38419  0.08580  0.35100  Biso   1.000  C
  H83      1.0000 0.33082  0.13730  0.32952  Biso   1.000  H
  H84      1.0000 0.43970  0.02120  0.38670  Biso   1.000  H
  C133     1.0000 0.39420  0.72682  0.54360  Biso   1.000  C
  H85      1.0000 0.45439  0.72359  0.62720  Biso   1.000  H
  H86      1.0000 0.33721  0.75592  0.45632  Biso   1.000  H
  C134     1.0000 0.26600  0.35341  0.47700  Biso   1.000  C
  O19      1.0000 0.37371  0.10708  0.29580  Biso   1.000  O
  O20      1.0000 0.38559  0.63343  0.55580  Biso   1.000  O
  C135     1.0000 0.22571  0.37191  0.41770  Biso   1.000  C
  C136     1.0000 0.33409  0.15858  0.24808  Biso   1.000  C
  C137     1.0000 0.34922  0.58117  0.50342  Biso   1.000  C
  C138     1.0000 0.19191  0.39093  0.36810  Biso   1.000  C
  C139     1.0000 0.29668  0.09144  0.21078  Biso   1.000  C
  H87      1.0000 0.33569  0.19250  0.22048  Biso   1.000  H
  H88      1.0000 0.33009  0.20949  0.26740  Biso   1.000  H
  C140     1.0000 0.30820  0.61020  0.48420  Biso   1.000  C
  H89      1.0000 0.35379  0.50981  0.51279  Biso   1.000  H
  H90      1.0000 0.34660  0.59238  0.46828  Biso   1.000  H
  C141     1.0000 0.15159  0.41973  0.30630  Biso   1.000  C
  C142     1.0000 0.26659  0.03369  0.17979  Biso   1.000  C
  C143     1.0000 0.27460  0.62809  0.46621  Biso   1.000  C
  O21      1.0000 0.11460  0.36537  0.28501  Biso   1.000  O
  H91      1.0000 0.14669  0.49079  0.30668  Biso   1.000  H
  H92      1.0000 0.15439  0.40973  0.27649  Biso   1.000  H
  C144     1.0000 0.23310  0.96819  0.14601  Biso   1.000  C
  C145     1.0000 0.23320  0.64494  0.44431  Biso   1.000  C
  C146     1.0000 0.10570  0.27250  0.25520  Biso   1.000  C
  C147     1.0000 0.20359  0.90819  0.11738  Biso   1.000  C
  C148     1.0000 0.19828  0.65779  0.42589  Biso   1.000  C
  C149     1.0000 0.06510  0.23694  0.22260  Biso   1.000  C
  C150     1.0000 0.13582  0.21769  0.26141  Biso   1.000  C
  C151     1.0000 0.16599  0.84051  0.07918  Biso   1.000  C
  C152     1.0000 0.15610  0.66516  0.40611  Biso   1.000  C
  C153     1.0000 0.05280  0.14422  0.19382  Biso   1.000  C
  H93      1.0000 0.04550  0.27521  0.21968  Biso   1.000  H
  C154     1.0000 0.12220  0.12392  0.23188  Biso   1.000  C
  H94      1.0000 0.16381  0.24167  0.28402  Biso   1.000  H
  O22      1.0000 0.12650  0.89247  0.04828  Biso   1.000  O
  H95      1.0000 0.16430  0.80781  0.04800  Biso   1.000  H
  H96      1.0000 0.17001  0.78878  0.10612  Biso   1.000  H
  O23      1.0000 0.12060  0.65877  0.33988  Biso   1.000  O
  H97      1.0000 0.15360  0.61170  0.42589  Biso   1.000  H
  H98      1.0000 0.15451  0.72870  0.42062  Biso   1.000  H
  C155     1.0000 0.08190  0.08542  0.19929  Biso   1.000  C
  H99      1.0000 0.02450  0.12136  0.17032  Biso   1.000  H
  H100     1.0000 0.14180  0.08572  0.23461  Biso   1.000  H
  C156     1.0000 0.11611  0.91420  0.08280  Biso   1.000  C
  C157     1.0000 0.10971  0.74231  0.30272  Biso   1.000  C
  C158     1.0000 0.06859  0.97947  0.17070  Biso   1.000  C
  C159     1.0000 0.07709  0.96150  0.04908  Biso   1.000  C
  C160     1.0000 0.14210  0.89180  0.14601  Biso   1.000  C
  C161     1.0000 0.07800  0.72630  0.23979  Biso   1.000  C
  C162     1.0000 0.13019  0.83330  0.32670  Biso   1.000  C
  C163     1.0000 0.08649  0.95752  0.14050  Biso   1.000  C
  O24      1.0000 0.02183  0.97639  0.12152  Biso   1.000  O
  C164     1.0000 0.08430  0.89721  0.21879  Biso   1.000  C
  C165     1.0000 0.06211  0.98271  0.07800  Biso   1.000  C
  H101     1.0000 0.06070  0.97962  0.00739  Biso   1.000  H
  H102     1.0000 0.16951  0.86337  0.16961  Biso   1.000  H
  C166     1.0000 0.12621  0.91263  0.17291  Biso   1.000  C
  C167     1.0000 0.06491  0.80382  0.19801  Biso   1.000  C
  H103     1.0000 0.06489  0.66351  0.22458  Biso   1.000  H
  C168     1.0000 0.11731  0.91052  0.28402  Biso   1.000  C
  H104     1.0000 0.15210  0.84367  0.36989  Biso   1.000  H
  H105     1.0000 0.03531  0.01421  0.05501  Biso   1.000  H
  H106     1.0000 0.14308  0.89548  0.21488  Biso   1.000  H
  H107     1.0000 0.04262  0.79216  0.15501  Biso   1.000  H
  H108     1.0000 0.13111  0.97263  0.29971  Biso   1.000  H
  C169     1.0000 0.43500  0.19580  0.56790  Biso   1.000  C
  C170     1.0000 0.41529  0.10279  0.55029  Biso   1.000  C
  C171     1.0000 0.42279  0.27378  0.58378  Biso   1.000  C
  H109     1.0000 0.45718  0.20618  0.56908  Biso   1.000  H
  C172     1.0000 0.43112  0.02113  0.53281  Biso   1.000  C
  C173     1.0000 0.38261  0.08948  0.54991  Biso   1.000  C
  C174     1.0000 0.39029  0.25859  0.58288  Biso   1.000  C
  H110     1.0000 0.43629  0.33612  0.59499  Biso   1.000  H
  C175     1.0000 0.41321  0.04331  0.46711  Biso   1.000  C
  O25      1.0000 0.47806  0.02384  0.57770  Biso   1.000  O
  C176     1.0000 0.41789  0.91473  0.53569  Biso   1.000  C
  H111     1.0000 0.36908  0.02707  0.53898  Biso   1.000  H
  C177     1.0000 0.36961  0.16821  0.56541  Biso   1.000  C
  O26      1.0000 0.37970  0.34108  0.59899  Biso   1.000  O
  C178     1.0000 0.37348  0.08737  0.42029  Biso   1.000  C
  C179     1.0000 0.43780  0.01940  0.45368  Biso   1.000  C
  C180     1.0000 0.44730  0.85638  0.58802  Biso   1.000  C
  C181     1.0000 0.37749  0.87661  0.48741  Biso   1.000  C
  H112     1.0000 0.34711  0.15903  0.56381  Biso   1.000  H
  C182     1.0000 0.34431  0.33439  0.59489  Biso   1.000  C
  C183     1.0000 0.35809  0.10850  0.36108  Biso   1.000  C
  H113     1.0000 0.35631  0.10369  0.42801  Biso   1.000  H
  C184     1.0000 0.42310  0.03940  0.39532  Biso   1.000  C
  H114     1.0000 0.46488  0.98910  0.48458  Biso   1.000  H
  C185     1.0000 0.43451  0.76261  0.59122  Biso   1.000  C
  H115     1.0000 0.47549  0.87916  0.62099  Biso   1.000  H
  H116     1.0000 0.35769  0.91511  0.45119  Biso   1.000  H
  C186     1.0000 0.36491  0.78111  0.49009  Biso   1.000  C
  C187     1.0000 0.30189  0.34288  0.53008  Biso   1.000  C
  H117     1.0000 0.34700  0.38740  0.62009  Biso   1.000  H
  H118     1.0000 0.34581  0.27047  0.61232  Biso   1.000  H
  C188     1.0000 0.38419  0.08580  0.35100  Biso   1.000  C
  H119     1.0000 0.33082  0.13730  0.32952  Biso   1.000  H
  H120     1.0000 0.43970  0.02120  0.38670  Biso   1.000  H
  C189     1.0000 0.39420  0.72682  0.54360  Biso   1.000  C
  H121     1.0000 0.45439  0.72359  0.62720  Biso   1.000  H
  H122     1.0000 0.33721  0.75592  0.45632  Biso   1.000  H
  C190     1.0000 0.26600  0.35341  0.47700  Biso   1.000  C
  O27      1.0000 0.37371  0.10708  0.29580  Biso   1.000  O
  O28      1.0000 0.38559  0.63343  0.55580  Biso   1.000  O
  C191     1.0000 0.22571  0.37191  0.41770  Biso   1.000  C
  C192     1.0000 0.33409  0.15858  0.24808  Biso   1.000  C
  C193     1.0000 0.34922  0.58117  0.50342  Biso   1.000  C
  C194     1.0000 0.19191  0.39093  0.36810  Biso   1.000  C
  C195     1.0000 0.29668  0.09144  0.21078  Biso   1.000  C
  H123     1.0000 0.33569  0.19250  0.22048  Biso   1.000  H
  H124     1.0000 0.33009  0.20949  0.26740  Biso   1.000  H
  C196     1.0000 0.30820  0.61020  0.48420  Biso   1.000  C
  H125     1.0000 0.35379  0.50981  0.51279  Biso   1.000  H
  H126     1.0000 0.34660  0.59238  0.46828  Biso   1.000  H
  C197     1.0000 0.15159  0.41973  0.30630  Biso   1.000  C
  C198     1.0000 0.26659  0.03369  0.17979  Biso   1.000  C
  C199     1.0000 0.27460  0.62809  0.46621  Biso   1.000  C
  O29      1.0000 0.11460  0.36537  0.28501  Biso   1.000  O
  H127     1.0000 0.14669  0.49079  0.30668  Biso   1.000  H
  H128     1.0000 0.15439  0.40973  0.27649  Biso   1.000  H
  C200     1.0000 0.23310  0.96819  0.14601  Biso   1.000  C
  C201     1.0000 0.23320  0.64494  0.44431  Biso   1.000  C
  C202     1.0000 0.10570  0.27250  0.25520  Biso   1.000  C
  C203     1.0000 0.20359  0.90819  0.11738  Biso   1.000  C
  C204     1.0000 0.19828  0.65779  0.42589  Biso   1.000  C
  C205     1.0000 0.06510  0.23694  0.22260  Biso   1.000  C
  C206     1.0000 0.13582  0.21769  0.26141  Biso   1.000  C
  C207     1.0000 0.16599  0.84051  0.07918  Biso   1.000  C
  C208     1.0000 0.15610  0.66516  0.40611  Biso   1.000  C
  C209     1.0000 0.05280  0.14422  0.19382  Biso   1.000  C
  H129     1.0000 0.04550  0.27521  0.21968  Biso   1.000  H
  C210     1.0000 0.12220  0.12392  0.23188  Biso   1.000  C
  H130     1.0000 0.16381  0.24167  0.28402  Biso   1.000  H
  O30      1.0000 0.12650  0.89247  0.04828  Biso   1.000  O
  H131     1.0000 0.16430  0.80781  0.04800  Biso   1.000  H
  H132     1.0000 0.17001  0.78878  0.10612  Biso   1.000  H
  O31      1.0000 0.12060  0.65877  0.33988  Biso   1.000  O
  H133     1.0000 0.15360  0.61170  0.42589  Biso   1.000  H
  H134     1.0000 0.15451  0.72870  0.42062  Biso   1.000  H
  C211     1.0000 0.08190  0.08542  0.19929  Biso   1.000  C
  H135     1.0000 0.02450  0.12136  0.17032  Biso   1.000  H
  H136     1.0000 0.14180  0.08572  0.23461  Biso   1.000  H
  C212     1.0000 0.11611  0.91420  0.08280  Biso   1.000  C
  C213     1.0000 0.10971  0.74231  0.30272  Biso   1.000  C
  C214     1.0000 0.06859  0.97947  0.17070  Biso   1.000  C
  C215     1.0000 0.07709  0.96150  0.04908  Biso   1.000  C
  C216     1.0000 0.14210  0.89180  0.14601  Biso   1.000  C
  C217     1.0000 0.07800  0.72630  0.23979  Biso   1.000  C
  C218     1.0000 0.13019  0.83330  0.32670  Biso   1.000  C
  C219     1.0000 0.08649  0.95752  0.14050  Biso   1.000  C
  O32      1.0000 0.02183  0.97639  0.12152  Biso   1.000  O
  C220     1.0000 0.08430  0.89721  0.21879  Biso   1.000  C
  C221     1.0000 0.06211  0.98271  0.07800  Biso   1.000  C
  H137     1.0000 0.06070  0.97962  0.00739  Biso   1.000  H
  H138     1.0000 0.16951  0.86337  0.16961  Biso   1.000  H
  C222     1.0000 0.12621  0.91263  0.17291  Biso   1.000  C
  C223     1.0000 0.06491  0.80382  0.19801  Biso   1.000  C
  H139     1.0000 0.06489  0.66351  0.22458  Biso   1.000  H
  C224     1.0000 0.11731  0.91052  0.28402  Biso   1.000  C
  H140     1.0000 0.15210  0.84367  0.36989  Biso   1.000  H
  H141     1.0000 0.03531  0.01421  0.05501  Biso   1.000  H
  H142     1.0000 0.14308  0.89548  0.21488  Biso   1.000  H
  H143     1.0000 0.04262  0.79216  0.15501  Biso   1.000  H
  H144     1.0000 0.13111  0.97263  0.29971  Biso   1.000  H
  C225     1.0000 0.56502  0.80420  0.43211  Biso   1.000  C
  C226     1.0000 0.57719  0.72622  0.41619  Biso   1.000  C
  H145     1.0000 0.54279  0.79382  0.43088  Biso   1.000  H
  C227     1.0000 0.58469  0.89721  0.44968  Biso   1.000  C
  C228     1.0000 0.60968  0.74141  0.41708  Biso   1.000  C
  H146     1.0000 0.56368  0.66388  0.40498  Biso   1.000  H
  C229     1.0000 0.61741  0.91052  0.45010  Biso   1.000  C
  C230     1.0000 0.56891  0.97887  0.46720  Biso   1.000  C
  O33      1.0000 0.62030  0.65892  0.40102  Biso   1.000  O
  C231     1.0000 0.63041  0.83179  0.43461  Biso   1.000  C
  H147     1.0000 0.63089  0.97293  0.46098  Biso   1.000  H
  O34      1.0000 0.52193  0.97616  0.42231  Biso   1.000  O
  C232     1.0000 0.58681  0.95669  0.53291  Biso   1.000  C
  C233     1.0000 0.58208  0.08527  0.46428  Biso   1.000  C
  C234     1.0000 0.65571  0.66561  0.40512  Biso   1.000  C
  H148     1.0000 0.65291  0.84097  0.43621  Biso   1.000  H
  C235     1.0000 0.62649  0.91263  0.57968  Biso   1.000  C
  C236     1.0000 0.56220  0.98060  0.54628  Biso   1.000  C
  C237     1.0000 0.55270  0.14362  0.41200  Biso   1.000  C
  C238     1.0000 0.62251  0.12339  0.51261  Biso   1.000  C
  C239     1.0000 0.69808  0.65712  0.46989  Biso   1.000  C
  H149     1.0000 0.65302  0.61260  0.37992  Biso   1.000  H
  H150     1.0000 0.65419  0.72953  0.38769  Biso   1.000  H
  C240     1.0000 0.64190  0.89150  0.63889  Biso   1.000  C
  H151     1.0000 0.64371  0.89631  0.57200  Biso   1.000  H
  C241     1.0000 0.57690  0.96060  0.60469  Biso   1.000  C
  H152     1.0000 0.53509  0.01090  0.51539  Biso   1.000  H
  C242     1.0000 0.56551  0.23739  0.40879  Biso   1.000  C
  H153     1.0000 0.52449  0.12084  0.37898  Biso   1.000  H
  H154     1.0000 0.64229  0.08489  0.54878  Biso   1.000  H
  C243     1.0000 0.63511  0.21889  0.50992  Biso   1.000  C
  C244     1.0000 0.73402  0.64659  0.52302  Biso   1.000  C
  C245     1.0000 0.61581  0.91420  0.64901  Biso   1.000  C
  H155     1.0000 0.66920  0.86270  0.67049  Biso   1.000  H
  H156     1.0000 0.56030  0.97880  0.61331  Biso   1.000  H
  C246     1.0000 0.60580  0.27318  0.45641  Biso   1.000  C
  H157     1.0000 0.54560  0.27641  0.37281  Biso   1.000  H
  H158     1.0000 0.66279  0.24408  0.54369  Biso   1.000  H
  C247     1.0000 0.77431  0.62809  0.58232  Biso   1.000  C
  O35      1.0000 0.62632  0.89292  0.70422  Biso   1.000  O
  O36      1.0000 0.61440  0.36657  0.44421  Biso   1.000  O
  C248     1.0000 0.80812  0.60907  0.63191  Biso   1.000  C
  C249     1.0000 0.66588  0.84142  0.75188  Biso   1.000  C
  C250     1.0000 0.65080  0.41883  0.49659  Biso   1.000  C
  C251     1.0000 0.84840  0.58027  0.69371  Biso   1.000  C
  C252     1.0000 0.70329  0.90856  0.78919  Biso   1.000  C
  H159     1.0000 0.66428  0.80750  0.77948  Biso   1.000  H
  H160     1.0000 0.66991  0.79051  0.73262  Biso   1.000  H
  C253     1.0000 0.69180  0.38980  0.51581  Biso   1.000  C
  H161     1.0000 0.64621  0.49019  0.48722  Biso   1.000  H
  H162     1.0000 0.65340  0.40762  0.53168  Biso   1.000  H
  O37      1.0000 0.88540  0.63463  0.71500  Biso   1.000  O
  H163     1.0000 0.85329  0.50921  0.69329  Biso   1.000  H
  H164     1.0000 0.84558  0.59027  0.72348  Biso   1.000  H
  C254     1.0000 0.73338  0.96631  0.82018  Biso   1.000  C
  C255     1.0000 0.72540  0.37191  0.53380  Biso   1.000  C
  C256     1.0000 0.89430  0.72750  0.74482  Biso   1.000  C
  C257     1.0000 0.76690  0.03181  0.85400  Biso   1.000  C
  C258     1.0000 0.76680  0.35506  0.55570  Biso   1.000  C
  C259     1.0000 0.93490  0.76306  0.77741  Biso   1.000  C
  C260     1.0000 0.86420  0.78231  0.73860  Biso   1.000  C
  C261     1.0000 0.79640  0.09181  0.88259  Biso   1.000  C
  C262     1.0000 0.80171  0.34221  0.57412  Biso   1.000  C
  C263     1.0000 0.94719  0.85578  0.80619  Biso   1.000  C
  H165     1.0000 0.95450  0.72479  0.78028  Biso   1.000  H
  H166     1.0000 0.83619  0.75833  0.71599  Biso   1.000  H
  C264     1.0000 0.87780  0.87608  0.76808  Biso   1.000  C
  C265     1.0000 0.83399  0.15949  0.92079  Biso   1.000  C
  C266     1.0000 0.84389  0.33484  0.59390  Biso   1.000  C
  C267     1.0000 0.91810  0.91458  0.80068  Biso   1.000  C
  H167     1.0000 0.97549  0.87864  0.82969  Biso   1.000  H
  H168     1.0000 0.85820  0.91428  0.76540  Biso   1.000  H
  O38      1.0000 0.87350  0.10753  0.95169  Biso   1.000  O
  H169     1.0000 0.83570  0.19219  0.95202  Biso   1.000  H
  H170     1.0000 0.82999  0.21122  0.89389  Biso   1.000  H
  O39      1.0000 0.87940  0.34123  0.66008  Biso   1.000  O
  H171     1.0000 0.84640  0.38830  0.57412  Biso   1.000  H
  H172     1.0000 0.84551  0.27130  0.57940  Biso   1.000  H
  C268     1.0000 0.93140  0.02053  0.82932  Biso   1.000  C
  C269     1.0000 0.88391  0.08580  0.91721  Biso   1.000  C
  C270     1.0000 0.89031  0.25769  0.69729  Biso   1.000  C
  O40      1.0000 0.97816  0.02361  0.87849  Biso   1.000  O
  C271     1.0000 0.91570  0.10279  0.78118  Biso   1.000  C
  C272     1.0000 0.91350  0.04248  0.85951  Biso   1.000  C
  C273     1.0000 0.92289  0.03850  0.95089  Biso   1.000  C
  C274     1.0000 0.85790  0.10820  0.85400  Biso   1.000  C
  C275     1.0000 0.92200  0.27370  0.76022  Biso   1.000  C
  C276     1.0000 0.86981  0.16670  0.67332  Biso   1.000  C
  C277     1.0000 0.93509  0.19618  0.80200  Biso   1.000  C
  C278     1.0000 0.88269  0.08948  0.71599  Biso   1.000  C
  C279     1.0000 0.93791  0.01729  0.92201  Biso   1.000  C
  C280     1.0000 0.87379  0.08737  0.82710  Biso   1.000  C
  H173     1.0000 0.93930  0.02038  0.99262  Biso   1.000  H
  H174     1.0000 0.83049  0.13663  0.83040  Biso   1.000  H
  H175     1.0000 0.93509  0.33649  0.77539  Biso   1.000  H
  H176     1.0000 0.84790  0.15633  0.63008  Biso   1.000  H
  H177     1.0000 0.95740  0.20784  0.84500  Biso   1.000  H
  H178     1.0000 0.86891  0.02737  0.70031  Biso   1.000  H
  H179     1.0000 0.96469  0.98579  0.94500  Biso   1.000  H
  H180     1.0000 0.85689  0.10452  0.78509  Biso   1.000  H
  C281     1.0000 0.56502  0.80420  0.43211  Biso   1.000  C
  C282     1.0000 0.57719  0.72622  0.41619  Biso   1.000  C
  H181     1.0000 0.54279  0.79382  0.43088  Biso   1.000  H
  C283     1.0000 0.58469  0.89721  0.44968  Biso   1.000  C
  C284     1.0000 0.60968  0.74141  0.41708  Biso   1.000  C
  H182     1.0000 0.56368  0.66388  0.40498  Biso   1.000  H
  C285     1.0000 0.61741  0.91052  0.45010  Biso   1.000  C
  C286     1.0000 0.56891  0.97887  0.46720  Biso   1.000  C
  O41      1.0000 0.62030  0.65892  0.40102  Biso   1.000  O
  C287     1.0000 0.63041  0.83179  0.43461  Biso   1.000  C
  H183     1.0000 0.63089  0.97293  0.46098  Biso   1.000  H
  O42      1.0000 0.52193  0.97616  0.42231  Biso   1.000  O
  C288     1.0000 0.58681  0.95669  0.53291  Biso   1.000  C
  C289     1.0000 0.58208  0.08527  0.46428  Biso   1.000  C
  C290     1.0000 0.65571  0.66561  0.40512  Biso   1.000  C
  H184     1.0000 0.65291  0.84097  0.43621  Biso   1.000  H
  C291     1.0000 0.62649  0.91263  0.57968  Biso   1.000  C
  C292     1.0000 0.56220  0.98060  0.54628  Biso   1.000  C
  C293     1.0000 0.55270  0.14362  0.41200  Biso   1.000  C
  C294     1.0000 0.62251  0.12339  0.51261  Biso   1.000  C
  C295     1.0000 0.69808  0.65712  0.46989  Biso   1.000  C
  H185     1.0000 0.65302  0.61260  0.37992  Biso   1.000  H
  H186     1.0000 0.65419  0.72953  0.38769  Biso   1.000  H
  C296     1.0000 0.64190  0.89150  0.63889  Biso   1.000  C
  H187     1.0000 0.64371  0.89631  0.57200  Biso   1.000  H
  C297     1.0000 0.57690  0.96060  0.60469  Biso   1.000  C
  H188     1.0000 0.53509  0.01090  0.51539  Biso   1.000  H
  C298     1.0000 0.56551  0.23739  0.40879  Biso   1.000  C
  H189     1.0000 0.52449  0.12084  0.37898  Biso   1.000  H
  H190     1.0000 0.64229  0.08489  0.54878  Biso   1.000  H
  C299     1.0000 0.63511  0.21889  0.50992  Biso   1.000  C
  C300     1.0000 0.73402  0.64659  0.52302  Biso   1.000  C
  C301     1.0000 0.61581  0.91420  0.64901  Biso   1.000  C
  H191     1.0000 0.66920  0.86270  0.67049  Biso   1.000  H
  H192     1.0000 0.56030  0.97880  0.61331  Biso   1.000  H
  C302     1.0000 0.60580  0.27318  0.45641  Biso   1.000  C
  H193     1.0000 0.54560  0.27641  0.37281  Biso   1.000  H
  H194     1.0000 0.66279  0.24408  0.54369  Biso   1.000  H
  C303     1.0000 0.77431  0.62809  0.58232  Biso   1.000  C
  O43      1.0000 0.62632  0.89292  0.70422  Biso   1.000  O
  O44      1.0000 0.61440  0.36657  0.44421  Biso   1.000  O
  C304     1.0000 0.80812  0.60907  0.63191  Biso   1.000  C
  C305     1.0000 0.66588  0.84142  0.75188  Biso   1.000  C
  C306     1.0000 0.65080  0.41883  0.49659  Biso   1.000  C
  C307     1.0000 0.84840  0.58027  0.69371  Biso   1.000  C
  C308     1.0000 0.70329  0.90856  0.78919  Biso   1.000  C
  H195     1.0000 0.66428  0.80750  0.77948  Biso   1.000  H
  H196     1.0000 0.66991  0.79051  0.73262  Biso   1.000  H
  C309     1.0000 0.69180  0.38980  0.51581  Biso   1.000  C
  H197     1.0000 0.64621  0.49019  0.48722  Biso   1.000  H
  H198     1.0000 0.65340  0.40762  0.53168  Biso   1.000  H
  O45      1.0000 0.88540  0.63463  0.71500  Biso   1.000  O
  H199     1.0000 0.85329  0.50921  0.69329  Biso   1.000  H
  H200     1.0000 0.84558  0.59027  0.72348  Biso   1.000  H
  C310     1.0000 0.73338  0.96631  0.82018  Biso   1.000  C
  C311     1.0000 0.72540  0.37191  0.53380  Biso   1.000  C
  C312     1.0000 0.89430  0.72750  0.74482  Biso   1.000  C
  C313     1.0000 0.76690  0.03181  0.85400  Biso   1.000  C
  C314     1.0000 0.76680  0.35506  0.55570  Biso   1.000  C
  C315     1.0000 0.93490  0.76306  0.77741  Biso   1.000  C
  C316     1.0000 0.86420  0.78231  0.73860  Biso   1.000  C
  C317     1.0000 0.79640  0.09181  0.88259  Biso   1.000  C
  C318     1.0000 0.80171  0.34221  0.57412  Biso   1.000  C
  C319     1.0000 0.94719  0.85578  0.80619  Biso   1.000  C
  H201     1.0000 0.95450  0.72479  0.78028  Biso   1.000  H
  H202     1.0000 0.83619  0.75833  0.71599  Biso   1.000  H
  C320     1.0000 0.87780  0.87608  0.76808  Biso   1.000  C
  C321     1.0000 0.83399  0.15949  0.92079  Biso   1.000  C
  C322     1.0000 0.84389  0.33484  0.59390  Biso   1.000  C
  C323     1.0000 0.91810  0.91458  0.80068  Biso   1.000  C
  H203     1.0000 0.97549  0.87864  0.82969  Biso   1.000  H
  H204     1.0000 0.85820  0.91428  0.76540  Biso   1.000  H
  O46      1.0000 0.87350  0.10753  0.95169  Biso   1.000  O
  H205     1.0000 0.83570  0.19219  0.95202  Biso   1.000  H
  H206     1.0000 0.82999  0.21122  0.89389  Biso   1.000  H
  O47      1.0000 0.87940  0.34123  0.66008  Biso   1.000  O
  H207     1.0000 0.84640  0.38830  0.57412  Biso   1.000  H
  H208     1.0000 0.84551  0.27130  0.57940  Biso   1.000  H
  C324     1.0000 0.93140  0.02053  0.82932  Biso   1.000  C
  C325     1.0000 0.88391  0.08580  0.91721  Biso   1.000  C
  C326     1.0000 0.89031  0.25769  0.69729  Biso   1.000  C
  O48      1.0000 0.97816  0.02361  0.87849  Biso   1.000  O
  C327     1.0000 0.91570  0.10279  0.78118  Biso   1.000  C
  C328     1.0000 0.91350  0.04248  0.85951  Biso   1.000  C
  C329     1.0000 0.92289  0.03850  0.95089  Biso   1.000  C
  C330     1.0000 0.85790  0.10820  0.85400  Biso   1.000  C
  C331     1.0000 0.92200  0.27370  0.76022  Biso   1.000  C
  C332     1.0000 0.86981  0.16670  0.67332  Biso   1.000  C
  C333     1.0000 0.93509  0.19618  0.80200  Biso   1.000  C
  C334     1.0000 0.88269  0.08948  0.71599  Biso   1.000  C
  C335     1.0000 0.93791  0.01729  0.92201  Biso   1.000  C
  C336     1.0000 0.87379  0.08737  0.82710  Biso   1.000  C
  H209     1.0000 0.93930  0.02038  0.99262  Biso   1.000  H
  H210     1.0000 0.83049  0.13663  0.83040  Biso   1.000  H
  H211     1.0000 0.93509  0.33649  0.77539  Biso   1.000  H
  H212     1.0000 0.84790  0.15633  0.63008  Biso   1.000  H
  H213     1.0000 0.95740  0.20784  0.84500  Biso   1.000  H
  H214     1.0000 0.86891  0.02737  0.70031  Biso   1.000  H
  H215     1.0000 0.96469  0.98579  0.94500  Biso   1.000  H
  H216     1.0000 0.85689  0.10452  0.78509  Biso   1.000  H
  C337     1.0000 0.34390  0.83480  0.59390  Biso   1.000  C
  O49      1.0000 0.37939  0.84119  0.66008  Biso   1.000  O
  C338     1.0000 0.30170  0.84217  0.57412  Biso   1.000  C
  H217     1.0000 0.34641  0.88834  0.57412  Biso   1.000  H
  H218     1.0000 0.34549  0.77134  0.57940  Biso   1.000  H
  C339     1.0000 0.39029  0.75773  0.69729  Biso   1.000  C
  C340     1.0000 0.26681  0.85510  0.55570  Biso   1.000  C
  C341     1.0000 0.42201  0.77367  0.76022  Biso   1.000  C
  C342     1.0000 0.36980  0.66667  0.67332  Biso   1.000  C
  C343     1.0000 0.22541  0.87187  0.53380  Biso   1.000  C
  C344     1.0000 0.43510  0.69622  0.80200  Biso   1.000  C
  H219     1.0000 0.43510  0.83653  0.77539  Biso   1.000  H
  C345     1.0000 0.38270  0.58952  0.71599  Biso   1.000  C
  H220     1.0000 0.34789  0.65629  0.63008  Biso   1.000  H
  C346     1.0000 0.19181  0.88977  0.51581  Biso   1.000  C
  C347     1.0000 0.41569  0.60283  0.78118  Biso   1.000  C
  H221     1.0000 0.45739  0.70780  0.84500  Biso   1.000  H
  H222     1.0000 0.36890  0.52741  0.70031  Biso   1.000  H
  C348     1.0000 0.15079  0.91879  0.49659  Biso   1.000  C
  C349     1.0000 0.43142  0.52049  0.82932  Biso   1.000  C
  O50      1.0000 0.11442  0.86661  0.44421  Biso   1.000  O
  H223     1.0000 0.14622  0.99022  0.48722  Biso   1.000  H
  H224     1.0000 0.15339  0.90759  0.53168  Biso   1.000  H
  C350     1.0000 0.41808  0.41462  0.80068  Biso   1.000  C
  O51      1.0000 0.47817  0.52357  0.87849  Biso   1.000  O
  C351     1.0000 0.41352  0.54252  0.85951  Biso   1.000  C
  C352     1.0000 0.10581  0.77322  0.45641  Biso   1.000  C
  C353     1.0000 0.44720  0.35582  0.80619  Biso   1.000  C
  C354     1.0000 0.37779  0.37612  0.76808  Biso   1.000  C
  C355     1.0000 0.43790  0.51733  0.92201  Biso   1.000  C
  C356     1.0000 0.37380  0.58741  0.82710  Biso   1.000  C
  C357     1.0000 0.06549  0.73742  0.40879  Biso   1.000  C
  C358     1.0000 0.13510  0.71893  0.50992  Biso   1.000  C
  C359     1.0000 0.43491  0.26310  0.77741  Biso   1.000  C
  H225     1.0000 0.47551  0.37860  0.82969  Biso   1.000  H
  C360     1.0000 0.36419  0.28228  0.73860  Biso   1.000  C
  H226     1.0000 0.35821  0.41432  0.76540  Biso   1.000  H
  H227     1.0000 0.46470  0.48583  0.94500  Biso   1.000  H
  C361     1.0000 0.42290  0.53854  0.95089  Biso   1.000  C
  C362     1.0000 0.35791  0.60817  0.85400  Biso   1.000  C
  H228     1.0000 0.35691  0.60448  0.78509  Biso   1.000  H
  C363     1.0000 0.05271  0.64358  0.41200  Biso   1.000  C
  H229     1.0000 0.04561  0.77637  0.37281  Biso   1.000  H
  C364     1.0000 0.12249  0.62343  0.51261  Biso   1.000  C
  H230     1.0000 0.16280  0.74412  0.54369  Biso   1.000  H
  C365     1.0000 0.39431  0.22754  0.74482  Biso   1.000  C
  H231     1.0000 0.45449  0.22483  0.78028  Biso   1.000  H
  H232     1.0000 0.33620  0.25829  0.71599  Biso   1.000  H
  H233     1.0000 0.43931  0.52042  0.99262  Biso   1.000  H
  C366     1.0000 0.38390  0.58583  0.91721  Biso   1.000  C
  H234     1.0000 0.33050  0.63659  0.83040  Biso   1.000  H
  C367     1.0000 0.08210  0.58531  0.46428  Biso   1.000  C
  H235     1.0000 0.02450  0.62080  0.37898  Biso   1.000  H
  H236     1.0000 0.14230  0.58493  0.54878  Biso   1.000  H
  O52      1.0000 0.38541  0.13460  0.71500  Biso   1.000  O
  O53      1.0000 0.37349  0.60749  0.95169  Biso   1.000  O
  C368     1.0000 0.06889  0.47891  0.46720  Biso   1.000  C
  C369     1.0000 0.34842  0.08031  0.69371  Biso   1.000  C
  C370     1.0000 0.33400  0.65952  0.92079  Biso   1.000  C
  C371     1.0000 0.08470  0.39717  0.44968  Biso   1.000  C
  O54      1.0000 0.02195  0.47620  0.42231  Biso   1.000  O
  C372     1.0000 0.08680  0.45673  0.53291  Biso   1.000  C
  C373     1.0000 0.30810  0.10911  0.63191  Biso   1.000  C
  H237     1.0000 0.35330  0.00917  0.69329  Biso   1.000  H
  H238     1.0000 0.34560  0.09031  0.72348  Biso   1.000  H
  C374     1.0000 0.29639  0.59177  0.88259  Biso   1.000  C
  H239     1.0000 0.33571  0.69223  0.95202  Biso   1.000  H
  H240     1.0000 0.33000  0.71118  0.89389  Biso   1.000  H
  C375     1.0000 0.06500  0.30423  0.43211  Biso   1.000  C
  C376     1.0000 0.11739  0.41048  0.45010  Biso   1.000  C
  C377     1.0000 0.12648  0.41259  0.57968  Biso   1.000  C
  C378     1.0000 0.06218  0.48056  0.54628  Biso   1.000  C
  C379     1.0000 0.27430  0.12813  0.58232  Biso   1.000  C
  C380     1.0000 0.26691  0.53177  0.85400  Biso   1.000  C
  C381     1.0000 0.07720  0.22618  0.41619  Biso   1.000  C
  H241     1.0000 0.04278  0.29378  0.43088  Biso   1.000  H
  C382     1.0000 0.13040  0.33183  0.43461  Biso   1.000  C
  H242     1.0000 0.13088  0.47289  0.46098  Biso   1.000  H
  C383     1.0000 0.14189  0.39153  0.63889  Biso   1.000  C
  H243     1.0000 0.14369  0.39627  0.57200  Biso   1.000  H
  H244     1.0000 0.03508  0.51087  0.51539  Biso   1.000  H
  C384     1.0000 0.07689  0.46064  0.60469  Biso   1.000  C
  C385     1.0000 0.23401  0.14663  0.52302  Biso   1.000  C
  C386     1.0000 0.23340  0.46628  0.82018  Biso   1.000  C
  C387     1.0000 0.10969  0.24137  0.41708  Biso   1.000  C
  H245     1.0000 0.06369  0.16392  0.40498  Biso   1.000  H
  H246     1.0000 0.15290  0.34100  0.43621  Biso   1.000  H
  C388     1.0000 0.11582  0.41417  0.64901  Biso   1.000  C
  H247     1.0000 0.16919  0.36273  0.67049  Biso   1.000  H
  H248     1.0000 0.06031  0.47883  0.61331  Biso   1.000  H
  C389     1.0000 0.19809  0.15708  0.46989  Biso   1.000  C
  C390     1.0000 0.20328  0.40860  0.78919  Biso   1.000  C
  O55      1.0000 0.12031  0.15888  0.40102  Biso   1.000  O
  O56      1.0000 0.12630  0.39289  0.70422  Biso   1.000  O
  C391     1.0000 0.15570  0.16558  0.40512  Biso   1.000  C
  C392     1.0000 0.16589  0.34138  0.75188  Biso   1.000  C
  H249     1.0000 0.15301  0.11256  0.37992  Biso   1.000  H
  H250     1.0000 0.15420  0.22949  0.38769  Biso   1.000  H
  H251     1.0000 0.16429  0.30747  0.77948  Biso   1.000  H
  H252     1.0000 0.16992  0.29047  0.73262  Biso   1.000  H
  C393     1.0000 0.65609  0.16520  0.40611  Biso   1.000  C
  O57      1.0000 0.62059  0.15881  0.33988  Biso   1.000  O
  H253     1.0000 0.65359  0.11166  0.42589  Biso   1.000  H
  H254     1.0000 0.65450  0.22866  0.42062  Biso   1.000  H
  C394     1.0000 0.69830  0.15783  0.42589  Biso   1.000  C
  C395     1.0000 0.60970  0.24227  0.30272  Biso   1.000  C
  C396     1.0000 0.73321  0.14490  0.44431  Biso   1.000  C
  C397     1.0000 0.57801  0.22633  0.23979  Biso   1.000  C
  C398     1.0000 0.63020  0.33333  0.32670  Biso   1.000  C
  C399     1.0000 0.77461  0.12813  0.46621  Biso   1.000  C
  C400     1.0000 0.56490  0.30378  0.19801  Biso   1.000  C
  H255     1.0000 0.56490  0.16347  0.22458  Biso   1.000  H
  H256     1.0000 0.65209  0.34371  0.36989  Biso   1.000  H
  C401     1.0000 0.61732  0.41048  0.28402  Biso   1.000  C
  C402     1.0000 0.80821  0.11023  0.48420  Biso   1.000  C
  C403     1.0000 0.58429  0.39717  0.21879  Biso   1.000  C
  H257     1.0000 0.54260  0.29220  0.15501  Biso   1.000  H
  H258     1.0000 0.63110  0.47259  0.29971  Biso   1.000  H
  C404     1.0000 0.84920  0.08121  0.50342  Biso   1.000  C
  C405     1.0000 0.56861  0.47951  0.17070  Biso   1.000  C
  H259     1.0000 0.85380  0.00978  0.51279  Biso   1.000  H
  H260     1.0000 0.84659  0.09241  0.46828  Biso   1.000  H
  O58      1.0000 0.88560  0.13339  0.55580  Biso   1.000  O
  O59      1.0000 0.52185  0.47643  0.12152  Biso   1.000  O
  C406     1.0000 0.58650  0.45748  0.14050  Biso   1.000  C
  C407     1.0000 0.58189  0.58538  0.19929  Biso   1.000  C
  C408     1.0000 0.89421  0.22678  0.54360  Biso   1.000  C
  C409     1.0000 0.56210  0.48267  0.07800  Biso   1.000  C
  C410     1.0000 0.62619  0.41259  0.17291  Biso   1.000  C
  C411     1.0000 0.55282  0.64418  0.19382  Biso   1.000  C
  C412     1.0000 0.62219  0.62388  0.23188  Biso   1.000  C
  C413     1.0000 0.93450  0.26258  0.59122  Biso   1.000  C
  C414     1.0000 0.86490  0.28107  0.49009  Biso   1.000  C
  H261     1.0000 0.53532  0.51417  0.05501  Biso   1.000  H
  C415     1.0000 0.57710  0.46146  0.04908  Biso   1.000  C
  C416     1.0000 0.64211  0.39183  0.14601  Biso   1.000  C
  H262     1.0000 0.64309  0.39552  0.21488  Biso   1.000  H
  H263     1.0000 0.52452  0.62140  0.17032  Biso   1.000  H
  C417     1.0000 0.56511  0.73690  0.22260  Biso   1.000  C
  C418     1.0000 0.63581  0.71772  0.26141  Biso   1.000  C
  H264     1.0000 0.64181  0.58568  0.23461  Biso   1.000  H
  H265     1.0000 0.95441  0.22363  0.62720  Biso   1.000  H
  C419     1.0000 0.94731  0.35642  0.58802  Biso   1.000  C
  C420     1.0000 0.87750  0.37657  0.48741  Biso   1.000  C
  H266     1.0000 0.83722  0.25588  0.45632  Biso   1.000  H
  H267     1.0000 0.56069  0.47958  0.00739  Biso   1.000  H
  C421     1.0000 0.61610  0.41417  0.08280  Biso   1.000  C
  H268     1.0000 0.66952  0.36341  0.16961  Biso   1.000  H
  H269     1.0000 0.54549  0.77517  0.21968  Biso   1.000  H
  C422     1.0000 0.60569  0.77246  0.25520  Biso   1.000  C
  H270     1.0000 0.66382  0.74171  0.28402  Biso   1.000  H
  H271     1.0000 0.97550  0.37920  0.62099  Biso   1.000  H
  C423     1.0000 0.91790  0.41469  0.53569  Biso   1.000  C
  H272     1.0000 0.85770  0.41507  0.45119  Biso   1.000  H
  O60      1.0000 0.62649  0.39251  0.04828  Biso   1.000  O
  O61      1.0000 0.61461  0.86540  0.28501  Biso   1.000  O
  C424     1.0000 0.93110  0.52109  0.53281  Biso   1.000  C
  C425     1.0000 0.66600  0.34048  0.07918  Biso   1.000  C
  C426     1.0000 0.65160  0.91969  0.30630  Biso   1.000  C
  O62      1.0000 0.97808  0.52380  0.57770  Biso   1.000  O
  C427     1.0000 0.91320  0.54327  0.46711  Biso   1.000  C
  C428     1.0000 0.91530  0.60283  0.55029  Biso   1.000  C
  H273     1.0000 0.66431  0.30777  0.04800  Biso   1.000  H
  H274     1.0000 0.67002  0.28882  0.10612  Biso   1.000  H
  C429     1.0000 0.70358  0.40823  0.11738  Biso   1.000  C
  H275     1.0000 0.64670  0.99083  0.30668  Biso   1.000  H
  H276     1.0000 0.65440  0.90969  0.27649  Biso   1.000  H
  C430     1.0000 0.69189  0.89089  0.36810  Biso   1.000  C
  C431     1.0000 0.87350  0.58741  0.42029  Biso   1.000  C
  C432     1.0000 0.93779  0.51944  0.45368  Biso   1.000  C
  C433     1.0000 0.93499  0.69577  0.56790  Biso   1.000  C
  C434     1.0000 0.88260  0.58952  0.54991  Biso   1.000  C
  C435     1.0000 0.73311  0.46823  0.14601  Biso   1.000  C
  C436     1.0000 0.72569  0.87187  0.41770  Biso   1.000  C
  C437     1.0000 0.85808  0.60847  0.36108  Biso   1.000  C
  H277     1.0000 0.85630  0.60373  0.42801  Biso   1.000  H
  H278     1.0000 0.96489  0.48913  0.48458  Biso   1.000  H
  C438     1.0000 0.92311  0.53936  0.39532  Biso   1.000  C
  C439     1.0000 0.92280  0.77382  0.58378  Biso   1.000  C
  H279     1.0000 0.95719  0.70622  0.56908  Biso   1.000  H
  H280     1.0000 0.86909  0.52711  0.53898  Biso   1.000  H
  C440     1.0000 0.86959  0.66817  0.56541  Biso   1.000  C
  C441     1.0000 0.76660  0.53372  0.17979  Biso   1.000  C
  C442     1.0000 0.76599  0.85337  0.47700  Biso   1.000  C
  C443     1.0000 0.88420  0.58583  0.35100  Biso   1.000  C
  H281     1.0000 0.83081  0.63727  0.32952  Biso   1.000  H
  H282     1.0000 0.93971  0.52117  0.38670  Biso   1.000  H
  C444     1.0000 0.89028  0.75863  0.58288  Biso   1.000  C
  H283     1.0000 0.93630  0.83608  0.59499  Biso   1.000  H
  H284     1.0000 0.84710  0.65900  0.56381  Biso   1.000  H
  C445     1.0000 0.79669  0.59140  0.21078  Biso   1.000  C
  C446     1.0000 0.80188  0.84292  0.53008  Biso   1.000  C
  O63      1.0000 0.87369  0.60711  0.29580  Biso   1.000  O
  O64      1.0000 0.87969  0.84112  0.59899  Biso   1.000  O
  C447     1.0000 0.83408  0.65862  0.24808  Biso   1.000  C
  C448     1.0000 0.84429  0.83442  0.59489  Biso   1.000  C
  H285     1.0000 0.83570  0.69253  0.22048  Biso   1.000  H
  H286     1.0000 0.83010  0.70953  0.26740  Biso   1.000  H
  H287     1.0000 0.84699  0.88744  0.62009  Biso   1.000  H
  H288     1.0000 0.84582  0.77051  0.61232  Biso   1.000  H
  C449     1.0000 0.33410  0.84142  0.74811  Biso   1.000  C
  C450     1.0000 0.29671  0.90856  0.71081  Biso   1.000  C
  H289     1.0000 0.33570  0.80750  0.72051  Biso   1.000  H
  H290     1.0000 0.33008  0.79051  0.76738  Biso   1.000  H
  O65      1.0000 0.37369  0.89292  0.79578  Biso   1.000  O
  C451     1.0000 0.26660  0.96631  0.67982  Biso   1.000  C
  C452     1.0000 0.38420  0.91420  0.85098  Biso   1.000  C
  C453     1.0000 0.23309  0.03181  0.64600  Biso   1.000  C
  C454     1.0000 0.35810  0.89150  0.86111  Biso   1.000  C
  C455     1.0000 0.42311  0.96060  0.89531  Biso   1.000  C
  C456     1.0000 0.20360  0.09181  0.61741  Biso   1.000  C
  H291     1.0000 0.33081  0.86270  0.82951  Biso   1.000  H
  C457     1.0000 0.37352  0.91263  0.92032  Biso   1.000  C
  C458     1.0000 0.43781  0.98060  0.95371  Biso   1.000  C
  H292     1.0000 0.43969  0.97880  0.88669  Biso   1.000  H
  C459     1.0000 0.16600  0.15949  0.57921  Biso   1.000  C
  H293     1.0000 0.35630  0.89631  0.92799  Biso   1.000  H
  C460     1.0000 0.41320  0.95669  0.96709  Biso   1.000  C
  H294     1.0000 0.46491  0.01090  0.98461  Biso   1.000  H
  O66      1.0000 0.12651  0.10753  0.54831  Biso   1.000  O
  H295     1.0000 0.16428  0.19219  0.54798  Biso   1.000  H
  H296     1.0000 0.17000  0.21122  0.60610  Biso   1.000  H
  C461     1.0000 0.43110  0.97887  0.03280  Biso   1.000  C
  C462     1.0000 0.11610  0.08580  0.58279  Biso   1.000  C
  O67      1.0000 0.47805  0.97616  0.07768  Biso   1.000  O
  C463     1.0000 0.41532  0.89721  0.05032  Biso   1.000  C
  C464     1.0000 0.41790  0.08527  0.03572  Biso   1.000  C
  C465     1.0000 0.07710  0.03850  0.54911  Biso   1.000  C
  C466     1.0000 0.14209  0.10820  0.64600  Biso   1.000  C
  C467     1.0000 0.43499  0.80420  0.06789  Biso   1.000  C
  C468     1.0000 0.38260  0.91052  0.04989  Biso   1.000  C
  C469     1.0000 0.37750  0.12339  0.98739  Biso   1.000  C
  C470     1.0000 0.44731  0.14362  0.08800  Biso   1.000  C
  C471     1.0000 0.06210  0.01729  0.57798  Biso   1.000  C
  H297     1.0000 0.06069  0.02038  0.50738  Biso   1.000  H
  H298     1.0000 0.16949  0.13663  0.66960  Biso   1.000  H
  C472     1.0000 0.12619  0.08737  0.67289  Biso   1.000  C
  C473     1.0000 0.42280  0.72622  0.08381  Biso   1.000  C
  H299     1.0000 0.45721  0.79382  0.06911  Biso   1.000  H
  H300     1.0000 0.36911  0.97293  0.03901  Biso   1.000  H
  C474     1.0000 0.36959  0.83179  0.06539  Biso   1.000  C
  H301     1.0000 0.35770  0.08489  0.95122  Biso   1.000  H
  C475     1.0000 0.36492  0.21889  0.99012  Biso   1.000  C
  C476     1.0000 0.43450  0.23739  0.09120  Biso   1.000  C
  H302     1.0000 0.47552  0.12084  0.12102  Biso   1.000  H
  H303     1.0000 0.03529  0.98579  0.55500  Biso   1.000  H
  C477     1.0000 0.08650  0.04248  0.64049  Biso   1.000  C
  H304     1.0000 0.14311  0.10452  0.71491  Biso   1.000  H
  C478     1.0000 0.39030  0.74141  0.08291  Biso   1.000  C
  H305     1.0000 0.43630  0.66388  0.09502  Biso   1.000  H
  H306     1.0000 0.34710  0.84097  0.06379  Biso   1.000  H
  H307     1.0000 0.33720  0.24408  0.95630  Biso   1.000  H
  C479     1.0000 0.39418  0.27318  0.04358  Biso   1.000  C
  H308     1.0000 0.45441  0.27641  0.12719  Biso   1.000  H
  C480     1.0000 0.06858  0.02053  0.67068  Biso   1.000  C
  O68      1.0000 0.37971  0.65892  0.09902  Biso   1.000  O
  O69      1.0000 0.38558  0.36657  0.05578  Biso   1.000  O
  C481     1.0000 0.08191  0.91458  0.69932  Biso   1.000  C
  O70      1.0000 0.02182  0.02361  0.62150  Biso   1.000  O
  C482     1.0000 0.08431  0.10279  0.71882  Biso   1.000  C
  C483     1.0000 0.34432  0.66561  0.09492  Biso   1.000  C
  C484     1.0000 0.34920  0.41883  0.00340  Biso   1.000  C
  C485     1.0000 0.05279  0.85578  0.69381  Biso   1.000  C
  C486     1.0000 0.12221  0.87608  0.73191  Biso   1.000  C
  C487     1.0000 0.06490  0.19618  0.69800  Biso   1.000  C
  C488     1.0000 0.11729  0.08948  0.78401  Biso   1.000  C
  C489     1.0000 0.30190  0.65712  0.03011  Biso   1.000  C
  H309     1.0000 0.34701  0.61260  0.12012  Biso   1.000  H
  H310     1.0000 0.34579  0.72953  0.11230  Biso   1.000  H
  C490     1.0000 0.30819  0.38980  0.98419  Biso   1.000  C
  H311     1.0000 0.34661  0.40762  0.96831  Biso   1.000  H
  H312     1.0000 0.35380  0.49019  0.01278  Biso   1.000  H
  H313     1.0000 0.02449  0.87864  0.67030  Biso   1.000  H
  C491     1.0000 0.06508  0.76306  0.72258  Biso   1.000  C
  C492     1.0000 0.13580  0.78231  0.76140  Biso   1.000  C
  H314     1.0000 0.14181  0.91428  0.73460  Biso   1.000  H
  H315     1.0000 0.04260  0.20784  0.65499  Biso   1.000  H
  C493     1.0000 0.07798  0.27370  0.73978  Biso   1.000  C
  C494     1.0000 0.13020  0.16670  0.82668  Biso   1.000  C
  H316     1.0000 0.13110  0.02737  0.79969  Biso   1.000  H
  C495     1.0000 0.26599  0.64659  0.97698  Biso   1.000  C
  C496     1.0000 0.27459  0.37191  0.96619  Biso   1.000  C
  H317     1.0000 0.04551  0.72479  0.71971  Biso   1.000  H
  C497     1.0000 0.10569  0.72750  0.75518  Biso   1.000  C
  H318     1.0000 0.16380  0.75833  0.78401  Biso   1.000  H
  H319     1.0000 0.06490  0.33649  0.72461  Biso   1.000  H
  C498     1.0000 0.10970  0.25769  0.80270  Biso   1.000  C
  H320     1.0000 0.15211  0.15633  0.86992  Biso   1.000  H
  C499     1.0000 0.22569  0.62809  0.91768  Biso   1.000  C
  C500     1.0000 0.23321  0.35506  0.94429  Biso   1.000  C
  O71      1.0000 0.11459  0.63463  0.78499  Biso   1.000  O
  O72      1.0000 0.12061  0.34123  0.83991  Biso   1.000  O
  C501     1.0000 0.19189  0.60907  0.86808  Biso   1.000  C
  C502     1.0000 0.19832  0.34221  0.92592  Biso   1.000  C
  C503     1.0000 0.15160  0.58027  0.80628  Biso   1.000  C
  C504     1.0000 0.15609  0.33484  0.90609  Biso   1.000  C
  H321     1.0000 0.14670  0.50921  0.80671  Biso   1.000  H
  H322     1.0000 0.15440  0.59027  0.77652  Biso   1.000  H
  H323     1.0000 0.15361  0.38830  0.92592  Biso   1.000  H
  H324     1.0000 0.15450  0.27130  0.92060  Biso   1.000  H
  C505     1.0000 0.33410  0.84142  0.74811  Biso   1.000  C
  C506     1.0000 0.29671  0.90856  0.71081  Biso   1.000  C
  H325     1.0000 0.33570  0.80750  0.72051  Biso   1.000  H
  H326     1.0000 0.33008  0.79051  0.76738  Biso   1.000  H
  O73      1.0000 0.37369  0.89292  0.79578  Biso   1.000  O
  C507     1.0000 0.26660  0.96631  0.67982  Biso   1.000  C
  C508     1.0000 0.38420  0.91420  0.85098  Biso   1.000  C
  C509     1.0000 0.23309  0.03181  0.64600  Biso   1.000  C
  C510     1.0000 0.35810  0.89150  0.86111  Biso   1.000  C
  C511     1.0000 0.42311  0.96060  0.89531  Biso   1.000  C
  C512     1.0000 0.20360  0.09181  0.61741  Biso   1.000  C
  H327     1.0000 0.33081  0.86270  0.82951  Biso   1.000  H
  C513     1.0000 0.37352  0.91263  0.92032  Biso   1.000  C
  C514     1.0000 0.43781  0.98060  0.95371  Biso   1.000  C
  H328     1.0000 0.43969  0.97880  0.88669  Biso   1.000  H
  C515     1.0000 0.16600  0.15949  0.57921  Biso   1.000  C
  H329     1.0000 0.35630  0.89631  0.92799  Biso   1.000  H
  C516     1.0000 0.41320  0.95669  0.96709  Biso   1.000  C
  H330     1.0000 0.46491  0.01090  0.98461  Biso   1.000  H
  O74      1.0000 0.12651  0.10753  0.54831  Biso   1.000  O
  H331     1.0000 0.16428  0.19219  0.54798  Biso   1.000  H
  H332     1.0000 0.17000  0.21122  0.60610  Biso   1.000  H
  C517     1.0000 0.43110  0.97887  0.03280  Biso   1.000  C
  C518     1.0000 0.11610  0.08580  0.58279  Biso   1.000  C
  O75      1.0000 0.47805  0.97616  0.07768  Biso   1.000  O
  C519     1.0000 0.41532  0.89721  0.05032  Biso   1.000  C
  C520     1.0000 0.41790  0.08527  0.03572  Biso   1.000  C
  C521     1.0000 0.07710  0.03850  0.54911  Biso   1.000  C
  C522     1.0000 0.14209  0.10820  0.64600  Biso   1.000  C
  C523     1.0000 0.43499  0.80420  0.06789  Biso   1.000  C
  C524     1.0000 0.38260  0.91052  0.04989  Biso   1.000  C
  C525     1.0000 0.37750  0.12339  0.98739  Biso   1.000  C
  C526     1.0000 0.44731  0.14362  0.08800  Biso   1.000  C
  C527     1.0000 0.06210  0.01729  0.57798  Biso   1.000  C
  H333     1.0000 0.06069  0.02038  0.50738  Biso   1.000  H
  H334     1.0000 0.16949  0.13663  0.66960  Biso   1.000  H
  C528     1.0000 0.12619  0.08737  0.67289  Biso   1.000  C
  C529     1.0000 0.42280  0.72622  0.08381  Biso   1.000  C
  H335     1.0000 0.45721  0.79382  0.06911  Biso   1.000  H
  H336     1.0000 0.36911  0.97293  0.03901  Biso   1.000  H
  C530     1.0000 0.36959  0.83179  0.06539  Biso   1.000  C
  H337     1.0000 0.35770  0.08489  0.95122  Biso   1.000  H
  C531     1.0000 0.36492  0.21889  0.99012  Biso   1.000  C
  C532     1.0000 0.43450  0.23739  0.09120  Biso   1.000  C
  H338     1.0000 0.47552  0.12084  0.12102  Biso   1.000  H
  H339     1.0000 0.03529  0.98579  0.55500  Biso   1.000  H
  C533     1.0000 0.08650  0.04248  0.64049  Biso   1.000  C
  H340     1.0000 0.14311  0.10452  0.71491  Biso   1.000  H
  C534     1.0000 0.39030  0.74141  0.08291  Biso   1.000  C
  H341     1.0000 0.43630  0.66388  0.09502  Biso   1.000  H
  H342     1.0000 0.34710  0.84097  0.06379  Biso   1.000  H
  H343     1.0000 0.33720  0.24408  0.95630  Biso   1.000  H
  C535     1.0000 0.39418  0.27318  0.04358  Biso   1.000  C
  H344     1.0000 0.45441  0.27641  0.12719  Biso   1.000  H
  C536     1.0000 0.06858  0.02053  0.67068  Biso   1.000  C
  O76      1.0000 0.37971  0.65892  0.09902  Biso   1.000  O
  O77      1.0000 0.38558  0.36657  0.05578  Biso   1.000  O
  C537     1.0000 0.08191  0.91458  0.69932  Biso   1.000  C
  O78      1.0000 0.02182  0.02361  0.62150  Biso   1.000  O
  C538     1.0000 0.08431  0.10279  0.71882  Biso   1.000  C
  C539     1.0000 0.34432  0.66561  0.09492  Biso   1.000  C
  C540     1.0000 0.34920  0.41883  0.00340  Biso   1.000  C
  C541     1.0000 0.05279  0.85578  0.69381  Biso   1.000  C
  C542     1.0000 0.12221  0.87608  0.73191  Biso   1.000  C
  C543     1.0000 0.06490  0.19618  0.69800  Biso   1.000  C
  C544     1.0000 0.11729  0.08948  0.78401  Biso   1.000  C
  C545     1.0000 0.30190  0.65712  0.03011  Biso   1.000  C
  H345     1.0000 0.34701  0.61260  0.12012  Biso   1.000  H
  H346     1.0000 0.34579  0.72953  0.11230  Biso   1.000  H
  C546     1.0000 0.30819  0.38980  0.98419  Biso   1.000  C
  H347     1.0000 0.34661  0.40762  0.96831  Biso   1.000  H
  H348     1.0000 0.35380  0.49019  0.01278  Biso   1.000  H
  H349     1.0000 0.02449  0.87864  0.67030  Biso   1.000  H
  C547     1.0000 0.06508  0.76306  0.72258  Biso   1.000  C
  C548     1.0000 0.13580  0.78231  0.76140  Biso   1.000  C
  H350     1.0000 0.14181  0.91428  0.73460  Biso   1.000  H
  H351     1.0000 0.04260  0.20784  0.65499  Biso   1.000  H
  C549     1.0000 0.07798  0.27370  0.73978  Biso   1.000  C
  C550     1.0000 0.13020  0.16670  0.82668  Biso   1.000  C
  H352     1.0000 0.13110  0.02737  0.79969  Biso   1.000  H
  C551     1.0000 0.26599  0.64659  0.97698  Biso   1.000  C
  C552     1.0000 0.27459  0.37191  0.96619  Biso   1.000  C
  H353     1.0000 0.04551  0.72479  0.71971  Biso   1.000  H
  C553     1.0000 0.10569  0.72750  0.75518  Biso   1.000  C
  H354     1.0000 0.16380  0.75833  0.78401  Biso   1.000  H
  H355     1.0000 0.06490  0.33649  0.72461  Biso   1.000  H
  C554     1.0000 0.10970  0.25769  0.80270  Biso   1.000  C
  H356     1.0000 0.15211  0.15633  0.86992  Biso   1.000  H
  C555     1.0000 0.22569  0.62809  0.91768  Biso   1.000  C
  C556     1.0000 0.23321  0.35506  0.94429  Biso   1.000  C
  O79      1.0000 0.11459  0.63463  0.78499  Biso   1.000  O
  O80      1.0000 0.12061  0.34123  0.83991  Biso   1.000  O
  C557     1.0000 0.19189  0.60907  0.86808  Biso   1.000  C
  C558     1.0000 0.19832  0.34221  0.92592  Biso   1.000  C
  C559     1.0000 0.15160  0.58027  0.80628  Biso   1.000  C
  C560     1.0000 0.15609  0.33484  0.90609  Biso   1.000  C
  H357     1.0000 0.14670  0.50921  0.80671  Biso   1.000  H
  H358     1.0000 0.15440  0.59027  0.77652  Biso   1.000  H
  H359     1.0000 0.15361  0.38830  0.92592  Biso   1.000  H
  H360     1.0000 0.15450  0.27130  0.92060  Biso   1.000  H
  C561     1.0000 0.66589  0.15858  0.25190  Biso   1.000  C
  O81      1.0000 0.62628  0.10708  0.20419  Biso   1.000  O
  C562     1.0000 0.70331  0.09144  0.28920  Biso   1.000  C
  H361     1.0000 0.66430  0.19250  0.27950  Biso   1.000  H
  H362     1.0000 0.66990  0.20949  0.23259  Biso   1.000  H
  C563     1.0000 0.61580  0.08580  0.14898  Biso   1.000  C
  C564     1.0000 0.73340  0.03369  0.32020  Biso   1.000  C
  C565     1.0000 0.64189  0.10850  0.13890  Biso   1.000  C
  C566     1.0000 0.57691  0.03940  0.10471  Biso   1.000  C
  C567     1.0000 0.76691  0.96819  0.35402  Biso   1.000  C
  H363     1.0000 0.66921  0.13730  0.17051  Biso   1.000  H
  C568     1.0000 0.62650  0.08737  0.07970  Biso   1.000  C
  C569     1.0000 0.56221  0.01940  0.04630  Biso   1.000  C
  H364     1.0000 0.56029  0.02120  0.11328  Biso   1.000  H
  C570     1.0000 0.79639  0.90819  0.38261  Biso   1.000  C
  H365     1.0000 0.64372  0.10369  0.07202  Biso   1.000  H
  C571     1.0000 0.58678  0.04331  0.03288  Biso   1.000  C
  H366     1.0000 0.53511  0.98910  0.01540  Biso   1.000  H
  C572     1.0000 0.83400  0.84051  0.42081  Biso   1.000  C
  C573     1.0000 0.56892  0.02113  0.96722  Biso   1.000  C
  O82      1.0000 0.87351  0.89247  0.45170  Biso   1.000  O
  H367     1.0000 0.83569  0.80781  0.45199  Biso   1.000  H
  H368     1.0000 0.83000  0.78878  0.39391  Biso   1.000  H
  C574     1.0000 0.58210  0.91473  0.96430  Biso   1.000  C
  O83      1.0000 0.52192  0.02384  0.92228  Biso   1.000  O
  C575     1.0000 0.58470  0.10279  0.94970  Biso   1.000  C
  C576     1.0000 0.88390  0.91420  0.41718  Biso   1.000  C
  C577     1.0000 0.55271  0.85638  0.91201  Biso   1.000  C
  C578     1.0000 0.62252  0.87661  0.01262  Biso   1.000  C
  C579     1.0000 0.56498  0.19580  0.93208  Biso   1.000  C
  C580     1.0000 0.61742  0.08948  0.95012  Biso   1.000  C
  C581     1.0000 0.92290  0.96150  0.45090  Biso   1.000  C
  C582     1.0000 0.85791  0.89180  0.35402  Biso   1.000  C
  C583     1.0000 0.56550  0.76261  0.90881  Biso   1.000  C
  H369     1.0000 0.52450  0.87916  0.87900  Biso   1.000  H
  H370     1.0000 0.64230  0.91511  0.04880  Biso   1.000  H
  C584     1.0000 0.63510  0.78111  0.00989  Biso   1.000  C
  C585     1.0000 0.57720  0.27378  0.91621  Biso   1.000  C
  H371     1.0000 0.54281  0.20618  0.93090  Biso   1.000  H
  H372     1.0000 0.63091  0.02707  0.96100  Biso   1.000  H
  C586     1.0000 0.63040  0.16821  0.93462  Biso   1.000  C
  C587     1.0000 0.93790  0.98271  0.42198  Biso   1.000  C
  H373     1.0000 0.93929  0.97962  0.49259  Biso   1.000  H
  H374     1.0000 0.83050  0.86337  0.33042  Biso   1.000  H
  C588     1.0000 0.87380  0.91263  0.32712  Biso   1.000  C
  C589     1.0000 0.60579  0.72682  0.95638  Biso   1.000  C
  H375     1.0000 0.54559  0.72359  0.87278  Biso   1.000  H
  H376     1.0000 0.66280  0.75592  0.04371  Biso   1.000  H
  C590     1.0000 0.60969  0.25859  0.91710  Biso   1.000  C
  H377     1.0000 0.56370  0.33612  0.90500  Biso   1.000  H
  H378     1.0000 0.65288  0.15903  0.93618  Biso   1.000  H
  H379     1.0000 0.96470  0.01421  0.44502  Biso   1.000  H
  C591     1.0000 0.91349  0.95752  0.35948  Biso   1.000  C
  H380     1.0000 0.85691  0.89548  0.28511  Biso   1.000  H
  O84      1.0000 0.61439  0.63343  0.94418  Biso   1.000  O
  O85      1.0000 0.62029  0.34108  0.90099  Biso   1.000  O
  C592     1.0000 0.93139  0.97947  0.32929  Biso   1.000  C
  C593     1.0000 0.65079  0.58117  0.99661  Biso   1.000  C
  C594     1.0000 0.65570  0.33439  0.90509  Biso   1.000  C
  C595     1.0000 0.91811  0.08542  0.30070  Biso   1.000  C
  O86      1.0000 0.97818  0.97639  0.37851  Biso   1.000  O
  C596     1.0000 0.91569  0.89721  0.28120  Biso   1.000  C
  H381     1.0000 0.64620  0.50981  0.98719  Biso   1.000  H
  C597     1.0000 0.69179  0.61020  0.01578  Biso   1.000  C
  H382     1.0000 0.65339  0.59238  0.03170  Biso   1.000  H
  C598     1.0000 0.69809  0.34288  0.96990  Biso   1.000  C
  H383     1.0000 0.65299  0.38740  0.87989  Biso   1.000  H
  H384     1.0000 0.65420  0.27047  0.88771  Biso   1.000  H
  C599     1.0000 0.94721  0.14422  0.30621  Biso   1.000  C
  C600     1.0000 0.87781  0.12392  0.26810  Biso   1.000  C
  C601     1.0000 0.93510  0.80382  0.30202  Biso   1.000  C
  C602     1.0000 0.88270  0.91052  0.21601  Biso   1.000  C
  C603     1.0000 0.72541  0.62809  0.03382  Biso   1.000  C
  C604     1.0000 0.73398  0.35341  0.02299  Biso   1.000  C
  H385     1.0000 0.97551  0.12136  0.32971  Biso   1.000  H
  C605     1.0000 0.93489  0.23694  0.27738  Biso   1.000  C
  C606     1.0000 0.86422  0.21769  0.23862  Biso   1.000  C
  H386     1.0000 0.85821  0.08572  0.26542  Biso   1.000  H
  H387     1.0000 0.95742  0.79216  0.34502  Biso   1.000  H
  C607     1.0000 0.92199  0.72630  0.26019  Biso   1.000  C
  C608     1.0000 0.86980  0.83330  0.17329  Biso   1.000  C
  H388     1.0000 0.86892  0.97263  0.20032  Biso   1.000  H
  C609     1.0000 0.76681  0.64494  0.05572  Biso   1.000  C
  C610     1.0000 0.77430  0.37191  0.08229  Biso   1.000  C
  H389     1.0000 0.95451  0.27521  0.28030  Biso   1.000  H
  C611     1.0000 0.89429  0.27250  0.24479  Biso   1.000  C
  H390     1.0000 0.83620  0.24167  0.21601  Biso   1.000  H
  H391     1.0000 0.93510  0.66351  0.27540  Biso   1.000  H
  C612     1.0000 0.89029  0.74231  0.19731  Biso   1.000  C
  H392     1.0000 0.84789  0.84367  0.13009  Biso   1.000  H
  C613     1.0000 0.80170  0.65779  0.07409  Biso   1.000  C
  C614     1.0000 0.80808  0.39093  0.13188  Biso   1.000  C
  O87      1.0000 0.88541  0.36537  0.21502  Biso   1.000  O
  O88      1.0000 0.87939  0.65877  0.16010  Biso   1.000  O
  C615     1.0000 0.84390  0.66516  0.09392  Biso   1.000  C
  C616     1.0000 0.84840  0.41973  0.19368  Biso   1.000  C
  H393     1.0000 0.84639  0.61170  0.07409  Biso   1.000  H
  H394     1.0000 0.84550  0.72870  0.07941  Biso   1.000  H
  H395     1.0000 0.85330  0.49079  0.19330  Biso   1.000  H
  H396     1.0000 0.84560  0.40973  0.22350  Biso   1.000  H
  C617     1.0000 0.66589  0.15858  0.25190  Biso   1.000  C
  O89      1.0000 0.62628  0.10708  0.20419  Biso   1.000  O
  C618     1.0000 0.70331  0.09144  0.28920  Biso   1.000  C
  H397     1.0000 0.66430  0.19250  0.27950  Biso   1.000  H
  H398     1.0000 0.66990  0.20949  0.23259  Biso   1.000  H
  C619     1.0000 0.61580  0.08580  0.14898  Biso   1.000  C
  C620     1.0000 0.73340  0.03369  0.32020  Biso   1.000  C
  C621     1.0000 0.64189  0.10850  0.13890  Biso   1.000  C
  C622     1.0000 0.57691  0.03940  0.10471  Biso   1.000  C
  C623     1.0000 0.76691  0.96819  0.35402  Biso   1.000  C
  H399     1.0000 0.66921  0.13730  0.17051  Biso   1.000  H
  C624     1.0000 0.62650  0.08737  0.07970  Biso   1.000  C
  C625     1.0000 0.56221  0.01940  0.04630  Biso   1.000  C
  H400     1.0000 0.56029  0.02120  0.11328  Biso   1.000  H
  C626     1.0000 0.79639  0.90819  0.38261  Biso   1.000  C
  H401     1.0000 0.64372  0.10369  0.07202  Biso   1.000  H
  C627     1.0000 0.58678  0.04331  0.03288  Biso   1.000  C
  H402     1.0000 0.53511  0.98910  0.01540  Biso   1.000  H
  C628     1.0000 0.83400  0.84051  0.42081  Biso   1.000  C
  C629     1.0000 0.56892  0.02113  0.96722  Biso   1.000  C
  O90      1.0000 0.87351  0.89247  0.45170  Biso   1.000  O
  H403     1.0000 0.83569  0.80781  0.45199  Biso   1.000  H
  H404     1.0000 0.83000  0.78878  0.39391  Biso   1.000  H
  C630     1.0000 0.58210  0.91473  0.96430  Biso   1.000  C
  O91      1.0000 0.52192  0.02384  0.92228  Biso   1.000  O
  C631     1.0000 0.58470  0.10279  0.94970  Biso   1.000  C
  C632     1.0000 0.88390  0.91420  0.41718  Biso   1.000  C
  C633     1.0000 0.55271  0.85638  0.91201  Biso   1.000  C
  C634     1.0000 0.62252  0.87661  0.01262  Biso   1.000  C
  C635     1.0000 0.56498  0.19580  0.93208  Biso   1.000  C
  C636     1.0000 0.61742  0.08948  0.95012  Biso   1.000  C
  C637     1.0000 0.92290  0.96150  0.45090  Biso   1.000  C
  C638     1.0000 0.85791  0.89180  0.35402  Biso   1.000  C
  C639     1.0000 0.56550  0.76261  0.90881  Biso   1.000  C
  H405     1.0000 0.52450  0.87916  0.87900  Biso   1.000  H
  H406     1.0000 0.64230  0.91511  0.04880  Biso   1.000  H
  C640     1.0000 0.63510  0.78111  0.00989  Biso   1.000  C
  C641     1.0000 0.57720  0.27378  0.91621  Biso   1.000  C
  H407     1.0000 0.54281  0.20618  0.93090  Biso   1.000  H
  H408     1.0000 0.63091  0.02707  0.96100  Biso   1.000  H
  C642     1.0000 0.63040  0.16821  0.93462  Biso   1.000  C
  C643     1.0000 0.93790  0.98271  0.42198  Biso   1.000  C
  H409     1.0000 0.93929  0.97962  0.49259  Biso   1.000  H
  H410     1.0000 0.83050  0.86337  0.33042  Biso   1.000  H
  C644     1.0000 0.87380  0.91263  0.32712  Biso   1.000  C
  C645     1.0000 0.60579  0.72682  0.95638  Biso   1.000  C
  H411     1.0000 0.54559  0.72359  0.87278  Biso   1.000  H
  H412     1.0000 0.66280  0.75592  0.04371  Biso   1.000  H
  C646     1.0000 0.60969  0.25859  0.91710  Biso   1.000  C
  H413     1.0000 0.56370  0.33612  0.90500  Biso   1.000  H
  H414     1.0000 0.65288  0.15903  0.93618  Biso   1.000  H
  H415     1.0000 0.96470  0.01421  0.44502  Biso   1.000  H
  C647     1.0000 0.91349  0.95752  0.35948  Biso   1.000  C
  H416     1.0000 0.85691  0.89548  0.28511  Biso   1.000  H
  O92      1.0000 0.61439  0.63343  0.94418  Biso   1.000  O
  O93      1.0000 0.62029  0.34108  0.90099  Biso   1.000  O
  C648     1.0000 0.93139  0.97947  0.32929  Biso   1.000  C
  C649     1.0000 0.65079  0.58117  0.99661  Biso   1.000  C
  C650     1.0000 0.65570  0.33439  0.90509  Biso   1.000  C
  C651     1.0000 0.91811  0.08542  0.30070  Biso   1.000  C
  O94      1.0000 0.97818  0.97639  0.37851  Biso   1.000  O
  C652     1.0000 0.91569  0.89721  0.28120  Biso   1.000  C
  H417     1.0000 0.64620  0.50981  0.98719  Biso   1.000  H
  C653     1.0000 0.69179  0.61020  0.01578  Biso   1.000  C
  H418     1.0000 0.65339  0.59238  0.03170  Biso   1.000  H
  C654     1.0000 0.69809  0.34288  0.96990  Biso   1.000  C
  H419     1.0000 0.65299  0.38740  0.87989  Biso   1.000  H
  H420     1.0000 0.65420  0.27047  0.88771  Biso   1.000  H
  C655     1.0000 0.94721  0.14422  0.30621  Biso   1.000  C
  C656     1.0000 0.87781  0.12392  0.26810  Biso   1.000  C
  C657     1.0000 0.93510  0.80382  0.30202  Biso   1.000  C
  C658     1.0000 0.88270  0.91052  0.21601  Biso   1.000  C
  C659     1.0000 0.72541  0.62809  0.03382  Biso   1.000  C
  C660     1.0000 0.73398  0.35341  0.02299  Biso   1.000  C
  H421     1.0000 0.97551  0.12136  0.32971  Biso   1.000  H
  C661     1.0000 0.93489  0.23694  0.27738  Biso   1.000  C
  C662     1.0000 0.86422  0.21769  0.23862  Biso   1.000  C
  H422     1.0000 0.85821  0.08572  0.26542  Biso   1.000  H
  H423     1.0000 0.95742  0.79216  0.34502  Biso   1.000  H
  C663     1.0000 0.92199  0.72630  0.26019  Biso   1.000  C
  C664     1.0000 0.86980  0.83330  0.17329  Biso   1.000  C
  H424     1.0000 0.86892  0.97263  0.20032  Biso   1.000  H
  C665     1.0000 0.76681  0.64494  0.05572  Biso   1.000  C
  C666     1.0000 0.77430  0.37191  0.08229  Biso   1.000  C
  H425     1.0000 0.95451  0.27521  0.28030  Biso   1.000  H
  C667     1.0000 0.89429  0.27250  0.24479  Biso   1.000  C
  H426     1.0000 0.83620  0.24167  0.21601  Biso   1.000  H
  H427     1.0000 0.93510  0.66351  0.27540  Biso   1.000  H
  C668     1.0000 0.89029  0.74231  0.19731  Biso   1.000  C
  H428     1.0000 0.84789  0.84367  0.13009  Biso   1.000  H
  C669     1.0000 0.80170  0.65779  0.07409  Biso   1.000  C
  C670     1.0000 0.80808  0.39093  0.13188  Biso   1.000  C
  O95      1.0000 0.88541  0.36537  0.21502  Biso   1.000  O
  O96      1.0000 0.87939  0.65877  0.16010  Biso   1.000  O
  C671     1.0000 0.84390  0.66516  0.09392  Biso   1.000  C
  C672     1.0000 0.84840  0.41973  0.19368  Biso   1.000  C
  H429     1.0000 0.84639  0.61170  0.07409  Biso   1.000  H
  H430     1.0000 0.84550  0.72870  0.07941  Biso   1.000  H
  H431     1.0000 0.85330  0.49079  0.19330  Biso   1.000  H
  H432     1.0000 0.84560  0.40973  0.22350  Biso   1.000  H
