data_image0
_cell_length_a       14.014
_cell_length_b       14.014
_cell_length_c       43.771
_cell_angle_alpha    90
_cell_angle_beta     90
_cell_angle_gamma    120

_symmetry_space_group_name_H-M    "P 1"
_symmetry_int_tables_number       1

loop_
  _symmetry_equiv_pos_as_xyz
  'x, y, z'

loop_
  _atom_site_label
  _atom_site_occupancy
  _atom_site_fract_x
  _atom_site_fract_y
  _atom_site_fract_z
  _atom_site_thermal_displace_type
  _atom_site_B_iso_or_equiv
  _atom_site_type_symbol
  C1       1.0000 0.25162  0.17114  0.46700  Biso   1.000  C
  C2       1.0000 0.21703  0.06971  0.44767  Biso   1.000  C
  O1       1.0000 0.22156  0.24018  0.45085  Biso   1.000  O
  H1       1.0000 0.21482  0.15079  0.48665  Biso   1.000  H
  H2       1.0000 0.33049  0.20929  0.47040  Biso   1.000  H
  C3       1.0000 0.27140  0.09583  0.41642  Biso   1.000  C
  H3       1.0000 0.13762  0.03148  0.44507  Biso   1.000  H
  H4       1.0000 0.23549  0.02043  0.45836  Biso   1.000  H
  C4       1.0000 0.25364  0.34244  0.46264  Biso   1.000  C
  C5       1.0000 0.39525  0.15771  0.41692  Biso   1.000  C
  H5       1.0000 0.24658  0.02719  0.40545  Biso   1.000  H
  H6       1.0000 0.24664  0.13892  0.40506  Biso   1.000  H
  C6       1.0000 0.32418  0.38990  0.48694  Biso   1.000  C
  C7       1.0000 0.20931  0.39979  0.44865  Biso   1.000  C
  C8       1.0000 0.44967  0.18605  0.38564  Biso   1.000  C
  H7       1.0000 0.42004  0.11395  0.42786  Biso   1.000  H
  H8       1.0000 0.42006  0.22560  0.42827  Biso   1.000  H
  C9       1.0000 0.34817  0.49298  0.49722  Biso   1.000  C
  H9       1.0000 0.35559  0.35282  0.49645  Biso   1.000  H
  H10      1.0000 0.16281  0.36930  0.43193  Biso   1.000  H
  C10      1.0000 0.23361  0.50204  0.45928  Biso   1.000  C
  C11      1.0000 0.41508  0.25287  0.36634  Biso   1.000  C
  H11      1.0000 0.52907  0.22725  0.38827  Biso   1.000  H
  H12      1.0000 0.43118  0.11824  0.37497  Biso   1.000  H
  C12      1.0000 0.30282  0.55098  0.48411  Biso   1.000  C
  H13      1.0000 0.39669  0.52437  0.51351  Biso   1.000  H
  H14      1.0000 0.20270  0.53912  0.44957  Biso   1.000  H
  O2       1.0000 0.44512  0.35191  0.38249  Biso   1.000  O
  H15      1.0000 0.45186  0.26935  0.34669  Biso   1.000  H
  H16      1.0000 0.33621  0.21217  0.36293  Biso   1.000  H
  C13      1.0000 0.33326  0.66667  0.49565  Biso   1.000  C
  C14      1.0000 0.41307  0.42212  0.37070  Biso   1.000  C
  C15      1.0000 0.33326  0.66667  0.53113  Biso   1.000  C
  C16      1.0000 0.24822  0.69724  0.48411  Biso   1.000  C
  C17      1.0000 0.44896  0.75178  0.48411  Biso   1.000  C
  C18      1.0000 0.34245  0.39904  0.34639  Biso   1.000  C
  C19      1.0000 0.45734  0.52379  0.38468  Biso   1.000  C
  H17      1.0000 0.39263  0.65711  0.53844  Biso   1.000  H
  H18      1.0000 0.26454  0.60742  0.53844  Biso   1.000  H
  H19      1.0000 0.34290  0.73547  0.53844  Biso   1.000  H
  C20      1.0000 0.14481  0.65184  0.49722  Biso   1.000  C
  C21      1.0000 0.26837  0.76637  0.45928  Biso   1.000  C
  C22      1.0000 0.50702  0.85519  0.49722  Biso   1.000  C
  C23      1.0000 0.49802  0.73160  0.45928  Biso   1.000  C
  C24      1.0000 0.31849  0.47815  0.33611  Biso   1.000  C
  H20      1.0000 0.31107  0.33057  0.33689  Biso   1.000  H
  C25      1.0000 0.43309  0.60174  0.37406  Biso   1.000  C
  H21      1.0000 0.50391  0.53986  0.40141  Biso   1.000  H
  C26      1.0000 0.06568  0.67581  0.48694  Biso   1.000  C
  H22      1.0000 0.12768  0.60331  0.51351  Biso   1.000  H
  C27      1.0000 0.19047  0.79067  0.44865  Biso   1.000  C
  H23      1.0000 0.33641  0.79727  0.44957  Biso   1.000  H
  C28      1.0000 0.61007  0.93429  0.48694  Biso   1.000  C
  H24      1.0000 0.47562  0.87233  0.51351  Biso   1.000  H
  C29      1.0000 0.60018  0.80946  0.44865  Biso   1.000  C
  H25      1.0000 0.46089  0.66362  0.44957  Biso   1.000  H
  C30      1.0000 0.36385  0.58155  0.34923  Biso   1.000  C
  H26      1.0000 0.26996  0.46101  0.31982  Biso   1.000  H
  H27      1.0000 0.46394  0.66972  0.38377  Biso   1.000  H
  C31      1.0000 0.08878  0.74643  0.46264  Biso   1.000  C
  H28      1.0000 0.99718  0.64442  0.49645  Biso   1.000  H
  H29      1.0000 0.20654  0.83723  0.43193  Biso   1.000  H
  C32      1.0000 0.65762  0.91122  0.46264  Biso   1.000  C
  H30      1.0000 0.64716  0.00276  0.49645  Biso   1.000  H
  H31      1.0000 0.63072  0.79348  0.43193  Biso   1.000  H
  C33      1.0000 0.33341  0.66667  0.33769  Biso   1.000  C
  O3       1.0000 0.01861  0.77848  0.45085  Biso   1.000  O
  O4       1.0000 0.75987  0.98142  0.45085  Biso   1.000  O
  C34      1.0000 0.21765  0.63610  0.34923  Biso   1.000  C
  C35      1.0000 0.41851  0.78235  0.34923  Biso   1.000  C
  C36      1.0000 0.33341  0.66667  0.30221  Biso   1.000  C
  C37      1.0000 0.91951  0.74840  0.46700  Biso   1.000  C
  C38      1.0000 0.82887  0.08046  0.46700  Biso   1.000  C
  C39      1.0000 0.15964  0.68150  0.33611  Biso   1.000  C
  C40      1.0000 0.16867  0.56697  0.37406  Biso   1.000  C
  C41      1.0000 0.52186  0.84036  0.33611  Biso   1.000  C
  C42      1.0000 0.39824  0.83130  0.37406  Biso   1.000  C
  H32      1.0000 0.32378  0.72591  0.29490  Biso   1.000  H
  H33      1.0000 0.27410  0.59787  0.29490  Biso   1.000  H
  H34      1.0000 0.40219  0.67623  0.29490  Biso   1.000  H
  C43      1.0000 0.85269  0.78301  0.44767  Biso   1.000  C
  H35      1.0000 0.93600  0.78524  0.48665  Biso   1.000  H
  H36      1.0000 0.87876  0.66947  0.47040  Biso   1.000  H
  C44      1.0000 0.93029  0.14728  0.44767  Biso   1.000  C
  H37      1.0000 0.84917  0.06398  0.48665  Biso   1.000  H
  H38      1.0000 0.79071  0.12117  0.47040  Biso   1.000  H
  C45      1.0000 0.05653  0.65752  0.34639  Biso   1.000  C
  H39      1.0000 0.19105  0.73003  0.31982  Biso   1.000  H
  C46      1.0000 0.06646  0.54266  0.38468  Biso   1.000  C
  H40      1.0000 0.20581  0.53607  0.38377  Biso   1.000  H
  H41      1.0000 0.53899  0.80897  0.31982  Biso   1.000  H
  C47      1.0000 0.60095  0.94344  0.34639  Biso   1.000  C
  C48      1.0000 0.47619  0.93355  0.38468  Biso   1.000  C
  H42      1.0000 0.33025  0.79422  0.38377  Biso   1.000  H
  C49      1.0000 0.82443  0.72863  0.41642  Biso   1.000  C
  H43      1.0000 0.89390  0.86244  0.44507  Biso   1.000  H
  H44      1.0000 0.78490  0.76447  0.45836  Biso   1.000  H
  C50      1.0000 0.90421  0.17563  0.41642  Biso   1.000  C
  H45      1.0000 0.96849  0.10609  0.44507  Biso   1.000  H
  H46      1.0000 0.97960  0.21510  0.45836  Biso   1.000  H
  C51      1.0000 0.00902  0.58691  0.37070  Biso   1.000  C
  H47      1.0000 0.01943  0.68891  0.33689  Biso   1.000  H
  H48      1.0000 0.03598  0.49611  0.40141  Biso   1.000  H
  H49      1.0000 0.66944  0.98051  0.33689  Biso   1.000  H
  C52      1.0000 0.57787  0.99090  0.37070  Biso   1.000  C
  H50      1.0000 0.46018  0.96404  0.40141  Biso   1.000  H
  C53      1.0000 0.76246  0.60471  0.41692  Biso   1.000  C
  H51      1.0000 0.78060  0.75343  0.40545  Biso   1.000  H
  H52      1.0000 0.89234  0.75343  0.40506  Biso   1.000  H
  C54      1.0000 0.84225  0.23751  0.41692  Biso   1.000  C
  H53      1.0000 0.97276  0.21938  0.40545  Biso   1.000  H
  H54      1.0000 0.86113  0.10773  0.40506  Biso   1.000  H
  O5       1.0000 0.90680  0.55486  0.38249  Biso   1.000  O
  O6       1.0000 0.64805  0.09315  0.38249  Biso   1.000  O
  C55      1.0000 0.73634  0.55032  0.38564  Biso   1.000  C
  H55      1.0000 0.69383  0.57990  0.42786  Biso   1.000  H
  H56      1.0000 0.80558  0.57990  0.42827  Biso   1.000  H
  C56      1.0000 0.81399  0.26363  0.38564  Biso   1.000  C
  H57      1.0000 0.88605  0.30614  0.42786  Biso   1.000  H
  H58      1.0000 0.77439  0.19442  0.42827  Biso   1.000  H
  C57      1.0000 0.83778  0.58493  0.36634  Biso   1.000  C
  C58      1.0000 0.74715  0.16220  0.36634  Biso   1.000  C
  H59      1.0000 0.69813  0.47089  0.38827  Biso   1.000  H
  H60      1.0000 0.68710  0.56886  0.37497  Biso   1.000  H
  H61      1.0000 0.77281  0.30186  0.38827  Biso   1.000  H
  H62      1.0000 0.88173  0.31290  0.37497  Biso   1.000  H
  H63      1.0000 0.81743  0.54810  0.34669  Biso   1.000  H
  H64      1.0000 0.87596  0.66387  0.36293  Biso   1.000  H
  H65      1.0000 0.73071  0.18255  0.34669  Biso   1.000  H
  H66      1.0000 0.78787  0.12405  0.36293  Biso   1.000  H
  O7       1.0000 0.24015  0.01862  0.54915  Biso   1.000  O
  C59      1.0000 0.34240  0.08882  0.53736  Biso   1.000  C
  C60      1.0000 0.17111  0.91950  0.53300  Biso   1.000  C
  C61      1.0000 0.38991  0.06567  0.51306  Biso   1.000  C
  C62      1.0000 0.39980  0.19050  0.55135  Biso   1.000  C
  C63      1.0000 0.06969  0.85268  0.55233  Biso   1.000  C
  H67      1.0000 0.15081  0.93598  0.51335  Biso   1.000  H
  H68      1.0000 0.20927  0.87880  0.52960  Biso   1.000  H
  C64      1.0000 0.49296  0.14477  0.50278  Biso   1.000  C
  H69      1.0000 0.35282  0.99720  0.50355  Biso   1.000  H
  C65      1.0000 0.50196  0.26836  0.54072  Biso   1.000  C
  H70      1.0000 0.36926  0.20648  0.56807  Biso   1.000  H
  C66      1.0000 0.09581  0.82441  0.58358  Biso   1.000  C
  H71      1.0000 0.03150  0.89387  0.55493  Biso   1.000  H
  H72      1.0000 0.02038  0.78486  0.54164  Biso   1.000  H
  C67      1.0000 0.55102  0.24818  0.51589  Biso   1.000  C
  H73      1.0000 0.52440  0.12771  0.48649  Biso   1.000  H
  H74      1.0000 0.53913  0.33642  0.55043  Biso   1.000  H
  C68      1.0000 0.15774  0.76245  0.58308  Biso   1.000  C
  H75      1.0000 0.02722  0.78058  0.59455  Biso   1.000  H
  H76      1.0000 0.13889  0.89231  0.59494  Biso   1.000  H
  C69      1.0000 0.66672  0.33329  0.50435  Biso   1.000  C
  C70      1.0000 0.18599  0.73633  0.61436  Biso   1.000  C
  H77      1.0000 0.11397  0.69390  0.57214  Biso   1.000  H
  H78      1.0000 0.22559  0.80554  0.57173  Biso   1.000  H
  C71      1.0000 0.66672  0.33329  0.46887  Biso   1.000  C
  C72      1.0000 0.69716  0.44898  0.51589  Biso   1.000  C
  C73      1.0000 0.75180  0.30281  0.51589  Biso   1.000  C
  C74      1.0000 0.25283  0.83776  0.63366  Biso   1.000  C
  H79      1.0000 0.22721  0.69818  0.61173  Biso   1.000  H
  H80      1.0000 0.11825  0.68706  0.62503  Biso   1.000  H
  H81      1.0000 0.60739  0.34293  0.46156  Biso   1.000  H
  H82      1.0000 0.73548  0.39262  0.46156  Biso   1.000  H
  H83      1.0000 0.65708  0.26449  0.46156  Biso   1.000  H
  C75      1.0000 0.65181  0.50698  0.50278  Biso   1.000  C
  C76      1.0000 0.76641  0.49800  0.54072  Biso   1.000  C
  C77      1.0000 0.85521  0.34821  0.50278  Biso   1.000  C
  C78      1.0000 0.73161  0.23359  0.54072  Biso   1.000  C
  O8       1.0000 0.35193  0.90681  0.61751  Biso   1.000  O
  H84      1.0000 0.26931  0.81749  0.65331  Biso   1.000  H
  H85      1.0000 0.21215  0.87599  0.63707  Biso   1.000  H
  H86      1.0000 0.60329  0.47559  0.48649  Biso   1.000  H
  C79      1.0000 0.67580  0.61006  0.51306  Biso   1.000  C
  C80      1.0000 0.79067  0.60017  0.55135  Biso   1.000  C
  H87      1.0000 0.79732  0.46092  0.55043  Biso   1.000  H
  H88      1.0000 0.87234  0.39674  0.48649  Biso   1.000  H
  C81      1.0000 0.93434  0.32423  0.51306  Biso   1.000  C
  C82      1.0000 0.80951  0.20929  0.55135  Biso   1.000  C
  H89      1.0000 0.66357  0.20269  0.55043  Biso   1.000  H
  C83      1.0000 0.42211  0.00906  0.62930  Biso   1.000  C
  H90      1.0000 0.64443  0.64722  0.50355  Biso   1.000  H
  C84      1.0000 0.74638  0.65760  0.53736  Biso   1.000  C
  H91      1.0000 0.83717  0.63066  0.56807  Biso   1.000  H
  C85      1.0000 0.91124  0.25362  0.53736  Biso   1.000  C
  H92      1.0000 0.00284  0.35562  0.50355  Biso   1.000  H
  H93      1.0000 0.79348  0.16281  0.56807  Biso   1.000  H
  C86      1.0000 0.39908  0.05661  0.65361  Biso   1.000  C
  C87      1.0000 0.52383  0.06649  0.61532  Biso   1.000  C
  O9       1.0000 0.77846  0.75986  0.54915  Biso   1.000  O
  O10      1.0000 0.98141  0.22156  0.54915  Biso   1.000  O
  C88      1.0000 0.47816  0.15968  0.66389  Biso   1.000  C
  H94      1.0000 0.33054  0.01945  0.66311  Biso   1.000  H
  H95      1.0000 0.53984  0.03601  0.59859  Biso   1.000  H
  C89      1.0000 0.60174  0.16867  0.62594  Biso   1.000  C
  C90      1.0000 0.74840  0.82891  0.53300  Biso   1.000  C
  C91      1.0000 0.08051  0.25164  0.53300  Biso   1.000  C
  C92      1.0000 0.58152  0.21769  0.65077  Biso   1.000  C
  H96      1.0000 0.46103  0.19108  0.68018  Biso   1.000  H
  H97      1.0000 0.66973  0.20574  0.61623  Biso   1.000  H
  H98      1.0000 0.78516  0.84918  0.51335  Biso   1.000  H
  H99      1.0000 0.66949  0.79067  0.52960  Biso   1.000  H
  C93      1.0000 0.78299  0.93034  0.55233  Biso   1.000  C
  H100     1.0000 0.06402  0.21481  0.51335  Biso   1.000  H
  H101     1.0000 0.12122  0.33049  0.52960  Biso   1.000  H
  C94      1.0000 0.14733  0.21703  0.55233  Biso   1.000  C
  C95      1.0000 0.66662  0.33338  0.66231  Biso   1.000  C
  H102     1.0000 0.86236  0.96849  0.55493  Biso   1.000  H
  H103     1.0000 0.76453  0.97961  0.54164  Biso   1.000  H
  C96      1.0000 0.72862  0.90422  0.58358  Biso   1.000  C
  H104     1.0000 0.10612  0.13760  0.55493  Biso   1.000  H
  H105     1.0000 0.21508  0.23549  0.54164  Biso   1.000  H
  C97      1.0000 0.17560  0.27141  0.58358  Biso   1.000  C
  C98      1.0000 0.63618  0.41849  0.65077  Biso   1.000  C
  C99      1.0000 0.78233  0.36386  0.65077  Biso   1.000  C
  C100     1.0000 0.66662  0.33338  0.69779  Biso   1.000  C
  H106     1.0000 0.75340  0.97277  0.59455  Biso   1.000  H
  H107     1.0000 0.75338  0.86112  0.59494  Biso   1.000  H
  C101     1.0000 0.60473  0.84225  0.58308  Biso   1.000  C
  C102     1.0000 0.23752  0.39525  0.58308  Biso   1.000  C
  H108     1.0000 0.21942  0.24661  0.59455  Biso   1.000  H
  H109     1.0000 0.10768  0.24661  0.59494  Biso   1.000  H
  C103     1.0000 0.68153  0.52190  0.66389  Biso   1.000  C
  C104     1.0000 0.56693  0.39830  0.62594  Biso   1.000  C
  C105     1.0000 0.84034  0.31846  0.66389  Biso   1.000  C
  C106     1.0000 0.83135  0.43307  0.62594  Biso   1.000  C
  H110     1.0000 0.67620  0.27405  0.70510  Biso   1.000  H
  H111     1.0000 0.72592  0.40218  0.70510  Biso   1.000  H
  H112     1.0000 0.59779  0.32373  0.70510  Biso   1.000  H
  C107     1.0000 0.55035  0.81399  0.61436  Biso   1.000  C
  H113     1.0000 0.57998  0.88609  0.57214  Biso   1.000  H
  H114     1.0000 0.57992  0.77436  0.57173  Biso   1.000  H
  C108     1.0000 0.26364  0.44964  0.61436  Biso   1.000  C
  H115     1.0000 0.30615  0.42006  0.57214  Biso   1.000  H
  H116     1.0000 0.19440  0.42006  0.57173  Biso   1.000  H
  C109     1.0000 0.65757  0.60100  0.65361  Biso   1.000  C
  H117     1.0000 0.73002  0.53895  0.68018  Biso   1.000  H
  C110     1.0000 0.54264  0.47617  0.61532  Biso   1.000  C
  H118     1.0000 0.53604  0.33024  0.61623  Biso   1.000  H
  C111     1.0000 0.94345  0.34244  0.65361  Biso   1.000  C
  H119     1.0000 0.80893  0.26993  0.68018  Biso   1.000  H
  C112     1.0000 0.93356  0.45738  0.61532  Biso   1.000  C
  H120     1.0000 0.79421  0.46397  0.61623  Biso   1.000  H
  C113     1.0000 0.58494  0.74717  0.63366  Biso   1.000  C
  H121     1.0000 0.47096  0.77279  0.61173  Biso   1.000  H
  H122     1.0000 0.56885  0.88180  0.62503  Biso   1.000  H
  C114     1.0000 0.16220  0.41503  0.63366  Biso   1.000  C
  H123     1.0000 0.30185  0.52907  0.61173  Biso   1.000  H
  H124     1.0000 0.31292  0.43118  0.62503  Biso   1.000  H
  C115     1.0000 0.58691  0.57784  0.62930  Biso   1.000  C
  H125     1.0000 0.68895  0.66947  0.66311  Biso   1.000  H
  H126     1.0000 0.49611  0.46018  0.59859  Biso   1.000  H
  C116     1.0000 0.99096  0.41305  0.62930  Biso   1.000  C
  H127     1.0000 0.98055  0.31105  0.66311  Biso   1.000  H
  H128     1.0000 0.96400  0.50385  0.59859  Biso   1.000  H
  O11      1.0000 0.55486  0.64805  0.61751  Biso   1.000  O
  H129     1.0000 0.54816  0.73069  0.65331  Biso   1.000  H
  H130     1.0000 0.66381  0.78787  0.63707  Biso   1.000  H
  O12      1.0000 0.09318  0.44510  0.61751  Biso   1.000  O
  H131     1.0000 0.18255  0.45186  0.65331  Biso   1.000  H
  H132     1.0000 0.12406  0.33618  0.63707  Biso   1.000  H
  C117     1.0000 0.00007  0.00000  0.63556  Biso   1.000  C
  C118     1.0000 0.00007  0.00000  0.67104  Biso   1.000  C
  H133     1.0000 0.06886  0.00956  0.62825  Biso   1.000  H
  H134     1.0000 0.06890  0.00964  0.62825  Biso   1.000  H
  H135     1.0000 0.94077  0.93120  0.62825  Biso   1.000  H
  H136     1.0000 0.99045  0.05924  0.62825  Biso   1.000  H
  H137     1.0000 0.99049  0.05933  0.62825  Biso   1.000  H
  C119     1.0000 0.08517  0.11568  0.68255  Biso   1.000  C
  C120     1.0000 0.88432  0.96943  0.68255  Biso   1.000  C
  C121     1.0000 0.88436  0.96951  0.68255  Biso   1.000  C
  C122     1.0000 0.03051  0.91488  0.68255  Biso   1.000  C
  C123     1.0000 0.18853  0.17369  0.66944  Biso   1.000  C
  C124     1.0000 0.06490  0.16463  0.70739  Biso   1.000  C
  C125     1.0000 0.06494  0.16471  0.70739  Biso   1.000  C
  C126     1.0000 0.83534  0.90030  0.70739  Biso   1.000  C
  C127     1.0000 0.82631  0.01483  0.66944  Biso   1.000  C
  C128     1.0000 0.82635  0.01491  0.66944  Biso   1.000  C
  C129     1.0000 0.98516  0.81148  0.66944  Biso   1.000  C
  C130     1.0000 0.09976  0.93507  0.70739  Biso   1.000  C
  H138     1.0000 0.20566  0.14230  0.65315  Biso   1.000  H
  C131     1.0000 0.26761  0.27677  0.67972  Biso   1.000  C
  C132     1.0000 0.14286  0.26688  0.71801  Biso   1.000  C
  H139     1.0000 0.99691  0.12755  0.71710  Biso   1.000  H
  H140     1.0000 0.99695  0.12763  0.71710  Biso   1.000  H
  C133     1.0000 0.73313  0.87599  0.71801  Biso   1.000  C
  H141     1.0000 0.87248  0.86940  0.71710  Biso   1.000  H
  C134     1.0000 0.72320  0.99085  0.67972  Biso   1.000  C
  C135     1.0000 0.72324  0.99094  0.67972  Biso   1.000  C
  H142     1.0000 0.85771  0.06336  0.65315  Biso   1.000  H
  H143     1.0000 0.85775  0.06345  0.65315  Biso   1.000  H
  H144     1.0000 0.93663  0.79434  0.65315  Biso   1.000  H
  H145     1.0000 0.93667  0.79442  0.65315  Biso   1.000  H
  C136     1.0000 0.00912  0.73238  0.67972  Biso   1.000  C
  H146     1.0000 0.13061  0.00305  0.71710  Biso   1.000  H
  H147     1.0000 0.13065  0.00313  0.71710  Biso   1.000  H
  C137     1.0000 0.12405  0.85721  0.71801  Biso   1.000  C
  H148     1.0000 0.33610  0.31385  0.67022  Biso   1.000  H
  C138     1.0000 0.24453  0.32423  0.70403  Biso   1.000  C
  H149     1.0000 0.33614  0.31393  0.67022  Biso   1.000  H
  C139     1.0000 0.24457  0.32431  0.70403  Biso   1.000  C
  H150     1.0000 0.12685  0.29737  0.73473  Biso   1.000  H
  C140     1.0000 0.67569  0.92024  0.70403  Biso   1.000  C
  H151     1.0000 0.70265  0.82944  0.73473  Biso   1.000  H
  C141     1.0000 0.67573  0.92032  0.70403  Biso   1.000  C
  H152     1.0000 0.70269  0.82952  0.73473  Biso   1.000  H
  H153     1.0000 0.68609  0.02225  0.67022  Biso   1.000  H
  H154     1.0000 0.68613  0.02233  0.67022  Biso   1.000  H
  H155     1.0000 0.97774  0.66391  0.67022  Biso   1.000  H
  C142     1.0000 0.07974  0.75545  0.70403  Biso   1.000  C
  C143     1.0000 0.07978  0.75553  0.70403  Biso   1.000  C
  H156     1.0000 0.17058  0.87319  0.73473  Biso   1.000  H
  O13      1.0000 0.31471  0.42648  0.71582  Biso   1.000  O
  O14      1.0000 0.31475  0.42657  0.71582  Biso   1.000  O
  O15      1.0000 0.57346  0.88819  0.71582  Biso   1.000  O
  O16      1.0000 0.57351  0.88827  0.71582  Biso   1.000  O
  O17      1.0000 0.11178  0.68525  0.71582  Biso   1.000  O
  O18      1.0000 0.11182  0.68533  0.71582  Biso   1.000  O
  C144     1.0000 0.41381  0.49553  0.69969  Biso   1.000  C
  C145     1.0000 0.41385  0.49561  0.69969  Biso   1.000  C
  C146     1.0000 0.50444  0.91826  0.69969  Biso   1.000  C
  C147     1.0000 0.50448  0.91835  0.69969  Biso   1.000  C
  C148     1.0000 0.08174  0.58621  0.69969  Biso   1.000  C
  H157     1.0000 0.39737  0.51588  0.68002  Biso   1.000  H
  H158     1.0000 0.45454  0.45738  0.69626  Biso   1.000  H
  C149     1.0000 0.48066  0.59696  0.71899  Biso   1.000  C
  C150     1.0000 0.48070  0.59704  0.71899  Biso   1.000  C
  C151     1.0000 0.40301  0.88366  0.71899  Biso   1.000  C
  H159     1.0000 0.48410  0.88143  0.68002  Biso   1.000  H
  H160     1.0000 0.54263  0.99720  0.69626  Biso   1.000  H
  C152     1.0000 0.40305  0.88374  0.71899  Biso   1.000  C
  H161     1.0000 0.48414  0.88151  0.68002  Biso   1.000  H
  H162     1.0000 0.11853  0.60269  0.68002  Biso   1.000  H
  H163     1.0000 0.00288  0.54550  0.69626  Biso   1.000  H
  C153     1.0000 0.11633  0.51938  0.71899  Biso   1.000  C
  H164     1.0000 0.43947  0.63519  0.72160  Biso   1.000  H
  H165     1.0000 0.54839  0.64623  0.70830  Biso   1.000  H
  C154     1.0000 0.50891  0.57084  0.75025  Biso   1.000  C
  H166     1.0000 0.54843  0.64632  0.70830  Biso   1.000  H
  C155     1.0000 0.50895  0.57092  0.75025  Biso   1.000  C
  C156     1.0000 0.42913  0.93804  0.75025  Biso   1.000  C
  H167     1.0000 0.36479  0.80423  0.72160  Biso   1.000  H
  H168     1.0000 0.35377  0.90220  0.70830  Biso   1.000  H
  C157     1.0000 0.42917  0.93812  0.75025  Biso   1.000  C
  H169     1.0000 0.36483  0.80431  0.72160  Biso   1.000  H
  H170     1.0000 0.19573  0.56058  0.72160  Biso   1.000  H
  H171     1.0000 0.09784  0.45157  0.70830  Biso   1.000  H
  C158     1.0000 0.06192  0.49104  0.75025  Biso   1.000  C
  C159     1.0000 0.06196  0.49112  0.75025  Biso   1.000  C
  C160     1.0000 0.57088  0.50896  0.74974  Biso   1.000  C
  H172     1.0000 0.55272  0.63948  0.76121  Biso   1.000  H
  H173     1.0000 0.44105  0.52775  0.76160  Biso   1.000  H
  H174     1.0000 0.44110  0.52783  0.76160  Biso   1.000  H
  H175     1.0000 0.36050  0.91324  0.76121  Biso   1.000  H
  H176     1.0000 0.47225  0.91324  0.76160  Biso   1.000  H
  H177     1.0000 0.36054  0.91332  0.76121  Biso   1.000  H
  H178     1.0000 0.47229  0.91332  0.76160  Biso   1.000  H
  C161     1.0000 0.49109  0.06196  0.74974  Biso   1.000  C
  C162     1.0000 0.93807  0.42916  0.74974  Biso   1.000  C
  H179     1.0000 0.08671  0.44729  0.76121  Biso   1.000  H
  H180     1.0000 0.08673  0.55893  0.76160  Biso   1.000  H
  H181     1.0000 0.08677  0.55902  0.76160  Biso   1.000  H
  C163     1.0000 0.59695  0.48062  0.78102  Biso   1.000  C
  H182     1.0000 0.63942  0.55271  0.73880  Biso   1.000  H
  H183     1.0000 0.52780  0.44107  0.73841  Biso   1.000  H
  C164     1.0000 0.59699  0.48070  0.78102  Biso   1.000  C
  H184     1.0000 0.63946  0.55280  0.73880  Biso   1.000  H
  C165     1.0000 0.51935  0.11634  0.78102  Biso   1.000  C
  H185     1.0000 0.44726  0.08676  0.73880  Biso   1.000  H
  H186     1.0000 0.55901  0.08676  0.73841  Biso   1.000  H
  C166     1.0000 0.88369  0.40304  0.78102  Biso   1.000  C
  H187     1.0000 0.91324  0.36052  0.73880  Biso   1.000  H
  H188     1.0000 0.91331  0.47225  0.73841  Biso   1.000  H
  H189     1.0000 0.91328  0.36061  0.73880  Biso   1.000  H
  C167     1.0000 0.49554  0.41379  0.80032  Biso   1.000  C
  H190     1.0000 0.63515  0.43942  0.77839  Biso   1.000  H
  H191     1.0000 0.64627  0.54843  0.79171  Biso   1.000  H
  C168     1.0000 0.49558  0.41388  0.80032  Biso   1.000  C
  H192     1.0000 0.63519  0.43950  0.77839  Biso   1.000  H
  H193     1.0000 0.64631  0.54851  0.79171  Biso   1.000  H
  C169     1.0000 0.58618  0.08174  0.80032  Biso   1.000  C
  H194     1.0000 0.56057  0.19577  0.77839  Biso   1.000  H
  H195     1.0000 0.45157  0.09780  0.79171  Biso   1.000  H
  H196     1.0000 0.45161  0.09789  0.79171  Biso   1.000  H
  C170     1.0000 0.91828  0.50447  0.80032  Biso   1.000  C
  H197     1.0000 0.80428  0.36481  0.77839  Biso   1.000  H
  H198     1.0000 0.90216  0.35377  0.79171  Biso   1.000  H
  H199     1.0000 0.80432  0.36489  0.77839  Biso   1.000  H
  O19      1.0000 0.42654  0.31475  0.78417  Biso   1.000  O
  H200     1.0000 0.51584  0.39731  0.81997  Biso   1.000  H
  H201     1.0000 0.45738  0.45450  0.80375  Biso   1.000  H
  H202     1.0000 0.51588  0.39740  0.81997  Biso   1.000  H
  H203     1.0000 0.45742  0.45458  0.80375  Biso   1.000  H
  O20      1.0000 0.68528  0.11181  0.78417  Biso   1.000  O
  H204     1.0000 0.60267  0.11857  0.81997  Biso   1.000  H
  H205     1.0000 0.54543  0.00280  0.80375  Biso   1.000  H
  H206     1.0000 0.54547  0.00288  0.80375  Biso   1.000  H
  O21      1.0000 0.88823  0.57352  0.78417  Biso   1.000  O
  H207     1.0000 0.88149  0.48412  0.81997  Biso   1.000  H
  H208     1.0000 0.99715  0.54262  0.80375  Biso   1.000  H
  H209     1.0000 0.88153  0.48420  0.81997  Biso   1.000  H
  H210     1.0000 0.99720  0.54270  0.80375  Biso   1.000  H
  C171     1.0000 0.32429  0.24455  0.79598  Biso   1.000  C
  C172     1.0000 0.75545  0.07976  0.79598  Biso   1.000  C
  C173     1.0000 0.92030  0.67577  0.79598  Biso   1.000  C
  C174     1.0000 0.27674  0.26762  0.82029  Biso   1.000  C
  C175     1.0000 0.26684  0.14279  0.78198  Biso   1.000  C
  C176     1.0000 0.27678  0.26771  0.82029  Biso   1.000  C
  C177     1.0000 0.26688  0.14288  0.78198  Biso   1.000  C
  C178     1.0000 0.73235  0.00915  0.82029  Biso   1.000  C
  C179     1.0000 0.85714  0.12401  0.78198  Biso   1.000  C
  C180     1.0000 0.85718  0.12409  0.78198  Biso   1.000  C
  C181     1.0000 0.99084  0.72323  0.82029  Biso   1.000  C
  C182     1.0000 0.87598  0.73312  0.78198  Biso   1.000  C
  C183     1.0000 0.99088  0.72331  0.82029  Biso   1.000  C
  C184     1.0000 0.87602  0.73320  0.78198  Biso   1.000  C
  C185     1.0000 0.17368  0.18852  0.83055  Biso   1.000  C
  H211     1.0000 0.31383  0.33609  0.82977  Biso   1.000  H
  C186     1.0000 0.17372  0.18860  0.83055  Biso   1.000  C
  H212     1.0000 0.31387  0.33618  0.82977  Biso   1.000  H
  C187     1.0000 0.16469  0.06493  0.79260  Biso   1.000  C
  H213     1.0000 0.29738  0.12681  0.76526  Biso   1.000  H
  C188     1.0000 0.16473  0.06501  0.79260  Biso   1.000  C
  H214     1.0000 0.29743  0.12689  0.76526  Biso   1.000  H
  C189     1.0000 0.81148  0.98517  0.83055  Biso   1.000  C
  H215     1.0000 0.66384  0.97775  0.82977  Biso   1.000  H
  H216     1.0000 0.87321  0.17056  0.76526  Biso   1.000  H
  C190     1.0000 0.93504  0.09970  0.79260  Biso   1.000  C
  C191     1.0000 0.93508  0.09978  0.79260  Biso   1.000  C
  C192     1.0000 0.01484  0.82631  0.83055  Biso   1.000  C
  H217     1.0000 0.02225  0.68615  0.82977  Biso   1.000  H
  C193     1.0000 0.01488  0.82639  0.83055  Biso   1.000  C
  H218     1.0000 0.82948  0.70263  0.76526  Biso   1.000  H
  C194     1.0000 0.90028  0.83537  0.79260  Biso   1.000  C
  C195     1.0000 0.11563  0.08512  0.81744  Biso   1.000  C
  H219     1.0000 0.14229  0.20566  0.84686  Biso   1.000  H
  C196     1.0000 0.11567  0.08520  0.81744  Biso   1.000  C
  H220     1.0000 0.12756  0.99695  0.78289  Biso   1.000  H
  H221     1.0000 0.79435  0.93664  0.84686  Biso   1.000  H
  C197     1.0000 0.91488  0.03057  0.81744  Biso   1.000  C
  H222     1.0000 0.00308  0.13060  0.78289  Biso   1.000  H
  H223     1.0000 0.00312  0.13068  0.78289  Biso   1.000  H
  C198     1.0000 0.96949  0.88432  0.81744  Biso   1.000  C
  C199     1.0000 0.96953  0.88440  0.81744  Biso   1.000  C
  H224     1.0000 0.06336  0.85770  0.84686  Biso   1.000  H
  H225     1.0000 0.06340  0.85778  0.84686  Biso   1.000  H
  H226     1.0000 0.86936  0.87245  0.78289  Biso   1.000  H
  C200     1.0000 0.99993  0.00000  0.82897  Biso   1.000  C
  C201     1.0000 0.99997  0.00008  0.82897  Biso   1.000  C
  C202     1.0000 0.99993  0.00000  0.86445  Biso   1.000  C
  C203     1.0000 0.99997  0.00008  0.86445  Biso   1.000  C
  H227     1.0000 0.00957  0.06880  0.87176  Biso   1.000  H
  H228     1.0000 0.00961  0.06888  0.87176  Biso   1.000  H
  H229     1.0000 0.93120  0.94076  0.87176  Biso   1.000  H
  H230     1.0000 0.05930  0.99044  0.87176  Biso   1.000  H
  C204     1.0000 0.00007  0.00000  0.63556  Biso   1.000  C
  C205     1.0000 0.00007  0.00000  0.67104  Biso   1.000  C
  H231     1.0000 0.06886  0.00956  0.62825  Biso   1.000  H
  H232     1.0000 0.06890  0.00964  0.62825  Biso   1.000  H
  H233     1.0000 0.94077  0.93120  0.62825  Biso   1.000  H
  H234     1.0000 0.99045  0.05924  0.62825  Biso   1.000  H
  H235     1.0000 0.99049  0.05933  0.62825  Biso   1.000  H
  C206     1.0000 0.08517  0.11568  0.68255  Biso   1.000  C
  C207     1.0000 0.88432  0.96943  0.68255  Biso   1.000  C
  C208     1.0000 0.88436  0.96951  0.68255  Biso   1.000  C
  C209     1.0000 0.03051  0.91488  0.68255  Biso   1.000  C
  C210     1.0000 0.18853  0.17369  0.66944  Biso   1.000  C
  C211     1.0000 0.06490  0.16463  0.70739  Biso   1.000  C
  C212     1.0000 0.06494  0.16471  0.70739  Biso   1.000  C
  C213     1.0000 0.83534  0.90030  0.70739  Biso   1.000  C
  C214     1.0000 0.82631  0.01483  0.66944  Biso   1.000  C
  C215     1.0000 0.82635  0.01491  0.66944  Biso   1.000  C
  C216     1.0000 0.98516  0.81148  0.66944  Biso   1.000  C
  C217     1.0000 0.09976  0.93507  0.70739  Biso   1.000  C
  H236     1.0000 0.20566  0.14230  0.65315  Biso   1.000  H
  C218     1.0000 0.26761  0.27677  0.67972  Biso   1.000  C
  C219     1.0000 0.14286  0.26688  0.71801  Biso   1.000  C
  H237     1.0000 0.99691  0.12755  0.71710  Biso   1.000  H
  H238     1.0000 0.99695  0.12763  0.71710  Biso   1.000  H
  C220     1.0000 0.73313  0.87599  0.71801  Biso   1.000  C
  H239     1.0000 0.87248  0.86940  0.71710  Biso   1.000  H
  C221     1.0000 0.72320  0.99085  0.67972  Biso   1.000  C
  C222     1.0000 0.72324  0.99094  0.67972  Biso   1.000  C
  H240     1.0000 0.85771  0.06336  0.65315  Biso   1.000  H
  H241     1.0000 0.85775  0.06345  0.65315  Biso   1.000  H
  H242     1.0000 0.93663  0.79434  0.65315  Biso   1.000  H
  H243     1.0000 0.93667  0.79442  0.65315  Biso   1.000  H
  C223     1.0000 0.00912  0.73238  0.67972  Biso   1.000  C
  H244     1.0000 0.13061  0.00305  0.71710  Biso   1.000  H
  H245     1.0000 0.13065  0.00313  0.71710  Biso   1.000  H
  C224     1.0000 0.12405  0.85721  0.71801  Biso   1.000  C
  H246     1.0000 0.33610  0.31385  0.67022  Biso   1.000  H
  C225     1.0000 0.24453  0.32423  0.70403  Biso   1.000  C
  H247     1.0000 0.33614  0.31393  0.67022  Biso   1.000  H
  C226     1.0000 0.24457  0.32431  0.70403  Biso   1.000  C
  H248     1.0000 0.12685  0.29737  0.73473  Biso   1.000  H
  C227     1.0000 0.67569  0.92024  0.70403  Biso   1.000  C
  H249     1.0000 0.70265  0.82944  0.73473  Biso   1.000  H
  C228     1.0000 0.67573  0.92032  0.70403  Biso   1.000  C
  H250     1.0000 0.70269  0.82952  0.73473  Biso   1.000  H
  H251     1.0000 0.68609  0.02225  0.67022  Biso   1.000  H
  H252     1.0000 0.68613  0.02233  0.67022  Biso   1.000  H
  H253     1.0000 0.97774  0.66391  0.67022  Biso   1.000  H
  C229     1.0000 0.07974  0.75545  0.70403  Biso   1.000  C
  C230     1.0000 0.07978  0.75553  0.70403  Biso   1.000  C
  H254     1.0000 0.17058  0.87319  0.73473  Biso   1.000  H
  O22      1.0000 0.31471  0.42648  0.71582  Biso   1.000  O
  O23      1.0000 0.31475  0.42657  0.71582  Biso   1.000  O
  O24      1.0000 0.57346  0.88819  0.71582  Biso   1.000  O
  O25      1.0000 0.57351  0.88827  0.71582  Biso   1.000  O
  O26      1.0000 0.11178  0.68525  0.71582  Biso   1.000  O
  O27      1.0000 0.11182  0.68533  0.71582  Biso   1.000  O
  C231     1.0000 0.41381  0.49553  0.69969  Biso   1.000  C
  C232     1.0000 0.41385  0.49561  0.69969  Biso   1.000  C
  C233     1.0000 0.50444  0.91826  0.69969  Biso   1.000  C
  C234     1.0000 0.50448  0.91835  0.69969  Biso   1.000  C
  C235     1.0000 0.08174  0.58621  0.69969  Biso   1.000  C
  H255     1.0000 0.39737  0.51588  0.68002  Biso   1.000  H
  H256     1.0000 0.45454  0.45738  0.69626  Biso   1.000  H
  C236     1.0000 0.48066  0.59696  0.71899  Biso   1.000  C
  C237     1.0000 0.48070  0.59704  0.71899  Biso   1.000  C
  C238     1.0000 0.40301  0.88366  0.71899  Biso   1.000  C
  H257     1.0000 0.48410  0.88143  0.68002  Biso   1.000  H
  H258     1.0000 0.54263  0.99720  0.69626  Biso   1.000  H
  C239     1.0000 0.40305  0.88374  0.71899  Biso   1.000  C
  H259     1.0000 0.48414  0.88151  0.68002  Biso   1.000  H
  H260     1.0000 0.11853  0.60269  0.68002  Biso   1.000  H
  H261     1.0000 0.00288  0.54550  0.69626  Biso   1.000  H
  C240     1.0000 0.11633  0.51938  0.71899  Biso   1.000  C
  H262     1.0000 0.43947  0.63519  0.72160  Biso   1.000  H
  H263     1.0000 0.54839  0.64623  0.70830  Biso   1.000  H
  C241     1.0000 0.50891  0.57084  0.75025  Biso   1.000  C
  H264     1.0000 0.54843  0.64632  0.70830  Biso   1.000  H
  C242     1.0000 0.50895  0.57092  0.75025  Biso   1.000  C
  C243     1.0000 0.42913  0.93804  0.75025  Biso   1.000  C
  H265     1.0000 0.36479  0.80423  0.72160  Biso   1.000  H
  H266     1.0000 0.35377  0.90220  0.70830  Biso   1.000  H
  C244     1.0000 0.42917  0.93812  0.75025  Biso   1.000  C
  H267     1.0000 0.36483  0.80431  0.72160  Biso   1.000  H
  H268     1.0000 0.19573  0.56058  0.72160  Biso   1.000  H
  H269     1.0000 0.09784  0.45157  0.70830  Biso   1.000  H
  C245     1.0000 0.06192  0.49104  0.75025  Biso   1.000  C
  C246     1.0000 0.06196  0.49112  0.75025  Biso   1.000  C
  C247     1.0000 0.57088  0.50896  0.74974  Biso   1.000  C
  H270     1.0000 0.55272  0.63948  0.76121  Biso   1.000  H
  H271     1.0000 0.44105  0.52775  0.76160  Biso   1.000  H
  H272     1.0000 0.44110  0.52783  0.76160  Biso   1.000  H
  H273     1.0000 0.36050  0.91324  0.76121  Biso   1.000  H
  H274     1.0000 0.47225  0.91324  0.76160  Biso   1.000  H
  H275     1.0000 0.36054  0.91332  0.76121  Biso   1.000  H
  H276     1.0000 0.47229  0.91332  0.76160  Biso   1.000  H
  C248     1.0000 0.49109  0.06196  0.74974  Biso   1.000  C
  C249     1.0000 0.93807  0.42916  0.74974  Biso   1.000  C
  H277     1.0000 0.08671  0.44729  0.76121  Biso   1.000  H
  H278     1.0000 0.08673  0.55893  0.76160  Biso   1.000  H
  H279     1.0000 0.08677  0.55902  0.76160  Biso   1.000  H
  H280     1.0000 0.52780  0.44107  0.73841  Biso   1.000  H
  C250     1.0000 0.59695  0.48062  0.78102  Biso   1.000  C
  H281     1.0000 0.63942  0.55271  0.73880  Biso   1.000  H
  C251     1.0000 0.59699  0.48070  0.78102  Biso   1.000  C
  H282     1.0000 0.63946  0.55280  0.73880  Biso   1.000  H
  C252     1.0000 0.51935  0.11634  0.78102  Biso   1.000  C
  H283     1.0000 0.44726  0.08676  0.73880  Biso   1.000  H
  H284     1.0000 0.55901  0.08676  0.73841  Biso   1.000  H
  C253     1.0000 0.88369  0.40304  0.78102  Biso   1.000  C
  H285     1.0000 0.91324  0.36052  0.73880  Biso   1.000  H
  H286     1.0000 0.91331  0.47225  0.73841  Biso   1.000  H
  H287     1.0000 0.91328  0.36061  0.73880  Biso   1.000  H
  C254     1.0000 0.49554  0.41379  0.80032  Biso   1.000  C
  H288     1.0000 0.63515  0.43942  0.77839  Biso   1.000  H
  H289     1.0000 0.64627  0.54843  0.79171  Biso   1.000  H
  C255     1.0000 0.49558  0.41388  0.80032  Biso   1.000  C
  H290     1.0000 0.63519  0.43950  0.77839  Biso   1.000  H
  H291     1.0000 0.64631  0.54851  0.79171  Biso   1.000  H
  C256     1.0000 0.58618  0.08174  0.80032  Biso   1.000  C
  H292     1.0000 0.56057  0.19577  0.77839  Biso   1.000  H
  H293     1.0000 0.45157  0.09780  0.79171  Biso   1.000  H
  H294     1.0000 0.45161  0.09789  0.79171  Biso   1.000  H
  C257     1.0000 0.91828  0.50447  0.80032  Biso   1.000  C
  H295     1.0000 0.80428  0.36481  0.77839  Biso   1.000  H
  H296     1.0000 0.90216  0.35377  0.79171  Biso   1.000  H
  H297     1.0000 0.80432  0.36489  0.77839  Biso   1.000  H
  O28      1.0000 0.42654  0.31475  0.78417  Biso   1.000  O
  H298     1.0000 0.51584  0.39731  0.81997  Biso   1.000  H
  H299     1.0000 0.45738  0.45450  0.80375  Biso   1.000  H
  H300     1.0000 0.51588  0.39740  0.81997  Biso   1.000  H
  H301     1.0000 0.45742  0.45458  0.80375  Biso   1.000  H
  O29      1.0000 0.68528  0.11181  0.78417  Biso   1.000  O
  H302     1.0000 0.60267  0.11857  0.81997  Biso   1.000  H
  H303     1.0000 0.54543  0.00280  0.80375  Biso   1.000  H
  H304     1.0000 0.54547  0.00288  0.80375  Biso   1.000  H
  O30      1.0000 0.88823  0.57352  0.78417  Biso   1.000  O
  H305     1.0000 0.88149  0.48412  0.81997  Biso   1.000  H
  H306     1.0000 0.99715  0.54262  0.80375  Biso   1.000  H
  H307     1.0000 0.88153  0.48420  0.81997  Biso   1.000  H
  H308     1.0000 0.99720  0.54270  0.80375  Biso   1.000  H
  C258     1.0000 0.32429  0.24455  0.79598  Biso   1.000  C
  C259     1.0000 0.75545  0.07976  0.79598  Biso   1.000  C
  C260     1.0000 0.92030  0.67577  0.79598  Biso   1.000  C
  C261     1.0000 0.27674  0.26762  0.82029  Biso   1.000  C
  C262     1.0000 0.26684  0.14279  0.78198  Biso   1.000  C
  C263     1.0000 0.27678  0.26771  0.82029  Biso   1.000  C
  C264     1.0000 0.26688  0.14288  0.78198  Biso   1.000  C
  C265     1.0000 0.73235  0.00915  0.82029  Biso   1.000  C
  C266     1.0000 0.85714  0.12401  0.78198  Biso   1.000  C
  C267     1.0000 0.85718  0.12409  0.78198  Biso   1.000  C
  C268     1.0000 0.99084  0.72323  0.82029  Biso   1.000  C
  C269     1.0000 0.87598  0.73312  0.78198  Biso   1.000  C
  C270     1.0000 0.99088  0.72331  0.82029  Biso   1.000  C
  C271     1.0000 0.87602  0.73320  0.78198  Biso   1.000  C
  C272     1.0000 0.17368  0.18852  0.83055  Biso   1.000  C
  H309     1.0000 0.31383  0.33609  0.82977  Biso   1.000  H
  C273     1.0000 0.17372  0.18860  0.83055  Biso   1.000  C
  H310     1.0000 0.31387  0.33618  0.82977  Biso   1.000  H
  C274     1.0000 0.16469  0.06493  0.79260  Biso   1.000  C
  H311     1.0000 0.29738  0.12681  0.76526  Biso   1.000  H
  C275     1.0000 0.16473  0.06501  0.79260  Biso   1.000  C
  H312     1.0000 0.29743  0.12689  0.76526  Biso   1.000  H
  C276     1.0000 0.81148  0.98517  0.83055  Biso   1.000  C
  H313     1.0000 0.66384  0.97775  0.82977  Biso   1.000  H
  H314     1.0000 0.87321  0.17056  0.76526  Biso   1.000  H
  C277     1.0000 0.93504  0.09970  0.79260  Biso   1.000  C
  C278     1.0000 0.93508  0.09978  0.79260  Biso   1.000  C
  C279     1.0000 0.01484  0.82631  0.83055  Biso   1.000  C
  H315     1.0000 0.02225  0.68615  0.82977  Biso   1.000  H
  C280     1.0000 0.01488  0.82639  0.83055  Biso   1.000  C
  H316     1.0000 0.82948  0.70263  0.76526  Biso   1.000  H
  C281     1.0000 0.90028  0.83537  0.79260  Biso   1.000  C
  H317     1.0000 0.14229  0.20566  0.84686  Biso   1.000  H
  C282     1.0000 0.11563  0.08512  0.81744  Biso   1.000  C
  C283     1.0000 0.11567  0.08520  0.81744  Biso   1.000  C
  H318     1.0000 0.12756  0.99695  0.78289  Biso   1.000  H
  H319     1.0000 0.79435  0.93664  0.84686  Biso   1.000  H
  C284     1.0000 0.91488  0.03057  0.81744  Biso   1.000  C
  H320     1.0000 0.00308  0.13060  0.78289  Biso   1.000  H
  H321     1.0000 0.00312  0.13068  0.78289  Biso   1.000  H
  C285     1.0000 0.96949  0.88432  0.81744  Biso   1.000  C
  C286     1.0000 0.96953  0.88440  0.81744  Biso   1.000  C
  H322     1.0000 0.06336  0.85770  0.84686  Biso   1.000  H
  H323     1.0000 0.06340  0.85778  0.84686  Biso   1.000  H
  H324     1.0000 0.86936  0.87245  0.78289  Biso   1.000  H
  C287     1.0000 0.99993  0.00000  0.82897  Biso   1.000  C
  C288     1.0000 0.99997  0.00008  0.82897  Biso   1.000  C
  C289     1.0000 0.99993  0.00000  0.86445  Biso   1.000  C
  C290     1.0000 0.99997  0.00008  0.86445  Biso   1.000  C
  H325     1.0000 0.00957  0.06880  0.87176  Biso   1.000  H
  H326     1.0000 0.00961  0.06888  0.87176  Biso   1.000  H
  H327     1.0000 0.93120  0.94076  0.87176  Biso   1.000  H
  H328     1.0000 0.05930  0.99044  0.87176  Biso   1.000  H
  C291     1.0000 0.00007  0.00000  0.63556  Biso   1.000  C
  C292     1.0000 0.00007  0.00000  0.67104  Biso   1.000  C
  H329     1.0000 0.94077  0.93120  0.62825  Biso   1.000  H
  H330     1.0000 0.99045  0.05924  0.62825  Biso   1.000  H
  H331     1.0000 0.99049  0.05933  0.62825  Biso   1.000  H
  H332     1.0000 0.06886  0.00956  0.62825  Biso   1.000  H
  H333     1.0000 0.06890  0.00964  0.62825  Biso   1.000  H
  C293     1.0000 0.08517  0.11568  0.68255  Biso   1.000  C
  C294     1.0000 0.88432  0.96943  0.68255  Biso   1.000  C
  C295     1.0000 0.88436  0.96951  0.68255  Biso   1.000  C
  C296     1.0000 0.03051  0.91488  0.68255  Biso   1.000  C
  C297     1.0000 0.18853  0.17369  0.66944  Biso   1.000  C
  C298     1.0000 0.06490  0.16463  0.70739  Biso   1.000  C
  C299     1.0000 0.06494  0.16471  0.70739  Biso   1.000  C
  C300     1.0000 0.83534  0.90030  0.70739  Biso   1.000  C
  C301     1.0000 0.82631  0.01483  0.66944  Biso   1.000  C
  C302     1.0000 0.82635  0.01491  0.66944  Biso   1.000  C
  C303     1.0000 0.98516  0.81148  0.66944  Biso   1.000  C
  C304     1.0000 0.09976  0.93507  0.70739  Biso   1.000  C
  H334     1.0000 0.20566  0.14230  0.65315  Biso   1.000  H
  C305     1.0000 0.26761  0.27677  0.67972  Biso   1.000  C
  C306     1.0000 0.14286  0.26688  0.71801  Biso   1.000  C
  H335     1.0000 0.99691  0.12755  0.71710  Biso   1.000  H
  H336     1.0000 0.99695  0.12763  0.71710  Biso   1.000  H
  C307     1.0000 0.73313  0.87599  0.71801  Biso   1.000  C
  H337     1.0000 0.87248  0.86940  0.71710  Biso   1.000  H
  C308     1.0000 0.72320  0.99085  0.67972  Biso   1.000  C
  C309     1.0000 0.72324  0.99094  0.67972  Biso   1.000  C
  H338     1.0000 0.85771  0.06336  0.65315  Biso   1.000  H
  H339     1.0000 0.85775  0.06345  0.65315  Biso   1.000  H
  H340     1.0000 0.93663  0.79434  0.65315  Biso   1.000  H
  H341     1.0000 0.93667  0.79442  0.65315  Biso   1.000  H
  C310     1.0000 0.00912  0.73238  0.67972  Biso   1.000  C
  C311     1.0000 0.12405  0.85721  0.71801  Biso   1.000  C
  H342     1.0000 0.13061  0.00305  0.71710  Biso   1.000  H
  H343     1.0000 0.13065  0.00313  0.71710  Biso   1.000  H
  H344     1.0000 0.33610  0.31385  0.67022  Biso   1.000  H
  C312     1.0000 0.24453  0.32423  0.70403  Biso   1.000  C
  H345     1.0000 0.33614  0.31393  0.67022  Biso   1.000  H
  C313     1.0000 0.24457  0.32431  0.70403  Biso   1.000  C
  H346     1.0000 0.12685  0.29737  0.73473  Biso   1.000  H
  C314     1.0000 0.67569  0.92024  0.70403  Biso   1.000  C
  H347     1.0000 0.70265  0.82944  0.73473  Biso   1.000  H
  C315     1.0000 0.67573  0.92032  0.70403  Biso   1.000  C
  H348     1.0000 0.70269  0.82952  0.73473  Biso   1.000  H
  H349     1.0000 0.68609  0.02225  0.67022  Biso   1.000  H
  H350     1.0000 0.68613  0.02233  0.67022  Biso   1.000  H
  H351     1.0000 0.97774  0.66391  0.67022  Biso   1.000  H
  C316     1.0000 0.07974  0.75545  0.70403  Biso   1.000  C
  C317     1.0000 0.07978  0.75553  0.70403  Biso   1.000  C
  H352     1.0000 0.17058  0.87319  0.73473  Biso   1.000  H
  O31      1.0000 0.31471  0.42648  0.71582  Biso   1.000  O
  O32      1.0000 0.31475  0.42657  0.71582  Biso   1.000  O
  O33      1.0000 0.57346  0.88819  0.71582  Biso   1.000  O
  O34      1.0000 0.57351  0.88827  0.71582  Biso   1.000  O
  O35      1.0000 0.11178  0.68525  0.71582  Biso   1.000  O
  O36      1.0000 0.11182  0.68533  0.71582  Biso   1.000  O
  C318     1.0000 0.41381  0.49553  0.69969  Biso   1.000  C
  C319     1.0000 0.41385  0.49561  0.69969  Biso   1.000  C
  C320     1.0000 0.50444  0.91826  0.69969  Biso   1.000  C
  C321     1.0000 0.50448  0.91835  0.69969  Biso   1.000  C
  C322     1.0000 0.08174  0.58621  0.69969  Biso   1.000  C
  H353     1.0000 0.39737  0.51588  0.68002  Biso   1.000  H
  H354     1.0000 0.45454  0.45738  0.69626  Biso   1.000  H
  C323     1.0000 0.48066  0.59696  0.71899  Biso   1.000  C
  C324     1.0000 0.48070  0.59704  0.71899  Biso   1.000  C
  C325     1.0000 0.40301  0.88366  0.71899  Biso   1.000  C
  H355     1.0000 0.48410  0.88143  0.68002  Biso   1.000  H
  H356     1.0000 0.54263  0.99720  0.69626  Biso   1.000  H
  C326     1.0000 0.40305  0.88374  0.71899  Biso   1.000  C
  H357     1.0000 0.48414  0.88151  0.68002  Biso   1.000  H
  H358     1.0000 0.11853  0.60269  0.68002  Biso   1.000  H
  H359     1.0000 0.00288  0.54550  0.69626  Biso   1.000  H
  C327     1.0000 0.11633  0.51938  0.71899  Biso   1.000  C
  H360     1.0000 0.43947  0.63519  0.72160  Biso   1.000  H
  H361     1.0000 0.54839  0.64623  0.70830  Biso   1.000  H
  C328     1.0000 0.50891  0.57084  0.75025  Biso   1.000  C
  H362     1.0000 0.54843  0.64632  0.70830  Biso   1.000  H
  C329     1.0000 0.50895  0.57092  0.75025  Biso   1.000  C
  C330     1.0000 0.42913  0.93804  0.75025  Biso   1.000  C
  H363     1.0000 0.36479  0.80423  0.72160  Biso   1.000  H
  H364     1.0000 0.35377  0.90220  0.70830  Biso   1.000  H
  C331     1.0000 0.42917  0.93812  0.75025  Biso   1.000  C
  H365     1.0000 0.36483  0.80431  0.72160  Biso   1.000  H
  H366     1.0000 0.19573  0.56058  0.72160  Biso   1.000  H
  H367     1.0000 0.09784  0.45157  0.70830  Biso   1.000  H
  C332     1.0000 0.06192  0.49104  0.75025  Biso   1.000  C
  C333     1.0000 0.06196  0.49112  0.75025  Biso   1.000  C
  C334     1.0000 0.57088  0.50896  0.74974  Biso   1.000  C
  H368     1.0000 0.55272  0.63948  0.76121  Biso   1.000  H
  H369     1.0000 0.44105  0.52775  0.76160  Biso   1.000  H
  H370     1.0000 0.44110  0.52783  0.76160  Biso   1.000  H
  H371     1.0000 0.36050  0.91324  0.76121  Biso   1.000  H
  H372     1.0000 0.47225  0.91324  0.76160  Biso   1.000  H
  H373     1.0000 0.36054  0.91332  0.76121  Biso   1.000  H
  H374     1.0000 0.47229  0.91332  0.76160  Biso   1.000  H
  C335     1.0000 0.49109  0.06196  0.74974  Biso   1.000  C
  C336     1.0000 0.93807  0.42916  0.74974  Biso   1.000  C
  H375     1.0000 0.08671  0.44729  0.76121  Biso   1.000  H
  H376     1.0000 0.08673  0.55893  0.76160  Biso   1.000  H
  H377     1.0000 0.08677  0.55902  0.76160  Biso   1.000  H
  H378     1.0000 0.52780  0.44107  0.73841  Biso   1.000  H
  C337     1.0000 0.59695  0.48062  0.78102  Biso   1.000  C
  H379     1.0000 0.63942  0.55271  0.73880  Biso   1.000  H
  C338     1.0000 0.59699  0.48070  0.78102  Biso   1.000  C
  H380     1.0000 0.63946  0.55280  0.73880  Biso   1.000  H
  C339     1.0000 0.51935  0.11634  0.78102  Biso   1.000  C
  H381     1.0000 0.44726  0.08676  0.73880  Biso   1.000  H
  H382     1.0000 0.55901  0.08676  0.73841  Biso   1.000  H
  C340     1.0000 0.88369  0.40304  0.78102  Biso   1.000  C
  H383     1.0000 0.91324  0.36052  0.73880  Biso   1.000  H
  H384     1.0000 0.91331  0.47225  0.73841  Biso   1.000  H
  H385     1.0000 0.91328  0.36061  0.73880  Biso   1.000  H
  C341     1.0000 0.49554  0.41379  0.80032  Biso   1.000  C
  H386     1.0000 0.63515  0.43942  0.77839  Biso   1.000  H
  H387     1.0000 0.64627  0.54843  0.79171  Biso   1.000  H
  C342     1.0000 0.49558  0.41388  0.80032  Biso   1.000  C
  H388     1.0000 0.63519  0.43950  0.77839  Biso   1.000  H
  H389     1.0000 0.64631  0.54851  0.79171  Biso   1.000  H
  C343     1.0000 0.58618  0.08174  0.80032  Biso   1.000  C
  H390     1.0000 0.56057  0.19577  0.77839  Biso   1.000  H
  H391     1.0000 0.45157  0.09780  0.79171  Biso   1.000  H
  H392     1.0000 0.45161  0.09789  0.79171  Biso   1.000  H
  C344     1.0000 0.91828  0.50447  0.80032  Biso   1.000  C
  H393     1.0000 0.80428  0.36481  0.77839  Biso   1.000  H
  H394     1.0000 0.90216  0.35377  0.79171  Biso   1.000  H
  H395     1.0000 0.80432  0.36489  0.77839  Biso   1.000  H
  O37      1.0000 0.42654  0.31475  0.78417  Biso   1.000  O
  H396     1.0000 0.51584  0.39731  0.81997  Biso   1.000  H
  H397     1.0000 0.45738  0.45450  0.80375  Biso   1.000  H
  H398     1.0000 0.51588  0.39740  0.81997  Biso   1.000  H
  H399     1.0000 0.45742  0.45458  0.80375  Biso   1.000  H
  O38      1.0000 0.68528  0.11181  0.78417  Biso   1.000  O
  H400     1.0000 0.60267  0.11857  0.81997  Biso   1.000  H
  H401     1.0000 0.54543  0.00280  0.80375  Biso   1.000  H
  H402     1.0000 0.54547  0.00288  0.80375  Biso   1.000  H
  O39      1.0000 0.88823  0.57352  0.78417  Biso   1.000  O
  H403     1.0000 0.88149  0.48412  0.81997  Biso   1.000  H
  H404     1.0000 0.99715  0.54262  0.80375  Biso   1.000  H
  H405     1.0000 0.88153  0.48420  0.81997  Biso   1.000  H
  H406     1.0000 0.99720  0.54270  0.80375  Biso   1.000  H
  C345     1.0000 0.32429  0.24455  0.79598  Biso   1.000  C
  C346     1.0000 0.75545  0.07976  0.79598  Biso   1.000  C
  C347     1.0000 0.92030  0.67577  0.79598  Biso   1.000  C
  C348     1.0000 0.27674  0.26762  0.82029  Biso   1.000  C
  C349     1.0000 0.26684  0.14279  0.78198  Biso   1.000  C
  C350     1.0000 0.27678  0.26771  0.82029  Biso   1.000  C
  C351     1.0000 0.26688  0.14288  0.78198  Biso   1.000  C
  C352     1.0000 0.73235  0.00915  0.82029  Biso   1.000  C
  C353     1.0000 0.85714  0.12401  0.78198  Biso   1.000  C
  C354     1.0000 0.85718  0.12409  0.78198  Biso   1.000  C
  C355     1.0000 0.99084  0.72323  0.82029  Biso   1.000  C
  C356     1.0000 0.87598  0.73312  0.78198  Biso   1.000  C
  C357     1.0000 0.99088  0.72331  0.82029  Biso   1.000  C
  C358     1.0000 0.87602  0.73320  0.78198  Biso   1.000  C
  C359     1.0000 0.17368  0.18852  0.83055  Biso   1.000  C
  H407     1.0000 0.31383  0.33609  0.82977  Biso   1.000  H
  C360     1.0000 0.17372  0.18860  0.83055  Biso   1.000  C
  H408     1.0000 0.31387  0.33618  0.82977  Biso   1.000  H
  C361     1.0000 0.16469  0.06493  0.79260  Biso   1.000  C
  H409     1.0000 0.29738  0.12681  0.76526  Biso   1.000  H
  C362     1.0000 0.16473  0.06501  0.79260  Biso   1.000  C
  H410     1.0000 0.29743  0.12689  0.76526  Biso   1.000  H
  C363     1.0000 0.81148  0.98517  0.83055  Biso   1.000  C
  H411     1.0000 0.66384  0.97775  0.82977  Biso   1.000  H
  H412     1.0000 0.87321  0.17056  0.76526  Biso   1.000  H
  C364     1.0000 0.93504  0.09970  0.79260  Biso   1.000  C
  C365     1.0000 0.93508  0.09978  0.79260  Biso   1.000  C
  C366     1.0000 0.01484  0.82631  0.83055  Biso   1.000  C
  H413     1.0000 0.02225  0.68615  0.82977  Biso   1.000  H
  C367     1.0000 0.01488  0.82639  0.83055  Biso   1.000  C
  H414     1.0000 0.82948  0.70263  0.76526  Biso   1.000  H
  C368     1.0000 0.90028  0.83537  0.79260  Biso   1.000  C
  H415     1.0000 0.14229  0.20566  0.84686  Biso   1.000  H
  C369     1.0000 0.11563  0.08512  0.81744  Biso   1.000  C
  C370     1.0000 0.11567  0.08520  0.81744  Biso   1.000  C
  H416     1.0000 0.12756  0.99695  0.78289  Biso   1.000  H
  C371     1.0000 0.91488  0.03057  0.81744  Biso   1.000  C
  H417     1.0000 0.79435  0.93664  0.84686  Biso   1.000  H
  H418     1.0000 0.00308  0.13060  0.78289  Biso   1.000  H
  H419     1.0000 0.00312  0.13068  0.78289  Biso   1.000  H
  C372     1.0000 0.96949  0.88432  0.81744  Biso   1.000  C
  C373     1.0000 0.96953  0.88440  0.81744  Biso   1.000  C
  H420     1.0000 0.06336  0.85770  0.84686  Biso   1.000  H
  H421     1.0000 0.06340  0.85778  0.84686  Biso   1.000  H
  H422     1.0000 0.86936  0.87245  0.78289  Biso   1.000  H
  C374     1.0000 0.99993  0.00000  0.82897  Biso   1.000  C
  C375     1.0000 0.99997  0.00008  0.82897  Biso   1.000  C
  C376     1.0000 0.99993  0.00000  0.86445  Biso   1.000  C
  C377     1.0000 0.99997  0.00008  0.86445  Biso   1.000  C
  H423     1.0000 0.93120  0.94076  0.87176  Biso   1.000  H
  H424     1.0000 0.05930  0.99044  0.87176  Biso   1.000  H
  H425     1.0000 0.00957  0.06880  0.87176  Biso   1.000  H
  H426     1.0000 0.00961  0.06888  0.87176  Biso   1.000  H
  C378     1.0000 0.00007  0.00000  0.63556  Biso   1.000  C
  C379     1.0000 0.00007  0.00000  0.67104  Biso   1.000  C
  H427     1.0000 0.94077  0.93120  0.62825  Biso   1.000  H
  H428     1.0000 0.99045  0.05924  0.62825  Biso   1.000  H
  H429     1.0000 0.99049  0.05933  0.62825  Biso   1.000  H
  H430     1.0000 0.06886  0.00956  0.62825  Biso   1.000  H
  H431     1.0000 0.06890  0.00964  0.62825  Biso   1.000  H
  C380     1.0000 0.08517  0.11568  0.68255  Biso   1.000  C
  C381     1.0000 0.88432  0.96943  0.68255  Biso   1.000  C
  C382     1.0000 0.88436  0.96951  0.68255  Biso   1.000  C
  C383     1.0000 0.03051  0.91488  0.68255  Biso   1.000  C
  C384     1.0000 0.18853  0.17369  0.66944  Biso   1.000  C
  C385     1.0000 0.06490  0.16463  0.70739  Biso   1.000  C
  C386     1.0000 0.06494  0.16471  0.70739  Biso   1.000  C
  C387     1.0000 0.83534  0.90030  0.70739  Biso   1.000  C
  C388     1.0000 0.82631  0.01483  0.66944  Biso   1.000  C
  C389     1.0000 0.82635  0.01491  0.66944  Biso   1.000  C
  C390     1.0000 0.98516  0.81148  0.66944  Biso   1.000  C
  C391     1.0000 0.09976  0.93507  0.70739  Biso   1.000  C
  H432     1.0000 0.20566  0.14230  0.65315  Biso   1.000  H
  C392     1.0000 0.26761  0.27677  0.67972  Biso   1.000  C
  C393     1.0000 0.14286  0.26688  0.71801  Biso   1.000  C
  H433     1.0000 0.99691  0.12755  0.71710  Biso   1.000  H
  H434     1.0000 0.99695  0.12763  0.71710  Biso   1.000  H
  C394     1.0000 0.73313  0.87599  0.71801  Biso   1.000  C
  H435     1.0000 0.87248  0.86940  0.71710  Biso   1.000  H
  C395     1.0000 0.72320  0.99085  0.67972  Biso   1.000  C
  C396     1.0000 0.72324  0.99094  0.67972  Biso   1.000  C
  H436     1.0000 0.85771  0.06336  0.65315  Biso   1.000  H
  H437     1.0000 0.85775  0.06345  0.65315  Biso   1.000  H
  H438     1.0000 0.93663  0.79434  0.65315  Biso   1.000  H
  H439     1.0000 0.93667  0.79442  0.65315  Biso   1.000  H
  C397     1.0000 0.00912  0.73238  0.67972  Biso   1.000  C
  C398     1.0000 0.12405  0.85721  0.71801  Biso   1.000  C
  H440     1.0000 0.13061  0.00305  0.71710  Biso   1.000  H
  H441     1.0000 0.13065  0.00313  0.71710  Biso   1.000  H
  H442     1.0000 0.33610  0.31385  0.67022  Biso   1.000  H
  C399     1.0000 0.24453  0.32423  0.70403  Biso   1.000  C
  H443     1.0000 0.33614  0.31393  0.67022  Biso   1.000  H
  C400     1.0000 0.24457  0.32431  0.70403  Biso   1.000  C
  H444     1.0000 0.12685  0.29737  0.73473  Biso   1.000  H
  C401     1.0000 0.67569  0.92024  0.70403  Biso   1.000  C
  H445     1.0000 0.70265  0.82944  0.73473  Biso   1.000  H
  C402     1.0000 0.67573  0.92032  0.70403  Biso   1.000  C
  H446     1.0000 0.70269  0.82952  0.73473  Biso   1.000  H
  H447     1.0000 0.68609  0.02225  0.67022  Biso   1.000  H
  H448     1.0000 0.68613  0.02233  0.67022  Biso   1.000  H
  H449     1.0000 0.97774  0.66391  0.67022  Biso   1.000  H
  C403     1.0000 0.07974  0.75545  0.70403  Biso   1.000  C
  C404     1.0000 0.07978  0.75553  0.70403  Biso   1.000  C
  H450     1.0000 0.17058  0.87319  0.73473  Biso   1.000  H
  O40      1.0000 0.31471  0.42648  0.71582  Biso   1.000  O
  O41      1.0000 0.31475  0.42657  0.71582  Biso   1.000  O
  O42      1.0000 0.57346  0.88819  0.71582  Biso   1.000  O
  O43      1.0000 0.57351  0.88827  0.71582  Biso   1.000  O
  O44      1.0000 0.11178  0.68525  0.71582  Biso   1.000  O
  O45      1.0000 0.11182  0.68533  0.71582  Biso   1.000  O
  C405     1.0000 0.41381  0.49553  0.69969  Biso   1.000  C
  C406     1.0000 0.41385  0.49561  0.69969  Biso   1.000  C
  C407     1.0000 0.50444  0.91826  0.69969  Biso   1.000  C
  C408     1.0000 0.50448  0.91835  0.69969  Biso   1.000  C
  C409     1.0000 0.08174  0.58621  0.69969  Biso   1.000  C
  H451     1.0000 0.39737  0.51588  0.68002  Biso   1.000  H
  H452     1.0000 0.45454  0.45738  0.69626  Biso   1.000  H
  C410     1.0000 0.48066  0.59696  0.71899  Biso   1.000  C
  C411     1.0000 0.48070  0.59704  0.71899  Biso   1.000  C
  C412     1.0000 0.40301  0.88366  0.71899  Biso   1.000  C
  H453     1.0000 0.48410  0.88143  0.68002  Biso   1.000  H
  H454     1.0000 0.54263  0.99720  0.69626  Biso   1.000  H
  C413     1.0000 0.40305  0.88374  0.71899  Biso   1.000  C
  H455     1.0000 0.48414  0.88151  0.68002  Biso   1.000  H
  H456     1.0000 0.11853  0.60269  0.68002  Biso   1.000  H
  H457     1.0000 0.00288  0.54550  0.69626  Biso   1.000  H
  C414     1.0000 0.11633  0.51938  0.71899  Biso   1.000  C
  H458     1.0000 0.43947  0.63519  0.72160  Biso   1.000  H
  H459     1.0000 0.54839  0.64623  0.70830  Biso   1.000  H
  C415     1.0000 0.50891  0.57084  0.75025  Biso   1.000  C
  H460     1.0000 0.54843  0.64632  0.70830  Biso   1.000  H
  C416     1.0000 0.50895  0.57092  0.75025  Biso   1.000  C
  C417     1.0000 0.42913  0.93804  0.75025  Biso   1.000  C
  H461     1.0000 0.36479  0.80423  0.72160  Biso   1.000  H
  H462     1.0000 0.35377  0.90220  0.70830  Biso   1.000  H
  C418     1.0000 0.42917  0.93812  0.75025  Biso   1.000  C
  H463     1.0000 0.36483  0.80431  0.72160  Biso   1.000  H
  H464     1.0000 0.19573  0.56058  0.72160  Biso   1.000  H
  H465     1.0000 0.09784  0.45157  0.70830  Biso   1.000  H
  C419     1.0000 0.06192  0.49104  0.75025  Biso   1.000  C
  C420     1.0000 0.06196  0.49112  0.75025  Biso   1.000  C
  C421     1.0000 0.57088  0.50896  0.74974  Biso   1.000  C
  H466     1.0000 0.55272  0.63948  0.76121  Biso   1.000  H
  H467     1.0000 0.44105  0.52775  0.76160  Biso   1.000  H
  H468     1.0000 0.44110  0.52783  0.76160  Biso   1.000  H
  H469     1.0000 0.36050  0.91324  0.76121  Biso   1.000  H
  H470     1.0000 0.47225  0.91324  0.76160  Biso   1.000  H
  H471     1.0000 0.36054  0.91332  0.76121  Biso   1.000  H
  H472     1.0000 0.47229  0.91332  0.76160  Biso   1.000  H
  C422     1.0000 0.49109  0.06196  0.74974  Biso   1.000  C
  C423     1.0000 0.93807  0.42916  0.74974  Biso   1.000  C
  H473     1.0000 0.08671  0.44729  0.76121  Biso   1.000  H
  H474     1.0000 0.08673  0.55893  0.76160  Biso   1.000  H
  H475     1.0000 0.08677  0.55902  0.76160  Biso   1.000  H
  H476     1.0000 0.52780  0.44107  0.73841  Biso   1.000  H
  C424     1.0000 0.59695  0.48062  0.78102  Biso   1.000  C
  H477     1.0000 0.63942  0.55271  0.73880  Biso   1.000  H
  C425     1.0000 0.59699  0.48070  0.78102  Biso   1.000  C
  H478     1.0000 0.63946  0.55280  0.73880  Biso   1.000  H
  C426     1.0000 0.51935  0.11634  0.78102  Biso   1.000  C
  H479     1.0000 0.44726  0.08676  0.73880  Biso   1.000  H
  H480     1.0000 0.55901  0.08676  0.73841  Biso   1.000  H
  C427     1.0000 0.88369  0.40304  0.78102  Biso   1.000  C
  H481     1.0000 0.91324  0.36052  0.73880  Biso   1.000  H
  H482     1.0000 0.91331  0.47225  0.73841  Biso   1.000  H
  H483     1.0000 0.91328  0.36061  0.73880  Biso   1.000  H
  C428     1.0000 0.49554  0.41379  0.80032  Biso   1.000  C
  H484     1.0000 0.63515  0.43942  0.77839  Biso   1.000  H
  H485     1.0000 0.64627  0.54843  0.79171  Biso   1.000  H
  C429     1.0000 0.49558  0.41388  0.80032  Biso   1.000  C
  H486     1.0000 0.63519  0.43950  0.77839  Biso   1.000  H
  H487     1.0000 0.64631  0.54851  0.79171  Biso   1.000  H
  C430     1.0000 0.58618  0.08174  0.80032  Biso   1.000  C
  H488     1.0000 0.56057  0.19577  0.77839  Biso   1.000  H
  H489     1.0000 0.45157  0.09780  0.79171  Biso   1.000  H
  H490     1.0000 0.45161  0.09789  0.79171  Biso   1.000  H
  C431     1.0000 0.91828  0.50447  0.80032  Biso   1.000  C
  H491     1.0000 0.80428  0.36481  0.77839  Biso   1.000  H
  H492     1.0000 0.90216  0.35377  0.79171  Biso   1.000  H
  H493     1.0000 0.80432  0.36489  0.77839  Biso   1.000  H
  O46      1.0000 0.42654  0.31475  0.78417  Biso   1.000  O
  H494     1.0000 0.51584  0.39731  0.81997  Biso   1.000  H
  H495     1.0000 0.45738  0.45450  0.80375  Biso   1.000  H
  H496     1.0000 0.51588  0.39740  0.81997  Biso   1.000  H
  H497     1.0000 0.45742  0.45458  0.80375  Biso   1.000  H
  O47      1.0000 0.68528  0.11181  0.78417  Biso   1.000  O
  H498     1.0000 0.60267  0.11857  0.81997  Biso   1.000  H
  H499     1.0000 0.54543  0.00280  0.80375  Biso   1.000  H
  H500     1.0000 0.54547  0.00288  0.80375  Biso   1.000  H
  O48      1.0000 0.88823  0.57352  0.78417  Biso   1.000  O
  H501     1.0000 0.88149  0.48412  0.81997  Biso   1.000  H
  H502     1.0000 0.99715  0.54262  0.80375  Biso   1.000  H
  H503     1.0000 0.88153  0.48420  0.81997  Biso   1.000  H
  H504     1.0000 0.99720  0.54270  0.80375  Biso   1.000  H
  C432     1.0000 0.32429  0.24455  0.79598  Biso   1.000  C
  C433     1.0000 0.75545  0.07976  0.79598  Biso   1.000  C
  C434     1.0000 0.92030  0.67577  0.79598  Biso   1.000  C
  C435     1.0000 0.27674  0.26762  0.82029  Biso   1.000  C
  C436     1.0000 0.26684  0.14279  0.78198  Biso   1.000  C
  C437     1.0000 0.27678  0.26771  0.82029  Biso   1.000  C
  C438     1.0000 0.26688  0.14288  0.78198  Biso   1.000  C
  C439     1.0000 0.73235  0.00915  0.82029  Biso   1.000  C
  C440     1.0000 0.85714  0.12401  0.78198  Biso   1.000  C
  C441     1.0000 0.85718  0.12409  0.78198  Biso   1.000  C
  C442     1.0000 0.99084  0.72323  0.82029  Biso   1.000  C
  C443     1.0000 0.87598  0.73312  0.78198  Biso   1.000  C
  C444     1.0000 0.99088  0.72331  0.82029  Biso   1.000  C
  C445     1.0000 0.87602  0.73320  0.78198  Biso   1.000  C
  C446     1.0000 0.17368  0.18852  0.83055  Biso   1.000  C
  H505     1.0000 0.31383  0.33609  0.82977  Biso   1.000  H
  C447     1.0000 0.17372  0.18860  0.83055  Biso   1.000  C
  H506     1.0000 0.31387  0.33618  0.82977  Biso   1.000  H
  C448     1.0000 0.16469  0.06493  0.79260  Biso   1.000  C
  H507     1.0000 0.29738  0.12681  0.76526  Biso   1.000  H
  C449     1.0000 0.16473  0.06501  0.79260  Biso   1.000  C
  H508     1.0000 0.29743  0.12689  0.76526  Biso   1.000  H
  C450     1.0000 0.81148  0.98517  0.83055  Biso   1.000  C
  H509     1.0000 0.66384  0.97775  0.82977  Biso   1.000  H
  H510     1.0000 0.87321  0.17056  0.76526  Biso   1.000  H
  C451     1.0000 0.93504  0.09970  0.79260  Biso   1.000  C
  C452     1.0000 0.93508  0.09978  0.79260  Biso   1.000  C
  C453     1.0000 0.01484  0.82631  0.83055  Biso   1.000  C
  H511     1.0000 0.02225  0.68615  0.82977  Biso   1.000  H
  C454     1.0000 0.01488  0.82639  0.83055  Biso   1.000  C
  H512     1.0000 0.82948  0.70263  0.76526  Biso   1.000  H
  C455     1.0000 0.90028  0.83537  0.79260  Biso   1.000  C
  H513     1.0000 0.14229  0.20566  0.84686  Biso   1.000  H
  C456     1.0000 0.11563  0.08512  0.81744  Biso   1.000  C
  C457     1.0000 0.11567  0.08520  0.81744  Biso   1.000  C
  H514     1.0000 0.12756  0.99695  0.78289  Biso   1.000  H
  C458     1.0000 0.91488  0.03057  0.81744  Biso   1.000  C
  H515     1.0000 0.79435  0.93664  0.84686  Biso   1.000  H
  H516     1.0000 0.00308  0.13060  0.78289  Biso   1.000  H
  H517     1.0000 0.00312  0.13068  0.78289  Biso   1.000  H
  C459     1.0000 0.96949  0.88432  0.81744  Biso   1.000  C
  C460     1.0000 0.96953  0.88440  0.81744  Biso   1.000  C
  H518     1.0000 0.06336  0.85770  0.84686  Biso   1.000  H
  H519     1.0000 0.06340  0.85778  0.84686  Biso   1.000  H
  H520     1.0000 0.86936  0.87245  0.78289  Biso   1.000  H
  C461     1.0000 0.99993  0.00000  0.82897  Biso   1.000  C
  C462     1.0000 0.99997  0.00008  0.82897  Biso   1.000  C
  C463     1.0000 0.99993  0.00000  0.86445  Biso   1.000  C
  C464     1.0000 0.99997  0.00008  0.86445  Biso   1.000  C
  H521     1.0000 0.93120  0.94076  0.87176  Biso   1.000  H
  H522     1.0000 0.05930  0.99044  0.87176  Biso   1.000  H
  H523     1.0000 0.00957  0.06880  0.87176  Biso   1.000  H
  H524     1.0000 0.00961  0.06888  0.87176  Biso   1.000  H
  C465     1.0000 0.99997  0.00008  0.36444  Biso   1.000  C
  C466     1.0000 0.99993  0.00000  0.32896  Biso   1.000  C
  C467     1.0000 0.99997  0.00008  0.32896  Biso   1.000  C
  H525     1.0000 0.05923  0.06880  0.37175  Biso   1.000  H
  H526     1.0000 0.05927  0.06888  0.37175  Biso   1.000  H
  H527     1.0000 0.93114  0.99044  0.37175  Biso   1.000  H
  H528     1.0000 0.00955  0.94076  0.37175  Biso   1.000  H
  C468     1.0000 0.11568  0.03057  0.31745  Biso   1.000  C
  C469     1.0000 0.91483  0.88432  0.31745  Biso   1.000  C
  C470     1.0000 0.91487  0.88440  0.31745  Biso   1.000  C
  C471     1.0000 0.96949  0.08512  0.31745  Biso   1.000  C
  C472     1.0000 0.99993  0.00000  0.36444  Biso   1.000  C
  C473     1.0000 0.96953  0.08520  0.31745  Biso   1.000  C
  C474     1.0000 0.16466  0.09970  0.29261  Biso   1.000  C
  C475     1.0000 0.16470  0.09978  0.29261  Biso   1.000  C
  C476     1.0000 0.17369  0.98517  0.33056  Biso   1.000  C
  C477     1.0000 0.81147  0.82631  0.33056  Biso   1.000  C
  C478     1.0000 0.93510  0.83537  0.29261  Biso   1.000  C
  C479     1.0000 0.81151  0.82639  0.33056  Biso   1.000  C
  C480     1.0000 0.01484  0.18852  0.33056  Biso   1.000  C
  C481     1.0000 0.01488  0.18860  0.33056  Biso   1.000  C
  C482     1.0000 0.90024  0.06493  0.29261  Biso   1.000  C
  C483     1.0000 0.90028  0.06501  0.29261  Biso   1.000  C
  C484     1.0000 0.26691  0.12409  0.28199  Biso   1.000  C
  C485     1.0000 0.26687  0.12401  0.28199  Biso   1.000  C
  H529     1.0000 0.12752  0.13060  0.28290  Biso   1.000  H
  H530     1.0000 0.12756  0.13068  0.28290  Biso   1.000  H
  C486     1.0000 0.27680  0.00915  0.32028  Biso   1.000  C
  H531     1.0000 0.14229  0.93664  0.34685  Biso   1.000  H
  H532     1.0000 0.79434  0.85770  0.34685  Biso   1.000  H
  C487     1.0000 0.73239  0.72323  0.32028  Biso   1.000  C
  H533     1.0000 0.79438  0.85778  0.34685  Biso   1.000  H
  C488     1.0000 0.73243  0.72331  0.32028  Biso   1.000  C
  C489     1.0000 0.85714  0.73312  0.28199  Biso   1.000  C
  C490     1.0000 0.85718  0.73320  0.28199  Biso   1.000  C
  H534     1.0000 0.00309  0.87245  0.28290  Biso   1.000  H
  H535     1.0000 0.06337  0.20566  0.34685  Biso   1.000  H
  C491     1.0000 0.99088  0.26762  0.32028  Biso   1.000  C
  C492     1.0000 0.99092  0.26771  0.32028  Biso   1.000  C
  H536     1.0000 0.86939  0.99695  0.28290  Biso   1.000  H
  C493     1.0000 0.87595  0.14279  0.28199  Biso   1.000  C
  C494     1.0000 0.87599  0.14288  0.28199  Biso   1.000  C
  C495     1.0000 0.32431  0.07976  0.29597  Biso   1.000  C
  H537     1.0000 0.29735  0.17056  0.26527  Biso   1.000  H
  H538     1.0000 0.31391  0.97775  0.32978  Biso   1.000  H
  H539     1.0000 0.66390  0.68615  0.32978  Biso   1.000  H
  C496     1.0000 0.75547  0.67577  0.29597  Biso   1.000  C
  H540     1.0000 0.87315  0.70263  0.26527  Biso   1.000  H
  H541     1.0000 0.02226  0.33609  0.32978  Biso   1.000  H
  H542     1.0000 0.02231  0.33618  0.32978  Biso   1.000  H
  C497     1.0000 0.92026  0.24455  0.29597  Biso   1.000  C
  H543     1.0000 0.82942  0.12681  0.26527  Biso   1.000  H
  H544     1.0000 0.82946  0.12689  0.26527  Biso   1.000  H
  O49      1.0000 0.42654  0.11181  0.28418  Biso   1.000  O
  O50      1.0000 0.68529  0.57352  0.28418  Biso   1.000  O
  O51      1.0000 0.88822  0.31475  0.28418  Biso   1.000  O
  C498     1.0000 0.49556  0.08174  0.30031  Biso   1.000  C
  C499     1.0000 0.58619  0.50447  0.30031  Biso   1.000  C
  C500     1.0000 0.91826  0.41379  0.30031  Biso   1.000  C
  C501     1.0000 0.91830  0.41388  0.30031  Biso   1.000  C
  C502     1.0000 0.59699  0.11634  0.28101  Biso   1.000  C
  H545     1.0000 0.51590  0.11857  0.31998  Biso   1.000  H
  H546     1.0000 0.45737  0.00280  0.30374  Biso   1.000  H
  H547     1.0000 0.45741  0.00288  0.30374  Biso   1.000  H
  H548     1.0000 0.60263  0.48412  0.31998  Biso   1.000  H
  H549     1.0000 0.54546  0.54262  0.30374  Biso   1.000  H
  C503     1.0000 0.51934  0.40304  0.28101  Biso   1.000  C
  H550     1.0000 0.60267  0.48420  0.31998  Biso   1.000  H
  H551     1.0000 0.54550  0.54270  0.30374  Biso   1.000  H
  H552     1.0000 0.88147  0.39731  0.31998  Biso   1.000  H
  H553     1.0000 0.99712  0.45450  0.30374  Biso   1.000  H
  C504     1.0000 0.88367  0.48062  0.28101  Biso   1.000  C
  H554     1.0000 0.88152  0.39740  0.31998  Biso   1.000  H
  H555     1.0000 0.99716  0.45458  0.30374  Biso   1.000  H
  C505     1.0000 0.88371  0.48070  0.28101  Biso   1.000  C
  C506     1.0000 0.57087  0.06196  0.24975  Biso   1.000  C
  H556     1.0000 0.63521  0.19577  0.27840  Biso   1.000  H
  H557     1.0000 0.64623  0.09780  0.29170  Biso   1.000  H
  H558     1.0000 0.64627  0.09789  0.29170  Biso   1.000  H
  H559     1.0000 0.56053  0.36481  0.27840  Biso   1.000  H
  H560     1.0000 0.45161  0.35377  0.29170  Biso   1.000  H
  C507     1.0000 0.49109  0.42916  0.24975  Biso   1.000  C
  H561     1.0000 0.56057  0.36489  0.27840  Biso   1.000  H
  H562     1.0000 0.80427  0.43942  0.27840  Biso   1.000  H
  H563     1.0000 0.90216  0.54843  0.29170  Biso   1.000  H
  C508     1.0000 0.93808  0.50896  0.24975  Biso   1.000  C
  H564     1.0000 0.80431  0.43950  0.27840  Biso   1.000  H
  H565     1.0000 0.90220  0.54851  0.29170  Biso   1.000  H
  H566     1.0000 0.63950  0.08676  0.23879  Biso   1.000  H
  H567     1.0000 0.52775  0.08676  0.23840  Biso   1.000  H
  C509     1.0000 0.50891  0.93804  0.25026  Biso   1.000  C
  C510     1.0000 0.50895  0.93812  0.25026  Biso   1.000  C
  C511     1.0000 0.42912  0.49104  0.25026  Biso   1.000  C
  H568     1.0000 0.44728  0.36052  0.23879  Biso   1.000  H
  H569     1.0000 0.55895  0.47225  0.23840  Biso   1.000  H
  C512     1.0000 0.42916  0.49112  0.25026  Biso   1.000  C
  H570     1.0000 0.44732  0.36061  0.23879  Biso   1.000  H
  C513     1.0000 0.06193  0.57084  0.25026  Biso   1.000  C
  C514     1.0000 0.06197  0.57092  0.25026  Biso   1.000  C
  H571     1.0000 0.91329  0.55271  0.23879  Biso   1.000  H
  H572     1.0000 0.91327  0.44107  0.23840  Biso   1.000  H
  H573     1.0000 0.91333  0.55280  0.23879  Biso   1.000  H
  C515     1.0000 0.48065  0.88366  0.21898  Biso   1.000  C
  H574     1.0000 0.55274  0.91324  0.26120  Biso   1.000  H
  H575     1.0000 0.44099  0.91324  0.26159  Biso   1.000  H
  C516     1.0000 0.48069  0.88374  0.21898  Biso   1.000  C
  H576     1.0000 0.55278  0.91332  0.26120  Biso   1.000  H
  H577     1.0000 0.44103  0.91332  0.26159  Biso   1.000  H
  C517     1.0000 0.40305  0.51938  0.21898  Biso   1.000  C
  H578     1.0000 0.36058  0.44729  0.26120  Biso   1.000  H
  H579     1.0000 0.47220  0.55893  0.26159  Biso   1.000  H
  H580     1.0000 0.47224  0.55902  0.26159  Biso   1.000  H
  C518     1.0000 0.11631  0.59696  0.21898  Biso   1.000  C
  H581     1.0000 0.08676  0.63948  0.26120  Biso   1.000  H
  H582     1.0000 0.08669  0.52775  0.26159  Biso   1.000  H
  C519     1.0000 0.11635  0.59704  0.21898  Biso   1.000  C
  H583     1.0000 0.08674  0.52783  0.26159  Biso   1.000  H
  C520     1.0000 0.41382  0.91826  0.19968  Biso   1.000  C
  H584     1.0000 0.43943  0.80423  0.22161  Biso   1.000  H
  H585     1.0000 0.54843  0.90220  0.20829  Biso   1.000  H
  C521     1.0000 0.41386  0.91835  0.19968  Biso   1.000  C
  H586     1.0000 0.43947  0.80431  0.22161  Biso   1.000  H
  C522     1.0000 0.50446  0.58621  0.19968  Biso   1.000  C
  H587     1.0000 0.36485  0.56058  0.22161  Biso   1.000  H
  H588     1.0000 0.35373  0.45157  0.20829  Biso   1.000  H
  C523     1.0000 0.08172  0.49553  0.19968  Biso   1.000  C
  H589     1.0000 0.19572  0.63519  0.22161  Biso   1.000  H
  H590     1.0000 0.09784  0.64623  0.20829  Biso   1.000  H
  C524     1.0000 0.08176  0.49561  0.19968  Biso   1.000  C
  H591     1.0000 0.09788  0.64632  0.20829  Biso   1.000  H
  O52      1.0000 0.31472  0.88819  0.21583  Biso   1.000  O
  H592     1.0000 0.39733  0.88143  0.18003  Biso   1.000  H
  H593     1.0000 0.45457  0.99720  0.19625  Biso   1.000  H
  O53      1.0000 0.31476  0.88827  0.21583  Biso   1.000  O
  H594     1.0000 0.39737  0.88151  0.18003  Biso   1.000  H
  O54      1.0000 0.57346  0.68525  0.21583  Biso   1.000  O
  H595     1.0000 0.48416  0.60269  0.18003  Biso   1.000  H
  H596     1.0000 0.54262  0.54550  0.19625  Biso   1.000  H
  O55      1.0000 0.57351  0.68533  0.21583  Biso   1.000  O
  O56      1.0000 0.11177  0.42648  0.21583  Biso   1.000  O
  H597     1.0000 0.11851  0.51588  0.18003  Biso   1.000  H
  H598     1.0000 0.00285  0.45738  0.19625  Biso   1.000  H
  O57      1.0000 0.11181  0.42657  0.21583  Biso   1.000  O
  C525     1.0000 0.24455  0.92024  0.20402  Biso   1.000  C
  C526     1.0000 0.24459  0.92032  0.20402  Biso   1.000  C
  C527     1.0000 0.67571  0.75545  0.20402  Biso   1.000  C
  C528     1.0000 0.67575  0.75553  0.20402  Biso   1.000  C
  C529     1.0000 0.07970  0.32423  0.20402  Biso   1.000  C
  C530     1.0000 0.07974  0.32431  0.20402  Biso   1.000  C
  C531     1.0000 0.26765  0.99085  0.17971  Biso   1.000  C
  C532     1.0000 0.14286  0.87599  0.21802  Biso   1.000  C
  C533     1.0000 0.26770  0.99094  0.17971  Biso   1.000  C
  C534     1.0000 0.72326  0.73238  0.17971  Biso   1.000  C
  C535     1.0000 0.73316  0.85721  0.21802  Biso   1.000  C
  C536     1.0000 0.12402  0.26688  0.21802  Biso   1.000  C
  C537     1.0000 0.00916  0.27677  0.17971  Biso   1.000  C
  C538     1.0000 0.18852  0.01483  0.16945  Biso   1.000  C
  H599     1.0000 0.33616  0.02225  0.17023  Biso   1.000  H
  C539     1.0000 0.18856  0.01491  0.16945  Biso   1.000  C
  H600     1.0000 0.33620  0.02233  0.17023  Biso   1.000  H
  H601     1.0000 0.12679  0.82944  0.23474  Biso   1.000  H
  C540     1.0000 0.06496  0.90030  0.20740  Biso   1.000  C
  H602     1.0000 0.12683  0.82952  0.23474  Biso   1.000  H
  C541     1.0000 0.82632  0.81148  0.16945  Biso   1.000  C
  H603     1.0000 0.68617  0.66391  0.17023  Biso   1.000  H
  C542     1.0000 0.83531  0.93507  0.20740  Biso   1.000  C
  H604     1.0000 0.70262  0.87319  0.23474  Biso   1.000  H
  C543     1.0000 0.09972  0.16463  0.20740  Biso   1.000  C
  C544     1.0000 0.09977  0.16471  0.20740  Biso   1.000  C
  H605     1.0000 0.17052  0.29737  0.23474  Biso   1.000  H
  C545     1.0000 0.98516  0.17369  0.16945  Biso   1.000  C
  H606     1.0000 0.97775  0.31385  0.17023  Biso   1.000  H
  H607     1.0000 0.97779  0.31393  0.17023  Biso   1.000  H
  H608     1.0000 0.20565  0.06336  0.15314  Biso   1.000  H
  H609     1.0000 0.20569  0.06345  0.15314  Biso   1.000  H
  C546     1.0000 0.08512  0.96943  0.18256  Biso   1.000  C
  C547     1.0000 0.08516  0.96951  0.18256  Biso   1.000  C
  H610     1.0000 0.99692  0.86940  0.21711  Biso   1.000  H
  C548     1.0000 0.88437  0.91488  0.18256  Biso   1.000  C
  H611     1.0000 0.85771  0.79434  0.15314  Biso   1.000  H
  H612     1.0000 0.85775  0.79442  0.15314  Biso   1.000  H
  H613     1.0000 0.87244  0.00305  0.21711  Biso   1.000  H
  H614     1.0000 0.87248  0.00313  0.21711  Biso   1.000  H
  C549     1.0000 0.03051  0.11568  0.18256  Biso   1.000  C
  H615     1.0000 0.13064  0.12755  0.21711  Biso   1.000  H
  H616     1.0000 0.13068  0.12763  0.21711  Biso   1.000  H
  H617     1.0000 0.93664  0.14230  0.15314  Biso   1.000  H
  C550     1.0000 0.00007  0.00000  0.17103  Biso   1.000  C
  C551     1.0000 0.00007  0.00000  0.13555  Biso   1.000  C
  H618     1.0000 0.06880  0.05924  0.12824  Biso   1.000  H
  H619     1.0000 0.06884  0.05933  0.12824  Biso   1.000  H
  H620     1.0000 0.99043  0.93120  0.12824  Biso   1.000  H
  H621     1.0000 0.94070  0.00956  0.12824  Biso   1.000  H
  H622     1.0000 0.94074  0.00964  0.12824  Biso   1.000  H
  C552     1.0000 0.99997  0.00008  0.36444  Biso   1.000  C
  C553     1.0000 0.99993  0.00000  0.32896  Biso   1.000  C
  C554     1.0000 0.99997  0.00008  0.32896  Biso   1.000  C
  H623     1.0000 0.05923  0.06880  0.37175  Biso   1.000  H
  H624     1.0000 0.05927  0.06888  0.37175  Biso   1.000  H
  H625     1.0000 0.93114  0.99044  0.37175  Biso   1.000  H
  H626     1.0000 0.00955  0.94076  0.37175  Biso   1.000  H
  C555     1.0000 0.11568  0.03057  0.31745  Biso   1.000  C
  C556     1.0000 0.91483  0.88432  0.31745  Biso   1.000  C
  C557     1.0000 0.91487  0.88440  0.31745  Biso   1.000  C
  C558     1.0000 0.96949  0.08512  0.31745  Biso   1.000  C
  C559     1.0000 0.99993  0.00000  0.36444  Biso   1.000  C
  C560     1.0000 0.96953  0.08520  0.31745  Biso   1.000  C
  C561     1.0000 0.16466  0.09970  0.29261  Biso   1.000  C
  C562     1.0000 0.16470  0.09978  0.29261  Biso   1.000  C
  C563     1.0000 0.17369  0.98517  0.33056  Biso   1.000  C
  C564     1.0000 0.81147  0.82631  0.33056  Biso   1.000  C
  C565     1.0000 0.93510  0.83537  0.29261  Biso   1.000  C
  C566     1.0000 0.81151  0.82639  0.33056  Biso   1.000  C
  C567     1.0000 0.01484  0.18852  0.33056  Biso   1.000  C
  C568     1.0000 0.01488  0.18860  0.33056  Biso   1.000  C
  C569     1.0000 0.90024  0.06493  0.29261  Biso   1.000  C
  C570     1.0000 0.90028  0.06501  0.29261  Biso   1.000  C
  C571     1.0000 0.26691  0.12409  0.28199  Biso   1.000  C
  C572     1.0000 0.26687  0.12401  0.28199  Biso   1.000  C
  H627     1.0000 0.12752  0.13060  0.28290  Biso   1.000  H
  H628     1.0000 0.12756  0.13068  0.28290  Biso   1.000  H
  C573     1.0000 0.27680  0.00915  0.32028  Biso   1.000  C
  H629     1.0000 0.14229  0.93664  0.34685  Biso   1.000  H
  H630     1.0000 0.79434  0.85770  0.34685  Biso   1.000  H
  C574     1.0000 0.73239  0.72323  0.32028  Biso   1.000  C
  H631     1.0000 0.79438  0.85778  0.34685  Biso   1.000  H
  C575     1.0000 0.73243  0.72331  0.32028  Biso   1.000  C
  C576     1.0000 0.85714  0.73312  0.28199  Biso   1.000  C
  C577     1.0000 0.85718  0.73320  0.28199  Biso   1.000  C
  H632     1.0000 0.00309  0.87245  0.28290  Biso   1.000  H
  H633     1.0000 0.06337  0.20566  0.34685  Biso   1.000  H
  C578     1.0000 0.99088  0.26762  0.32028  Biso   1.000  C
  C579     1.0000 0.99092  0.26771  0.32028  Biso   1.000  C
  H634     1.0000 0.86939  0.99695  0.28290  Biso   1.000  H
  C580     1.0000 0.87595  0.14279  0.28199  Biso   1.000  C
  C581     1.0000 0.87599  0.14288  0.28199  Biso   1.000  C
  C582     1.0000 0.32431  0.07976  0.29597  Biso   1.000  C
  H635     1.0000 0.29735  0.17056  0.26527  Biso   1.000  H
  H636     1.0000 0.31391  0.97775  0.32978  Biso   1.000  H
  H637     1.0000 0.66390  0.68615  0.32978  Biso   1.000  H
  C583     1.0000 0.75547  0.67577  0.29597  Biso   1.000  C
  H638     1.0000 0.87315  0.70263  0.26527  Biso   1.000  H
  H639     1.0000 0.02226  0.33609  0.32978  Biso   1.000  H
  H640     1.0000 0.02231  0.33618  0.32978  Biso   1.000  H
  C584     1.0000 0.92026  0.24455  0.29597  Biso   1.000  C
  H641     1.0000 0.82942  0.12681  0.26527  Biso   1.000  H
  H642     1.0000 0.82946  0.12689  0.26527  Biso   1.000  H
  O58      1.0000 0.42654  0.11181  0.28418  Biso   1.000  O
  O59      1.0000 0.68529  0.57352  0.28418  Biso   1.000  O
  O60      1.0000 0.88822  0.31475  0.28418  Biso   1.000  O
  C585     1.0000 0.49556  0.08174  0.30031  Biso   1.000  C
  C586     1.0000 0.58619  0.50447  0.30031  Biso   1.000  C
  C587     1.0000 0.91826  0.41379  0.30031  Biso   1.000  C
  C588     1.0000 0.91830  0.41388  0.30031  Biso   1.000  C
  C589     1.0000 0.59699  0.11634  0.28101  Biso   1.000  C
  H643     1.0000 0.51590  0.11857  0.31998  Biso   1.000  H
  H644     1.0000 0.45737  0.00280  0.30374  Biso   1.000  H
  H645     1.0000 0.45741  0.00288  0.30374  Biso   1.000  H
  H646     1.0000 0.60263  0.48412  0.31998  Biso   1.000  H
  H647     1.0000 0.54546  0.54262  0.30374  Biso   1.000  H
  C590     1.0000 0.51934  0.40304  0.28101  Biso   1.000  C
  H648     1.0000 0.60267  0.48420  0.31998  Biso   1.000  H
  H649     1.0000 0.54550  0.54270  0.30374  Biso   1.000  H
  H650     1.0000 0.88147  0.39731  0.31998  Biso   1.000  H
  H651     1.0000 0.99712  0.45450  0.30374  Biso   1.000  H
  C591     1.0000 0.88367  0.48062  0.28101  Biso   1.000  C
  H652     1.0000 0.88152  0.39740  0.31998  Biso   1.000  H
  H653     1.0000 0.99716  0.45458  0.30374  Biso   1.000  H
  C592     1.0000 0.88371  0.48070  0.28101  Biso   1.000  C
  C593     1.0000 0.57087  0.06196  0.24975  Biso   1.000  C
  H654     1.0000 0.63521  0.19577  0.27840  Biso   1.000  H
  H655     1.0000 0.64623  0.09780  0.29170  Biso   1.000  H
  H656     1.0000 0.64627  0.09789  0.29170  Biso   1.000  H
  H657     1.0000 0.56053  0.36481  0.27840  Biso   1.000  H
  H658     1.0000 0.45161  0.35377  0.29170  Biso   1.000  H
  C594     1.0000 0.49109  0.42916  0.24975  Biso   1.000  C
  H659     1.0000 0.56057  0.36489  0.27840  Biso   1.000  H
  H660     1.0000 0.80427  0.43942  0.27840  Biso   1.000  H
  H661     1.0000 0.90216  0.54843  0.29170  Biso   1.000  H
  C595     1.0000 0.93808  0.50896  0.24975  Biso   1.000  C
  H662     1.0000 0.80431  0.43950  0.27840  Biso   1.000  H
  H663     1.0000 0.90220  0.54851  0.29170  Biso   1.000  H
  H664     1.0000 0.63950  0.08676  0.23879  Biso   1.000  H
  H665     1.0000 0.52775  0.08676  0.23840  Biso   1.000  H
  C596     1.0000 0.50891  0.93804  0.25026  Biso   1.000  C
  C597     1.0000 0.50895  0.93812  0.25026  Biso   1.000  C
  C598     1.0000 0.42912  0.49104  0.25026  Biso   1.000  C
  H666     1.0000 0.44728  0.36052  0.23879  Biso   1.000  H
  H667     1.0000 0.55895  0.47225  0.23840  Biso   1.000  H
  C599     1.0000 0.42916  0.49112  0.25026  Biso   1.000  C
  H668     1.0000 0.44732  0.36061  0.23879  Biso   1.000  H
  C600     1.0000 0.06193  0.57084  0.25026  Biso   1.000  C
  C601     1.0000 0.06197  0.57092  0.25026  Biso   1.000  C
  H669     1.0000 0.91329  0.55271  0.23879  Biso   1.000  H
  H670     1.0000 0.91327  0.44107  0.23840  Biso   1.000  H
  H671     1.0000 0.91333  0.55280  0.23879  Biso   1.000  H
  C602     1.0000 0.48065  0.88366  0.21898  Biso   1.000  C
  H672     1.0000 0.55274  0.91324  0.26120  Biso   1.000  H
  H673     1.0000 0.44099  0.91324  0.26159  Biso   1.000  H
  C603     1.0000 0.48069  0.88374  0.21898  Biso   1.000  C
  H674     1.0000 0.55278  0.91332  0.26120  Biso   1.000  H
  H675     1.0000 0.44103  0.91332  0.26159  Biso   1.000  H
  C604     1.0000 0.40305  0.51938  0.21898  Biso   1.000  C
  H676     1.0000 0.36058  0.44729  0.26120  Biso   1.000  H
  H677     1.0000 0.47220  0.55893  0.26159  Biso   1.000  H
  H678     1.0000 0.47224  0.55902  0.26159  Biso   1.000  H
  H679     1.0000 0.08676  0.63948  0.26120  Biso   1.000  H
  C605     1.0000 0.11631  0.59696  0.21898  Biso   1.000  C
  H680     1.0000 0.08669  0.52775  0.26159  Biso   1.000  H
  C606     1.0000 0.11635  0.59704  0.21898  Biso   1.000  C
  H681     1.0000 0.08674  0.52783  0.26159  Biso   1.000  H
  C607     1.0000 0.41382  0.91826  0.19968  Biso   1.000  C
  H682     1.0000 0.43943  0.80423  0.22161  Biso   1.000  H
  H683     1.0000 0.54843  0.90220  0.20829  Biso   1.000  H
  C608     1.0000 0.41386  0.91835  0.19968  Biso   1.000  C
  H684     1.0000 0.43947  0.80431  0.22161  Biso   1.000  H
  C609     1.0000 0.50446  0.58621  0.19968  Biso   1.000  C
  H685     1.0000 0.36485  0.56058  0.22161  Biso   1.000  H
  H686     1.0000 0.35373  0.45157  0.20829  Biso   1.000  H
  H687     1.0000 0.19572  0.63519  0.22161  Biso   1.000  H
  C610     1.0000 0.08172  0.49553  0.19968  Biso   1.000  C
  H688     1.0000 0.09784  0.64623  0.20829  Biso   1.000  H
  C611     1.0000 0.08176  0.49561  0.19968  Biso   1.000  C
  H689     1.0000 0.09788  0.64632  0.20829  Biso   1.000  H
  O61      1.0000 0.31472  0.88819  0.21583  Biso   1.000  O
  H690     1.0000 0.39733  0.88143  0.18003  Biso   1.000  H
  H691     1.0000 0.45457  0.99720  0.19625  Biso   1.000  H
  O62      1.0000 0.31476  0.88827  0.21583  Biso   1.000  O
  H692     1.0000 0.39737  0.88151  0.18003  Biso   1.000  H
  O63      1.0000 0.57346  0.68525  0.21583  Biso   1.000  O
  H693     1.0000 0.48416  0.60269  0.18003  Biso   1.000  H
  H694     1.0000 0.54262  0.54550  0.19625  Biso   1.000  H
  O64      1.0000 0.57351  0.68533  0.21583  Biso   1.000  O
  H695     1.0000 0.11851  0.51588  0.18003  Biso   1.000  H
  H696     1.0000 0.00285  0.45738  0.19625  Biso   1.000  H
  O65      1.0000 0.11177  0.42648  0.21583  Biso   1.000  O
  O66      1.0000 0.11181  0.42657  0.21583  Biso   1.000  O
  C612     1.0000 0.24455  0.92024  0.20402  Biso   1.000  C
  C613     1.0000 0.24459  0.92032  0.20402  Biso   1.000  C
  C614     1.0000 0.67571  0.75545  0.20402  Biso   1.000  C
  C615     1.0000 0.67575  0.75553  0.20402  Biso   1.000  C
  C616     1.0000 0.07970  0.32423  0.20402  Biso   1.000  C
  C617     1.0000 0.07974  0.32431  0.20402  Biso   1.000  C
  C618     1.0000 0.26765  0.99085  0.17971  Biso   1.000  C
  C619     1.0000 0.14286  0.87599  0.21802  Biso   1.000  C
  C620     1.0000 0.26770  0.99094  0.17971  Biso   1.000  C
  C621     1.0000 0.72326  0.73238  0.17971  Biso   1.000  C
  C622     1.0000 0.73316  0.85721  0.21802  Biso   1.000  C
  C623     1.0000 0.12402  0.26688  0.21802  Biso   1.000  C
  C624     1.0000 0.00916  0.27677  0.17971  Biso   1.000  C
  C625     1.0000 0.18852  0.01483  0.16945  Biso   1.000  C
  H697     1.0000 0.33616  0.02225  0.17023  Biso   1.000  H
  C626     1.0000 0.18856  0.01491  0.16945  Biso   1.000  C
  H698     1.0000 0.33620  0.02233  0.17023  Biso   1.000  H
  H699     1.0000 0.12679  0.82944  0.23474  Biso   1.000  H
  C627     1.0000 0.06496  0.90030  0.20740  Biso   1.000  C
  H700     1.0000 0.12683  0.82952  0.23474  Biso   1.000  H
  C628     1.0000 0.82632  0.81148  0.16945  Biso   1.000  C
  H701     1.0000 0.68617  0.66391  0.17023  Biso   1.000  H
  C629     1.0000 0.83531  0.93507  0.20740  Biso   1.000  C
  H702     1.0000 0.70262  0.87319  0.23474  Biso   1.000  H
  C630     1.0000 0.09972  0.16463  0.20740  Biso   1.000  C
  C631     1.0000 0.09977  0.16471  0.20740  Biso   1.000  C
  H703     1.0000 0.17052  0.29737  0.23474  Biso   1.000  H
  C632     1.0000 0.98516  0.17369  0.16945  Biso   1.000  C
  H704     1.0000 0.97775  0.31385  0.17023  Biso   1.000  H
  H705     1.0000 0.97779  0.31393  0.17023  Biso   1.000  H
  H706     1.0000 0.20565  0.06336  0.15314  Biso   1.000  H
  H707     1.0000 0.20569  0.06345  0.15314  Biso   1.000  H
  C633     1.0000 0.08512  0.96943  0.18256  Biso   1.000  C
  C634     1.0000 0.08516  0.96951  0.18256  Biso   1.000  C
  H708     1.0000 0.99692  0.86940  0.21711  Biso   1.000  H
  C635     1.0000 0.88437  0.91488  0.18256  Biso   1.000  C
  H709     1.0000 0.85771  0.79434  0.15314  Biso   1.000  H
  H710     1.0000 0.85775  0.79442  0.15314  Biso   1.000  H
  H711     1.0000 0.87244  0.00305  0.21711  Biso   1.000  H
  H712     1.0000 0.87248  0.00313  0.21711  Biso   1.000  H
  C636     1.0000 0.03051  0.11568  0.18256  Biso   1.000  C
  H713     1.0000 0.13064  0.12755  0.21711  Biso   1.000  H
  H714     1.0000 0.13068  0.12763  0.21711  Biso   1.000  H
  H715     1.0000 0.93664  0.14230  0.15314  Biso   1.000  H
  C637     1.0000 0.00007  0.00000  0.17103  Biso   1.000  C
  C638     1.0000 0.00007  0.00000  0.13555  Biso   1.000  C
  H716     1.0000 0.06880  0.05924  0.12824  Biso   1.000  H
  H717     1.0000 0.06884  0.05933  0.12824  Biso   1.000  H
  H718     1.0000 0.99043  0.93120  0.12824  Biso   1.000  H
  H719     1.0000 0.94070  0.00956  0.12824  Biso   1.000  H
  H720     1.0000 0.94074  0.00964  0.12824  Biso   1.000  H
  C639     1.0000 0.99997  0.00008  0.36444  Biso   1.000  C
  C640     1.0000 0.99993  0.00000  0.32896  Biso   1.000  C
  C641     1.0000 0.99997  0.00008  0.32896  Biso   1.000  C
  H721     1.0000 0.93114  0.99044  0.37175  Biso   1.000  H
  H722     1.0000 0.00955  0.94076  0.37175  Biso   1.000  H
  H723     1.0000 0.05923  0.06880  0.37175  Biso   1.000  H
  H724     1.0000 0.05927  0.06888  0.37175  Biso   1.000  H
  C642     1.0000 0.96949  0.08512  0.31745  Biso   1.000  C
  C643     1.0000 0.96953  0.08520  0.31745  Biso   1.000  C
  C644     1.0000 0.11568  0.03057  0.31745  Biso   1.000  C
  C645     1.0000 0.91483  0.88432  0.31745  Biso   1.000  C
  C646     1.0000 0.91487  0.88440  0.31745  Biso   1.000  C
  C647     1.0000 0.99993  0.00000  0.36444  Biso   1.000  C
  C648     1.0000 0.01484  0.18852  0.33056  Biso   1.000  C
  C649     1.0000 0.01488  0.18860  0.33056  Biso   1.000  C
  C650     1.0000 0.90024  0.06493  0.29261  Biso   1.000  C
  C651     1.0000 0.90028  0.06501  0.29261  Biso   1.000  C
  C652     1.0000 0.17369  0.98517  0.33056  Biso   1.000  C
  C653     1.0000 0.16466  0.09970  0.29261  Biso   1.000  C
  C654     1.0000 0.16470  0.09978  0.29261  Biso   1.000  C
  C655     1.0000 0.81147  0.82631  0.33056  Biso   1.000  C
  C656     1.0000 0.93510  0.83537  0.29261  Biso   1.000  C
  C657     1.0000 0.81151  0.82639  0.33056  Biso   1.000  C
  C658     1.0000 0.99088  0.26762  0.32028  Biso   1.000  C
  C659     1.0000 0.99092  0.26771  0.32028  Biso   1.000  C
  H725     1.0000 0.06337  0.20566  0.34685  Biso   1.000  H
  C660     1.0000 0.87595  0.14279  0.28199  Biso   1.000  C
  C661     1.0000 0.87599  0.14288  0.28199  Biso   1.000  C
  H726     1.0000 0.86939  0.99695  0.28290  Biso   1.000  H
  C662     1.0000 0.27680  0.00915  0.32028  Biso   1.000  C
  H727     1.0000 0.14229  0.93664  0.34685  Biso   1.000  H
  C663     1.0000 0.26687  0.12401  0.28199  Biso   1.000  C
  H728     1.0000 0.12752  0.13060  0.28290  Biso   1.000  H
  C664     1.0000 0.26691  0.12409  0.28199  Biso   1.000  C
  H729     1.0000 0.12756  0.13068  0.28290  Biso   1.000  H
  H730     1.0000 0.79434  0.85770  0.34685  Biso   1.000  H
  C665     1.0000 0.73239  0.72323  0.32028  Biso   1.000  C
  H731     1.0000 0.79438  0.85778  0.34685  Biso   1.000  H
  C666     1.0000 0.73243  0.72331  0.32028  Biso   1.000  C
  C667     1.0000 0.85714  0.73312  0.28199  Biso   1.000  C
  C668     1.0000 0.85718  0.73320  0.28199  Biso   1.000  C
  H732     1.0000 0.00309  0.87245  0.28290  Biso   1.000  H
  C669     1.0000 0.92026  0.24455  0.29597  Biso   1.000  C
  H733     1.0000 0.02226  0.33609  0.32978  Biso   1.000  H
  H734     1.0000 0.02231  0.33618  0.32978  Biso   1.000  H
  H735     1.0000 0.82942  0.12681  0.26527  Biso   1.000  H
  H736     1.0000 0.82946  0.12689  0.26527  Biso   1.000  H
  C670     1.0000 0.32431  0.07976  0.29597  Biso   1.000  C
  H737     1.0000 0.31391  0.97775  0.32978  Biso   1.000  H
  H738     1.0000 0.29735  0.17056  0.26527  Biso   1.000  H
  C671     1.0000 0.75547  0.67577  0.29597  Biso   1.000  C
  H739     1.0000 0.66390  0.68615  0.32978  Biso   1.000  H
  H740     1.0000 0.87315  0.70263  0.26527  Biso   1.000  H
  O67      1.0000 0.88822  0.31475  0.28418  Biso   1.000  O
  O68      1.0000 0.42654  0.11181  0.28418  Biso   1.000  O
  O69      1.0000 0.68529  0.57352  0.28418  Biso   1.000  O
  C672     1.0000 0.91826  0.41379  0.30031  Biso   1.000  C
  C673     1.0000 0.91830  0.41388  0.30031  Biso   1.000  C
  C674     1.0000 0.49556  0.08174  0.30031  Biso   1.000  C
  C675     1.0000 0.58619  0.50447  0.30031  Biso   1.000  C
  C676     1.0000 0.88367  0.48062  0.28101  Biso   1.000  C
  C677     1.0000 0.88371  0.48070  0.28101  Biso   1.000  C
  H741     1.0000 0.88147  0.39731  0.31998  Biso   1.000  H
  H742     1.0000 0.99712  0.45450  0.30374  Biso   1.000  H
  H743     1.0000 0.88152  0.39740  0.31998  Biso   1.000  H
  H744     1.0000 0.99716  0.45458  0.30374  Biso   1.000  H
  C678     1.0000 0.59699  0.11634  0.28101  Biso   1.000  C
  H745     1.0000 0.51590  0.11857  0.31998  Biso   1.000  H
  H746     1.0000 0.45737  0.00280  0.30374  Biso   1.000  H
  H747     1.0000 0.45741  0.00288  0.30374  Biso   1.000  H
  C679     1.0000 0.51934  0.40304  0.28101  Biso   1.000  C
  H748     1.0000 0.60263  0.48412  0.31998  Biso   1.000  H
  H749     1.0000 0.54546  0.54262  0.30374  Biso   1.000  H
  H750     1.0000 0.60267  0.48420  0.31998  Biso   1.000  H
  H751     1.0000 0.54550  0.54270  0.30374  Biso   1.000  H
  C680     1.0000 0.93808  0.50896  0.24975  Biso   1.000  C
  H752     1.0000 0.80427  0.43942  0.27840  Biso   1.000  H
  H753     1.0000 0.90216  0.54843  0.29170  Biso   1.000  H
  H754     1.0000 0.80431  0.43950  0.27840  Biso   1.000  H
  H755     1.0000 0.90220  0.54851  0.29170  Biso   1.000  H
  C681     1.0000 0.57087  0.06196  0.24975  Biso   1.000  C
  H756     1.0000 0.63521  0.19577  0.27840  Biso   1.000  H
  H757     1.0000 0.64623  0.09780  0.29170  Biso   1.000  H
  H758     1.0000 0.64627  0.09789  0.29170  Biso   1.000  H
  C682     1.0000 0.49109  0.42916  0.24975  Biso   1.000  C
  H759     1.0000 0.56053  0.36481  0.27840  Biso   1.000  H
  H760     1.0000 0.45161  0.35377  0.29170  Biso   1.000  H
  H761     1.0000 0.56057  0.36489  0.27840  Biso   1.000  H
  C683     1.0000 0.06193  0.57084  0.25026  Biso   1.000  C
  C684     1.0000 0.06197  0.57092  0.25026  Biso   1.000  C
  H762     1.0000 0.91329  0.55271  0.23879  Biso   1.000  H
  H763     1.0000 0.91327  0.44107  0.23840  Biso   1.000  H
  H764     1.0000 0.91333  0.55280  0.23879  Biso   1.000  H
  C685     1.0000 0.50891  0.93804  0.25026  Biso   1.000  C
  C686     1.0000 0.50895  0.93812  0.25026  Biso   1.000  C
  H765     1.0000 0.63950  0.08676  0.23879  Biso   1.000  H
  H766     1.0000 0.52775  0.08676  0.23840  Biso   1.000  H
  C687     1.0000 0.42912  0.49104  0.25026  Biso   1.000  C
  C688     1.0000 0.42916  0.49112  0.25026  Biso   1.000  C
  H767     1.0000 0.44728  0.36052  0.23879  Biso   1.000  H
  H768     1.0000 0.55895  0.47225  0.23840  Biso   1.000  H
  H769     1.0000 0.44732  0.36061  0.23879  Biso   1.000  H
  C689     1.0000 0.11631  0.59696  0.21898  Biso   1.000  C
  C690     1.0000 0.11635  0.59704  0.21898  Biso   1.000  C
  H770     1.0000 0.08676  0.63948  0.26120  Biso   1.000  H
  H771     1.0000 0.08669  0.52775  0.26159  Biso   1.000  H
  H772     1.0000 0.08674  0.52783  0.26159  Biso   1.000  H
  C691     1.0000 0.48065  0.88366  0.21898  Biso   1.000  C
  C692     1.0000 0.48069  0.88374  0.21898  Biso   1.000  C
  H773     1.0000 0.55274  0.91324  0.26120  Biso   1.000  H
  H774     1.0000 0.44099  0.91324  0.26159  Biso   1.000  H
  H775     1.0000 0.55278  0.91332  0.26120  Biso   1.000  H
  H776     1.0000 0.44103  0.91332  0.26159  Biso   1.000  H
  C693     1.0000 0.40305  0.51938  0.21898  Biso   1.000  C
  H777     1.0000 0.36058  0.44729  0.26120  Biso   1.000  H
  H778     1.0000 0.47220  0.55893  0.26159  Biso   1.000  H
  H779     1.0000 0.47224  0.55902  0.26159  Biso   1.000  H
  C694     1.0000 0.08172  0.49553  0.19968  Biso   1.000  C
  C695     1.0000 0.08176  0.49561  0.19968  Biso   1.000  C
  H780     1.0000 0.19572  0.63519  0.22161  Biso   1.000  H
  H781     1.0000 0.09784  0.64623  0.20829  Biso   1.000  H
  H782     1.0000 0.09788  0.64632  0.20829  Biso   1.000  H
  C696     1.0000 0.41382  0.91826  0.19968  Biso   1.000  C
  C697     1.0000 0.41386  0.91835  0.19968  Biso   1.000  C
  H783     1.0000 0.43943  0.80423  0.22161  Biso   1.000  H
  H784     1.0000 0.54843  0.90220  0.20829  Biso   1.000  H
  H785     1.0000 0.43947  0.80431  0.22161  Biso   1.000  H
  C698     1.0000 0.50446  0.58621  0.19968  Biso   1.000  C
  H786     1.0000 0.36485  0.56058  0.22161  Biso   1.000  H
  H787     1.0000 0.35373  0.45157  0.20829  Biso   1.000  H
  O70      1.0000 0.11177  0.42648  0.21583  Biso   1.000  O
  O71      1.0000 0.11181  0.42657  0.21583  Biso   1.000  O
  H788     1.0000 0.11851  0.51588  0.18003  Biso   1.000  H
  H789     1.0000 0.00285  0.45738  0.19625  Biso   1.000  H
  O72      1.0000 0.31472  0.88819  0.21583  Biso   1.000  O
  O73      1.0000 0.31476  0.88827  0.21583  Biso   1.000  O
  H790     1.0000 0.39733  0.88143  0.18003  Biso   1.000  H
  H791     1.0000 0.45457  0.99720  0.19625  Biso   1.000  H
  H792     1.0000 0.39737  0.88151  0.18003  Biso   1.000  H
  O74      1.0000 0.57346  0.68525  0.21583  Biso   1.000  O
  O75      1.0000 0.57351  0.68533  0.21583  Biso   1.000  O
  H793     1.0000 0.48416  0.60269  0.18003  Biso   1.000  H
  H794     1.0000 0.54262  0.54550  0.19625  Biso   1.000  H
  C699     1.0000 0.07970  0.32423  0.20402  Biso   1.000  C
  C700     1.0000 0.07974  0.32431  0.20402  Biso   1.000  C
  C701     1.0000 0.24455  0.92024  0.20402  Biso   1.000  C
  C702     1.0000 0.24459  0.92032  0.20402  Biso   1.000  C
  C703     1.0000 0.67571  0.75545  0.20402  Biso   1.000  C
  C704     1.0000 0.67575  0.75553  0.20402  Biso   1.000  C
  C705     1.0000 0.12402  0.26688  0.21802  Biso   1.000  C
  C706     1.0000 0.00916  0.27677  0.17971  Biso   1.000  C
  C707     1.0000 0.14286  0.87599  0.21802  Biso   1.000  C
  C708     1.0000 0.26765  0.99085  0.17971  Biso   1.000  C
  C709     1.0000 0.26770  0.99094  0.17971  Biso   1.000  C
  C710     1.0000 0.72326  0.73238  0.17971  Biso   1.000  C
  C711     1.0000 0.73316  0.85721  0.21802  Biso   1.000  C
  H795     1.0000 0.17052  0.29737  0.23474  Biso   1.000  H
  C712     1.0000 0.09972  0.16463  0.20740  Biso   1.000  C
  C713     1.0000 0.09977  0.16471  0.20740  Biso   1.000  C
  C714     1.0000 0.98516  0.17369  0.16945  Biso   1.000  C
  H796     1.0000 0.97775  0.31385  0.17023  Biso   1.000  H
  H797     1.0000 0.97779  0.31393  0.17023  Biso   1.000  H
  C715     1.0000 0.06496  0.90030  0.20740  Biso   1.000  C
  H798     1.0000 0.12679  0.82944  0.23474  Biso   1.000  H
  H799     1.0000 0.12683  0.82952  0.23474  Biso   1.000  H
  C716     1.0000 0.18852  0.01483  0.16945  Biso   1.000  C
  C717     1.0000 0.18856  0.01491  0.16945  Biso   1.000  C
  H800     1.0000 0.33616  0.02225  0.17023  Biso   1.000  H
  H801     1.0000 0.33620  0.02233  0.17023  Biso   1.000  H
  C718     1.0000 0.82632  0.81148  0.16945  Biso   1.000  C
  H802     1.0000 0.68617  0.66391  0.17023  Biso   1.000  H
  C719     1.0000 0.83531  0.93507  0.20740  Biso   1.000  C
  H803     1.0000 0.70262  0.87319  0.23474  Biso   1.000  H
  C720     1.0000 0.03051  0.11568  0.18256  Biso   1.000  C
  H804     1.0000 0.13064  0.12755  0.21711  Biso   1.000  H
  H805     1.0000 0.13068  0.12763  0.21711  Biso   1.000  H
  H806     1.0000 0.93664  0.14230  0.15314  Biso   1.000  H
  C721     1.0000 0.08512  0.96943  0.18256  Biso   1.000  C
  C722     1.0000 0.08516  0.96951  0.18256  Biso   1.000  C
  H807     1.0000 0.99692  0.86940  0.21711  Biso   1.000  H
  H808     1.0000 0.20565  0.06336  0.15314  Biso   1.000  H
  H809     1.0000 0.20569  0.06345  0.15314  Biso   1.000  H
  C723     1.0000 0.88437  0.91488  0.18256  Biso   1.000  C
  H810     1.0000 0.85771  0.79434  0.15314  Biso   1.000  H
  H811     1.0000 0.85775  0.79442  0.15314  Biso   1.000  H
  H812     1.0000 0.87244  0.00305  0.21711  Biso   1.000  H
  H813     1.0000 0.87248  0.00313  0.21711  Biso   1.000  H
  C724     1.0000 0.00007  0.00000  0.17103  Biso   1.000  C
  C725     1.0000 0.00007  0.00000  0.13555  Biso   1.000  C
  H814     1.0000 0.99043  0.93120  0.12824  Biso   1.000  H
  H815     1.0000 0.94070  0.00956  0.12824  Biso   1.000  H
  H816     1.0000 0.94074  0.00964  0.12824  Biso   1.000  H
  H817     1.0000 0.06880  0.05924  0.12824  Biso   1.000  H
  H818     1.0000 0.06884  0.05933  0.12824  Biso   1.000  H
  C726     1.0000 0.99997  0.00008  0.36444  Biso   1.000  C
  C727     1.0000 0.99993  0.00000  0.32896  Biso   1.000  C
  C728     1.0000 0.99997  0.00008  0.32896  Biso   1.000  C
  H819     1.0000 0.93114  0.99044  0.37175  Biso   1.000  H
  H820     1.0000 0.00955  0.94076  0.37175  Biso   1.000  H
  H821     1.0000 0.05923  0.06880  0.37175  Biso   1.000  H
  H822     1.0000 0.05927  0.06888  0.37175  Biso   1.000  H
  C729     1.0000 0.96949  0.08512  0.31745  Biso   1.000  C
  C730     1.0000 0.96953  0.08520  0.31745  Biso   1.000  C
  C731     1.0000 0.11568  0.03057  0.31745  Biso   1.000  C
  C732     1.0000 0.91483  0.88432  0.31745  Biso   1.000  C
  C733     1.0000 0.91487  0.88440  0.31745  Biso   1.000  C
  C734     1.0000 0.99993  0.00000  0.36444  Biso   1.000  C
  C735     1.0000 0.01484  0.18852  0.33056  Biso   1.000  C
  C736     1.0000 0.01488  0.18860  0.33056  Biso   1.000  C
  C737     1.0000 0.90024  0.06493  0.29261  Biso   1.000  C
  C738     1.0000 0.90028  0.06501  0.29261  Biso   1.000  C
  C739     1.0000 0.17369  0.98517  0.33056  Biso   1.000  C
  C740     1.0000 0.16466  0.09970  0.29261  Biso   1.000  C
  C741     1.0000 0.16470  0.09978  0.29261  Biso   1.000  C
  C742     1.0000 0.81147  0.82631  0.33056  Biso   1.000  C
  C743     1.0000 0.93510  0.83537  0.29261  Biso   1.000  C
  C744     1.0000 0.81151  0.82639  0.33056  Biso   1.000  C
  C745     1.0000 0.99088  0.26762  0.32028  Biso   1.000  C
  C746     1.0000 0.99092  0.26771  0.32028  Biso   1.000  C
  H823     1.0000 0.06337  0.20566  0.34685  Biso   1.000  H
  C747     1.0000 0.87595  0.14279  0.28199  Biso   1.000  C
  C748     1.0000 0.87599  0.14288  0.28199  Biso   1.000  C
  H824     1.0000 0.86939  0.99695  0.28290  Biso   1.000  H
  C749     1.0000 0.27680  0.00915  0.32028  Biso   1.000  C
  H825     1.0000 0.14229  0.93664  0.34685  Biso   1.000  H
  C750     1.0000 0.26687  0.12401  0.28199  Biso   1.000  C
  H826     1.0000 0.12752  0.13060  0.28290  Biso   1.000  H
  C751     1.0000 0.26691  0.12409  0.28199  Biso   1.000  C
  H827     1.0000 0.12756  0.13068  0.28290  Biso   1.000  H
  H828     1.0000 0.79434  0.85770  0.34685  Biso   1.000  H
  C752     1.0000 0.73239  0.72323  0.32028  Biso   1.000  C
  H829     1.0000 0.79438  0.85778  0.34685  Biso   1.000  H
  C753     1.0000 0.73243  0.72331  0.32028  Biso   1.000  C
  C754     1.0000 0.85714  0.73312  0.28199  Biso   1.000  C
  C755     1.0000 0.85718  0.73320  0.28199  Biso   1.000  C
  H830     1.0000 0.00309  0.87245  0.28290  Biso   1.000  H
  C756     1.0000 0.92026  0.24455  0.29597  Biso   1.000  C
  H831     1.0000 0.02226  0.33609  0.32978  Biso   1.000  H
  H832     1.0000 0.02231  0.33618  0.32978  Biso   1.000  H
  H833     1.0000 0.82942  0.12681  0.26527  Biso   1.000  H
  H834     1.0000 0.82946  0.12689  0.26527  Biso   1.000  H
  C757     1.0000 0.32431  0.07976  0.29597  Biso   1.000  C
  H835     1.0000 0.31391  0.97775  0.32978  Biso   1.000  H
  H836     1.0000 0.29735  0.17056  0.26527  Biso   1.000  H
  C758     1.0000 0.75547  0.67577  0.29597  Biso   1.000  C
  H837     1.0000 0.66390  0.68615  0.32978  Biso   1.000  H
  H838     1.0000 0.87315  0.70263  0.26527  Biso   1.000  H
  O76      1.0000 0.88822  0.31475  0.28418  Biso   1.000  O
  O77      1.0000 0.42654  0.11181  0.28418  Biso   1.000  O
  O78      1.0000 0.68529  0.57352  0.28418  Biso   1.000  O
  C759     1.0000 0.91826  0.41379  0.30031  Biso   1.000  C
  C760     1.0000 0.91830  0.41388  0.30031  Biso   1.000  C
  C761     1.0000 0.49556  0.08174  0.30031  Biso   1.000  C
  C762     1.0000 0.58619  0.50447  0.30031  Biso   1.000  C
  C763     1.0000 0.88367  0.48062  0.28101  Biso   1.000  C
  C764     1.0000 0.88371  0.48070  0.28101  Biso   1.000  C
  H839     1.0000 0.88147  0.39731  0.31998  Biso   1.000  H
  H840     1.0000 0.99712  0.45450  0.30374  Biso   1.000  H
  H841     1.0000 0.88152  0.39740  0.31998  Biso   1.000  H
  H842     1.0000 0.99716  0.45458  0.30374  Biso   1.000  H
  C765     1.0000 0.59699  0.11634  0.28101  Biso   1.000  C
  H843     1.0000 0.51590  0.11857  0.31998  Biso   1.000  H
  H844     1.0000 0.45737  0.00280  0.30374  Biso   1.000  H
  H845     1.0000 0.45741  0.00288  0.30374  Biso   1.000  H
  C766     1.0000 0.51934  0.40304  0.28101  Biso   1.000  C
  H846     1.0000 0.60263  0.48412  0.31998  Biso   1.000  H
  H847     1.0000 0.54546  0.54262  0.30374  Biso   1.000  H
  H848     1.0000 0.60267  0.48420  0.31998  Biso   1.000  H
  H849     1.0000 0.54550  0.54270  0.30374  Biso   1.000  H
  C767     1.0000 0.93808  0.50896  0.24975  Biso   1.000  C
  H850     1.0000 0.80427  0.43942  0.27840  Biso   1.000  H
  H851     1.0000 0.90216  0.54843  0.29170  Biso   1.000  H
  H852     1.0000 0.80431  0.43950  0.27840  Biso   1.000  H
  H853     1.0000 0.90220  0.54851  0.29170  Biso   1.000  H
  C768     1.0000 0.57087  0.06196  0.24975  Biso   1.000  C
  H854     1.0000 0.63521  0.19577  0.27840  Biso   1.000  H
  H855     1.0000 0.64623  0.09780  0.29170  Biso   1.000  H
  H856     1.0000 0.64627  0.09789  0.29170  Biso   1.000  H
  C769     1.0000 0.49109  0.42916  0.24975  Biso   1.000  C
  H857     1.0000 0.56053  0.36481  0.27840  Biso   1.000  H
  H858     1.0000 0.45161  0.35377  0.29170  Biso   1.000  H
  H859     1.0000 0.56057  0.36489  0.27840  Biso   1.000  H
  C770     1.0000 0.06193  0.57084  0.25026  Biso   1.000  C
  C771     1.0000 0.06197  0.57092  0.25026  Biso   1.000  C
  H860     1.0000 0.91329  0.55271  0.23879  Biso   1.000  H
  H861     1.0000 0.91327  0.44107  0.23840  Biso   1.000  H
  H862     1.0000 0.91333  0.55280  0.23879  Biso   1.000  H
  C772     1.0000 0.50891  0.93804  0.25026  Biso   1.000  C
  C773     1.0000 0.50895  0.93812  0.25026  Biso   1.000  C
  H863     1.0000 0.63950  0.08676  0.23879  Biso   1.000  H
  H864     1.0000 0.52775  0.08676  0.23840  Biso   1.000  H
  C774     1.0000 0.42912  0.49104  0.25026  Biso   1.000  C
  C775     1.0000 0.42916  0.49112  0.25026  Biso   1.000  C
  H865     1.0000 0.44728  0.36052  0.23879  Biso   1.000  H
  H866     1.0000 0.55895  0.47225  0.23840  Biso   1.000  H
  H867     1.0000 0.44732  0.36061  0.23879  Biso   1.000  H
  C776     1.0000 0.11631  0.59696  0.21898  Biso   1.000  C
  C777     1.0000 0.11635  0.59704  0.21898  Biso   1.000  C
  H868     1.0000 0.08676  0.63948  0.26120  Biso   1.000  H
  H869     1.0000 0.08669  0.52775  0.26159  Biso   1.000  H
  H870     1.0000 0.08674  0.52783  0.26159  Biso   1.000  H
  C778     1.0000 0.48065  0.88366  0.21898  Biso   1.000  C
  C779     1.0000 0.48069  0.88374  0.21898  Biso   1.000  C
  H871     1.0000 0.55274  0.91324  0.26120  Biso   1.000  H
  H872     1.0000 0.44099  0.91324  0.26159  Biso   1.000  H
  H873     1.0000 0.55278  0.91332  0.26120  Biso   1.000  H
  H874     1.0000 0.44103  0.91332  0.26159  Biso   1.000  H
  C780     1.0000 0.40305  0.51938  0.21898  Biso   1.000  C
  H875     1.0000 0.36058  0.44729  0.26120  Biso   1.000  H
  H876     1.0000 0.47220  0.55893  0.26159  Biso   1.000  H
  H877     1.0000 0.47224  0.55902  0.26159  Biso   1.000  H
  C781     1.0000 0.08172  0.49553  0.19968  Biso   1.000  C
  C782     1.0000 0.08176  0.49561  0.19968  Biso   1.000  C
  H878     1.0000 0.19572  0.63519  0.22161  Biso   1.000  H
  H879     1.0000 0.09784  0.64623  0.20829  Biso   1.000  H
  H880     1.0000 0.09788  0.64632  0.20829  Biso   1.000  H
  C783     1.0000 0.41382  0.91826  0.19968  Biso   1.000  C
  C784     1.0000 0.41386  0.91835  0.19968  Biso   1.000  C
  H881     1.0000 0.43943  0.80423  0.22161  Biso   1.000  H
  H882     1.0000 0.54843  0.90220  0.20829  Biso   1.000  H
  H883     1.0000 0.43947  0.80431  0.22161  Biso   1.000  H
  C785     1.0000 0.50446  0.58621  0.19968  Biso   1.000  C
  H884     1.0000 0.36485  0.56058  0.22161  Biso   1.000  H
  H885     1.0000 0.35373  0.45157  0.20829  Biso   1.000  H
  O79      1.0000 0.11177  0.42648  0.21583  Biso   1.000  O
  O80      1.0000 0.11181  0.42657  0.21583  Biso   1.000  O
  H886     1.0000 0.11851  0.51588  0.18003  Biso   1.000  H
  H887     1.0000 0.00285  0.45738  0.19625  Biso   1.000  H
  O81      1.0000 0.31472  0.88819  0.21583  Biso   1.000  O
  O82      1.0000 0.31476  0.88827  0.21583  Biso   1.000  O
  H888     1.0000 0.39733  0.88143  0.18003  Biso   1.000  H
  H889     1.0000 0.45457  0.99720  0.19625  Biso   1.000  H
  H890     1.0000 0.39737  0.88151  0.18003  Biso   1.000  H
  O83      1.0000 0.57346  0.68525  0.21583  Biso   1.000  O
  O84      1.0000 0.57351  0.68533  0.21583  Biso   1.000  O
  H891     1.0000 0.48416  0.60269  0.18003  Biso   1.000  H
  H892     1.0000 0.54262  0.54550  0.19625  Biso   1.000  H
  C786     1.0000 0.07970  0.32423  0.20402  Biso   1.000  C
  C787     1.0000 0.07974  0.32431  0.20402  Biso   1.000  C
  C788     1.0000 0.24455  0.92024  0.20402  Biso   1.000  C
  C789     1.0000 0.24459  0.92032  0.20402  Biso   1.000  C
  C790     1.0000 0.67571  0.75545  0.20402  Biso   1.000  C
  C791     1.0000 0.67575  0.75553  0.20402  Biso   1.000  C
  C792     1.0000 0.12402  0.26688  0.21802  Biso   1.000  C
  C793     1.0000 0.00916  0.27677  0.17971  Biso   1.000  C
  C794     1.0000 0.14286  0.87599  0.21802  Biso   1.000  C
  C795     1.0000 0.26765  0.99085  0.17971  Biso   1.000  C
  C796     1.0000 0.26770  0.99094  0.17971  Biso   1.000  C
  C797     1.0000 0.72326  0.73238  0.17971  Biso   1.000  C
  C798     1.0000 0.73316  0.85721  0.21802  Biso   1.000  C
  H893     1.0000 0.17052  0.29737  0.23474  Biso   1.000  H
  C799     1.0000 0.09972  0.16463  0.20740  Biso   1.000  C
  C800     1.0000 0.09977  0.16471  0.20740  Biso   1.000  C
  C801     1.0000 0.98516  0.17369  0.16945  Biso   1.000  C
  H894     1.0000 0.97775  0.31385  0.17023  Biso   1.000  H
  H895     1.0000 0.97779  0.31393  0.17023  Biso   1.000  H
  C802     1.0000 0.06496  0.90030  0.20740  Biso   1.000  C
  H896     1.0000 0.12679  0.82944  0.23474  Biso   1.000  H
  H897     1.0000 0.12683  0.82952  0.23474  Biso   1.000  H
  C803     1.0000 0.18852  0.01483  0.16945  Biso   1.000  C
  C804     1.0000 0.18856  0.01491  0.16945  Biso   1.000  C
  H898     1.0000 0.33616  0.02225  0.17023  Biso   1.000  H
  H899     1.0000 0.33620  0.02233  0.17023  Biso   1.000  H
  C805     1.0000 0.82632  0.81148  0.16945  Biso   1.000  C
  H900     1.0000 0.68617  0.66391  0.17023  Biso   1.000  H
  C806     1.0000 0.83531  0.93507  0.20740  Biso   1.000  C
  H901     1.0000 0.70262  0.87319  0.23474  Biso   1.000  H
  C807     1.0000 0.03051  0.11568  0.18256  Biso   1.000  C
  H902     1.0000 0.13064  0.12755  0.21711  Biso   1.000  H
  H903     1.0000 0.13068  0.12763  0.21711  Biso   1.000  H
  H904     1.0000 0.93664  0.14230  0.15314  Biso   1.000  H
  C808     1.0000 0.08512  0.96943  0.18256  Biso   1.000  C
  C809     1.0000 0.08516  0.96951  0.18256  Biso   1.000  C
  H905     1.0000 0.99692  0.86940  0.21711  Biso   1.000  H
  H906     1.0000 0.20565  0.06336  0.15314  Biso   1.000  H
  H907     1.0000 0.20569  0.06345  0.15314  Biso   1.000  H
  C810     1.0000 0.88437  0.91488  0.18256  Biso   1.000  C
  H908     1.0000 0.85771  0.79434  0.15314  Biso   1.000  H
  H909     1.0000 0.85775  0.79442  0.15314  Biso   1.000  H
  H910     1.0000 0.87244  0.00305  0.21711  Biso   1.000  H
  H911     1.0000 0.87248  0.00313  0.21711  Biso   1.000  H
  C811     1.0000 0.00007  0.00000  0.17103  Biso   1.000  C
  C812     1.0000 0.00007  0.00000  0.13555  Biso   1.000  C
  H912     1.0000 0.99043  0.93120  0.12824  Biso   1.000  H
  H913     1.0000 0.94070  0.00956  0.12824  Biso   1.000  H
  H914     1.0000 0.94074  0.00964  0.12824  Biso   1.000  H
  H915     1.0000 0.06880  0.05924  0.12824  Biso   1.000  H
  H916     1.0000 0.06884  0.05933  0.12824  Biso   1.000  H
  C813     1.0000 0.33341  0.66667  0.80222  Biso   1.000  C
  C814     1.0000 0.33341  0.66667  0.83770  Biso   1.000  C
  H917     1.0000 0.27403  0.67623  0.79491  Biso   1.000  H
  H918     1.0000 0.40213  0.72591  0.79491  Biso   1.000  H
  H919     1.0000 0.32377  0.59787  0.79491  Biso   1.000  H
  C815     1.0000 0.36385  0.78235  0.84922  Biso   1.000  C
  C816     1.0000 0.41845  0.63610  0.84922  Biso   1.000  C
  C817     1.0000 0.21771  0.58155  0.84922  Biso   1.000  C
  C818     1.0000 0.31850  0.84036  0.83612  Biso   1.000  C
  C819     1.0000 0.43306  0.83130  0.87405  Biso   1.000  C
  C820     1.0000 0.52185  0.68150  0.83612  Biso   1.000  C
  C821     1.0000 0.39830  0.56697  0.87405  Biso   1.000  C
  C822     1.0000 0.15965  0.47815  0.83612  Biso   1.000  C
  C823     1.0000 0.16864  0.60174  0.87405  Biso   1.000  C
  C824     1.0000 0.34249  0.94344  0.84638  Biso   1.000  C
  H920     1.0000 0.26997  0.80897  0.81981  Biso   1.000  H
  C825     1.0000 0.45736  0.93355  0.88467  Biso   1.000  C
  H921     1.0000 0.46397  0.79422  0.88378  Biso   1.000  H
  H922     1.0000 0.53898  0.73003  0.81981  Biso   1.000  H
  C826     1.0000 0.60099  0.65752  0.84638  Biso   1.000  C
  C827     1.0000 0.47620  0.54266  0.88467  Biso   1.000  C
  H923     1.0000 0.33026  0.53607  0.88378  Biso   1.000  H
  H924     1.0000 0.19104  0.46101  0.81981  Biso   1.000  H
  C828     1.0000 0.05659  0.39904  0.84638  Biso   1.000  C
  C829     1.0000 0.06645  0.52379  0.88467  Biso   1.000  C
  H925     1.0000 0.20577  0.66972  0.88378  Biso   1.000  H
  C830     1.0000 0.41303  0.99090  0.87069  Biso   1.000  C
  H926     1.0000 0.31108  0.98051  0.83690  Biso   1.000  H
  H927     1.0000 0.50385  0.96404  0.90140  Biso   1.000  H
  H928     1.0000 0.66949  0.68891  0.83690  Biso   1.000  H
  C831     1.0000 0.57788  0.58691  0.87069  Biso   1.000  C
  H929     1.0000 0.46013  0.49611  0.90140  Biso   1.000  H
  H930     1.0000 0.01950  0.33057  0.83690  Biso   1.000  H
  C832     1.0000 0.00905  0.42212  0.87069  Biso   1.000  C
  H931     1.0000 0.03595  0.53986  0.90140  Biso   1.000  H
  O85      1.0000 0.44511  0.09315  0.88248  Biso   1.000  O
  O86      1.0000 0.64806  0.55486  0.88248  Biso   1.000  O
  O87      1.0000 0.90680  0.35191  0.88248  Biso   1.000  O
  C833     1.0000 0.41505  0.16220  0.86635  Biso   1.000  C
  C834     1.0000 0.74715  0.58493  0.86635  Biso   1.000  C
  C835     1.0000 0.83780  0.25287  0.86635  Biso   1.000  C
  C836     1.0000 0.44964  0.26363  0.88565  Biso   1.000  C
  H932     1.0000 0.45184  0.18255  0.84670  Biso   1.000  H
  H933     1.0000 0.33618  0.12405  0.86292  Biso   1.000  H
  H934     1.0000 0.73066  0.54810  0.84670  Biso   1.000  H
  H935     1.0000 0.78791  0.66387  0.86292  Biso   1.000  H
  C837     1.0000 0.81398  0.55032  0.88565  Biso   1.000  C
  H936     1.0000 0.81749  0.26935  0.84670  Biso   1.000  H
  H937     1.0000 0.87596  0.21217  0.86292  Biso   1.000  H
  C838     1.0000 0.73638  0.18605  0.88565  Biso   1.000  C
  C839     1.0000 0.39526  0.23751  0.91693  Biso   1.000  C
  H938     1.0000 0.52905  0.30186  0.88828  Biso   1.000  H
  H939     1.0000 0.43118  0.31290  0.87496  Biso   1.000  H
  H940     1.0000 0.77277  0.47089  0.88828  Biso   1.000  H
  H941     1.0000 0.88176  0.56886  0.87496  Biso   1.000  H
  C840     1.0000 0.84224  0.60471  0.91693  Biso   1.000  C
  H942     1.0000 0.69818  0.22725  0.88828  Biso   1.000  H
  H943     1.0000 0.68706  0.11824  0.87496  Biso   1.000  H
  C841     1.0000 0.76246  0.15771  0.91693  Biso   1.000  C
  C842     1.0000 0.27142  0.17563  0.91641  Biso   1.000  C
  H944     1.0000 0.42009  0.30614  0.92787  Biso   1.000  H
  H945     1.0000 0.42003  0.19442  0.92826  Biso   1.000  H
  C843     1.0000 0.90420  0.72863  0.91641  Biso   1.000  C
  H946     1.0000 0.88607  0.57990  0.92787  Biso   1.000  H
  H947     1.0000 0.77433  0.57990  0.92826  Biso   1.000  H
  C844     1.0000 0.82442  0.09583  0.91641  Biso   1.000  C
  H948     1.0000 0.69391  0.11395  0.92787  Biso   1.000  H
  H949     1.0000 0.80554  0.22560  0.92826  Biso   1.000  H
  C845     1.0000 0.21700  0.14728  0.94768  Biso   1.000  C
  H950     1.0000 0.24663  0.21938  0.90546  Biso   1.000  H
  H951     1.0000 0.24660  0.10773  0.90507  Biso   1.000  H
  C846     1.0000 0.93032  0.78301  0.94768  Biso   1.000  C
  H952     1.0000 0.97283  0.75343  0.90546  Biso   1.000  H
  H953     1.0000 0.86109  0.75343  0.90507  Biso   1.000  H
  C847     1.0000 0.85268  0.06971  0.94768  Biso   1.000  C
  H954     1.0000 0.78061  0.02719  0.90546  Biso   1.000  H
  H955     1.0000 0.89228  0.13892  0.90507  Biso   1.000  H
  C848     1.0000 0.25159  0.08046  0.96699  Biso   1.000  C
  H956     1.0000 0.13760  0.10609  0.94505  Biso   1.000  H
  H957     1.0000 0.23549  0.21510  0.95837  Biso   1.000  H
  C849     1.0000 0.82889  0.74840  0.96699  Biso   1.000  C
  H958     1.0000 0.96854  0.86244  0.94505  Biso   1.000  H
  H959     1.0000 0.97957  0.76447  0.95837  Biso   1.000  H
  C850     1.0000 0.91952  0.17114  0.96699  Biso   1.000  C
  H960     1.0000 0.89386  0.03148  0.94505  Biso   1.000  H
  H961     1.0000 0.78494  0.02043  0.95837  Biso   1.000  H
  O88      1.0000 0.22155  0.98142  0.95086  Biso   1.000  O
  H962     1.0000 0.21481  0.06398  0.98663  Biso   1.000  H
  H963     1.0000 0.33046  0.12117  0.97041  Biso   1.000  H
  O89      1.0000 0.75987  0.77848  0.95086  Biso   1.000  O
  H964     1.0000 0.84923  0.78524  0.98663  Biso   1.000  H
  H965     1.0000 0.79071  0.66947  0.97041  Biso   1.000  H
  O90      1.0000 0.01862  0.24018  0.95086  Biso   1.000  O
  H966     1.0000 0.93596  0.15079  0.98663  Biso   1.000  H
  H967     1.0000 0.87880  0.20929  0.97041  Biso   1.000  H
  C851     1.0000 0.25360  0.91122  0.96265  Biso   1.000  C
  C852     1.0000 0.65764  0.74643  0.96265  Biso   1.000  C
  C853     1.0000 0.08880  0.34244  0.96265  Biso   1.000  C
  C854     1.0000 0.32422  0.93429  0.98695  Biso   1.000  C
  C855     1.0000 0.20928  0.80946  0.94864  Biso   1.000  C
  C856     1.0000 0.61013  0.67581  0.98695  Biso   1.000  C
  C857     1.0000 0.60020  0.79067  0.94864  Biso   1.000  C
  C858     1.0000 0.06572  0.38990  0.98695  Biso   1.000  C
  C859     1.0000 0.19047  0.39979  0.94864  Biso   1.000  C
  C860     1.0000 0.34817  0.85519  0.99721  Biso   1.000  C
  H968     1.0000 0.35560  0.00276  0.99644  Biso   1.000  H
  H969     1.0000 0.16276  0.79348  0.93194  Biso   1.000  H
  C861     1.0000 0.23357  0.73160  0.95929  Biso   1.000  C
  C862     1.0000 0.50702  0.65184  0.99721  Biso   1.000  C
  H970     1.0000 0.64724  0.64442  0.99644  Biso   1.000  H
  H971     1.0000 0.63069  0.83723  0.93194  Biso   1.000  H
  C863     1.0000 0.49800  0.76637  0.95929  Biso   1.000  C
  C864     1.0000 0.14480  0.49298  0.99721  Biso   1.000  C
  H972     1.0000 0.99723  0.35282  0.99644  Biso   1.000  H
  C865     1.0000 0.26843  0.50204  0.95929  Biso   1.000  C
  H973     1.0000 0.20649  0.36930  0.93194  Biso   1.000  H
  C866     1.0000 0.30282  0.75178  0.98410  Biso   1.000  C
  H974     1.0000 0.39670  0.87233  0.01352  Biso   1.000  H
  H975     1.0000 0.20272  0.66362  0.94956  Biso   1.000  H
  C867     1.0000 0.44902  0.69724  0.98410  Biso   1.000  C
  H976     1.0000 0.47562  0.60331  0.01352  Biso   1.000  H
  H977     1.0000 0.46086  0.79727  0.94956  Biso   1.000  H
  C868     1.0000 0.24816  0.55098  0.98410  Biso   1.000  C
  H978     1.0000 0.12768  0.52437  0.01352  Biso   1.000  H
  H979     1.0000 0.33642  0.53912  0.94956  Biso   1.000  H
  C869     1.0000 0.33326  0.66667  0.99564  Biso   1.000  C
  C870     1.0000 0.33326  0.66667  0.03112  Biso   1.000  C
  H980     1.0000 0.34289  0.60742  0.03843  Biso   1.000  H
  H981     1.0000 0.39257  0.73547  0.03843  Biso   1.000  H
  H982     1.0000 0.26448  0.65711  0.03843  Biso   1.000  H
  C871     1.0000 0.66662  0.33338  0.19778  Biso   1.000  C
  C872     1.0000 0.66662  0.33338  0.16230  Biso   1.000  C
  H983     1.0000 0.72595  0.32373  0.20509  Biso   1.000  H
  H984     1.0000 0.59785  0.27405  0.20509  Biso   1.000  H
  H985     1.0000 0.67626  0.40218  0.20509  Biso   1.000  H
  C873     1.0000 0.58153  0.36386  0.15078  Biso   1.000  C
  C874     1.0000 0.63618  0.21769  0.15078  Biso   1.000  C
  C875     1.0000 0.78231  0.41849  0.15078  Biso   1.000  C
  C876     1.0000 0.47813  0.31846  0.16388  Biso   1.000  C
  C877     1.0000 0.60172  0.43307  0.12595  Biso   1.000  C
  C878     1.0000 0.68153  0.15968  0.16388  Biso   1.000  C
  C879     1.0000 0.56692  0.16867  0.12595  Biso   1.000  C
  C880     1.0000 0.84037  0.52190  0.16388  Biso   1.000  C
  C881     1.0000 0.83138  0.39830  0.12595  Biso   1.000  C
  C882     1.0000 0.39899  0.34244  0.15362  Biso   1.000  C
  H986     1.0000 0.46100  0.26993  0.18019  Biso   1.000  H
  C883     1.0000 0.52382  0.45738  0.11533  Biso   1.000  C
  H987     1.0000 0.66976  0.46397  0.11622  Biso   1.000  H
  C884     1.0000 0.65753  0.05661  0.15362  Biso   1.000  C
  H988     1.0000 0.73005  0.19108  0.18019  Biso   1.000  H
  C885     1.0000 0.54267  0.06649  0.11533  Biso   1.000  C
  H989     1.0000 0.53601  0.20574  0.11622  Biso   1.000  H
  H990     1.0000 0.80894  0.53895  0.18019  Biso   1.000  H
  C886     1.0000 0.94343  0.60100  0.15362  Biso   1.000  C
  C887     1.0000 0.93353  0.47617  0.11533  Biso   1.000  C
  H991     1.0000 0.79421  0.33024  0.11622  Biso   1.000  H
  H992     1.0000 0.33049  0.31105  0.16310  Biso   1.000  H
  C888     1.0000 0.42210  0.41305  0.12931  Biso   1.000  C
  H993     1.0000 0.53985  0.50385  0.09860  Biso   1.000  H
  C889     1.0000 0.58695  0.00906  0.12931  Biso   1.000  C
  H994     1.0000 0.68890  0.01945  0.16310  Biso   1.000  H
  H995     1.0000 0.49617  0.03601  0.09860  Biso   1.000  H
  H996     1.0000 0.98052  0.66947  0.16310  Biso   1.000  H
  C890     1.0000 0.99093  0.57784  0.12931  Biso   1.000  C
  H997     1.0000 0.96407  0.46018  0.09860  Biso   1.000  H
  O91      1.0000 0.35192  0.44510  0.11752  Biso   1.000  O
  O92      1.0000 0.55487  0.90681  0.11752  Biso   1.000  O
  O93      1.0000 0.09318  0.64805  0.11752  Biso   1.000  O
  C891     1.0000 0.25283  0.41503  0.13365  Biso   1.000  C
  C892     1.0000 0.58493  0.83776  0.13365  Biso   1.000  C
  C893     1.0000 0.16222  0.74717  0.13365  Biso   1.000  C
  H998     1.0000 0.26932  0.45186  0.15330  Biso   1.000  H
  H999     1.0000 0.21212  0.33618  0.13708  Biso   1.000  H
  C894     1.0000 0.18600  0.44964  0.11435  Biso   1.000  C
  C895     1.0000 0.55034  0.73633  0.11435  Biso   1.000  C
  H1000    1.0000 0.54818  0.81749  0.15330  Biso   1.000  H
  H1001    1.0000 0.66384  0.87599  0.13708  Biso   1.000  H
  H1002    1.0000 0.18253  0.73069  0.15330  Biso   1.000  H
  H1003    1.0000 0.12406  0.78787  0.13708  Biso   1.000  H
  C896     1.0000 0.26364  0.81399  0.11435  Biso   1.000  C
  H1004    1.0000 0.22721  0.52907  0.11172  Biso   1.000  H
  H1005    1.0000 0.11826  0.43118  0.12504  Biso   1.000  H
  C897     1.0000 0.15774  0.39525  0.08307  Biso   1.000  C
  C898     1.0000 0.60472  0.76245  0.08307  Biso   1.000  C
  H1006    1.0000 0.47097  0.69818  0.11172  Biso   1.000  H
  H1007    1.0000 0.56880  0.68706  0.12504  Biso   1.000  H
  H1008    1.0000 0.30184  0.77279  0.11172  Biso   1.000  H
  H1009    1.0000 0.31296  0.88180  0.12504  Biso   1.000  H
  C899     1.0000 0.23752  0.84225  0.08307  Biso   1.000  C
  C900     1.0000 0.09582  0.27141  0.08359  Biso   1.000  C
  H1010    1.0000 0.11391  0.42006  0.07213  Biso   1.000  H
  H1011    1.0000 0.22566  0.42006  0.07174  Biso   1.000  H
  C901     1.0000 0.72860  0.82441  0.08359  Biso   1.000  C
  H1012    1.0000 0.57993  0.69390  0.07213  Biso   1.000  H
  H1013    1.0000 0.57995  0.80554  0.07174  Biso   1.000  H
  C902     1.0000 0.17560  0.90422  0.08359  Biso   1.000  C
  H1014    1.0000 0.30611  0.88609  0.07213  Biso   1.000  H
  H1015    1.0000 0.19444  0.77436  0.07174  Biso   1.000  H
  C903     1.0000 0.06970  0.21703  0.05232  Biso   1.000  C
  H1016    1.0000 0.02719  0.24661  0.09454  Biso   1.000  H
  H1017    1.0000 0.13893  0.24661  0.09493  Biso   1.000  H
  C904     1.0000 0.78298  0.85268  0.05232  Biso   1.000  C
  H1018    1.0000 0.75335  0.78058  0.09454  Biso   1.000  H
  H1019    1.0000 0.75342  0.89231  0.09493  Biso   1.000  H
  C905     1.0000 0.14734  0.93034  0.05232  Biso   1.000  C
  H1020    1.0000 0.21937  0.97277  0.09454  Biso   1.000  H
  H1021    1.0000 0.10774  0.86112  0.09493  Biso   1.000  H
  C906     1.0000 0.17113  0.25164  0.03301  Biso   1.000  C
  H1022    1.0000 0.03148  0.13760  0.05495  Biso   1.000  H
  H1023    1.0000 0.02041  0.23549  0.04163  Biso   1.000  H
  C907     1.0000 0.74839  0.91950  0.03301  Biso   1.000  C
  H1024    1.0000 0.86238  0.89387  0.05495  Biso   1.000  H
  H1025    1.0000 0.76449  0.78486  0.04163  Biso   1.000  H
  C908     1.0000 0.08050  0.82891  0.03301  Biso   1.000  C
  H1026    1.0000 0.10612  0.96849  0.05495  Biso   1.000  H
  H1027    1.0000 0.21508  0.97961  0.04163  Biso   1.000  H
  O94      1.0000 0.24015  0.22156  0.04914  Biso   1.000  O
  H1028    1.0000 0.15079  0.21481  0.01337  Biso   1.000  H
  H1029    1.0000 0.20927  0.33049  0.02959  Biso   1.000  H
  O95      1.0000 0.77847  0.01862  0.04914  Biso   1.000  O
  H1030    1.0000 0.78517  0.93598  0.01337  Biso   1.000  H
  H1031    1.0000 0.66952  0.87880  0.02959  Biso   1.000  H
  O96      1.0000 0.98140  0.75986  0.04914  Biso   1.000  O
  H1032    1.0000 0.06402  0.84918  0.01337  Biso   1.000  H
  H1033    1.0000 0.12118  0.79067  0.02959  Biso   1.000  H
  C909     1.0000 0.34238  0.25362  0.03735  Biso   1.000  C
  C910     1.0000 0.74642  0.08882  0.03735  Biso   1.000  C
  C911     1.0000 0.91122  0.65760  0.03735  Biso   1.000  C
  C912     1.0000 0.38989  0.32423  0.01305  Biso   1.000  C
  C913     1.0000 0.39978  0.20929  0.05136  Biso   1.000  C
  C914     1.0000 0.67576  0.06567  0.01305  Biso   1.000  C
  C915     1.0000 0.79070  0.19050  0.05136  Biso   1.000  C
  C916     1.0000 0.93426  0.61006  0.01305  Biso   1.000  C
  C917     1.0000 0.80951  0.60017  0.05136  Biso   1.000  C
  C918     1.0000 0.49300  0.34821  0.00279  Biso   1.000  C
  H1034    1.0000 0.35278  0.35562  0.00356  Biso   1.000  H
  H1035    1.0000 0.36933  0.16281  0.06806  Biso   1.000  H
  C919     1.0000 0.50198  0.23359  0.04071  Biso   1.000  C
  C920     1.0000 0.65181  0.14477  0.00279  Biso   1.000  C
  H1036    1.0000 0.64438  0.99720  0.00356  Biso   1.000  H
  C921     1.0000 0.76641  0.26836  0.04071  Biso   1.000  C
  H1037    1.0000 0.83722  0.20648  0.06806  Biso   1.000  H
  C922     1.0000 0.85518  0.50698  0.00279  Biso   1.000  C
  H1038    1.0000 0.00279  0.64722  0.00356  Biso   1.000  H
  C923     1.0000 0.73159  0.49800  0.04071  Biso   1.000  C
  H1039    1.0000 0.79350  0.63066  0.06806  Biso   1.000  H
  C924     1.0000 0.55100  0.30281  0.01590  Biso   1.000  C
  H1040    1.0000 0.52440  0.39674  0.98648  Biso   1.000  H
  H1041    1.0000 0.53912  0.20269  0.05044  Biso   1.000  H
  C925     1.0000 0.69716  0.24818  0.01590  Biso   1.000  C
  H1042    1.0000 0.60332  0.12771  0.98648  Biso   1.000  H
  H1043    1.0000 0.79730  0.33642  0.05044  Biso   1.000  H
  C926     1.0000 0.75182  0.44898  0.01590  Biso   1.000  C
  H1044    1.0000 0.87230  0.47559  0.98648  Biso   1.000  H
  H1045    1.0000 0.66360  0.46092  0.05044  Biso   1.000  H
  C927     1.0000 0.66672  0.33329  0.00436  Biso   1.000  C
  C928     1.0000 0.66672  0.33329  0.96888  Biso   1.000  C
  H1046    1.0000 0.65713  0.39262  0.96157  Biso   1.000  H
  H1047    1.0000 0.60741  0.26449  0.96157  Biso   1.000  H
  H1048    1.0000 0.73555  0.34293  0.96157  Biso   1.000  H
