data_image0
_cell_length_a       14.012
_cell_length_b       14.012
_cell_length_c       43.791
_cell_angle_alpha    90
_cell_angle_beta     90
_cell_angle_gamma    120

_symmetry_space_group_name_H-M    "P 1"
_symmetry_int_tables_number       1

loop_
  _symmetry_equiv_pos_as_xyz
  'x, y, z'

loop_
  _atom_site_label
  _atom_site_occupancy
  _atom_site_fract_x
  _atom_site_fract_y
  _atom_site_fract_z
  _atom_site_thermal_displace_type
  _atom_site_B_iso_or_equiv
  _atom_site_type_symbol
  C1       1.0000 0.74817  0.82878  0.53301  Biso   1.000  C
  O1       1.0000 0.77815  0.75955  0.54920  Biso   1.000  O
  C2       1.0000 0.78303  0.93047  0.55228  Biso   1.000  C
  H1       1.0000 0.78496  0.84897  0.51339  Biso   1.000  H
  H2       1.0000 0.66919  0.79070  0.52961  Biso   1.000  H
  C3       1.0000 0.74655  0.65753  0.53737  Biso   1.000  C
  C4       1.0000 0.72872  0.90435  0.58345  Biso   1.000  C
  H3       1.0000 0.86234  0.96862  0.55491  Biso   1.000  H
  H4       1.0000 0.76445  0.97967  0.54160  Biso   1.000  H
  C5       1.0000 0.67583  0.61015  0.51305  Biso   1.000  C
  C6       1.0000 0.79056  0.60009  0.55130  Biso   1.000  C
  C7       1.0000 0.60463  0.84229  0.58322  Biso   1.000  C
  H5       1.0000 0.75370  0.97299  0.59439  Biso   1.000  H
  H6       1.0000 0.75371  0.86141  0.59480  Biso   1.000  H
  C8       1.0000 0.65190  0.50706  0.50280  Biso   1.000  C
  H7       1.0000 0.64434  0.64723  0.50360  Biso   1.000  H
  C9       1.0000 0.76623  0.49791  0.54059  Biso   1.000  C
  H8       1.0000 0.83709  0.63050  0.56799  Biso   1.000  H
  C10      1.0000 0.55036  0.81411  0.61440  Biso   1.000  C
  H9       1.0000 0.57965  0.88597  0.57226  Biso   1.000  H
  H10      1.0000 0.57967  0.77439  0.57188  Biso   1.000  H
  C11      1.0000 0.69712  0.44863  0.51584  Biso   1.000  C
  H11      1.0000 0.60344  0.47566  0.48649  Biso   1.000  H
  H12      1.0000 0.79706  0.46066  0.55030  Biso   1.000  H
  C12      1.0000 0.58517  0.74728  0.63365  Biso   1.000  C
  H13      1.0000 0.47106  0.77299  0.61177  Biso   1.000  H
  H14      1.0000 0.56881  0.88185  0.62506  Biso   1.000  H
  C13      1.0000 0.66660  0.33334  0.50440  Biso   1.000  C
  O2       1.0000 0.55519  0.64806  0.61746  Biso   1.000  O
  H15      1.0000 0.54830  0.73063  0.65326  Biso   1.000  H
  H16      1.0000 0.66413  0.78815  0.63707  Biso   1.000  H
  C14      1.0000 0.66660  0.33334  0.46893  Biso   1.000  C
  C15      1.0000 0.75148  0.30285  0.51584  Biso   1.000  C
  C16      1.0000 0.55136  0.24846  0.51584  Biso   1.000  C
  C17      1.0000 0.58680  0.57768  0.62928  Biso   1.000  C
  H17      1.0000 0.73519  0.39317  0.46160  Biso   1.000  H
  H18      1.0000 0.65805  0.26486  0.46160  Biso   1.000  H
  H19      1.0000 0.60691  0.34199  0.46160  Biso   1.000  H
  C18      1.0000 0.85510  0.34809  0.50280  Biso   1.000  C
  C19      1.0000 0.73165  0.23379  0.54059  Biso   1.000  C
  C20      1.0000 0.49300  0.14487  0.50280  Biso   1.000  C
  C21      1.0000 0.50213  0.26832  0.54059  Biso   1.000  C
  C22      1.0000 0.65748  0.60100  0.65360  Biso   1.000  C
  C23      1.0000 0.54274  0.47615  0.61538  Biso   1.000  C
  H20      1.0000 0.87215  0.39646  0.48649  Biso   1.000  H
  C24      1.0000 0.93436  0.32419  0.51305  Biso   1.000  C
  C25      1.0000 0.80952  0.20940  0.55130  Biso   1.000  C
  H21      1.0000 0.66361  0.20289  0.55030  Biso   1.000  H
  H22      1.0000 0.52430  0.12781  0.48649  Biso   1.000  H
  C26      1.0000 0.38982  0.06568  0.51305  Biso   1.000  C
  C27      1.0000 0.39993  0.19053  0.55130  Biso   1.000  C
  H23      1.0000 0.53931  0.33639  0.55030  Biso   1.000  H
  C28      1.0000 0.68147  0.52181  0.66388  Biso   1.000  C
  H24      1.0000 0.68905  0.66956  0.66306  Biso   1.000  H
  H25      1.0000 0.49624  0.46008  0.59866  Biso   1.000  H
  C29      1.0000 0.56715  0.39836  0.62606  Biso   1.000  C
  C30      1.0000 0.91096  0.25340  0.53737  Biso   1.000  C
  H26      1.0000 0.00291  0.35567  0.50360  Biso   1.000  H
  H27      1.0000 0.79342  0.16292  0.56799  Biso   1.000  H
  C31      1.0000 0.34246  0.08900  0.53737  Biso   1.000  C
  H28      1.0000 0.35283  0.99712  0.50360  Biso   1.000  H
  H29      1.0000 0.36950  0.20660  0.56799  Biso   1.000  H
  C32      1.0000 0.63620  0.41814  0.65082  Biso   1.000  C
  H30      1.0000 0.72982  0.53887  0.68016  Biso   1.000  H
  H31      1.0000 0.53626  0.33029  0.61636  Biso   1.000  H
  O3       1.0000 0.98139  0.22184  0.54920  Biso   1.000  O
  O4       1.0000 0.24047  0.01862  0.54920  Biso   1.000  O
  C33      1.0000 0.66660  0.33334  0.66228  Biso   1.000  C
  C34      1.0000 0.08060  0.25184  0.53301  Biso   1.000  C
  C35      1.0000 0.17124  0.91941  0.53301  Biso   1.000  C
  C36      1.0000 0.78197  0.36383  0.65082  Biso   1.000  C
  C37      1.0000 0.58183  0.21805  0.65082  Biso   1.000  C
  C38      1.0000 0.66660  0.33334  0.69772  Biso   1.000  C
  H32      1.0000 0.06397  0.21500  0.51339  Biso   1.000  H
  H33      1.0000 0.12150  0.33079  0.52961  Biso   1.000  H
  C39      1.0000 0.14746  0.21698  0.55228  Biso   1.000  C
  H34      1.0000 0.15097  0.93597  0.51339  Biso   1.000  H
  H35      1.0000 0.20932  0.87853  0.52961  Biso   1.000  H
  C40      1.0000 0.06959  0.85257  0.55228  Biso   1.000  C
  C41      1.0000 0.84035  0.31859  0.66388  Biso   1.000  C
  C42      1.0000 0.83120  0.43289  0.62606  Biso   1.000  C
  C43      1.0000 0.47818  0.15962  0.66388  Biso   1.000  C
  C44      1.0000 0.60166  0.16877  0.62606  Biso   1.000  C
  H36      1.0000 0.67532  0.27343  0.70508  Biso   1.000  H
  H37      1.0000 0.72657  0.40190  0.70508  Biso   1.000  H
  H38      1.0000 0.59811  0.32469  0.70508  Biso   1.000  H
  H39      1.0000 0.10632  0.13770  0.55491  Biso   1.000  H
  H40      1.0000 0.21518  0.23552  0.54160  Biso   1.000  H
  C45      1.0000 0.17561  0.27129  0.58345  Biso   1.000  C
  H41      1.0000 0.03142  0.89369  0.55491  Biso   1.000  H
  H42      1.0000 0.02031  0.78483  0.54160  Biso   1.000  H
  C46      1.0000 0.09568  0.82439  0.58345  Biso   1.000  C
  C47      1.0000 0.94351  0.34249  0.65360  Biso   1.000  C
  H43      1.0000 0.80899  0.27013  0.68016  Biso   1.000  H
  C48      1.0000 0.93347  0.45728  0.61538  Biso   1.000  C
  H44      1.0000 0.79406  0.46379  0.61636  Biso   1.000  H
  C49      1.0000 0.39902  0.05653  0.65360  Biso   1.000  C
  H45      1.0000 0.46108  0.19094  0.68016  Biso   1.000  H
  C50      1.0000 0.52380  0.06659  0.61538  Biso   1.000  C
  H46      1.0000 0.66970  0.20594  0.61636  Biso   1.000  H
  H47      1.0000 0.21929  0.24632  0.59439  Biso   1.000  H
  H48      1.0000 0.10774  0.24632  0.59480  Biso   1.000  H
  C51      1.0000 0.23762  0.39531  0.58322  Biso   1.000  C
  C52      1.0000 0.15772  0.76234  0.58322  Biso   1.000  C
  H49      1.0000 0.02702  0.78071  0.59439  Biso   1.000  H
  H50      1.0000 0.13862  0.89229  0.59480  Biso   1.000  H
  C53      1.0000 0.99085  0.41319  0.62928  Biso   1.000  C
  H51      1.0000 0.98058  0.31101  0.66306  Biso   1.000  H
  H52      1.0000 0.96384  0.50376  0.59866  Biso   1.000  H
  C54      1.0000 0.42236  0.00915  0.62928  Biso   1.000  C
  H53      1.0000 0.33045  0.01945  0.66306  Biso   1.000  H
  H54      1.0000 0.53993  0.03618  0.59866  Biso   1.000  H
  C55      1.0000 0.26382  0.44970  0.61440  Biso   1.000  C
  H55      1.0000 0.30631  0.42036  0.57226  Biso   1.000  H
  H56      1.0000 0.19477  0.42036  0.57188  Biso   1.000  H
  C56      1.0000 0.18591  0.73621  0.61440  Biso   1.000  C
  H57      1.0000 0.11404  0.69369  0.57226  Biso   1.000  H
  H58      1.0000 0.22564  0.80527  0.57188  Biso   1.000  H
  O5       1.0000 0.09289  0.44484  0.61746  Biso   1.000  O
  O6       1.0000 0.35194  0.90713  0.61746  Biso   1.000  O
  C57      1.0000 0.16210  0.41484  0.63365  Biso   1.000  C
  H59      1.0000 0.30196  0.52898  0.61177  Biso   1.000  H
  H60      1.0000 0.31300  0.43116  0.62506  Biso   1.000  H
  C58      1.0000 0.25274  0.83790  0.63365  Biso   1.000  C
  H61      1.0000 0.22706  0.69806  0.61177  Biso   1.000  H
  H62      1.0000 0.11809  0.68693  0.62506  Biso   1.000  H
  H63      1.0000 0.18230  0.45168  0.65326  Biso   1.000  H
  H64      1.0000 0.12406  0.33589  0.63707  Biso   1.000  H
  H65      1.0000 0.26929  0.81763  0.65326  Biso   1.000  H
  H66      1.0000 0.21182  0.87598  0.63707  Biso   1.000  H
  O7       1.0000 0.75954  0.98140  0.45080  Biso   1.000  O
  C59      1.0000 0.82873  0.08053  0.46699  Biso   1.000  C
  C60      1.0000 0.65755  0.91102  0.46263  Biso   1.000  C
  C61      1.0000 0.93042  0.14745  0.44772  Biso   1.000  C
  H67      1.0000 0.84900  0.06397  0.48661  Biso   1.000  H
  H68      1.0000 0.79069  0.12149  0.47039  Biso   1.000  H
  C62      1.0000 0.61019  0.93434  0.48695  Biso   1.000  C
  C63      1.0000 0.60008  0.80949  0.44870  Biso   1.000  C
  C64      1.0000 0.90433  0.17563  0.41655  Biso   1.000  C
  H69      1.0000 0.96859  0.10633  0.44509  Biso   1.000  H
  H70      1.0000 0.97970  0.21519  0.45840  Biso   1.000  H
  C65      1.0000 0.50701  0.85515  0.49720  Biso   1.000  C
  H71      1.0000 0.64718  0.00291  0.49640  Biso   1.000  H
  C66      1.0000 0.49788  0.73170  0.45941  Biso   1.000  C
  H72      1.0000 0.63051  0.79342  0.43201  Biso   1.000  H
  C67      1.0000 0.84229  0.23769  0.41678  Biso   1.000  C
  H73      1.0000 0.97299  0.21931  0.40561  Biso   1.000  H
  H74      1.0000 0.86139  0.10773  0.40520  Biso   1.000  H
  C68      1.0000 0.44861  0.75148  0.48416  Biso   1.000  C
  H75      1.0000 0.47571  0.87221  0.51351  Biso   1.000  H
  H76      1.0000 0.46071  0.66363  0.44970  Biso   1.000  H
  C69      1.0000 0.81411  0.26381  0.38560  Biso   1.000  C
  H77      1.0000 0.88597  0.30633  0.42774  Biso   1.000  H
  H78      1.0000 0.77437  0.19475  0.42812  Biso   1.000  H
  C70      1.0000 0.33327  0.66668  0.49560  Biso   1.000  C
  C71      1.0000 0.74727  0.16212  0.36635  Biso   1.000  C
  H79      1.0000 0.77295  0.30196  0.38823  Biso   1.000  H
  H80      1.0000 0.88188  0.31301  0.37494  Biso   1.000  H
  C72      1.0000 0.30285  0.55131  0.48416  Biso   1.000  C
  C73      1.0000 0.33327  0.66668  0.53107  Biso   1.000  C
  C74      1.0000 0.24853  0.69717  0.48416  Biso   1.000  C
  O8       1.0000 0.64807  0.09289  0.38254  Biso   1.000  O
  H81      1.0000 0.73068  0.18231  0.34674  Biso   1.000  H
  H82      1.0000 0.78819  0.12404  0.36293  Biso   1.000  H
  C75      1.0000 0.34811  0.49296  0.49720  Biso   1.000  C
  C76      1.0000 0.23378  0.50211  0.45941  Biso   1.000  C
  H83      1.0000 0.39324  0.65803  0.53840  Biso   1.000  H
  H84      1.0000 0.26492  0.60677  0.53840  Biso   1.000  H
  H85      1.0000 0.34199  0.73508  0.53840  Biso   1.000  H
  C77      1.0000 0.14491  0.65193  0.49720  Biso   1.000  C
  C78      1.0000 0.26836  0.76623  0.45941  Biso   1.000  C
  C79      1.0000 0.57765  0.99087  0.37072  Biso   1.000  C
  C80      1.0000 0.32414  0.38979  0.48695  Biso   1.000  C
  H86      1.0000 0.39652  0.52428  0.51351  Biso   1.000  H
  C81      1.0000 0.20945  0.39993  0.44870  Biso   1.000  C
  H87      1.0000 0.20291  0.53928  0.44970  Biso   1.000  H
  H88      1.0000 0.12781  0.60347  0.51351  Biso   1.000  H
  C82      1.0000 0.06565  0.67583  0.48695  Biso   1.000  C
  C83      1.0000 0.19049  0.79062  0.44870  Biso   1.000  C
  H89      1.0000 0.33641  0.79713  0.44970  Biso   1.000  H
  C84      1.0000 0.60099  0.94349  0.34640  Biso   1.000  C
  C85      1.0000 0.47621  0.93344  0.38462  Biso   1.000  C
  C86      1.0000 0.25346  0.34249  0.46263  Biso   1.000  C
  H90      1.0000 0.35567  0.35279  0.49640  Biso   1.000  H
  H91      1.0000 0.16292  0.36952  0.43201  Biso   1.000  H
  C87      1.0000 0.08901  0.74653  0.46263  Biso   1.000  C
  H92      1.0000 0.99705  0.64427  0.49640  Biso   1.000  H
  H93      1.0000 0.20659  0.83710  0.43201  Biso   1.000  H
  C88      1.0000 0.52183  0.84040  0.33612  Biso   1.000  C
  H94      1.0000 0.66956  0.98057  0.33694  Biso   1.000  H
  C89      1.0000 0.39835  0.83125  0.37394  Biso   1.000  C
  H95      1.0000 0.46008  0.96384  0.40134  Biso   1.000  H
  O9       1.0000 0.22186  0.24047  0.45080  Biso   1.000  O
  O10      1.0000 0.01862  0.77818  0.45080  Biso   1.000  O
  C90      1.0000 0.41818  0.78197  0.34918  Biso   1.000  C
  H96      1.0000 0.53888  0.80900  0.31984  Biso   1.000  H
  H97      1.0000 0.33027  0.79400  0.38364  Biso   1.000  H
  C91      1.0000 0.25184  0.17124  0.46699  Biso   1.000  C
  C92      1.0000 0.91941  0.74818  0.46699  Biso   1.000  C
  C93      1.0000 0.33338  0.66676  0.33772  Biso   1.000  C
  C94      1.0000 0.21698  0.06955  0.44772  Biso   1.000  C
  H98      1.0000 0.21501  0.15097  0.48661  Biso   1.000  H
  H99      1.0000 0.33082  0.20932  0.47039  Biso   1.000  H
  C95      1.0000 0.85255  0.78304  0.44772  Biso   1.000  C
  H100     1.0000 0.93604  0.78502  0.48661  Biso   1.000  H
  H101     1.0000 0.87851  0.66924  0.47039  Biso   1.000  H
  C96      1.0000 0.36377  0.58180  0.34918  Biso   1.000  C
  C97      1.0000 0.21804  0.63619  0.34918  Biso   1.000  C
  C98      1.0000 0.33338  0.66676  0.30228  Biso   1.000  C
  C99      1.0000 0.27129  0.09568  0.41655  Biso   1.000  C
  H102     1.0000 0.13767  0.03140  0.44509  Biso   1.000  H
  H103     1.0000 0.23551  0.02027  0.45840  Biso   1.000  H
  C100     1.0000 0.82436  0.72865  0.41655  Biso   1.000  C
  H104     1.0000 0.89369  0.86232  0.44509  Biso   1.000  H
  H105     1.0000 0.78483  0.76450  0.45840  Biso   1.000  H
  C101     1.0000 0.31854  0.47821  0.33612  Biso   1.000  C
  C102     1.0000 0.43286  0.60166  0.37394  Biso   1.000  C
  C103     1.0000 0.15966  0.68143  0.33612  Biso   1.000  C
  C104     1.0000 0.16881  0.56713  0.37394  Biso   1.000  C
  H106     1.0000 0.27344  0.59812  0.29492  Biso   1.000  H
  H107     1.0000 0.40190  0.67533  0.29492  Biso   1.000  H
  H108     1.0000 0.32464  0.72651  0.29492  Biso   1.000  H
  C105     1.0000 0.39538  0.15773  0.41678  Biso   1.000  C
  H109     1.0000 0.24632  0.02703  0.40561  Biso   1.000  H
  H110     1.0000 0.24630  0.13861  0.40520  Biso   1.000  H
  C106     1.0000 0.76235  0.60463  0.41678  Biso   1.000  C
  H111     1.0000 0.78072  0.75370  0.40561  Biso   1.000  H
  H112     1.0000 0.89227  0.75370  0.40520  Biso   1.000  H
  C107     1.0000 0.34249  0.39894  0.34640  Biso   1.000  C
  H113     1.0000 0.27019  0.46116  0.31984  Biso   1.000  H
  C108     1.0000 0.45723  0.52379  0.38462  Biso   1.000  C
  H114     1.0000 0.46375  0.66973  0.38364  Biso   1.000  H
  C109     1.0000 0.05650  0.65753  0.34640  Biso   1.000  C
  H115     1.0000 0.19098  0.72981  0.31984  Biso   1.000  H
  C110     1.0000 0.06655  0.54274  0.38462  Biso   1.000  C
  H116     1.0000 0.20595  0.53623  0.38364  Biso   1.000  H
  C111     1.0000 0.44965  0.18591  0.38560  Biso   1.000  C
  H117     1.0000 0.42036  0.11405  0.42774  Biso   1.000  H
  H118     1.0000 0.42034  0.22563  0.42812  Biso   1.000  H
  C112     1.0000 0.73619  0.55032  0.38560  Biso   1.000  C
  H119     1.0000 0.69370  0.57966  0.42774  Biso   1.000  H
  H120     1.0000 0.80524  0.57966  0.42812  Biso   1.000  H
  C113     1.0000 0.41321  0.42234  0.37072  Biso   1.000  C
  H121     1.0000 0.31096  0.33046  0.33694  Biso   1.000  H
  H122     1.0000 0.50377  0.53994  0.40134  Biso   1.000  H
  C114     1.0000 0.00912  0.58674  0.37072  Biso   1.000  C
  H123     1.0000 0.01943  0.68901  0.33694  Biso   1.000  H
  H124     1.0000 0.03617  0.49626  0.40134  Biso   1.000  H
  C115     1.0000 0.41484  0.25275  0.36635  Biso   1.000  C
  H125     1.0000 0.52895  0.22703  0.38823  Biso   1.000  H
  H126     1.0000 0.43120  0.11817  0.37494  Biso   1.000  H
  C116     1.0000 0.83787  0.58510  0.36635  Biso   1.000  C
  H127     1.0000 0.69805  0.47104  0.38823  Biso   1.000  H
  H128     1.0000 0.68701  0.56886  0.37494  Biso   1.000  H
  O11      1.0000 0.44482  0.35196  0.38254  Biso   1.000  O
  O12      1.0000 0.90712  0.55518  0.38254  Biso   1.000  O
  H129     1.0000 0.45167  0.26931  0.34674  Biso   1.000  H
  H130     1.0000 0.33588  0.21187  0.36293  Biso   1.000  H
  H131     1.0000 0.81771  0.54834  0.34674  Biso   1.000  H
  H132     1.0000 0.87595  0.66413  0.36293  Biso   1.000  H
  C117     1.0000 0.99997  0.99994  0.36439  Biso   1.000  C
  C118     1.0000 0.99997  0.99994  0.32895  Biso   1.000  C
  H133     1.0000 0.93157  0.99145  0.37174  Biso   1.000  H
  H134     1.0000 0.00863  0.94019  0.37174  Biso   1.000  H
  H135     1.0000 0.05991  0.06858  0.37174  Biso   1.000  H
  H136     1.0000 0.05987  0.06850  0.37174  Biso   1.000  H
  C119     1.0000 0.91518  0.88473  0.31749  Biso   1.000  C
  C120     1.0000 0.91513  0.88465  0.31749  Biso   1.000  C
  C121     1.0000 0.96954  0.08482  0.31749  Biso   1.000  C
  C122     1.0000 0.11531  0.03051  0.31749  Biso   1.000  C
  C123     1.0000 0.93500  0.83545  0.29273  Biso   1.000  C
  C124     1.0000 0.81153  0.82630  0.33055  Biso   1.000  C
  C125     1.0000 0.90045  0.06496  0.29273  Biso   1.000  C
  C126     1.0000 0.01481  0.18849  0.33055  Biso   1.000  C
  C127     1.0000 0.17369  0.98527  0.33055  Biso   1.000  C
  C128     1.0000 0.16454  0.09957  0.29273  Biso   1.000  C
  C129     1.0000 0.85714  0.73327  0.28204  Biso   1.000  C
  H137     1.0000 0.00304  0.87262  0.28303  Biso   1.000  H
  C130     1.0000 0.73232  0.72313  0.32027  Biso   1.000  C
  H138     1.0000 0.79443  0.85762  0.34683  Biso   1.000  H
  H139     1.0000 0.86960  0.99697  0.28303  Biso   1.000  H
  C131     1.0000 0.87608  0.14283  0.28204  Biso   1.000  C
  C132     1.0000 0.99082  0.26768  0.32027  Biso   1.000  C
  H140     1.0000 0.06316  0.20555  0.34683  Biso   1.000  H
  H141     1.0000 0.14233  0.93681  0.34683  Biso   1.000  H
  C133     1.0000 0.27685  0.00917  0.32027  Biso   1.000  C
  C134     1.0000 0.26681  0.12396  0.28204  Biso   1.000  C
  H142     1.0000 0.12740  0.13047  0.28303  Biso   1.000  H
  C135     1.0000 0.75570  0.67583  0.29595  Biso   1.000  C
  C136     1.0000 0.75566  0.67575  0.29595  Biso   1.000  C
  H143     1.0000 0.87327  0.70286  0.26533  Biso   1.000  H
  H144     1.0000 0.66379  0.68613  0.32973  Biso   1.000  H
  C137     1.0000 0.92014  0.24436  0.29595  Biso   1.000  C
  H145     1.0000 0.82958  0.12676  0.26533  Biso   1.000  H
  H146     1.0000 0.02239  0.33625  0.32973  Biso   1.000  H
  H147     1.0000 0.31392  0.97769  0.32973  Biso   1.000  H
  H148     1.0000 0.31388  0.97761  0.32973  Biso   1.000  H
  C138     1.0000 0.32419  0.07987  0.29595  Biso   1.000  C
  H149     1.0000 0.29718  0.17044  0.26533  Biso   1.000  H
  O13      1.0000 0.68528  0.57381  0.28412  Biso   1.000  O
  O14      1.0000 0.88853  0.31474  0.28412  Biso   1.000  O
  O15      1.0000 0.42623  0.11152  0.28412  Biso   1.000  O
  C139     1.0000 0.58608  0.50458  0.30031  Biso   1.000  C
  C140     1.0000 0.91851  0.41396  0.30031  Biso   1.000  C
  C141     1.0000 0.91847  0.41387  0.30031  Biso   1.000  C
  C142     1.0000 0.49544  0.08152  0.30031  Biso   1.000  C
  C143     1.0000 0.51925  0.40289  0.28106  Biso   1.000  C
  H150     1.0000 0.54516  0.54266  0.30374  Biso   1.000  H
  H151     1.0000 0.60267  0.48439  0.31993  Biso   1.000  H
  H152     1.0000 0.60263  0.48431  0.31993  Biso   1.000  H
  H153     1.0000 0.88168  0.39739  0.31993  Biso   1.000  H
  H154     1.0000 0.99747  0.45483  0.30374  Biso   1.000  H
  C144     1.0000 0.88370  0.48079  0.28106  Biso   1.000  C
  H155     1.0000 0.88164  0.39731  0.31993  Biso   1.000  H
  C145     1.0000 0.59716  0.11638  0.28106  Biso   1.000  C
  H156     1.0000 0.51565  0.11836  0.31993  Biso   1.000  H
  H157     1.0000 0.45740  0.00258  0.30374  Biso   1.000  H
  C146     1.0000 0.59712  0.11630  0.28106  Biso   1.000  C
  H158     1.0000 0.45736  0.00249  0.30374  Biso   1.000  H
  C147     1.0000 0.49106  0.42902  0.24989  Biso   1.000  C
  H159     1.0000 0.56040  0.36474  0.27844  Biso   1.000  H
  H160     1.0000 0.45143  0.35361  0.29173  Biso   1.000  H
  H161     1.0000 0.80440  0.43967  0.27844  Biso   1.000  H
  H162     1.0000 0.90215  0.54853  0.29173  Biso   1.000  H
  C148     1.0000 0.93797  0.50897  0.24989  Biso   1.000  C
  H163     1.0000 0.63530  0.19566  0.27844  Biso   1.000  H
  H164     1.0000 0.64634  0.09784  0.29173  Biso   1.000  H
  C149     1.0000 0.57096  0.06199  0.24989  Biso   1.000  C
  H165     1.0000 0.44738  0.36037  0.23893  Biso   1.000  H
  H166     1.0000 0.55898  0.47195  0.23854  Biso   1.000  H
  C150     1.0000 0.42898  0.49099  0.25012  Biso   1.000  C
  H167     1.0000 0.91299  0.55265  0.23893  Biso   1.000  H
  H168     1.0000 0.91301  0.44107  0.23854  Biso   1.000  H
  C151     1.0000 0.06206  0.57103  0.25012  Biso   1.000  C
  C152     1.0000 0.50895  0.93797  0.25012  Biso   1.000  C
  H169     1.0000 0.63965  0.08704  0.23893  Biso   1.000  H
  H170     1.0000 0.52811  0.08704  0.23854  Biso   1.000  H
  C153     1.0000 0.40293  0.51925  0.21895  Biso   1.000  C
  H171     1.0000 0.36037  0.44739  0.26106  Biso   1.000  H
  H172     1.0000 0.47196  0.55897  0.26147  Biso   1.000  H
  C154     1.0000 0.11637  0.59715  0.21895  Biso   1.000  C
  C155     1.0000 0.11633  0.59707  0.21895  Biso   1.000  C
  H173     1.0000 0.08704  0.63967  0.26106  Biso   1.000  H
  H174     1.0000 0.08705  0.52809  0.26147  Biso   1.000  H
  C156     1.0000 0.48080  0.88366  0.21895  Biso   1.000  C
  H175     1.0000 0.55263  0.91300  0.26106  Biso   1.000  H
  H176     1.0000 0.44108  0.91300  0.26147  Biso   1.000  H
  C157     1.0000 0.50458  0.58609  0.19968  Biso   1.000  C
  H177     1.0000 0.36476  0.56037  0.22158  Biso   1.000  H
  H178     1.0000 0.35365  0.45151  0.20826  Biso   1.000  H
  H179     1.0000 0.35361  0.45143  0.20826  Biso   1.000  H
  C158     1.0000 0.08151  0.49546  0.19968  Biso   1.000  C
  H180     1.0000 0.19569  0.63530  0.22158  Biso   1.000  H
  H181     1.0000 0.09780  0.64635  0.20826  Biso   1.000  H
  C159     1.0000 0.41394  0.91852  0.19968  Biso   1.000  C
  C160     1.0000 0.41390  0.91844  0.19968  Biso   1.000  C
  H182     1.0000 0.43966  0.80438  0.22158  Biso   1.000  H
  H183     1.0000 0.54852  0.90220  0.20826  Biso   1.000  H
  O16      1.0000 0.57381  0.68530  0.21587  Biso   1.000  O
  H184     1.0000 0.48431  0.60265  0.18006  Biso   1.000  H
  H185     1.0000 0.54262  0.54513  0.19627  Biso   1.000  H
  O17      1.0000 0.11149  0.42623  0.21587  Biso   1.000  O
  H186     1.0000 0.11830  0.51565  0.18006  Biso   1.000  H
  H187     1.0000 0.00253  0.45739  0.19627  Biso   1.000  H
  O18      1.0000 0.31473  0.88852  0.21587  Biso   1.000  O
  H188     1.0000 0.39731  0.88168  0.18006  Biso   1.000  H
  H189     1.0000 0.45484  0.99747  0.19627  Biso   1.000  H
  C161     1.0000 0.67580  0.75568  0.20404  Biso   1.000  C
  C162     1.0000 0.07989  0.32421  0.20404  Biso   1.000  C
  C163     1.0000 0.24434  0.92017  0.20404  Biso   1.000  C
  C164     1.0000 0.24430  0.92009  0.20404  Biso   1.000  C
  C165     1.0000 0.72316  0.73236  0.17972  Biso   1.000  C
  C166     1.0000 0.72312  0.73228  0.17972  Biso   1.000  C
  C167     1.0000 0.73323  0.85713  0.21797  Biso   1.000  C
  C168     1.0000 0.00917  0.27683  0.17972  Biso   1.000  C
  C169     1.0000 0.12390  0.26678  0.21797  Biso   1.000  C
  C170     1.0000 0.14286  0.87608  0.21797  Biso   1.000  C
  C171     1.0000 0.26770  0.99087  0.17972  Biso   1.000  C
  C172     1.0000 0.82634  0.81155  0.16946  Biso   1.000  C
  H190     1.0000 0.68617  0.66380  0.17026  Biso   1.000  H
  C173     1.0000 0.83547  0.93500  0.20726  Biso   1.000  C
  H191     1.0000 0.70284  0.87328  0.23466  Biso   1.000  H
  C174     1.0000 0.98524  0.17374  0.16946  Biso   1.000  C
  H192     1.0000 0.97768  0.31391  0.17026  Biso   1.000  H
  H193     1.0000 0.97764  0.31383  0.17026  Biso   1.000  H
  C175     1.0000 0.09957  0.16459  0.20726  Biso   1.000  C
  H194     1.0000 0.17043  0.29718  0.23466  Biso   1.000  H
  C176     1.0000 0.06499  0.90047  0.20726  Biso   1.000  C
  H195     1.0000 0.12676  0.82960  0.23466  Biso   1.000  H
  C177     1.0000 0.18844  0.01477  0.16946  Biso   1.000  C
  H196     1.0000 0.33626  0.02235  0.17026  Biso   1.000  H
  H197     1.0000 0.85764  0.79450  0.15316  Biso   1.000  H
  C178     1.0000 0.88470  0.91514  0.18250  Biso   1.000  C
  H198     1.0000 0.87265  0.00307  0.21696  Biso   1.000  H
  C179     1.0000 0.03046  0.11531  0.18250  Biso   1.000  C
  H199     1.0000 0.93678  0.14234  0.15316  Biso   1.000  H
  H200     1.0000 0.13040  0.12734  0.21696  Biso   1.000  H
  C180     1.0000 0.08482  0.96953  0.18250  Biso   1.000  C
  H201     1.0000 0.99695  0.86957  0.21696  Biso   1.000  H
  H202     1.0000 0.20549  0.06315  0.15316  Biso   1.000  H
  C181     1.0000 0.00008  0.00002  0.17106  Biso   1.000  C
  C182     1.0000 0.00008  0.00002  0.13560  Biso   1.000  C
  H203     1.0000 0.99135  0.93146  0.12827  Biso   1.000  H
  H204     1.0000 0.94011  0.00867  0.12827  Biso   1.000  H
  H205     1.0000 0.06853  0.05985  0.12827  Biso   1.000  H
  C183     1.0000 0.00005  0.00010  0.63561  Biso   1.000  C
  C184     1.0000 0.00005  0.00010  0.67105  Biso   1.000  C
  H206     1.0000 0.94011  0.93146  0.62826  Biso   1.000  H
  H207     1.0000 0.99131  0.05985  0.62826  Biso   1.000  H
  H208     1.0000 0.06857  0.00867  0.62826  Biso   1.000  H
  C185     1.0000 0.03044  0.91514  0.68251  Biso   1.000  C
  C186     1.0000 0.88471  0.96953  0.68251  Biso   1.000  C
  C187     1.0000 0.08485  0.11531  0.68251  Biso   1.000  C
  C188     1.0000 0.98521  0.81155  0.66945  Biso   1.000  C
  C189     1.0000 0.09953  0.93500  0.70727  Biso   1.000  C
  C190     1.0000 0.83548  0.90047  0.70727  Biso   1.000  C
  C191     1.0000 0.82633  0.01477  0.66945  Biso   1.000  C
  C192     1.0000 0.18850  0.17374  0.66945  Biso   1.000  C
  C193     1.0000 0.06502  0.16459  0.70727  Biso   1.000  C
  H209     1.0000 0.93686  0.79450  0.65317  Biso   1.000  H
  C194     1.0000 0.00920  0.73236  0.67973  Biso   1.000  C
  C195     1.0000 0.00916  0.73228  0.67973  Biso   1.000  C
  C196     1.0000 0.12390  0.85713  0.71796  Biso   1.000  C
  H210     1.0000 0.13042  0.00307  0.71697  Biso   1.000  H
  C197     1.0000 0.73322  0.87608  0.71796  Biso   1.000  C
  H211     1.0000 0.87262  0.86957  0.71697  Biso   1.000  H
  C198     1.0000 0.72317  0.99087  0.67973  Biso   1.000  C
  H212     1.0000 0.85765  0.06315  0.65317  Biso   1.000  H
  C199     1.0000 0.26766  0.27683  0.67973  Biso   1.000  C
  H213     1.0000 0.20555  0.14234  0.65317  Biso   1.000  H
  H214     1.0000 0.99694  0.12734  0.71697  Biso   1.000  H
  C200     1.0000 0.14288  0.26678  0.71796  Biso   1.000  C
  H215     1.0000 0.97763  0.66380  0.67027  Biso   1.000  H
  C201     1.0000 0.07988  0.75568  0.70405  Biso   1.000  C
  H216     1.0000 0.17044  0.87328  0.73467  Biso   1.000  H
  H217     1.0000 0.70284  0.82960  0.73467  Biso   1.000  H
  C202     1.0000 0.67583  0.92017  0.70405  Biso   1.000  C
  C203     1.0000 0.67579  0.92009  0.70405  Biso   1.000  C
  H218     1.0000 0.68610  0.02235  0.67027  Biso   1.000  H
  H219     1.0000 0.33623  0.31391  0.67027  Biso   1.000  H
  C204     1.0000 0.24432  0.32421  0.70405  Biso   1.000  C
  H220     1.0000 0.33619  0.31383  0.67027  Biso   1.000  H
  H221     1.0000 0.12675  0.29718  0.73467  Biso   1.000  H
  O19      1.0000 0.11149  0.68530  0.71588  Biso   1.000  O
  O20      1.0000 0.57379  0.88852  0.71588  Biso   1.000  O
  O21      1.0000 0.31474  0.42623  0.71588  Biso   1.000  O
  C205     1.0000 0.08151  0.58609  0.69969  Biso   1.000  C
  C206     1.0000 0.50458  0.91852  0.69969  Biso   1.000  C
  C207     1.0000 0.50454  0.91844  0.69969  Biso   1.000  C
  C208     1.0000 0.41394  0.49546  0.69969  Biso   1.000  C
  C209     1.0000 0.11632  0.51925  0.71894  Biso   1.000  C
  H222     1.0000 0.11834  0.60265  0.68007  Biso   1.000  H
  H223     1.0000 0.00251  0.54513  0.69626  Biso   1.000  H
  C210     1.0000 0.40286  0.88366  0.71894  Biso   1.000  C
  H224     1.0000 0.48438  0.88168  0.68007  Biso   1.000  H
  H225     1.0000 0.54262  0.99747  0.69626  Biso   1.000  H
  H226     1.0000 0.39735  0.51565  0.68007  Biso   1.000  H
  H227     1.0000 0.45486  0.45739  0.69626  Biso   1.000  H
  C211     1.0000 0.48078  0.59715  0.71894  Biso   1.000  C
  C212     1.0000 0.48073  0.59707  0.71894  Biso   1.000  C
  H228     1.0000 0.19562  0.56037  0.72156  Biso   1.000  H
  H229     1.0000 0.09787  0.45151  0.70827  Biso   1.000  H
  C213     1.0000 0.06201  0.49099  0.75011  Biso   1.000  C
  H230     1.0000 0.09783  0.45143  0.70827  Biso   1.000  H
  C214     1.0000 0.42902  0.93797  0.75011  Biso   1.000  C
  H231     1.0000 0.36472  0.80438  0.72156  Biso   1.000  H
  H232     1.0000 0.35368  0.90220  0.70827  Biso   1.000  H
  H233     1.0000 0.43962  0.63530  0.72156  Biso   1.000  H
  H234     1.0000 0.54855  0.64635  0.70827  Biso   1.000  H
  C215     1.0000 0.50896  0.57103  0.75011  Biso   1.000  C
  C216     1.0000 0.93796  0.42902  0.74988  Biso   1.000  C
  H235     1.0000 0.08703  0.44739  0.76107  Biso   1.000  H
  H236     1.0000 0.08701  0.55897  0.76146  Biso   1.000  H
  H237     1.0000 0.36037  0.91300  0.76107  Biso   1.000  H
  H238     1.0000 0.47191  0.91300  0.76146  Biso   1.000  H
  C217     1.0000 0.49103  0.06199  0.74988  Biso   1.000  C
  C218     1.0000 0.57100  0.50897  0.74988  Biso   1.000  C
  H239     1.0000 0.55264  0.63967  0.76107  Biso   1.000  H
  H240     1.0000 0.44104  0.52809  0.76146  Biso   1.000  H
  C219     1.0000 0.88365  0.40289  0.78105  Biso   1.000  C
  H241     1.0000 0.91299  0.36037  0.73894  Biso   1.000  H
  H242     1.0000 0.91297  0.47195  0.73853  Biso   1.000  H
  C220     1.0000 0.51922  0.11638  0.78105  Biso   1.000  C
  H243     1.0000 0.44739  0.08704  0.73894  Biso   1.000  H
  H244     1.0000 0.55894  0.08704  0.73853  Biso   1.000  H
  C221     1.0000 0.51918  0.11630  0.78105  Biso   1.000  C
  C222     1.0000 0.59709  0.48079  0.78105  Biso   1.000  C
  H245     1.0000 0.63966  0.55265  0.73894  Biso   1.000  H
  H246     1.0000 0.52806  0.44107  0.73853  Biso   1.000  H
  C223     1.0000 0.91851  0.50458  0.80032  Biso   1.000  C
  H247     1.0000 0.80434  0.36474  0.77842  Biso   1.000  H
  H248     1.0000 0.90218  0.35361  0.79174  Biso   1.000  H
  C224     1.0000 0.58608  0.08152  0.80032  Biso   1.000  C
  H249     1.0000 0.56036  0.19566  0.77842  Biso   1.000  H
  H250     1.0000 0.45150  0.09784  0.79174  Biso   1.000  H
  C225     1.0000 0.49545  0.41396  0.80032  Biso   1.000  C
  H251     1.0000 0.63526  0.43967  0.77842  Biso   1.000  H
  H252     1.0000 0.64637  0.54853  0.79174  Biso   1.000  H
  C226     1.0000 0.49540  0.41387  0.80032  Biso   1.000  C
  O22      1.0000 0.88853  0.57381  0.78413  Biso   1.000  O
  H253     1.0000 0.99749  0.54266  0.80373  Biso   1.000  H
  H254     1.0000 0.88172  0.48439  0.81994  Biso   1.000  H
  H255     1.0000 0.88168  0.48431  0.81994  Biso   1.000  H
  O23      1.0000 0.68529  0.11152  0.78413  Biso   1.000  O
  H256     1.0000 0.60271  0.11836  0.81994  Biso   1.000  H
  H257     1.0000 0.54518  0.00258  0.80373  Biso   1.000  H
  H258     1.0000 0.54514  0.00249  0.80373  Biso   1.000  H
  O24      1.0000 0.42621  0.31474  0.78413  Biso   1.000  O
  H259     1.0000 0.51571  0.39739  0.81994  Biso   1.000  H
  H260     1.0000 0.45736  0.45483  0.80373  Biso   1.000  H
  H261     1.0000 0.51567  0.39731  0.81994  Biso   1.000  H
  C227     1.0000 0.92013  0.67583  0.79596  Biso   1.000  C
  C228     1.0000 0.92009  0.67575  0.79596  Biso   1.000  C
  C229     1.0000 0.75568  0.07987  0.79596  Biso   1.000  C
  C230     1.0000 0.32422  0.24436  0.79596  Biso   1.000  C
  C231     1.0000 0.87612  0.73327  0.78203  Biso   1.000  C
  C232     1.0000 0.99081  0.72313  0.82028  Biso   1.000  C
  C233     1.0000 0.73232  0.00917  0.82028  Biso   1.000  C
  C234     1.0000 0.85716  0.12396  0.78203  Biso   1.000  C
  C235     1.0000 0.27686  0.26768  0.82028  Biso   1.000  C
  C236     1.0000 0.26675  0.14283  0.78203  Biso   1.000  C
  H262     1.0000 0.82959  0.70286  0.76534  Biso   1.000  H
  C237     1.0000 0.90046  0.83545  0.79274  Biso   1.000  C
  C238     1.0000 0.01478  0.82630  0.83054  Biso   1.000  C
  H263     1.0000 0.02234  0.68613  0.82974  Biso   1.000  H
  C239     1.0000 0.81158  0.98527  0.83054  Biso   1.000  C
  H264     1.0000 0.66377  0.97769  0.82974  Biso   1.000  H
  H265     1.0000 0.66372  0.97761  0.82974  Biso   1.000  H
  C240     1.0000 0.93503  0.09957  0.79274  Biso   1.000  C
  H266     1.0000 0.87326  0.17044  0.76534  Biso   1.000  H
  C241     1.0000 0.17368  0.18849  0.83054  Biso   1.000  C
  H267     1.0000 0.31385  0.33625  0.82974  Biso   1.000  H
  C242     1.0000 0.16451  0.06496  0.79274  Biso   1.000  C
  H268     1.0000 0.29718  0.12676  0.76534  Biso   1.000  H
  H269     1.0000 0.86958  0.87262  0.78304  Biso   1.000  H
  C243     1.0000 0.96956  0.88473  0.81750  Biso   1.000  C
  C244     1.0000 0.96952  0.88465  0.81750  Biso   1.000  C
  H270     1.0000 0.06319  0.85762  0.84684  Biso   1.000  H
  C245     1.0000 0.91520  0.03051  0.81750  Biso   1.000  C
  H271     1.0000 0.79448  0.93681  0.84684  Biso   1.000  H
  H272     1.0000 0.00308  0.13047  0.78304  Biso   1.000  H
  C246     1.0000 0.11528  0.08482  0.81750  Biso   1.000  C
  H273     1.0000 0.14238  0.20555  0.84684  Biso   1.000  H
  H274     1.0000 0.12738  0.99697  0.78304  Biso   1.000  H
  C247     1.0000 0.99994  0.00002  0.82894  Biso   1.000  C
  C248     1.0000 0.99994  0.00002  0.86440  Biso   1.000  C
  H275     1.0000 0.93163  0.94019  0.87173  Biso   1.000  H
  H276     1.0000 0.93159  0.94011  0.87173  Biso   1.000  H
  H277     1.0000 0.05991  0.99137  0.87173  Biso   1.000  H
  H278     1.0000 0.00866  0.06842  0.87173  Biso   1.000  H
  C249     1.0000 0.66674  0.33334  0.19773  Biso   1.000  C
  C250     1.0000 0.66674  0.33334  0.16227  Biso   1.000  C
  H279     1.0000 0.59811  0.27343  0.20506  Biso   1.000  H
  H280     1.0000 0.67533  0.40190  0.20506  Biso   1.000  H
  H281     1.0000 0.72657  0.32469  0.20506  Biso   1.000  H
  C251     1.0000 0.58186  0.36383  0.15083  Biso   1.000  C
  C252     1.0000 0.78194  0.41814  0.15083  Biso   1.000  C
  C253     1.0000 0.63622  0.21805  0.15083  Biso   1.000  C
  C254     1.0000 0.47824  0.31859  0.16387  Biso   1.000  C
  C255     1.0000 0.60169  0.43289  0.12608  Biso   1.000  C
  C256     1.0000 0.84034  0.52181  0.16387  Biso   1.000  C
  C257     1.0000 0.83121  0.39836  0.12608  Biso   1.000  C
  C258     1.0000 0.68144  0.15962  0.16387  Biso   1.000  C
  C259     1.0000 0.56711  0.16877  0.12608  Biso   1.000  C
  C260     1.0000 0.39898  0.34249  0.15362  Biso   1.000  C
  H282     1.0000 0.46114  0.27013  0.18017  Biso   1.000  H
  C261     1.0000 0.52382  0.45728  0.11537  Biso   1.000  C
  H283     1.0000 0.66974  0.46379  0.11637  Biso   1.000  H
  H284     1.0000 0.80904  0.53887  0.18017  Biso   1.000  H
  C262     1.0000 0.94352  0.60100  0.15362  Biso   1.000  C
  C263     1.0000 0.93341  0.47615  0.11537  Biso   1.000  C
  H285     1.0000 0.79404  0.33029  0.11637  Biso   1.000  H
  C264     1.0000 0.65751  0.05653  0.15362  Biso   1.000  C
  H286     1.0000 0.72985  0.19094  0.18017  Biso   1.000  H
  C265     1.0000 0.54278  0.06659  0.11537  Biso   1.000  C
  H287     1.0000 0.53624  0.20594  0.11637  Biso   1.000  H
  C266     1.0000 0.42234  0.41319  0.12930  Biso   1.000  C
  H288     1.0000 0.33043  0.31101  0.16307  Biso   1.000  H
  H289     1.0000 0.53992  0.50376  0.09867  Biso   1.000  H
  H290     1.0000 0.98051  0.66956  0.16307  Biso   1.000  H
  C267     1.0000 0.99088  0.57768  0.12930  Biso   1.000  C
  H291     1.0000 0.96384  0.46008  0.09867  Biso   1.000  H
  C268     1.0000 0.58679  0.00915  0.12930  Biso   1.000  C
  H292     1.0000 0.68900  0.01945  0.16307  Biso   1.000  H
  H293     1.0000 0.49625  0.03618  0.09867  Biso   1.000  H
  O25      1.0000 0.35195  0.44484  0.11747  Biso   1.000  O
  O26      1.0000 0.09287  0.64806  0.11747  Biso   1.000  O
  O27      1.0000 0.55519  0.90713  0.11747  Biso   1.000  O
  C269     1.0000 0.25274  0.41484  0.13366  Biso   1.000  C
  C270     1.0000 0.16210  0.74728  0.13366  Biso   1.000  C
  C271     1.0000 0.58517  0.83790  0.13366  Biso   1.000  C
  C272     1.0000 0.18588  0.44970  0.11438  Biso   1.000  C
  H294     1.0000 0.26937  0.45168  0.15327  Biso   1.000  H
  H295     1.0000 0.21184  0.33589  0.13706  Biso   1.000  H
  H296     1.0000 0.18233  0.73063  0.15327  Biso   1.000  H
  H297     1.0000 0.12402  0.78815  0.13706  Biso   1.000  H
  C273     1.0000 0.26375  0.81411  0.11438  Biso   1.000  C
  C274     1.0000 0.55031  0.73621  0.11438  Biso   1.000  C
  H298     1.0000 0.54834  0.81763  0.15327  Biso   1.000  H
  H299     1.0000 0.66415  0.87598  0.13706  Biso   1.000  H
  C275     1.0000 0.15769  0.39531  0.08321  Biso   1.000  C
  H300     1.0000 0.22702  0.52898  0.11176  Biso   1.000  H
  H301     1.0000 0.11816  0.43116  0.12507  Biso   1.000  H
  H302     1.0000 0.30192  0.77299  0.11176  Biso   1.000  H
  H303     1.0000 0.31303  0.88185  0.12507  Biso   1.000  H
  C276     1.0000 0.23766  0.84229  0.08321  Biso   1.000  C
  C277     1.0000 0.60462  0.76234  0.08321  Biso   1.000  C
  H304     1.0000 0.47100  0.69806  0.11176  Biso   1.000  H
  H305     1.0000 0.56884  0.68693  0.12507  Biso   1.000  H
  C278     1.0000 0.09568  0.27129  0.08344  Biso   1.000  C
  H306     1.0000 0.11405  0.42036  0.07228  Biso   1.000  H
  H307     1.0000 0.22560  0.42036  0.07186  Biso   1.000  H
  C279     1.0000 0.17562  0.90435  0.08344  Biso   1.000  C
  H308     1.0000 0.30632  0.88597  0.07228  Biso   1.000  H
  H309     1.0000 0.19472  0.77439  0.07186  Biso   1.000  H
  C280     1.0000 0.72871  0.82439  0.08344  Biso   1.000  C
  H310     1.0000 0.57965  0.69369  0.07228  Biso   1.000  H
  H311     1.0000 0.57963  0.80527  0.07186  Biso   1.000  H
  C281     1.0000 0.06952  0.21698  0.05227  Biso   1.000  C
  H312     1.0000 0.02703  0.24632  0.09440  Biso   1.000  H
  H313     1.0000 0.13857  0.24632  0.09479  Biso   1.000  H
  C282     1.0000 0.14744  0.93047  0.05227  Biso   1.000  C
  H314     1.0000 0.21930  0.97299  0.09440  Biso   1.000  H
  H315     1.0000 0.10770  0.86141  0.09479  Biso   1.000  H
  C283     1.0000 0.78298  0.85257  0.05227  Biso   1.000  C
  H316     1.0000 0.75369  0.78071  0.09440  Biso   1.000  H
  H317     1.0000 0.75367  0.89229  0.09479  Biso   1.000  H
  C284     1.0000 0.17124  0.25184  0.03302  Biso   1.000  C
  H318     1.0000 0.03138  0.13770  0.05490  Biso   1.000  H
  H319     1.0000 0.02034  0.23552  0.04161  Biso   1.000  H
  C285     1.0000 0.08060  0.82878  0.03302  Biso   1.000  C
  H320     1.0000 0.10628  0.96862  0.05490  Biso   1.000  H
  H321     1.0000 0.21521  0.97967  0.04161  Biso   1.000  H
  C286     1.0000 0.74817  0.91941  0.03302  Biso   1.000  C
  H322     1.0000 0.86228  0.89369  0.05490  Biso   1.000  H
  H323     1.0000 0.76453  0.78483  0.04161  Biso   1.000  H
  O28      1.0000 0.24045  0.22184  0.04921  Biso   1.000  O
  H324     1.0000 0.15104  0.21500  0.01340  Biso   1.000  H
  H325     1.0000 0.20928  0.33079  0.02960  Biso   1.000  H
  O29      1.0000 0.98140  0.75955  0.04921  Biso   1.000  O
  H326     1.0000 0.06401  0.84897  0.01340  Biso   1.000  H
  H327     1.0000 0.12152  0.79070  0.02960  Biso   1.000  H
  O30      1.0000 0.77815  0.01862  0.04921  Biso   1.000  O
  H328     1.0000 0.78500  0.93597  0.01340  Biso   1.000  H
  H329     1.0000 0.66921  0.87853  0.02960  Biso   1.000  H
  C287     1.0000 0.34245  0.25340  0.03738  Biso   1.000  C
  C288     1.0000 0.91098  0.65753  0.03738  Biso   1.000  C
  C289     1.0000 0.74654  0.08900  0.03738  Biso   1.000  C
  C290     1.0000 0.38983  0.32419  0.01306  Biso   1.000  C
  C291     1.0000 0.39987  0.20940  0.05129  Biso   1.000  C
  C292     1.0000 0.93432  0.61015  0.01306  Biso   1.000  C
  C293     1.0000 0.80954  0.60009  0.05129  Biso   1.000  C
  C294     1.0000 0.67586  0.06568  0.01306  Biso   1.000  C
  C295     1.0000 0.79060  0.19053  0.05129  Biso   1.000  C
  C296     1.0000 0.49299  0.34809  0.00279  Biso   1.000  C
  H330     1.0000 0.35276  0.35567  0.00361  Biso   1.000  H
  H331     1.0000 0.36950  0.16292  0.06800  Biso   1.000  H
  C297     1.0000 0.50214  0.23379  0.04060  Biso   1.000  C
  C298     1.0000 0.85516  0.50706  0.00279  Biso   1.000  C
  H332     1.0000 0.00289  0.64723  0.00361  Biso   1.000  H
  C299     1.0000 0.73168  0.49791  0.04060  Biso   1.000  C
  H333     1.0000 0.79341  0.63050  0.06800  Biso   1.000  H
  C300     1.0000 0.65187  0.14487  0.00279  Biso   1.000  C
  H334     1.0000 0.64429  0.99712  0.00361  Biso   1.000  H
  C301     1.0000 0.76619  0.26832  0.04060  Biso   1.000  C
  H335     1.0000 0.83710  0.20660  0.06800  Biso   1.000  H
  C302     1.0000 0.55137  0.30285  0.01585  Biso   1.000  C
  H336     1.0000 0.52431  0.39646  0.98650  Biso   1.000  H
  H337     1.0000 0.53928  0.20289  0.05031  Biso   1.000  H
  C303     1.0000 0.75151  0.44863  0.01585  Biso   1.000  C
  H338     1.0000 0.87221  0.47566  0.98650  Biso   1.000  H
  H339     1.0000 0.66360  0.46066  0.05031  Biso   1.000  H
  C304     1.0000 0.69710  0.24846  0.01585  Biso   1.000  C
  H340     1.0000 0.60352  0.12781  0.98650  Biso   1.000  H
  H341     1.0000 0.79708  0.33639  0.05031  Biso   1.000  H
  C305     1.0000 0.66674  0.33334  0.00438  Biso   1.000  C
  C306     1.0000 0.66674  0.33334  0.96894  Biso   1.000  C
  H342     1.0000 0.65797  0.39317  0.96159  Biso   1.000  H
  H343     1.0000 0.60681  0.26486  0.96159  Biso   1.000  H
  H344     1.0000 0.73508  0.34199  0.96159  Biso   1.000  H
  C307     1.0000 0.33323  0.66660  0.80227  Biso   1.000  C
  C308     1.0000 0.33323  0.66660  0.83773  Biso   1.000  C
  H345     1.0000 0.40186  0.72651  0.79494  Biso   1.000  H
  H346     1.0000 0.32472  0.59820  0.79494  Biso   1.000  H
  H347     1.0000 0.27358  0.67533  0.79494  Biso   1.000  H
  C309     1.0000 0.41815  0.63619  0.84917  Biso   1.000  C
  C310     1.0000 0.36379  0.78197  0.84917  Biso   1.000  C
  C311     1.0000 0.21803  0.58180  0.84917  Biso   1.000  C
  C312     1.0000 0.52177  0.68143  0.83613  Biso   1.000  C
  C313     1.0000 0.39832  0.56713  0.87392  Biso   1.000  C
  C314     1.0000 0.31857  0.84040  0.83613  Biso   1.000  C
  C315     1.0000 0.43290  0.83125  0.87392  Biso   1.000  C
  C316     1.0000 0.15967  0.47821  0.83613  Biso   1.000  C
  C317     1.0000 0.16880  0.60166  0.87392  Biso   1.000  C
  H348     1.0000 0.53882  0.72981  0.81983  Biso   1.000  H
  C318     1.0000 0.60103  0.65753  0.84638  Biso   1.000  C
  C319     1.0000 0.47619  0.54274  0.88463  Biso   1.000  C
  H349     1.0000 0.33028  0.53623  0.88363  Biso   1.000  H
  C320     1.0000 0.34250  0.94349  0.84638  Biso   1.000  C
  H350     1.0000 0.27011  0.80900  0.81983  Biso   1.000  H
  C321     1.0000 0.45723  0.93344  0.88463  Biso   1.000  C
  H351     1.0000 0.46373  0.79400  0.88363  Biso   1.000  H
  H352     1.0000 0.19097  0.46116  0.81983  Biso   1.000  H
  C322     1.0000 0.05645  0.39894  0.84638  Biso   1.000  C
  C323     1.0000 0.06656  0.52379  0.88463  Biso   1.000  C
  H353     1.0000 0.20598  0.66973  0.88363  Biso   1.000  H
  H354     1.0000 0.66959  0.68901  0.83693  Biso   1.000  H
  C324     1.0000 0.57763  0.58674  0.87070  Biso   1.000  C
  H355     1.0000 0.46009  0.49626  0.90133  Biso   1.000  H
  C325     1.0000 0.41322  0.99087  0.87070  Biso   1.000  C
  H356     1.0000 0.31101  0.98057  0.83693  Biso   1.000  H
  H357     1.0000 0.50376  0.96384  0.90133  Biso   1.000  H
  H358     1.0000 0.01950  0.33046  0.83693  Biso   1.000  H
  C326     1.0000 0.00913  0.42234  0.87070  Biso   1.000  C
  H359     1.0000 0.03617  0.53994  0.90133  Biso   1.000  H
  O31      1.0000 0.64806  0.55518  0.88253  Biso   1.000  O
  O32      1.0000 0.44482  0.09289  0.88253  Biso   1.000  O
  O33      1.0000 0.90714  0.35196  0.88253  Biso   1.000  O
  C327     1.0000 0.74723  0.58510  0.86634  Biso   1.000  C
  C328     1.0000 0.41484  0.16212  0.86634  Biso   1.000  C
  C329     1.0000 0.83791  0.25275  0.86634  Biso   1.000  C
  H360     1.0000 0.73064  0.54834  0.84673  Biso   1.000  H
  H361     1.0000 0.78817  0.66413  0.86294  Biso   1.000  H
  C330     1.0000 0.81413  0.55032  0.88562  Biso   1.000  C
  C331     1.0000 0.44970  0.26381  0.88562  Biso   1.000  C
  H362     1.0000 0.45163  0.18231  0.84673  Biso   1.000  H
  H363     1.0000 0.33586  0.12404  0.86294  Biso   1.000  H
  H364     1.0000 0.81764  0.26931  0.84673  Biso   1.000  H
  H365     1.0000 0.87599  0.21187  0.86294  Biso   1.000  H
  C332     1.0000 0.73626  0.18591  0.88562  Biso   1.000  C
  H366     1.0000 0.77299  0.47104  0.88824  Biso   1.000  H
  H367     1.0000 0.88185  0.56886  0.87493  Biso   1.000  H
  C333     1.0000 0.84228  0.60463  0.91679  Biso   1.000  C
  C334     1.0000 0.39539  0.23769  0.91679  Biso   1.000  C
  H368     1.0000 0.52901  0.30196  0.88824  Biso   1.000  H
  H369     1.0000 0.43112  0.31301  0.87493  Biso   1.000  H
  H370     1.0000 0.69809  0.22703  0.88824  Biso   1.000  H
  H371     1.0000 0.68698  0.11817  0.87493  Biso   1.000  H
  C335     1.0000 0.76235  0.15773  0.91679  Biso   1.000  C
  H372     1.0000 0.88596  0.57966  0.92772  Biso   1.000  H
  H373     1.0000 0.77441  0.57966  0.92814  Biso   1.000  H
  C336     1.0000 0.90429  0.72865  0.91656  Biso   1.000  C
  C337     1.0000 0.27130  0.17563  0.91656  Biso   1.000  C
  H374     1.0000 0.42037  0.30633  0.92772  Biso   1.000  H
  H375     1.0000 0.42038  0.19475  0.92814  Biso   1.000  H
  C338     1.0000 0.82439  0.09568  0.91656  Biso   1.000  C
  H376     1.0000 0.69369  0.11405  0.92772  Biso   1.000  H
  H377     1.0000 0.80529  0.22563  0.92814  Biso   1.000  H
  C339     1.0000 0.93049  0.78304  0.94773  Biso   1.000  C
  H378     1.0000 0.97298  0.75370  0.90560  Biso   1.000  H
  H379     1.0000 0.86144  0.75370  0.90521  Biso   1.000  H
  C340     1.0000 0.21703  0.14745  0.94773  Biso   1.000  C
  H380     1.0000 0.24632  0.21931  0.90560  Biso   1.000  H
  H381     1.0000 0.24634  0.10773  0.90521  Biso   1.000  H
  C341     1.0000 0.85258  0.06955  0.94773  Biso   1.000  C
  H382     1.0000 0.78071  0.02703  0.90560  Biso   1.000  H
  H383     1.0000 0.89231  0.13861  0.90521  Biso   1.000  H
  C342     1.0000 0.82877  0.74818  0.96698  Biso   1.000  C
  H384     1.0000 0.96863  0.86232  0.94510  Biso   1.000  H
  H385     1.0000 0.97967  0.76450  0.95839  Biso   1.000  H
  C343     1.0000 0.25180  0.08053  0.96698  Biso   1.000  C
  H386     1.0000 0.13773  0.10633  0.94510  Biso   1.000  H
  H387     1.0000 0.23548  0.21519  0.95839  Biso   1.000  H
  C344     1.0000 0.91941  0.17124  0.96698  Biso   1.000  C
  H388     1.0000 0.89373  0.03140  0.94510  Biso   1.000  H
  H389     1.0000 0.78476  0.02027  0.95839  Biso   1.000  H
  O34      1.0000 0.75956  0.77818  0.95079  Biso   1.000  O
  H390     1.0000 0.84898  0.78502  0.98660  Biso   1.000  H
  H391     1.0000 0.79073  0.66924  0.97040  Biso   1.000  H
  O35      1.0000 0.22186  0.98140  0.95079  Biso   1.000  O
  H392     1.0000 0.21497  0.06397  0.98660  Biso   1.000  H
  H393     1.0000 0.33080  0.12149  0.97040  Biso   1.000  H
  O36      1.0000 0.01861  0.24047  0.95079  Biso   1.000  O
  H394     1.0000 0.93596  0.15097  0.98660  Biso   1.000  H
  H395     1.0000 0.87849  0.20932  0.97040  Biso   1.000  H
  C345     1.0000 0.65752  0.74653  0.96262  Biso   1.000  C
  C346     1.0000 0.25347  0.91102  0.96262  Biso   1.000  C
  C347     1.0000 0.08903  0.34249  0.96262  Biso   1.000  C
  C348     1.0000 0.61018  0.67583  0.98694  Biso   1.000  C
  C349     1.0000 0.60014  0.79062  0.94871  Biso   1.000  C
  C350     1.0000 0.32415  0.93434  0.98694  Biso   1.000  C
  C351     1.0000 0.20941  0.80949  0.94871  Biso   1.000  C
  C352     1.0000 0.06565  0.38979  0.98694  Biso   1.000  C
  C353     1.0000 0.19047  0.39993  0.94871  Biso   1.000  C
  C354     1.0000 0.50702  0.65193  0.99721  Biso   1.000  C
  H396     1.0000 0.64721  0.64427  0.99639  Biso   1.000  H
  C355     1.0000 0.49787  0.76623  0.95940  Biso   1.000  C
  H397     1.0000 0.63051  0.83710  0.93200  Biso   1.000  H
  C356     1.0000 0.34814  0.85515  0.99721  Biso   1.000  C
  H398     1.0000 0.35572  0.00291  0.99639  Biso   1.000  H
  H399     1.0000 0.16291  0.79342  0.93200  Biso   1.000  H
  C357     1.0000 0.23382  0.73170  0.95940  Biso   1.000  C
  C358     1.0000 0.14486  0.49296  0.99721  Biso   1.000  C
  H400     1.0000 0.99712  0.35279  0.99639  Biso   1.000  H
  C359     1.0000 0.26833  0.50211  0.95940  Biso   1.000  C
  H401     1.0000 0.20660  0.36952  0.93200  Biso   1.000  H
  C360     1.0000 0.44864  0.69717  0.98415  Biso   1.000  C
  H402     1.0000 0.47566  0.60347  0.01350  Biso   1.000  H
  H403     1.0000 0.46073  0.79713  0.94969  Biso   1.000  H
  C361     1.0000 0.30287  0.75148  0.98415  Biso   1.000  C
  H404     1.0000 0.39649  0.87221  0.01350  Biso   1.000  H
  H405     1.0000 0.20293  0.66363  0.94969  Biso   1.000  H
  C362     1.0000 0.24846  0.55131  0.98415  Biso   1.000  C
  H406     1.0000 0.12775  0.52428  0.01350  Biso   1.000  H
  H407     1.0000 0.33637  0.53928  0.94969  Biso   1.000  H
  C363     1.0000 0.33327  0.66668  0.99562  Biso   1.000  C
  C364     1.0000 0.33327  0.66668  0.03106  Biso   1.000  C
  H408     1.0000 0.34199  0.60677  0.03841  Biso   1.000  H
  H409     1.0000 0.39320  0.73516  0.03841  Biso   1.000  H
  H410     1.0000 0.26478  0.65803  0.03841  Biso   1.000  H
  Ne1      1.0000 0.00818  0.00292  0.25025  Biso   1.000  Ne
  He1      1.0000 0.00000  0.00000  0.00000  Biso   1.000  He
  He2      1.0000 0.13501  0.04008  0.24283  Biso   1.000  He
  He3      1.0000 0.09395  0.96032  0.25710  Biso   1.000  He
  Ar1      1.0000 0.00000  0.00001  0.24999  Biso   1.000  Ar
  Ne2      1.0000 0.66667  0.33334  0.08333  Biso   1.000  Ne
  He4      1.0000 0.80794  0.43269  0.07584  Biso   1.000  He
  He5      1.0000 0.52872  0.29369  0.09043  Biso   1.000  He
  He6      1.0000 0.58333  0.62879  0.04562  Biso   1.000  He
  Ar2      1.0000 0.66667  0.33334  0.08334  Biso   1.000  Ar
  Ne3      1.0000 0.33333  0.66667  0.41667  Biso   1.000  Ne
  He7      1.0000 0.47461  0.76604  0.40917  Biso   1.000  He
  He8      1.0000 0.19539  0.62703  0.42376  Biso   1.000  He
  He9      1.0000 0.25000  0.96213  0.37895  Biso   1.000  He
  Ar3      1.0000 0.33334  0.66668  0.41667  Biso   1.000  Ar
  Ne4      1.0000 0.66667  0.33334  0.58333  Biso   1.000  Ne
  He10     1.0000 0.00000  0.00000  0.00000  Biso   1.000  He
  He11     1.0000 0.80167  0.37340  0.57616  Biso   1.000  He
  He12     1.0000 0.76060  0.29364  0.59043  Biso   1.000  He
  Ar4      1.0000 0.66667  0.33333  0.58333  Biso   1.000  Ar
  Ne5      1.0000 0.99466  0.00279  0.75025  Biso   1.000  Ne
  He13     1.0000 0.14128  0.09937  0.74251  Biso   1.000  He
  He14     1.0000 0.86200  0.95905  0.75733  Biso   1.000  He
  He15     1.0000 0.00000  0.00000  0.00000  Biso   1.000  He
  Ar5      1.0000 0.00002  0.99993  0.75002  Biso   1.000  Ar
  Ne6      1.0000 0.33333  0.66667  0.91667  Biso   1.000  Ne
  He16     1.0000 0.00000  0.00000  0.00000  Biso   1.000  He
  He17     1.0000 0.46834  0.70674  0.90950  Biso   1.000  He
  He18     1.0000 0.42728  0.62699  0.92376  Biso   1.000  He
  Ar6      1.0000 0.33333  0.66666  0.91666  Biso   1.000  Ar
