data_image0
_cell_length_a       9.294
_cell_length_b       24.261
_cell_length_c       25.385
_cell_angle_alpha    99.98
_cell_angle_beta     90.29
_cell_angle_gamma    98.93

_symmetry_space_group_name_H-M    "P 1"
_symmetry_int_tables_number       1

loop_
  _symmetry_equiv_pos_as_xyz
  'x, y, z'

loop_
  _atom_site_label
  _atom_site_occupancy
  _atom_site_fract_x
  _atom_site_fract_y
  _atom_site_fract_z
  _atom_site_thermal_displace_type
  _atom_site_B_iso_or_equiv
  _atom_site_type_symbol
  C1       1.0000 0.36561  0.51621  0.42762  Biso   1.000  C
  C2       1.0000 0.48042  0.50291  0.38992  Biso   1.000  C
  H1       1.0000 0.29048  0.52849  0.40781  Biso   1.000  H
  C3       1.0000 0.29178  0.47161  0.45691  Biso   1.000  C
  H2       1.0000 0.29296  0.52272  0.42181  Biso   1.000  H
  H3       1.0000 0.40317  0.49370  0.45011  Biso   1.000  H
  H4       1.0000 0.40765  0.54841  0.45419  Biso   1.000  H
  C4       1.0000 0.36995  0.46008  0.37059  Biso   1.000  C
  H5       1.0000 0.44422  0.46832  0.36530  Biso   1.000  H
  C5       1.0000 0.51334  0.48581  0.35330  Biso   1.000  C
  C6       1.0000 0.32125  0.48650  0.42469  Biso   1.000  C
  C7       1.0000 0.53205  0.54991  0.35758  Biso   1.000  C
  H6       1.0000 0.56315  0.49608  0.40989  Biso   1.000  H
  H7       1.0000 0.58948  0.47650  0.37491  Biso   1.000  H
  C8       1.0000 0.19611  0.45070  0.44619  Biso   1.000  C
  H8       1.0000 0.24439  0.49038  0.48729  Biso   1.000  H
  H9       1.0000 0.36648  0.45369  0.47092  Biso   1.000  H
  C9       1.0000 0.18196  0.42628  0.42622  Biso   1.000  C
  H10      1.0000 0.22662  0.44200  0.48000  Biso   1.000  H
  H11      1.0000 0.29668  0.46181  0.34381  Biso   1.000  H
  H12      1.0000 0.37291  0.42040  0.37099  Biso   1.000  H
  H13      1.0000 0.52588  0.46891  0.31640  Biso   1.000  H
  O1       1.0000 0.40905  0.56499  0.33421  Biso   1.000  O
  H14      1.0000 0.59627  0.53648  0.32989  Biso   1.000  H
  H15      1.0000 0.58570  0.58272  0.38091  Biso   1.000  H
  H16      1.0000 0.61909  0.56300  0.33941  Biso   1.000  H
  H17      1.0000 0.54362  0.56789  0.39492  Biso   1.000  H
  H18      1.0000 0.11871  0.40981  0.45151  Biso   1.000  H
  H19      1.0000 0.17051  0.41518  0.42149  Biso   1.000  H
  C10      1.0000 0.06222  0.47979  0.45471  Biso   1.000  C
  H20      1.0000 0.23292  0.39681  0.40801  Biso   1.000  H
  C11      1.0000 0.08852  0.44321  0.38571  Biso   1.000  C
  C12      1.0000 0.42298  0.61209  0.31180  Biso   1.000  C
  H21      1.0000 0.09186  0.51949  0.47000  Biso   1.000  H
  O2       1.0000 0.98723  0.47531  0.40701  Biso   1.000  O
  H22      1.0000 0.99908  0.46251  0.47968  Biso   1.000  H
  H23      1.0000 0.03835  0.40912  0.36310  Biso   1.000  H
  H24      1.0000 0.15065  0.46430  0.36298  Biso   1.000  H
  C13      1.0000 0.55284  0.65030  0.31220  Biso   1.000  C
  C14      1.0000 0.29974  0.62238  0.28738  Biso   1.000  C
  C15      1.0000 0.96187  0.51678  0.37679  Biso   1.000  C
  C16      1.0000 0.55267  0.69639  0.28730  Biso   1.000  C
  H25      1.0000 0.63717  0.64461  0.32889  Biso   1.000  H
  H26      1.0000 0.21340  0.59728  0.28771  Biso   1.000  H
  C17      1.0000 0.30019  0.66788  0.26289  Biso   1.000  C
  C18      1.0000 0.94431  0.50448  0.32300  Biso   1.000  C
  C19      1.0000 0.95508  0.57132  0.40408  Biso   1.000  C
  C20      1.0000 0.42930  0.70691  0.26229  Biso   1.000  C
  H27      1.0000 0.63906  0.72161  0.28718  Biso   1.000  H
  H28      1.0000 0.21506  0.67341  0.24648  Biso   1.000  H
  H29      1.0000 0.94500  0.46779  0.30479  Biso   1.000  H
  C21      1.0000 0.92503  0.54762  0.29479  Biso   1.000  C
  C22      1.0000 0.93624  0.61161  0.37451  Biso   1.000  C
  H30      1.0000 0.96327  0.57991  0.44118  Biso   1.000  H
  C23      1.0000 0.43272  0.75639  0.23500  Biso   1.000  C
  H31      1.0000 0.91228  0.53892  0.25781  Biso   1.000  H
  C24      1.0000 0.92420  0.60339  0.32040  Biso   1.000  C
  H32      1.0000 0.93105  0.64781  0.39300  Biso   1.000  H
  C25      1.0000 0.35885  0.75020  0.18641  Biso   1.000  C
  C26      1.0000 0.50259  0.81062  0.25909  Biso   1.000  C
  C27      1.0000 0.92063  0.64978  0.29019  Biso   1.000  C
  H33      1.0000 0.31257  0.71432  0.17081  Biso   1.000  H
  C28      1.0000 0.35050  0.79501  0.15960  Biso   1.000  C
  C29      1.0000 0.49384  0.85731  0.23472  Biso   1.000  C
  H34      1.0000 0.55480  0.81542  0.29131  Biso   1.000  H
  C30      1.0000 0.87134  0.63990  0.23660  Biso   1.000  C
  C31      1.0000 0.95968  0.70601  0.31492  Biso   1.000  C
  C32      1.0000 0.41866  0.84869  0.18589  Biso   1.000  C
  C33      1.0000 0.27617  0.78808  0.10749  Biso   1.000  C
  C34      1.0000 0.56082  0.91521  0.26129  Biso   1.000  C
  H35      1.0000 0.84060  0.60259  0.21979  Biso   1.000  H
  C35      1.0000 0.86600  0.68241  0.20770  Biso   1.000  C
  C36      1.0000 0.95723  0.75081  0.28759  Biso   1.000  C
  H36      1.0000 0.98852  0.71381  0.35090  Biso   1.000  H
  H37      1.0000 0.41311  0.87988  0.16969  Biso   1.000  H
  C37      1.0000 0.16736  0.74159  0.09069  Biso   1.000  C
  C38      1.0000 0.29695  0.82722  0.07440  Biso   1.000  C
  C39      1.0000 0.49243  0.96088  0.25649  Biso   1.000  C
  C40      1.0000 0.68760  0.92699  0.29219  Biso   1.000  C
  C41      1.0000 0.91231  0.73870  0.23392  Biso   1.000  C
  C42      1.0000 0.80770  0.67211  0.15232  Biso   1.000  C
  C43      1.0000 0.99925  0.81000  0.31592  Biso   1.000  C
  H38      1.0000 0.14217  0.71530  0.11302  Biso   1.000  H
  C44      1.0000 0.09811  0.73431  0.04230  Biso   1.000  C
  C45      1.0000 0.22525  0.82212  0.02629  Biso   1.000  C
  H39      1.0000 0.36488  0.85960  0.08540  Biso   1.000  H
  H40      1.0000 0.40755  0.95449  0.23520  Biso   1.000  H
  C46      1.0000 0.54582  0.01689  0.28250  Biso   1.000  C
  C47      1.0000 0.74213  0.98101  0.31848  Biso   1.000  C
  H41      1.0000 0.73832  0.89750  0.29539  Biso   1.000  H
  H42      1.0000 0.91273  0.76828  0.21491  Biso   1.000  H
  C48      1.0000 0.70809  0.70272  0.13679  Biso   1.000  C
  C49      1.0000 0.85145  0.62951  0.11430  Biso   1.000  C
  C50      1.0000 0.11503  0.84461  0.29771  Biso   1.000  C
  C51      1.0000 0.92585  0.83260  0.36010  Biso   1.000  C
  H43      1.0000 0.03055  0.70179  0.03102  Biso   1.000  H
  C52      1.0000 0.12583  0.77439  0.00908  Biso   1.000  C
  H44      1.0000 0.24362  0.85038  0.00560  Biso   1.000  H
  H45      1.0000 0.49589  0.04671  0.27930  Biso   1.000  H
  C53      1.0000 0.67375  0.02620  0.31272  Biso   1.000  C
  H46      1.0000 0.82574  0.98691  0.34029  Biso   1.000  H
  C54      1.0000 0.64834  0.69219  0.08508  Biso   1.000  C
  H47      1.0000 0.67929  0.73142  0.16180  Biso   1.000  H
  H48      1.0000 0.92013  0.60830  0.12318  Biso   1.000  H
  C55      1.0000 0.79017  0.61971  0.06291  Biso   1.000  C
  H49      1.0000 0.16800  0.83001  0.26910  Biso   1.000  H
  C56      1.0000 0.15134  0.90048  0.32208  Biso   1.000  C
  C57      1.0000 0.96450  0.88922  0.38399  Biso   1.000  C
  H50      1.0000 0.85063  0.80982  0.37371  Biso   1.000  H
  O3       1.0000 0.04214  0.76461  0.96230  Biso   1.000  O
  O4       1.0000 0.73835  0.07821  0.34029  Biso   1.000  O
  C58      1.0000 0.68941  0.64908  0.04658  Biso   1.000  C
  H51      1.0000 0.58101  0.71380  0.07592  Biso   1.000  H
  H52      1.0000 0.81978  0.59111  0.03802  Biso   1.000  H
  C59      1.0000 0.07765  0.92270  0.36418  Biso   1.000  C
  H53      1.0000 0.22802  0.92339  0.30932  Biso   1.000  H
  H54      1.0000 0.91421  0.90431  0.41321  Biso   1.000  H
  C60      1.0000 0.01879  0.81212  0.93941  Biso   1.000  C
  C61      1.0000 0.67370  0.12812  0.34189  Biso   1.000  C
  O5       1.0000 0.63728  0.63423  0.99520  Biso   1.000  O
  O6       1.0000 0.10070  0.97789  0.39052  Biso   1.000  O
  H55      1.0000 0.99279  0.84153  0.96710  Biso   1.000  H
  C62      1.0000 0.89750  0.79411  0.89703  Biso   1.000  C
  H56      1.0000 0.10752  0.82744  0.92360  Biso   1.000  H
  H57      1.0000 0.74436  0.15811  0.33201  Biso   1.000  H
  H58      1.0000 0.59172  0.12050  0.31652  Biso   1.000  H
  C63      1.0000 0.62258  0.14690  0.39780  Biso   1.000  C
  C64      1.0000 0.52514  0.65610  0.97491  Biso   1.000  C
  C65      1.0000 0.21566  0.01420  0.37291  Biso   1.000  C
  H59      1.0000 0.91801  0.76084  0.87282  Biso   1.000  H
  H60      1.0000 0.89703  0.82420  0.87630  Biso   1.000  H
  C66      1.0000 0.74989  0.78093  0.91852  Biso   1.000  C
  H61      1.0000 0.59856  0.18470  0.40028  Biso   1.000  H
  H62      1.0000 0.70245  0.14901  0.42321  Biso   1.000  H
  C67      1.0000 0.49375  0.10909  0.41341  Biso   1.000  C
  C68      1.0000 0.57017  0.71453  0.96290  Biso   1.000  C
  H63      1.0000 0.48605  0.63112  0.94233  Biso   1.000  H
  H64      1.0000 0.44795  0.65698  0.00040  Biso   1.000  H
  C69      1.0000 0.22123  0.07361  0.40440  Biso   1.000  C
  H65      1.0000 0.30707  0.00090  0.37791  Biso   1.000  H
  H66      1.0000 0.20146  0.01443  0.33501  Biso   1.000  H
  H67      1.0000 0.73726  0.81144  0.94741  Biso   1.000  H
  H68      1.0000 0.67818  0.78042  0.89050  Biso   1.000  H
  C70      1.0000 0.71727  0.72521  0.93921  Biso   1.000  C
  H69      1.0000 0.50905  0.07020  0.40268  Biso   1.000  H
  H70      1.0000 0.48961  0.11639  0.45211  Biso   1.000  H
  C71      1.0000 0.34724  0.11502  0.39020  Biso   1.000  C
  H71      1.0000 0.49801  0.72183  0.93833  Biso   1.000  H
  H72      1.0000 0.56901  0.74161  0.99580  Biso   1.000  H
  H73      1.0000 0.22854  0.07230  0.44230  Biso   1.000  H
  H74      1.0000 0.13082  0.08702  0.39780  Biso   1.000  H
  H75      1.0000 0.79118  0.72480  0.96630  Biso   1.000  H
  H76      1.0000 0.72473  0.69444  0.91003  Biso   1.000  H
  H77      1.0000 0.35238  0.10990  0.35162  Biso   1.000  H
  H78      1.0000 0.32824  0.15318  0.40288  Biso   1.000  H
  C72      1.0000 0.70818  0.52842  0.54311  Biso   1.000  C
  C73      1.0000 0.63445  0.48382  0.57241  Biso   1.000  C
  H79      1.0000 0.59676  0.50628  0.54992  Biso   1.000  H
  C74      1.0000 0.67868  0.51348  0.57529  Biso   1.000  C
  H80      1.0000 0.75565  0.50960  0.51270  Biso   1.000  H
  H81      1.0000 0.63345  0.54629  0.52911  Biso   1.000  H
  C75      1.0000 0.81798  0.57370  0.57381  Biso   1.000  C
  C76      1.0000 0.80395  0.54932  0.55380  Biso   1.000  C
  H82      1.0000 0.77342  0.55798  0.51998  Biso   1.000  H
  C77      1.0000 0.51964  0.49711  0.61011  Biso   1.000  C
  H83      1.0000 0.59241  0.45161  0.54580  Biso   1.000  H
  H84      1.0000 0.70946  0.47150  0.59222  Biso   1.000  H
  H85      1.0000 0.70700  0.47731  0.57821  Biso   1.000  H
  C78      1.0000 0.62999  0.53989  0.62940  Biso   1.000  C
  H86      1.0000 0.76714  0.60322  0.59202  Biso   1.000  H
  H87      1.0000 0.88135  0.59022  0.54852  Biso   1.000  H
  C79      1.0000 0.91154  0.55681  0.61431  Biso   1.000  C
  H88      1.0000 0.82953  0.58480  0.57849  Biso   1.000  H
  C80      1.0000 0.93782  0.52019  0.54532  Biso   1.000  C
  C81      1.0000 0.46790  0.45011  0.64240  Biso   1.000  C
  H89      1.0000 0.43678  0.50389  0.59010  Biso   1.000  H
  H90      1.0000 0.55583  0.53170  0.63468  Biso   1.000  H
  C82      1.0000 0.48672  0.51421  0.64669  Biso   1.000  C
  H91      1.0000 0.41046  0.52349  0.62512  Biso   1.000  H
  H92      1.0000 0.70326  0.53818  0.65621  Biso   1.000  H
  H93      1.0000 0.62713  0.57958  0.62900  Biso   1.000  H
  H94      1.0000 0.96171  0.59090  0.63688  Biso   1.000  H
  H95      1.0000 0.84928  0.53568  0.63700  Biso   1.000  H
  O7       1.0000 0.01283  0.52472  0.59302  Biso   1.000  O
  H96      1.0000 0.90807  0.48049  0.52999  Biso   1.000  H
  H97      1.0000 0.00087  0.53751  0.52030  Biso   1.000  H
  O8       1.0000 0.59100  0.43500  0.66582  Biso   1.000  O
  H98      1.0000 0.40366  0.46350  0.67010  Biso   1.000  H
  H99      1.0000 0.41426  0.41731  0.61911  Biso   1.000  H
  H100     1.0000 0.38084  0.43699  0.66061  Biso   1.000  H
  H101     1.0000 0.45642  0.43209  0.60511  Biso   1.000  H
  H102     1.0000 0.47407  0.53111  0.68358  Biso   1.000  H
  C83      1.0000 0.03807  0.48320  0.62319  Biso   1.000  C
  C84      1.0000 0.57695  0.38789  0.68819  Biso   1.000  C
  C85      1.0000 0.05574  0.49549  0.67698  Biso   1.000  C
  C86      1.0000 0.04487  0.42871  0.59590  Biso   1.000  C
  C87      1.0000 0.44720  0.34968  0.68779  Biso   1.000  C
  C88      1.0000 0.70019  0.37760  0.71260  Biso   1.000  C
  H103     1.0000 0.05504  0.53219  0.69519  Biso   1.000  H
  C89      1.0000 0.07503  0.45240  0.70520  Biso   1.000  C
  C90      1.0000 0.06382  0.38842  0.62552  Biso   1.000  C
  H104     1.0000 0.03668  0.42011  0.55880  Biso   1.000  H
  C91      1.0000 0.44727  0.30360  0.71272  Biso   1.000  C
  H105     1.0000 0.36278  0.35541  0.67110  Biso   1.000  H
  H106     1.0000 0.78665  0.40270  0.71232  Biso   1.000  H
  C92      1.0000 0.69985  0.33210  0.73709  Biso   1.000  C
  H107     1.0000 0.08768  0.46111  0.74221  Biso   1.000  H
  C93      1.0000 0.07584  0.39659  0.67958  Biso   1.000  C
  H108     1.0000 0.06901  0.35221  0.60699  Biso   1.000  H
  C94      1.0000 0.57065  0.29312  0.73769  Biso   1.000  C
  H109     1.0000 0.36089  0.27841  0.71280  Biso   1.000  H
  H110     1.0000 0.78489  0.32661  0.75350  Biso   1.000  H
  C95      1.0000 0.07941  0.35020  0.70980  Biso   1.000  C
  C96      1.0000 0.56732  0.24359  0.76499  Biso   1.000  C
  C97      1.0000 0.12870  0.36008  0.76339  Biso   1.000  C
  C98      1.0000 0.04026  0.29398  0.68511  Biso   1.000  C
  C99      1.0000 0.64108  0.24979  0.81361  Biso   1.000  C
  C100     1.0000 0.49736  0.18940  0.74089  Biso   1.000  C
  H111     1.0000 0.15944  0.39739  0.78019  Biso   1.000  H
  C101     1.0000 0.13406  0.31762  0.79232  Biso   1.000  C
  C102     1.0000 0.04283  0.24922  0.71240  Biso   1.000  C
  H112     1.0000 0.01154  0.28621  0.64909  Biso   1.000  H
  H113     1.0000 0.68738  0.28571  0.82922  Biso   1.000  H
  C103     1.0000 0.64946  0.20501  0.84038  Biso   1.000  C
  C104     1.0000 0.50622  0.14272  0.76531  Biso   1.000  C
  H114     1.0000 0.44516  0.18461  0.70872  Biso   1.000  H
  C105     1.0000 0.08774  0.26128  0.76611  Biso   1.000  C
  C106     1.0000 0.19226  0.32792  0.84771  Biso   1.000  C
  C107     1.0000 0.00069  0.18998  0.68411  Biso   1.000  C
  C108     1.0000 0.58127  0.15128  0.81409  Biso   1.000  C
  C109     1.0000 0.72377  0.21190  0.89249  Biso   1.000  C
  C110     1.0000 0.43924  0.08481  0.73869  Biso   1.000  C
  H115     1.0000 0.08731  0.23170  0.78512  Biso   1.000  H
  C111     1.0000 0.29186  0.29731  0.86320  Biso   1.000  C
  C112     1.0000 0.14850  0.37052  0.88569  Biso   1.000  C
  C113     1.0000 0.88504  0.15541  0.70231  Biso   1.000  C
  C114     1.0000 0.07409  0.16738  0.63988  Biso   1.000  C
  H116     1.0000 0.58693  0.12010  0.83030  Biso   1.000  H
  C115     1.0000 0.83257  0.25839  0.90930  Biso   1.000  C
  C116     1.0000 0.70311  0.17281  0.92559  Biso   1.000  C
  C117     1.0000 0.50761  0.03910  0.74350  Biso   1.000  C
  C118     1.0000 0.31244  0.07299  0.70780  Biso   1.000  C
  C119     1.0000 0.35159  0.30779  0.91490  Biso   1.000  C
  H117     1.0000 0.32066  0.26860  0.83818  Biso   1.000  H
  H118     1.0000 0.07991  0.39168  0.87680  Biso   1.000  H
  C120     1.0000 0.20978  0.38032  0.93711  Biso   1.000  C
  H119     1.0000 0.83195  0.17001  0.73089  Biso   1.000  H
  C121     1.0000 0.84870  0.09950  0.67790  Biso   1.000  C
  C122     1.0000 0.03555  0.11080  0.61599  Biso   1.000  C
  H120     1.0000 0.14943  0.19021  0.62632  Biso   1.000  H
  H121     1.0000 0.85777  0.28469  0.88701  Biso   1.000  H
  C123     1.0000 0.90195  0.26571  0.95768  Biso   1.000  C
  C124     1.0000 0.77481  0.17790  0.97369  Biso   1.000  C
  H122     1.0000 0.63505  0.14038  0.91458  Biso   1.000  H
  H123     1.0000 0.59238  0.04549  0.76479  Biso   1.000  H
  C125     1.0000 0.45422  0.98309  0.71748  Biso   1.000  C
  C126     1.0000 0.25793  0.01901  0.68150  Biso   1.000  C
  H124     1.0000 0.26174  0.10252  0.70460  Biso   1.000  H
  C127     1.0000 0.31063  0.35090  0.95340  Biso   1.000  C
  H125     1.0000 0.41903  0.28619  0.92411  Biso   1.000  H
  H126     1.0000 0.18018  0.40892  0.96201  Biso   1.000  H
  C128     1.0000 0.92240  0.07728  0.63580  Biso   1.000  C
  H127     1.0000 0.77203  0.07660  0.69071  Biso   1.000  H
  H128     1.0000 0.08585  0.09572  0.58682  Biso   1.000  H
  H129     1.0000 0.96939  0.29820  0.96901  Biso   1.000  H
  C129     1.0000 0.87421  0.22559  0.99090  Biso   1.000  C
  H130     1.0000 0.75642  0.14960  0.99438  Biso   1.000  H
  H131     1.0000 0.50406  0.95331  0.72068  Biso   1.000  H
  C130     1.0000 0.32619  0.97378  0.68731  Biso   1.000  C
  H132     1.0000 0.17432  0.01311  0.65969  Biso   1.000  H
  O9       1.0000 0.36278  0.36579  0.00479  Biso   1.000  O
  O10      1.0000 0.89935  0.02210  0.60951  Biso   1.000  O
  O11      1.0000 0.95779  0.23537  0.03768  Biso   1.000  O
  O12      1.0000 0.26160  0.92181  0.65969  Biso   1.000  O
  C131     1.0000 0.47479  0.34388  0.02508  Biso   1.000  C
  C132     1.0000 0.78428  0.98579  0.62712  Biso   1.000  C
  C133     1.0000 0.98125  0.18786  0.06058  Biso   1.000  C
  C134     1.0000 0.32636  0.87191  0.65809  Biso   1.000  C
  H133     1.0000 0.55199  0.34300  0.99958  Biso   1.000  H
  C135     1.0000 0.42989  0.28549  0.03708  Biso   1.000  C
  H134     1.0000 0.51399  0.36887  0.05769  Biso   1.000  H
  C136     1.0000 0.77882  0.92641  0.59558  Biso   1.000  C
  H135     1.0000 0.69286  0.99908  0.62211  Biso   1.000  H
  H136     1.0000 0.79860  0.98560  0.66502  Biso   1.000  H
  H137     1.0000 0.89243  0.17258  0.07638  Biso   1.000  H
  H138     1.0000 0.00727  0.15849  0.03288  Biso   1.000  H
  C137     1.0000 0.10254  0.20588  0.10300  Biso   1.000  C
  H139     1.0000 0.25558  0.84188  0.66802  Biso   1.000  H
  H140     1.0000 0.40832  0.87949  0.68350  Biso   1.000  H
  C138     1.0000 0.37735  0.85308  0.60218  Biso   1.000  C
  C139     1.0000 0.28277  0.27477  0.06078  Biso   1.000  C
  H141     1.0000 0.50205  0.27820  0.06170  Biso   1.000  H
  H142     1.0000 0.43093  0.25837  0.00419  Biso   1.000  H
  C140     1.0000 0.65282  0.88500  0.60979  Biso   1.000  C
  H143     1.0000 0.77150  0.92768  0.55768  Biso   1.000  H
  H144     1.0000 0.86924  0.91300  0.60218  Biso   1.000  H
  H145     1.0000 0.08205  0.23918  0.12717  Biso   1.000  H
  H146     1.0000 0.10290  0.17578  0.12369  Biso   1.000  H
  C141     1.0000 0.25017  0.21909  0.08147  Biso   1.000  C
  H147     1.0000 0.40138  0.81528  0.59970  Biso   1.000  H
  H148     1.0000 0.29762  0.85102  0.57681  Biso   1.000  H
  C142     1.0000 0.50619  0.89090  0.58662  Biso   1.000  C
  H149     1.0000 0.20886  0.27518  0.03368  Biso   1.000  H
  H150     1.0000 0.27522  0.30559  0.08999  Biso   1.000  H
  H151     1.0000 0.64755  0.89008  0.64841  Biso   1.000  H
  H152     1.0000 0.67180  0.84679  0.59710  Biso   1.000  H
  H153     1.0000 0.26280  0.18858  0.05257  Biso   1.000  H
  H154     1.0000 0.32187  0.21956  0.10948  Biso   1.000  H
  H155     1.0000 0.49099  0.92978  0.59730  Biso   1.000  H
  H156     1.0000 0.51044  0.88359  0.54792  Biso   1.000  H
  O13      1.0000 0.52673  0.64649  0.51958  Biso   1.000  O
  C143     1.0000 0.48869  0.66290  0.57129  Biso   1.000  C
  C144     1.0000 0.65676  0.67280  0.49981  Biso   1.000  C
  C145     1.0000 0.36945  0.62958  0.58862  Biso   1.000  C
  C146     1.0000 0.55625  0.70871  0.60591  Biso   1.000  C
  H157     1.0000 0.68355  0.64810  0.46832  Biso   1.000  H
  H158     1.0000 0.70973  0.70031  0.52831  Biso   1.000  H
  C147     1.0000 0.64181  0.72932  0.48540  Biso   1.000  C
  H159     1.0000 0.73470  0.67809  0.52659  Biso   1.000  H
  H160     1.0000 0.71797  0.64450  0.48749  Biso   1.000  H
  C148     1.0000 0.62476  0.70211  0.45411  Biso   1.000  C
  C149     1.0000 0.32271  0.64181  0.63960  Biso   1.000  C
  H161     1.0000 0.32063  0.59859  0.56521  Biso   1.000  H
  H162     1.0000 0.63550  0.73179  0.59478  Biso   1.000  H
  C150     1.0000 0.50953  0.72150  0.65701  Biso   1.000  C
  H163     1.0000 0.63463  0.75591  0.51810  Biso   1.000  H
  C151     1.0000 0.51575  0.72878  0.44991  Biso   1.000  C
  H164     1.0000 0.71352  0.72598  0.44699  Biso   1.000  H
  H165     1.0000 0.72968  0.74311  0.46812  Biso   1.000  H
  C152     1.0000 0.50756  0.73711  0.46191  Biso   1.000  C
  H166     1.0000 0.59951  0.67329  0.42241  Biso   1.000  H
  C153     1.0000 0.38799  0.68911  0.67530  Biso   1.000  C
  H167     1.0000 0.24524  0.61780  0.65069  Biso   1.000  H
  H168     1.0000 0.55963  0.75249  0.68018  Biso   1.000  H
  H169     1.0000 0.51447  0.69770  0.42021  Biso   1.000  H
  H170     1.0000 0.42801  0.72082  0.46960  Biso   1.000  H
  C154     1.0000 0.50810  0.78210  0.42710  Biso   1.000  C
  H171     1.0000 0.41488  0.71198  0.45579  Biso   1.000  H
  H172     1.0000 0.51242  0.75581  0.49901  Biso   1.000  H
  C155     1.0000 0.34162  0.70348  0.72969  Biso   1.000  C
  H173     1.0000 0.58917  0.78808  0.40368  Biso   1.000  H
  H174     1.0000 0.51852  0.81428  0.45619  Biso   1.000  H
  C156     1.0000 0.36862  0.77988  0.39620  Biso   1.000  C
  H175     1.0000 0.58566  0.77869  0.40188  Biso   1.000  H
  H176     1.0000 0.53082  0.81909  0.44979  Biso   1.000  H
  C157     1.0000 0.28261  0.66221  0.76050  Biso   1.000  C
  C158     1.0000 0.35682  0.75919  0.75658  Biso   1.000  C
  H177     1.0000 0.38325  0.80879  0.37379  Biso   1.000  H
  H178     1.0000 0.34749  0.74341  0.37271  Biso   1.000  H
  C159     1.0000 0.23815  0.78842  0.42942  Biso   1.000  C
  C160     1.0000 0.24583  0.67429  0.81269  Biso   1.000  C
  H179     1.0000 0.26814  0.62442  0.74402  Biso   1.000  H
  C161     1.0000 0.32391  0.77440  0.80989  Biso   1.000  C
  H180     1.0000 0.39104  0.78799  0.73781  Biso   1.000  H
  H181     1.0000 0.16625  0.80128  0.40869  Biso   1.000  H
  H182     1.0000 0.26700  0.81740  0.46059  Biso   1.000  H
  O14      1.0000 0.17626  0.73869  0.44578  Biso   1.000  O
  C162     1.0000 0.26697  0.73090  0.83790  Biso   1.000  C
  C163     1.0000 0.17712  0.62880  0.84150  Biso   1.000  C
  C164     1.0000 0.33910  0.83330  0.83618  Biso   1.000  C
  C165     1.0000 0.11386  0.74608  0.49429  Biso   1.000  C
  H183     1.0000 0.24354  0.74011  0.87360  Biso   1.000  H
  C166     1.0000 0.07792  0.63838  0.88008  Biso   1.000  C
  C167     1.0000 0.21288  0.57458  0.83022  Biso   1.000  C
  C168     1.0000 0.29739  0.87480  0.81309  Biso   1.000  C
  C169     1.0000 0.40789  0.85211  0.88641  Biso   1.000  C
  C170     1.0000 0.03173  0.78898  0.51090  Biso   1.000  C
  C171     1.0000 0.13267  0.70928  0.52831  Biso   1.000  C
  H184     1.0000 0.05431  0.67460  0.88881  Biso   1.000  H
  C172     1.0000 0.01020  0.59672  0.90722  Biso   1.000  C
  C173     1.0000 0.14753  0.53190  0.85639  Biso   1.000  C
  H185     1.0000 0.28190  0.56681  0.80469  Biso   1.000  H
  H186     1.0000 0.25826  0.86491  0.77839  Biso   1.000  H
  C174     1.0000 0.30917  0.93090  0.83758  Biso   1.000  C
  C175     1.0000 0.42530  0.90800  0.91250  Biso   1.000  C
  H187     1.0000 0.44405  0.82580  0.90330  Biso   1.000  H
  H188     1.0000 0.01403  0.81352  0.48809  Biso   1.000  H
  C176     1.0000 0.97664  0.79442  0.56168  Biso   1.000  C
  C177     1.0000 0.07700  0.71572  0.57821  Biso   1.000  C
  H189     1.0000 0.18408  0.67961  0.51710  Biso   1.000  H
  C178     1.0000 0.04502  0.54241  0.89281  Biso   1.000  C
  H190     1.0000 0.94434  0.60480  0.93379  Biso   1.000  H
  H191     1.0000 0.17424  0.49610  0.84879  Biso   1.000  H
  H192     1.0000 0.27259  0.95701  0.82049  Biso   1.000  H
  C179     1.0000 0.37564  0.94748  0.88729  Biso   1.000  C
  H193     1.0000 0.46972  0.91848  0.94652  Biso   1.000  H
  H194     1.0000 0.92378  0.82370  0.57281  Biso   1.000  H
  C180     1.0000 0.99584  0.75908  0.59638  Biso   1.000  C
  H195     1.0000 0.09311  0.69071  0.60070  Biso   1.000  H
  O15      1.0000 0.98228  0.49649  0.91458  Biso   1.000  O
  O16      1.0000 0.39348  0.00250  0.91578  Biso   1.000  O
  C181     1.0000 0.94239  0.76660  0.65049  Biso   1.000  C
  C182     1.0000 0.86638  0.50349  0.94960  Biso   1.000  C
  C183     1.0000 0.33151  0.04390  0.89349  Biso   1.000  C
  C184     1.0000 0.89641  0.72100  0.67670  Biso   1.000  C
  C185     1.0000 0.92756  0.82040  0.67830  Biso   1.000  C
  H196     1.0000 0.90471  0.52039  0.98542  Biso   1.000  H
  H197     1.0000 0.80616  0.52841  0.93759  Biso   1.000  H
  C186     1.0000 0.77463  0.44538  0.95060  Biso   1.000  C
  H198     1.0000 0.39413  0.05728  0.86640  Biso   1.000  H
  H199     1.0000 0.23716  0.02722  0.87680  Biso   1.000  H
  C187     1.0000 0.31490  0.09300  0.93751  Biso   1.000  C
  C188     1.0000 0.83954  0.72868  0.72789  Biso   1.000  C
  H200     1.0000 0.90376  0.68450  0.65949  Biso   1.000  H
  C189     1.0000 0.87055  0.82989  0.72829  Biso   1.000  C
  H201     1.0000 0.95822  0.85149  0.66201  Biso   1.000  H
  H202     1.0000 0.70696  0.44892  0.97961  Biso   1.000  H
  H203     1.0000 0.83822  0.41911  0.95760  Biso   1.000  H
  C190     1.0000 0.69091  0.42188  0.89889  Biso   1.000  C
  H204     1.0000 0.40547  0.10391  0.95860  Biso   1.000  H
  H205     1.0000 0.23956  0.08020  0.96100  Biso   1.000  H
  C191     1.0000 0.27724  0.14382  0.91850  Biso   1.000  C
  C192     1.0000 0.82624  0.78291  0.75242  Biso   1.000  C
  C193     1.0000 0.79008  0.67900  0.75390  Biso   1.000  C
  C194     1.0000 0.86068  0.88932  0.75538  Biso   1.000  C
  H206     1.0000 0.75735  0.42382  0.86972  Biso   1.000  H
  H207     1.0000 0.65291  0.38229  0.89849  Biso   1.000  H
  C195     1.0000 0.56420  0.45258  0.88901  Biso   1.000  C
  H208     1.0000 0.22891  0.16512  0.94720  Biso   1.000  H
  H209     1.0000 0.36738  0.16761  0.91250  Biso   1.000  H
  C196     1.0000 0.18148  0.13412  0.86832  Biso   1.000  C
  H210     1.0000 0.29929  0.17630  0.94720  Biso   1.000  H
  H211     1.0000 0.33829  0.15131  0.88889  Biso   1.000  H
  C197     1.0000 0.11654  0.13821  0.90029  Biso   1.000  C
  H212     1.0000 0.78640  0.78832  0.78612  Biso   1.000  H
  C198     1.0000 0.85613  0.63321  0.74890  Biso   1.000  C
  C199     1.0000 0.66645  0.67821  0.78520  Biso   1.000  C
  C200     1.0000 0.74620  0.90259  0.78672  Biso   1.000  C
  C201     1.0000 0.97071  0.93400  0.75002  Biso   1.000  C
  H213     1.0000 0.58965  0.49229  0.90502  Biso   1.000  H
  H214     1.0000 0.47948  0.43702  0.90690  Biso   1.000  H
  C202     1.0000 0.52458  0.44839  0.83122  Biso   1.000  C
  H215     1.0000 0.22398  0.11042  0.83970  Biso   1.000  H
  H216     1.0000 0.17732  0.17018  0.85719  Biso   1.000  H
  C203     1.0000 0.02903  0.10599  0.87720  Biso   1.000  C
  C204     1.0000 0.07359  0.10119  0.84771  Biso   1.000  C
  H217     1.0000 0.14326  0.11230  0.82161  Biso   1.000  H
  H218     1.0000 0.98636  0.12928  0.90610  Biso   1.000  H
  H219     1.0000 0.09517  0.17580  0.89869  Biso   1.000  H
  H220     1.0000 0.05602  0.12362  0.92739  Biso   1.000  H
  C205     1.0000 0.80281  0.58530  0.77119  Biso   1.000  C
  H221     1.0000 0.94126  0.63311  0.72981  Biso   1.000  H
  H222     1.0000 0.61877  0.70961  0.78980  Biso   1.000  H
  C206     1.0000 0.61359  0.63429  0.80921  Biso   1.000  C
  C207     1.0000 0.73667  0.95712  0.81061  Biso   1.000  C
  H223     1.0000 0.67254  0.87358  0.79180  Biso   1.000  H
  H224     1.0000 0.05147  0.92661  0.73009  Biso   1.000  H
  C208     1.0000 0.96174  0.98912  0.77371  Biso   1.000  C
  H225     1.0000 0.52548  0.40981  0.81301  Biso   1.000  H
  H226     1.0000 0.42624  0.45648  0.82810  Biso   1.000  H
  C209     1.0000 0.62765  0.48888  0.80341  Biso   1.000  C
  C210     1.0000 0.93408  0.09780  0.82550  Biso   1.000  C
  C211     1.0000 0.92301  0.10180  0.82590  Biso   1.000  C
  H227     1.0000 0.03235  0.06948  0.88749  Biso   1.000  H
  H228     1.0000 0.08142  0.06250  0.85099  Biso   1.000  H
  C212     1.0000 0.67883  0.58588  0.79908  Biso   1.000  C
  H229     1.0000 0.85122  0.55408  0.76711  Biso   1.000  H
  H230     1.0000 0.53564  0.63631  0.83190  Biso   1.000  H
  H231     1.0000 0.65685  0.96469  0.83102  Biso   1.000  H
  C213     1.0000 0.84593  0.00020  0.80421  Biso   1.000  C
  H232     1.0000 0.03449  0.01852  0.76891  Biso   1.000  H
  H233     1.0000 0.60169  0.48241  0.76559  Biso   1.000  H
  H234     1.0000 0.72688  0.48192  0.80721  Biso   1.000  H
  O17      1.0000 0.61916  0.54339  0.82542  Biso   1.000  O
  H235     1.0000 0.99195  0.08979  0.79420  Biso   1.000  H
  H236     1.0000 0.89249  0.13170  0.82362  Biso   1.000  H
  O18      1.0000 0.82556  0.05268  0.82790  Biso   1.000  O
  H237     1.0000 0.92982  0.10738  0.78900  Biso   1.000  H
  H238     1.0000 0.88494  0.13382  0.84611  Biso   1.000  H
  O19      1.0000 0.47331  0.35349  0.48040  Biso   1.000  O
  C214     1.0000 0.51125  0.33708  0.42870  Biso   1.000  C
  C215     1.0000 0.34317  0.32719  0.50021  Biso   1.000  C
  C216     1.0000 0.44381  0.29132  0.39412  Biso   1.000  C
  C217     1.0000 0.63049  0.37040  0.41141  Biso   1.000  C
  H239     1.0000 0.31639  0.35188  0.53171  Biso   1.000  H
  H240     1.0000 0.29033  0.29971  0.47172  Biso   1.000  H
  C218     1.0000 0.35825  0.27071  0.51462  Biso   1.000  C
  H241     1.0000 0.26534  0.32189  0.47340  Biso   1.000  H
  H242     1.0000 0.28198  0.35552  0.51250  Biso   1.000  H
  C219     1.0000 0.37531  0.29792  0.54592  Biso   1.000  C
  C220     1.0000 0.49052  0.27849  0.34301  Biso   1.000  C
  H243     1.0000 0.36454  0.26819  0.40520  Biso   1.000  H
  C221     1.0000 0.67735  0.35821  0.36038  Biso   1.000  C
  H244     1.0000 0.67942  0.40139  0.43482  Biso   1.000  H
  H245     1.0000 0.36542  0.24412  0.48188  Biso   1.000  H
  C222     1.0000 0.48419  0.27121  0.55012  Biso   1.000  C
  H246     1.0000 0.28652  0.27400  0.55300  Biso   1.000  H
  H247     1.0000 0.27027  0.25692  0.53191  Biso   1.000  H
  C223     1.0000 0.49239  0.26291  0.53811  Biso   1.000  C
  H248     1.0000 0.40053  0.32670  0.57761  Biso   1.000  H
  C224     1.0000 0.61196  0.31091  0.32468  Biso   1.000  C
  H249     1.0000 0.44041  0.24749  0.31980  Biso   1.000  H
  H250     1.0000 0.75482  0.38222  0.34930  Biso   1.000  H
  H251     1.0000 0.48546  0.30228  0.57981  Biso   1.000  H
  H252     1.0000 0.57205  0.27921  0.53039  Biso   1.000  H
  C225     1.0000 0.49196  0.21792  0.57289  Biso   1.000  C
  H253     1.0000 0.58506  0.28800  0.54419  Biso   1.000  H
  H254     1.0000 0.48762  0.24418  0.50101  Biso   1.000  H
  C226     1.0000 0.65842  0.29650  0.27030  Biso   1.000  C
  H255     1.0000 0.41076  0.21190  0.59630  Biso   1.000  H
  H256     1.0000 0.48152  0.18570  0.54379  Biso   1.000  H
  C227     1.0000 0.63142  0.22010  0.60378  Biso   1.000  C
  H257     1.0000 0.41427  0.22129  0.59810  Biso   1.000  H
  H258     1.0000 0.46922  0.18089  0.55020  Biso   1.000  H
  C228     1.0000 0.71745  0.33781  0.23948  Biso   1.000  C
  C229     1.0000 0.64322  0.24078  0.24340  Biso   1.000  C
  H259     1.0000 0.61669  0.19119  0.62620  Biso   1.000  H
  H260     1.0000 0.65247  0.25662  0.62732  Biso   1.000  H
  C230     1.0000 0.76191  0.21161  0.57061  Biso   1.000  C
  C231     1.0000 0.75421  0.32569  0.18729  Biso   1.000  C
  H261     1.0000 0.73192  0.37561  0.25601  Biso   1.000  H
  C232     1.0000 0.67615  0.22562  0.19010  Biso   1.000  C
  H262     1.0000 0.60900  0.21200  0.26221  Biso   1.000  H
  H263     1.0000 0.83368  0.19870  0.59130  Biso   1.000  H
  H264     1.0000 0.73304  0.18258  0.53939  Biso   1.000  H
  O20      1.0000 0.82367  0.26129  0.55420  Biso   1.000  O
  C233     1.0000 0.73297  0.26908  0.16208  Biso   1.000  C
  C234     1.0000 0.82292  0.37118  0.15852  Biso   1.000  C
  C235     1.0000 0.66095  0.16672  0.16380  Biso   1.000  C
  C236     1.0000 0.88607  0.25390  0.50570  Biso   1.000  C
  H265     1.0000 0.75652  0.25992  0.12638  Biso   1.000  H
  C237     1.0000 0.92212  0.36160  0.11990  Biso   1.000  C
  C238     1.0000 0.78705  0.42540  0.16981  Biso   1.000  C
  C239     1.0000 0.70256  0.12522  0.18689  Biso   1.000  C
  C240     1.0000 0.59207  0.14792  0.11362  Biso   1.000  C
  C241     1.0000 0.96831  0.21100  0.48909  Biso   1.000  C
  C242     1.0000 0.86727  0.29070  0.47172  Biso   1.000  C
  H266     1.0000 0.94574  0.32539  0.11122  Biso   1.000  H
  C243     1.0000 0.98976  0.40331  0.09281  Biso   1.000  C
  C244     1.0000 0.85253  0.46812  0.14359  Biso   1.000  C
  H267     1.0000 0.71816  0.43321  0.19530  Biso   1.000  H
  H268     1.0000 0.74180  0.13512  0.22159  Biso   1.000  H
  C245     1.0000 0.69079  0.06912  0.16240  Biso   1.000  C
  C246     1.0000 0.57476  0.09202  0.08748  Biso   1.000  C
  H269     1.0000 0.55588  0.17418  0.09669  Biso   1.000  H
  H270     1.0000 0.98603  0.18651  0.51190  Biso   1.000  H
  C247     1.0000 0.02342  0.20561  0.43830  Biso   1.000  C
  C248     1.0000 0.92295  0.28431  0.42181  Biso   1.000  C
  H271     1.0000 0.81587  0.32041  0.48288  Biso   1.000  H
  C249     1.0000 0.95504  0.45761  0.10721  Biso   1.000  C
  H272     1.0000 0.05572  0.39522  0.06619  Biso   1.000  H
  H273     1.0000 0.82582  0.50392  0.15120  Biso   1.000  H
  H274     1.0000 0.72736  0.04302  0.17949  Biso   1.000  H
  C250     1.0000 0.62440  0.05250  0.11270  Biso   1.000  C
  H275     1.0000 0.53032  0.08150  0.05351  Biso   1.000  H
  H276     1.0000 0.07616  0.17629  0.42722  Biso   1.000  H
  C251     1.0000 0.00420  0.24090  0.40360  Biso   1.000  C
  H277     1.0000 0.90695  0.30931  0.39928  Biso   1.000  H
  O21      1.0000 0.01766  0.50349  0.08540  Biso   1.000  O
  O22      1.0000 0.60645  0.99748  0.08420  Biso   1.000  O
  C252     1.0000 0.05754  0.23338  0.34950  Biso   1.000  C
  C253     1.0000 0.13355  0.49649  0.05039  Biso   1.000  C
  C254     1.0000 0.66853  0.95608  0.10649  Biso   1.000  C
  C255     1.0000 0.10363  0.27898  0.32328  Biso   1.000  C
  C256     1.0000 0.07237  0.17958  0.32168  Biso   1.000  C
  H278     1.0000 0.09533  0.47959  0.01461  Biso   1.000  H
  H279     1.0000 0.19379  0.47161  0.06239  Biso   1.000  H
  C257     1.0000 0.22541  0.55459  0.04938  Biso   1.000  C
  H280     1.0000 0.60591  0.94270  0.13359  Biso   1.000  H
  H281     1.0000 0.76290  0.97280  0.12318  Biso   1.000  H
  C258     1.0000 0.68514  0.90698  0.06251  Biso   1.000  C
  C259     1.0000 0.16050  0.27130  0.27210  Biso   1.000  C
  H282     1.0000 0.09618  0.31548  0.34049  Biso   1.000  H
  C260     1.0000 0.12938  0.17009  0.27170  Biso   1.000  C
  H283     1.0000 0.04182  0.14850  0.33801  Biso   1.000  H
  H284     1.0000 0.29299  0.55111  0.02041  Biso   1.000  H
  H285     1.0000 0.16184  0.58091  0.04238  Biso   1.000  H
  C261     1.0000 0.30913  0.57810  0.10109  Biso   1.000  C
  H286     1.0000 0.59448  0.89611  0.04138  Biso   1.000  H
  H287     1.0000 0.76038  0.91979  0.03902  Biso   1.000  H
  C262     1.0000 0.72282  0.85620  0.08148  Biso   1.000  C
  C263     1.0000 0.17382  0.21712  0.24760  Biso   1.000  C
  C264     1.0000 0.20986  0.32098  0.24608  Biso   1.000  C
  C265     1.0000 0.13927  0.11070  0.24460  Biso   1.000  C
  H288     1.0000 0.24271  0.57621  0.13031  Biso   1.000  H
  H289     1.0000 0.34713  0.61769  0.10149  Biso   1.000  H
  C266     1.0000 0.43585  0.54741  0.11102  Biso   1.000  C
  H290     1.0000 0.77115  0.83490  0.05279  Biso   1.000  H
  H291     1.0000 0.63257  0.83241  0.08748  Biso   1.000  H
  C267     1.0000 0.81848  0.86591  0.13171  Biso   1.000  C
  H292     1.0000 0.70064  0.82368  0.05279  Biso   1.000  H
  H293     1.0000 0.66166  0.84871  0.11110  Biso   1.000  H
  C268     1.0000 0.88351  0.86181  0.09969  Biso   1.000  C
  H294     1.0000 0.21355  0.21170  0.21391  Biso   1.000  H
  C269     1.0000 0.14393  0.36681  0.25109  Biso   1.000  C
  C270     1.0000 0.33350  0.32181  0.21479  Biso   1.000  C
  C271     1.0000 0.25384  0.09739  0.21331  Biso   1.000  C
  C272     1.0000 0.02933  0.06598  0.25001  Biso   1.000  C
  H295     1.0000 0.41029  0.50770  0.09501  Biso   1.000  H
  H296     1.0000 0.52047  0.56300  0.09309  Biso   1.000  H
  C273     1.0000 0.47536  0.55160  0.16881  Biso   1.000  C
  H297     1.0000 0.77597  0.88960  0.16028  Biso   1.000  H
  H298     1.0000 0.82272  0.82980  0.14279  Biso   1.000  H
  C274     1.0000 0.97101  0.89399  0.12278  Biso   1.000  C
  C275     1.0000 0.92645  0.89879  0.15232  Biso   1.000  C
  H299     1.0000 0.85668  0.88768  0.17841  Biso   1.000  H
  H300     1.0000 0.90476  0.82418  0.10129  Biso   1.000  H
  H301     1.0000 0.94404  0.87640  0.07260  Biso   1.000  H
  H302     1.0000 0.01357  0.87070  0.09389  Biso   1.000  H
  C276     1.0000 0.19725  0.41472  0.22880  Biso   1.000  C
  H303     1.0000 0.05869  0.36691  0.27022  Biso   1.000  H
  C277     1.0000 0.38635  0.36570  0.19082  Biso   1.000  C
  H304     1.0000 0.38118  0.29041  0.21019  Biso   1.000  H
  C278     1.0000 0.26328  0.04291  0.18942  Biso   1.000  C
  H305     1.0000 0.32750  0.12640  0.20819  Biso   1.000  H
  C279     1.0000 0.03832  0.01091  0.22631  Biso   1.000  C
  H306     1.0000 0.94848  0.07341  0.26990  Biso   1.000  H
  H307     1.0000 0.47447  0.59021  0.18701  Biso   1.000  H
  H308     1.0000 0.57380  0.54350  0.17189  Biso   1.000  H
  C280     1.0000 0.37229  0.51110  0.19662  Biso   1.000  C
  H309     1.0000 0.96758  0.93050  0.11250  Biso   1.000  H
  H310     1.0000 0.91862  0.93748  0.14900  Biso   1.000  H
  C281     1.0000 0.06585  0.90218  0.17449  Biso   1.000  C
  C282     1.0000 0.07703  0.89818  0.17409  Biso   1.000  C
  C283     1.0000 0.32121  0.41410  0.20090  Biso   1.000  C
  H311     1.0000 0.14883  0.44590  0.23292  Biso   1.000  H
  H312     1.0000 0.46442  0.36371  0.16808  Biso   1.000  H
  C284     1.0000 0.15412  0.99979  0.19582  Biso   1.000  C
  H313     1.0000 0.34309  0.03530  0.16901  Biso   1.000  H
  H314     1.0000 0.96547  0.98151  0.23112  Biso   1.000  H
  H315     1.0000 0.39826  0.51761  0.23440  Biso   1.000  H
  H316     1.0000 0.27308  0.51811  0.19282  Biso   1.000  H
  O23      1.0000 0.38078  0.45659  0.17461  Biso   1.000  O
  H317     1.0000 0.00799  0.91019  0.20578  Biso   1.000  H
  H318     1.0000 0.10745  0.86828  0.17641  Biso   1.000  H
  O24      1.0000 0.17437  0.94730  0.17209  Biso   1.000  O
  H319     1.0000 0.07022  0.89260  0.21099  Biso   1.000  H
  H320     1.0000 0.11512  0.86621  0.15392  Biso   1.000  H
  Ne1      1.0000 0.88957  0.23238  0.26163  Biso   1.000  Ne
  He1      1.0000 0.82312  0.18914  0.28442  Biso   1.000  He
  He2      1.0000 0.90831  0.33852  0.31417  Biso   1.000  He
  He3      1.0000 0.93024  0.19997  0.19642  Biso   1.000  He
  Ar1      1.0000 0.89463  0.21127  0.25712  Biso   1.000  Ar
  Ne2      1.0000 0.17315  0.73693  0.25083  Biso   1.000  Ne
  He4      1.0000 0.20137  0.75076  0.26939  Biso   1.000  He
  He5      1.0000 0.14188  0.77905  0.21354  Biso   1.000  He
  He6      1.0000 0.13729  0.71657  0.21545  Biso   1.000  He
  Ar2      1.0000 0.18023  0.74151  0.24928  Biso   1.000  Ar
  Ne3      1.0000 0.82686  0.26307  0.74917  Biso   1.000  Ne
  He7      1.0000 0.86655  0.28703  0.78869  Biso   1.000  He
  He8      1.0000 0.84103  0.23599  0.76454  Biso   1.000  He
  He9      1.0000 0.79915  0.24100  0.73297  Biso   1.000  He
  Ar3      1.0000 0.81977  0.25844  0.75073  Biso   1.000  Ar
  Ne4      1.0000 0.11043  0.76761  0.73837  Biso   1.000  Ne
  He10     1.0000 0.08326  0.79896  0.78722  Biso   1.000  He
  He11     1.0000 0.14525  0.80401  0.73002  Biso   1.000  He
  He12     1.0000 0.06760  0.64828  0.67239  Biso   1.000  He
  Ar4      1.0000 0.10945  0.79650  0.75468  Biso   1.000  Ar
