data_image0
_cell_length_a       22.108
_cell_length_b       22.47
_cell_length_c       22.473
_cell_angle_alpha    99.67
_cell_angle_beta     103.58
_cell_angle_gamma    100.83

_symmetry_space_group_name_H-M    "P 1"
_symmetry_int_tables_number       1

loop_
  _symmetry_equiv_pos_as_xyz
  'x, y, z'

loop_
  _atom_site_label
  _atom_site_occupancy
  _atom_site_fract_x
  _atom_site_fract_y
  _atom_site_fract_z
  _atom_site_thermal_displace_type
  _atom_site_B_iso_or_equiv
  _atom_site_type_symbol
  O1       1.0000 0.65272  0.56972  0.47510  Biso   1.000  O
  C1       1.0000 0.70690  0.56519  0.49801  Biso   1.000  C
  N1       1.0000 0.73410  0.51840  0.47829  Biso   1.000  N
  N2       1.0000 0.74950  0.60440  0.54998  Biso   1.000  N
  C2       1.0000 0.69968  0.46328  0.43162  Biso   1.000  C
  C3       1.0000 0.79588  0.52269  0.52068  Biso   1.000  C
  C4       1.0000 0.80617  0.58198  0.57228  Biso   1.000  C
  C5       1.0000 0.73250  0.65370  0.58811  Biso   1.000  C
  N3       1.0000 0.71761  0.45902  0.37410  Biso   1.000  N
  H1       1.0000 0.70691  0.42660  0.44880  Biso   1.000  H
  H2       1.0000 0.65342  0.46169  0.42251  Biso   1.000  H
  N4       1.0000 0.84848  0.53540  0.49458  Biso   1.000  N
  H3       1.0000 0.79592  0.48508  0.53900  Biso   1.000  H
  N5       1.0000 0.86539  0.61911  0.56989  Biso   1.000  N
  H4       1.0000 0.80909  0.57218  0.61449  Biso   1.000  H
  N6       1.0000 0.76070  0.71471  0.58618  Biso   1.000  N
  H5       1.0000 0.68530  0.64762  0.57468  Biso   1.000  H
  H6       1.0000 0.74442  0.64950  0.63229  Biso   1.000  H
  C6       1.0000 0.68130  0.46669  0.31851  Biso   1.000  C
  C7       1.0000 0.76999  0.43300  0.36439  Biso   1.000  C
  C8       1.0000 0.86899  0.48719  0.45688  Biso   1.000  C
  C9       1.0000 0.89189  0.59130  0.52749  Biso   1.000  C
  C10      1.0000 0.89999  0.67649  0.61491  Biso   1.000  C
  C11      1.0000 0.82542  0.74851  0.62388  Biso   1.000  C
  C12      1.0000 0.73119  0.75210  0.55200  Biso   1.000  C
  O2       1.0000 0.63082  0.48541  0.31340  Biso   1.000  O
  N7       1.0000 0.70718  0.45000  0.27128  Biso   1.000  N
  C13      1.0000 0.76181  0.42352  0.29241  Biso   1.000  C
  N8       1.0000 0.83332  0.47331  0.39110  Biso   1.000  N
  H7       1.0000 0.76761  0.39253  0.37772  Biso   1.000  H
  H8       1.0000 0.91519  0.50129  0.46082  Biso   1.000  H
  H9       1.0000 0.86260  0.44891  0.47322  Biso   1.000  H
  O3       1.0000 0.94408  0.61041  0.51899  Biso   1.000  O
  N9       1.0000 0.87750  0.73019  0.60092  Biso   1.000  N
  H10      1.0000 0.89621  0.67210  0.65698  Biso   1.000  H
  H11      1.0000 0.94590  0.68351  0.61632  Biso   1.000  H
  C14      1.0000 0.83082  0.81628  0.61351  Biso   1.000  C
  H12      1.0000 0.83171  0.74760  0.66919  Biso   1.000  H
  O4       1.0000 0.67549  0.73529  0.51838  Biso   1.000  O
  N10      1.0000 0.77261  0.80959  0.56491  Biso   1.000  N
  C15      1.0000 0.67670  0.44608  0.20771  Biso   1.000  C
  N11      1.0000 0.82121  0.45950  0.28870  Biso   1.000  N
  H13      1.0000 0.75360  0.37881  0.27142  Biso   1.000  H
  C16      1.0000 0.86418  0.48329  0.34622  Biso   1.000  C
  C17      1.0000 0.91640  0.77968  0.59069  Biso   1.000  C
  N12      1.0000 0.88822  0.82919  0.59412  Biso   1.000  N
  H14      1.0000 0.83321  0.84650  0.65262  Biso   1.000  H
  C18      1.0000 0.75192  0.86241  0.54322  Biso   1.000  C
  N13      1.0000 0.71071  0.49041  0.17869  Biso   1.000  N
  H15      1.0000 0.63331  0.45308  0.20452  Biso   1.000  H
  H16      1.0000 0.67180  0.40352  0.18372  Biso   1.000  H
  C19      1.0000 0.84158  0.45000  0.23231  Biso   1.000  C
  O5       1.0000 0.91999  0.51111  0.35612  Biso   1.000  O
  O6       1.0000 0.96708  0.77991  0.57811  Biso   1.000  O
  C20      1.0000 0.92111  0.89178  0.59501  Biso   1.000  C
  N14      1.0000 0.78259  0.88551  0.49951  Biso   1.000  N
  H17      1.0000 0.70510  0.84971  0.52341  Biso   1.000  H
  H18      1.0000 0.75991  0.89660  0.58022  Biso   1.000  H
  C21      1.0000 0.75790  0.47752  0.14851  Biso   1.000  C
  C22      1.0000 0.68841  0.54010  0.16358  Biso   1.000  C
  N15      1.0000 0.82199  0.49089  0.19179  Biso   1.000  N
  H19      1.0000 0.82337  0.40631  0.20898  Biso   1.000  H
  H20      1.0000 0.88890  0.45719  0.24382  Biso   1.000  H
  N16      1.0000 0.89908  0.91090  0.53669  Biso   1.000  N
  H21      1.0000 0.91470  0.92109  0.62980  Biso   1.000  H
  H22      1.0000 0.96761  0.89420  0.60332  Biso   1.000  H
  C23      1.0000 0.84151  0.93280  0.52148  Biso   1.000  C
  C24      1.0000 0.74859  0.88958  0.44138  Biso   1.000  C
  H23      1.0000 0.74519  0.43452  0.12151  Biso   1.000  H
  C25      1.0000 0.76421  0.52898  0.10911  Biso   1.000  C
  O7       1.0000 0.64368  0.55771  0.18001  Biso   1.000  O
  N17      1.0000 0.72082  0.56469  0.12522  Biso   1.000  N
  C26      1.0000 0.86268  0.53769  0.18250  Biso   1.000  C
  C27      1.0000 0.93530  0.91590  0.49552  Biso   1.000  C
  C28      1.0000 0.84641  0.95589  0.46082  Biso   1.000  C
  H24      1.0000 0.84018  0.96681  0.55580  Biso   1.000  H
  O8       1.0000 0.69089  0.86049  0.41641  Biso   1.000  O
  N18      1.0000 0.78562  0.92648  0.41631  Biso   1.000  N
  N19      1.0000 0.83258  0.56090  0.13559  Biso   1.000  N
  H25      1.0000 0.75312  0.51100  0.06301  Biso   1.000  H
  C29      1.0000 0.69471  0.60442  0.08601  Biso   1.000  C
  O9       1.0000 0.92069  0.55772  0.21222  Biso   1.000  O
  O10      1.0000 0.98818  0.90499  0.49989  Biso   1.000  O
  N20      1.0000 0.90080  0.93770  0.44570  Biso   1.000  N
  H26      1.0000 0.85309  0.00212  0.46871  Biso   1.000  H
  C30      1.0000 0.75899  0.94361  0.35758  Biso   1.000  C
  C31      1.0000 0.86199  0.61131  0.11198  Biso   1.000  C
  N21      1.0000 0.73170  0.66850  0.10442  Biso   1.000  N
  H27      1.0000 0.69279  0.58719  0.04188  Biso   1.000  H
  H28      1.0000 0.65029  0.60358  0.08799  Biso   1.000  H
  C32      1.0000 0.92841  0.95891  0.40040  Biso   1.000  C
  N22      1.0000 0.78191  0.91419  0.30621  Biso   1.000  N
  H29      1.0000 0.77130  0.98931  0.36349  Biso   1.000  H
  H30      1.0000 0.71159  0.93060  0.34622  Biso   1.000  H
  N23      1.0000 0.84519  0.66970  0.13170  Biso   1.000  N
  H31      1.0000 0.84900  0.59950  0.06550  Biso   1.000  H
  H32      1.0000 0.90908  0.61758  0.12630  Biso   1.000  H
  C33      1.0000 0.79248  0.68770  0.09301  Biso   1.000  C
  C34      1.0000 0.70847  0.71618  0.12569  Biso   1.000  C
  N24      1.0000 0.89649  0.92582  0.33499  Biso   1.000  N
  H33      1.0000 0.97348  0.95549  0.41040  Biso   1.000  H
  H34      1.0000 0.92870  0.00341  0.40392  Biso   1.000  H
  C35      1.0000 0.73890  0.87592  0.25231  Biso   1.000  C
  C36      1.0000 0.84161  0.94002  0.29612  Biso   1.000  C
  C37      1.0000 0.89208  0.71989  0.17222  Biso   1.000  C
  H35      1.0000 0.78978  0.67509  0.04742  Biso   1.000  H
  C38      1.0000 0.80951  0.75821  0.11531  Biso   1.000  C
  O11      1.0000 0.65528  0.71389  0.13339  Biso   1.000  O
  N25      1.0000 0.75500  0.77091  0.13658  Biso   1.000  N
  C39      1.0000 0.91890  0.88197  0.30518  Biso   1.000  C
  N26      1.0000 0.77111  0.87019  0.20710  Biso   1.000  N
  O12      1.0000 0.68350  0.85479  0.24748  Biso   1.000  O
  C40      1.0000 0.83809  0.90398  0.22968  Biso   1.000  C
  H36      1.0000 0.84792  0.98572  0.29851  Biso   1.000  H
  O13      1.0000 0.94238  0.71899  0.20668  Biso   1.000  O
  N27      1.0000 0.86841  0.77122  0.16541  Biso   1.000  N
  H37      1.0000 0.81561  0.77942  0.08071  Biso   1.000  H
  C41      1.0000 0.73969  0.82978  0.14569  Biso   1.000  C
  N28      1.0000 0.88232  0.86438  0.24311  Biso   1.000  N
  O14      1.0000 0.96459  0.86199  0.32762  Biso   1.000  O
  H38      1.0000 0.85020  0.93228  0.20222  Biso   1.000  H
  C42      1.0000 0.90668  0.83268  0.19621  Biso   1.000  C
  H39      1.0000 0.69280  0.82321  0.13869  Biso   1.000  H
  H40      1.0000 0.75117  0.85129  0.11348  Biso   1.000  H
  H41      1.0000 0.90940  0.85770  0.16409  Biso   1.000  H
  H42      1.0000 0.95071  0.82979  0.21621  Biso   1.000  H
  O15      1.0000 0.34732  0.43028  0.52491  Biso   1.000  O
  C43      1.0000 0.29309  0.43481  0.50200  Biso   1.000  C
  N29      1.0000 0.25048  0.39559  0.44998  Biso   1.000  N
  N30      1.0000 0.26589  0.48160  0.52172  Biso   1.000  N
  C44      1.0000 0.26749  0.34630  0.41190  Biso   1.000  C
  C45      1.0000 0.19381  0.41802  0.42772  Biso   1.000  C
  C46      1.0000 0.20411  0.47731  0.47932  Biso   1.000  C
  C47      1.0000 0.30031  0.53672  0.56839  Biso   1.000  C
  N31      1.0000 0.23927  0.28528  0.41378  Biso   1.000  N
  H43      1.0000 0.31468  0.35242  0.42528  Biso   1.000  H
  H44      1.0000 0.25562  0.35050  0.36772  Biso   1.000  H
  N32      1.0000 0.13460  0.38089  0.43012  Biso   1.000  N
  H45      1.0000 0.19090  0.42782  0.38551  Biso   1.000  H
  N33      1.0000 0.15150  0.46459  0.50538  Biso   1.000  N
  H46      1.0000 0.20412  0.51492  0.46101  Biso   1.000  H
  N34      1.0000 0.28237  0.54098  0.62590  Biso   1.000  N
  H47      1.0000 0.29308  0.57340  0.55120  Biso   1.000  H
  H48      1.0000 0.34662  0.53831  0.57749  Biso   1.000  H
  C48      1.0000 0.17462  0.25149  0.37612  Biso   1.000  C
  C49      1.0000 0.26880  0.24790  0.44800  Biso   1.000  C
  C50      1.0000 0.10000  0.32351  0.38509  Biso   1.000  C
  C51      1.0000 0.10810  0.40870  0.47251  Biso   1.000  C
  C52      1.0000 0.13098  0.51280  0.54308  Biso   1.000  C
  C53      1.0000 0.23000  0.56700  0.63562  Biso   1.000  C
  C54      1.0000 0.31869  0.53331  0.68149  Biso   1.000  C
  N35      1.0000 0.12249  0.26981  0.39908  Biso   1.000  N
  C55      1.0000 0.16922  0.18372  0.38650  Biso   1.000  C
  H49      1.0000 0.16832  0.25240  0.33082  Biso   1.000  H
  N36      1.0000 0.22742  0.19041  0.43509  Biso   1.000  N
  O16      1.0000 0.32450  0.26471  0.48162  Biso   1.000  O
  H50      1.0000 0.10378  0.32790  0.34302  Biso   1.000  H
  H51      1.0000 0.05409  0.31649  0.38368  Biso   1.000  H
  O17      1.0000 0.05591  0.38959  0.48101  Biso   1.000  O
  N37      1.0000 0.16671  0.52669  0.60891  Biso   1.000  N
  H52      1.0000 0.08480  0.49871  0.53918  Biso   1.000  H
  H53      1.0000 0.13739  0.55109  0.52679  Biso   1.000  H
  H54      1.0000 0.23239  0.60752  0.62229  Biso   1.000  H
  C56      1.0000 0.23818  0.57648  0.70760  Biso   1.000  C
  O18      1.0000 0.36922  0.51459  0.68661  Biso   1.000  O
  N38      1.0000 0.29279  0.54999  0.72868  Biso   1.000  N
  C57      1.0000 0.08359  0.22032  0.40932  Biso   1.000  C
  N39      1.0000 0.11181  0.17081  0.40589  Biso   1.000  N
  H55      1.0000 0.16678  0.15350  0.34739  Biso   1.000  H
  C58      1.0000 0.24811  0.13759  0.45678  Biso   1.000  C
  C59      1.0000 0.13581  0.51671  0.65379  Biso   1.000  C
  N40      1.0000 0.17882  0.54050  0.71130  Biso   1.000  N
  H56      1.0000 0.24639  0.62120  0.72858  Biso   1.000  H
  C60      1.0000 0.32329  0.55392  0.79229  Biso   1.000  C
  O19      1.0000 0.03291  0.22009  0.42190  Biso   1.000  O
  C61      1.0000 0.07888  0.10822  0.40500  Biso   1.000  C
  N41      1.0000 0.21740  0.11449  0.50050  Biso   1.000  N
  H57      1.0000 0.29489  0.15029  0.47660  Biso   1.000  H
  H58      1.0000 0.24008  0.10341  0.41979  Biso   1.000  H
  O20      1.0000 0.08000  0.48889  0.64388  Biso   1.000  O
  C62      1.0000 0.15841  0.55000  0.76769  Biso   1.000  C
  N42      1.0000 0.28932  0.50959  0.82131  Biso   1.000  N
  H59      1.0000 0.36668  0.54692  0.79549  Biso   1.000  H
  H60      1.0000 0.32819  0.59648  0.81629  Biso   1.000  H
  N43      1.0000 0.10091  0.08910  0.46331  Biso   1.000  N
  H61      1.0000 0.08529  0.07891  0.37021  Biso   1.000  H
  H62      1.0000 0.03238  0.10580  0.39669  Biso   1.000  H
  C63      1.0000 0.15848  0.06720  0.47852  Biso   1.000  C
  C64      1.0000 0.25140  0.11042  0.55862  Biso   1.000  C
  N44      1.0000 0.17800  0.50912  0.80821  Biso   1.000  N
  H63      1.0000 0.17660  0.59368  0.79098  Biso   1.000  H
  H64      1.0000 0.11109  0.54281  0.75619  Biso   1.000  H
  C65      1.0000 0.24209  0.52248  0.85150  Biso   1.000  C
  C66      1.0000 0.31161  0.45989  0.83638  Biso   1.000  C
  C67      1.0000 0.06469  0.08410  0.50449  Biso   1.000  C
  C68      1.0000 0.15358  0.04411  0.53918  Biso   1.000  C
  H65      1.0000 0.15981  0.03320  0.44420  Biso   1.000  H
  O21      1.0000 0.30910  0.13952  0.58360  Biso   1.000  O
  N45      1.0000 0.21442  0.07352  0.58369  Biso   1.000  N
  C69      1.0000 0.13731  0.46231  0.81751  Biso   1.000  C
  H66      1.0000 0.25480  0.56549  0.87850  Biso   1.000  H
  C70      1.0000 0.23578  0.47102  0.89089  Biso   1.000  C
  O22      1.0000 0.35631  0.44229  0.82000  Biso   1.000  O
  N46      1.0000 0.27922  0.43531  0.87479  Biso   1.000  N
  O23      1.0000 0.01181  0.09502  0.50012  Biso   1.000  O
  N47      1.0000 0.09919  0.06230  0.55430  Biso   1.000  N
  H67      1.0000 0.14690  0.99788  0.53130  Biso   1.000  H
  C71      1.0000 0.24099  0.05638  0.64238  Biso   1.000  C
  O24      1.0000 0.07930  0.44228  0.78779  Biso   1.000  O
  N48      1.0000 0.16741  0.43910  0.86441  Biso   1.000  N
  H68      1.0000 0.24692  0.48900  0.93700  Biso   1.000  H
  C72      1.0000 0.30528  0.39558  0.91399  Biso   1.000  C
  C73      1.0000 0.07158  0.04109  0.59961  Biso   1.000  C
  N49      1.0000 0.21812  0.08581  0.69379  Biso   1.000  N
  H69      1.0000 0.22869  0.01069  0.63651  Biso   1.000  H
  H70      1.0000 0.28840  0.06940  0.65379  Biso   1.000  H
  C74      1.0000 0.13799  0.38868  0.88798  Biso   1.000  C
  N50      1.0000 0.26829  0.33150  0.89559  Biso   1.000  N
  H71      1.0000 0.30719  0.41280  0.95808  Biso   1.000  H
  H72      1.0000 0.34970  0.39642  0.91202  Biso   1.000  H
  N51      1.0000 0.10350  0.07418  0.66501  Biso   1.000  N
  H73      1.0000 0.02651  0.04451  0.58961  Biso   1.000  H
  H74      1.0000 0.07129  0.99659  0.59609  Biso   1.000  H
  C75      1.0000 0.15838  0.05998  0.70389  Biso   1.000  C
  C76      1.0000 0.26109  0.12408  0.74769  Biso   1.000  C
  N52      1.0000 0.15480  0.33030  0.86831  Biso   1.000  N
  H75      1.0000 0.15099  0.40050  0.93451  Biso   1.000  H
  H76      1.0000 0.09091  0.38242  0.87371  Biso   1.000  H
  C77      1.0000 0.29152  0.28382  0.87432  Biso   1.000  C
  C78      1.0000 0.20750  0.31230  0.90700  Biso   1.000  C
  C79      1.0000 0.08108  0.11802  0.69478  Biso   1.000  C
  C80      1.0000 0.16190  0.09602  0.77032  Biso   1.000  C
  H77      1.0000 0.15211  0.01428  0.70149  Biso   1.000  H
  O25      1.0000 0.31648  0.14520  0.75248  Biso   1.000  O
  N53      1.0000 0.22892  0.12981  0.79291  Biso   1.000  N
  C81      1.0000 0.10791  0.28011  0.82779  Biso   1.000  C
  N54      1.0000 0.24498  0.22908  0.86338  Biso   1.000  N
  O26      1.0000 0.34471  0.28611  0.86662  Biso   1.000  O
  C82      1.0000 0.19048  0.24179  0.88469  Biso   1.000  C
  H78      1.0000 0.21021  0.32491  0.95259  Biso   1.000  H
  O27      1.0000 0.03540  0.13801  0.67238  Biso   1.000  O
  N55      1.0000 0.11772  0.13562  0.75689  Biso   1.000  N
  H79      1.0000 0.14979  0.06772  0.79779  Biso   1.000  H
  C83      1.0000 0.26030  0.17022  0.85432  Biso   1.000  C
  N56      1.0000 0.13157  0.22878  0.83460  Biso   1.000  N
  O28      1.0000 0.05759  0.28100  0.79328  Biso   1.000  O
  H80      1.0000 0.18438  0.22058  0.91930  Biso   1.000  H
  C84      1.0000 0.09331  0.16732  0.80380  Biso   1.000  C
  H81      1.0000 0.30719  0.17679  0.86131  Biso   1.000  H
  H82      1.0000 0.24880  0.14870  0.88648  Biso   1.000  H
  H83      1.0000 0.09059  0.14230  0.83591  Biso   1.000  H
  H84      1.0000 0.04928  0.17021  0.78380  Biso   1.000  H
  O29      1.0000 0.52622  0.34510  0.44148  Biso   1.000  O
  C85      1.0000 0.50320  0.29362  0.44782  Biso   1.000  C
  N57      1.0000 0.44781  0.25290  0.40791  Biso   1.000  N
  N58      1.0000 0.52701  0.26462  0.49500  Biso   1.000  N
  C86      1.0000 0.40371  0.27371  0.36058  Biso   1.000  C
  C87      1.0000 0.42938  0.20011  0.43322  Biso   1.000  C
  C88      1.0000 0.48602  0.20561  0.49101  Biso   1.000  C
  C89      1.0000 0.57759  0.29672  0.54951  Biso   1.000  C
  N59      1.0000 0.40070  0.24518  0.29800  Biso   1.000  N
  H85      1.0000 0.41761  0.31930  0.36678  Biso   1.000  H
  H86      1.0000 0.36027  0.26398  0.36678  Biso   1.000  H
  N60      1.0000 0.42559  0.14001  0.39340  Biso   1.000  N
  H87      1.0000 0.38882  0.20041  0.44552  Biso   1.000  H
  N61      1.0000 0.51180  0.15349  0.47448  Biso   1.000  N
  H88      1.0000 0.47141  0.20471  0.52979  Biso   1.000  H
  N62      1.0000 0.63578  0.27491  0.55228  Biso   1.000  N
  H89      1.0000 0.58688  0.34169  0.54979  Biso   1.000  H
  H90      1.0000 0.56339  0.29140  0.58731  Biso   1.000  H
  C90      1.0000 0.36068  0.18570  0.26588  Biso   1.000  C
  C91      1.0000 0.42511  0.27640  0.25781  Biso   1.000  C
  C92      1.0000 0.37590  0.11071  0.33678  Biso   1.000  C
  C93      1.0000 0.47269  0.11290  0.41951  Biso   1.000  C
  C94      1.0000 0.55261  0.13078  0.52059  Biso   1.000  C
  C95      1.0000 0.69011  0.31048  0.54449  Biso   1.000  C
  C96      1.0000 0.64931  0.22250  0.57792  Biso   1.000  C
  N63      1.0000 0.38482  0.13319  0.28222  Biso   1.000  N
  H91      1.0000 0.31570  0.18228  0.26870  Biso   1.000  H
  C97      1.0000 0.36480  0.18190  0.19710  Biso   1.000  C
  N64      1.0000 0.40688  0.23879  0.20071  Biso   1.000  N
  O30      1.0000 0.45639  0.33128  0.27330  Biso   1.000  O
  H92      1.0000 0.37310  0.06539  0.32851  Biso   1.000  H
  H93      1.0000 0.33461  0.11699  0.34330  Biso   1.000  H
  O31      1.0000 0.47799  0.06118  0.39838  Biso   1.000  O
  N65      1.0000 0.61923  0.16202  0.53552  Biso   1.000  N
  H94      1.0000 0.53850  0.13601  0.55942  Biso   1.000  H
  H95      1.0000 0.54770  0.08578  0.50491  Biso   1.000  H
  O32      1.0000 0.69420  0.35920  0.52641  Biso   1.000  O
  N66      1.0000 0.73830  0.28150  0.55979  Biso   1.000  N
  C98      1.0000 0.71950  0.22849  0.58599  Biso   1.000  C
  H96      1.0000 0.63899  0.22408  0.61909  Biso   1.000  H
  C99      1.0000 0.39689  0.09781  0.23339  Biso   1.000  C
  N67      1.0000 0.38990  0.12691  0.18461  Biso   1.000  N
  H97      1.0000 0.32180  0.17718  0.16738  Biso   1.000  H
  C100     1.0000 0.42150  0.25961  0.14602  Biso   1.000  C
  C101     1.0000 0.66378  0.13200  0.52449  Biso   1.000  C
  C102     1.0000 0.80480  0.31008  0.56369  Biso   1.000  C
  N68      1.0000 0.72242  0.17060  0.54918  Biso   1.000  N
  H98      1.0000 0.74373  0.23513  0.63102  Biso   1.000  H
  O33      1.0000 0.41198  0.04679  0.23320  Biso   1.000  O
  C103     1.0000 0.38671  0.09500  0.12212  Biso   1.000  C
  N69      1.0000 0.46853  0.23201  0.12292  Biso   1.000  N
  H99      1.0000 0.43749  0.30532  0.15729  Biso   1.000  H
  H100     1.0000 0.38130  0.24948  0.11170  Biso   1.000  H
  O34      1.0000 0.65279  0.07660  0.49510  Biso   1.000  O
  N70      1.0000 0.82981  0.27950  0.51651  Biso   1.000  N
  H101     1.0000 0.83213  0.31051  0.60562  Biso   1.000  H
  H102     1.0000 0.80782  0.35379  0.56012  Biso   1.000  H
  C104     1.0000 0.77919  0.14878  0.55360  Biso   1.000  C
  N71      1.0000 0.44121  0.11849  0.10099  Biso   1.000  N
  H103     1.0000 0.34742  0.09868  0.09249  Biso   1.000  H
  H104     1.0000 0.38332  0.05028  0.12132  Biso   1.000  H
  C105     1.0000 0.52559  0.26791  0.12522  Biso   1.000  C
  C106     1.0000 0.44992  0.17431  0.07728  Biso   1.000  C
  C107     1.0000 0.84151  0.30438  0.46810  Biso   1.000  C
  C108     1.0000 0.86011  0.22871  0.52641  Biso   1.000  C
  N72      1.0000 0.81491  0.16911  0.51129  Biso   1.000  N
  H105     1.0000 0.80702  0.16360  0.59731  Biso   1.000  H
  H106     1.0000 0.76781  0.10280  0.54439  Biso   1.000  H
  C109     1.0000 0.48388  0.08461  0.09179  Biso   1.000  C
  O35      1.0000 0.54872  0.32092  0.15221  Biso   1.000  O
  N73      1.0000 0.55310  0.23171  0.08691  Biso   1.000  N
  H107     1.0000 0.41161  0.17327  0.04268  Biso   1.000  H
  C110     1.0000 0.51003  0.17342  0.05202  Biso   1.000  C
  O36      1.0000 0.82331  0.34950  0.45279  Biso   1.000  O
  N74      1.0000 0.87592  0.27029  0.43960  Biso   1.000  N
  C111     1.0000 0.89370  0.22401  0.47228  Biso   1.000  C
  H108     1.0000 0.89109  0.23742  0.56890  Biso   1.000  H
  C112     1.0000 0.81892  0.12992  0.45979  Biso   1.000  C
  O37      1.0000 0.48590  0.03278  0.10231  Biso   1.000  O
  N75      1.0000 0.52740  0.11710  0.06601  Biso   1.000  N
  C113     1.0000 0.61008  0.25730  0.07019  Biso   1.000  C
  H109     1.0000 0.49909  0.17151  0.00582  Biso   1.000  H
  C114     1.0000 0.91219  0.29640  0.40049  Biso   1.000  C
  N76      1.0000 0.86268  0.16021  0.43622  Biso   1.000  N
  H110     1.0000 0.94120  0.23068  0.48838  Biso   1.000  H
  O38      1.0000 0.78742  0.07550  0.43899  Biso   1.000  O
  C115     1.0000 0.57192  0.09111  0.03892  Biso   1.000  C
  N77      1.0000 0.66378  0.23249  0.09498  Biso   1.000  N
  H111     1.0000 0.62191  0.30301  0.08601  Biso   1.000  H
  H112     1.0000 0.60071  0.24880  0.02390  Biso   1.000  H
  N78      1.0000 0.89010  0.26250  0.33410  Biso   1.000  N
  H113     1.0000 0.90941  0.34009  0.40260  Biso   1.000  H
  H114     1.0000 0.95767  0.29638  0.41749  Biso   1.000  H
  C116     1.0000 0.88397  0.13178  0.38500  Biso   1.000  C
  N79      1.0000 0.63860  0.11979  0.07188  Biso   1.000  N
  H115     1.0000 0.56379  0.04609  0.03859  Biso   1.000  H
  H116     1.0000 0.56411  0.09541  0.99479  Biso   1.000  H
  C117     1.0000 0.72031  0.27079  0.13461  Biso   1.000  C
  C118     1.0000 0.67450  0.17628  0.06169  Biso   1.000  C
  C119     1.0000 0.86432  0.29090  0.28809  Biso   1.000  C
  C120     1.0000 0.90121  0.20318  0.31100  Biso   1.000  C
  N80      1.0000 0.86262  0.15132  0.32631  Biso   1.000  N
  H117     1.0000 0.93140  0.14160  0.39772  Biso   1.000  H
  H118     1.0000 0.86851  0.08611  0.37720  Biso   1.000  H
  C121     1.0000 0.67587  0.09149  0.11029  Biso   1.000  C
  O39      1.0000 0.72749  0.32481  0.15879  Biso   1.000  O
  N81      1.0000 0.76731  0.23860  0.13822  Biso   1.000  N
  H119     1.0000 0.66878  0.17559  0.01610  Biso   1.000  H
  C122     1.0000 0.74480  0.17690  0.09648  Biso   1.000  C
  N82      1.0000 0.85150  0.24939  0.23081  Biso   1.000  N
  O40      1.0000 0.85571  0.34319  0.29471  Biso   1.000  O
  C123     1.0000 0.87261  0.19341  0.23710  Biso   1.000  C
  H120     1.0000 0.94781  0.20342  0.32279  Biso   1.000  H
  C124     1.0000 0.82049  0.11190  0.27480  Biso   1.000  C
  O41      1.0000 0.65911  0.04240  0.12461  Biso   1.000  O
  N83      1.0000 0.73792  0.12690  0.12850  Biso   1.000  N
  C125     1.0000 0.83269  0.26557  0.17128  Biso   1.000  C
  H121     1.0000 0.77142  0.17079  0.06662  Biso   1.000  H
  N84      1.0000 0.82318  0.13800  0.22311  Biso   1.000  N
  H122     1.0000 0.90560  0.18790  0.21428  Biso   1.000  H
  O42      1.0000 0.78660  0.06142  0.27231  Biso   1.000  O
  C126     1.0000 0.79030  0.10302  0.15921  Biso   1.000  C
  H123     1.0000 0.86000  0.25200  0.14498  Biso   1.000  H
  H124     1.0000 0.84028  0.31141  0.17799  Biso   1.000  H
  H125     1.0000 0.77358  0.05919  0.16020  Biso   1.000  H
  H126     1.0000 0.82158  0.10348  0.13409  Biso   1.000  H
  O43      1.0000 0.47380  0.65489  0.55848  Biso   1.000  O
  C127     1.0000 0.49679  0.70638  0.55219  Biso   1.000  C
  N85      1.0000 0.47298  0.73538  0.50500  Biso   1.000  N
  N86      1.0000 0.55218  0.74710  0.59210  Biso   1.000  N
  C128     1.0000 0.42241  0.70332  0.45049  Biso   1.000  C
  C129     1.0000 0.51401  0.79439  0.50899  Biso   1.000  C
  C130     1.0000 0.57061  0.79989  0.56679  Biso   1.000  C
  C131     1.0000 0.59632  0.72629  0.63942  Biso   1.000  C
  N87      1.0000 0.36421  0.72510  0.44772  Biso   1.000  N
  H127     1.0000 0.41311  0.65831  0.45021  Biso   1.000  H
  H128     1.0000 0.43660  0.70860  0.41270  Biso   1.000  H
  N88      1.0000 0.48819  0.84651  0.52552  Biso   1.000  N
  H129     1.0000 0.52858  0.79529  0.47021  Biso   1.000  H
  N89      1.0000 0.57440  0.85999  0.60660  Biso   1.000  N
  H130     1.0000 0.61122  0.79959  0.55449  Biso   1.000  H
  N90      1.0000 0.59929  0.75482  0.70201  Biso   1.000  N
  H131     1.0000 0.58241  0.68069  0.63318  Biso   1.000  H
  H132     1.0000 0.63970  0.73601  0.63318  Biso   1.000  H
  C132     1.0000 0.30992  0.68952  0.45552  Biso   1.000  C
  C133     1.0000 0.35068  0.77750  0.42209  Biso   1.000  C
  C134     1.0000 0.44742  0.86922  0.47941  Biso   1.000  C
  C135     1.0000 0.52730  0.88710  0.58050  Biso   1.000  C
  C136     1.0000 0.62407  0.88928  0.66318  Biso   1.000  C
  C137     1.0000 0.57488  0.72360  0.74220  Biso   1.000  C
  C138     1.0000 0.63931  0.81430  0.73412  Biso   1.000  C
  O44      1.0000 0.30579  0.64080  0.47359  Biso   1.000  O
  N91      1.0000 0.26169  0.71850  0.44021  Biso   1.000  N
  C139     1.0000 0.28049  0.77151  0.41401  Biso   1.000  C
  N92      1.0000 0.38081  0.83798  0.46448  Biso   1.000  N
  H133     1.0000 0.36100  0.77592  0.38091  Biso   1.000  H
  H134     1.0000 0.46149  0.86399  0.44059  Biso   1.000  H
  H135     1.0000 0.45229  0.91422  0.49510  Biso   1.000  H
  O45      1.0000 0.52198  0.93881  0.60158  Biso   1.000  O
  N93      1.0000 0.61522  0.86681  0.71778  Biso   1.000  N
  H136     1.0000 0.62689  0.93461  0.67149  Biso   1.000  H
  H137     1.0000 0.66538  0.88301  0.65670  Biso   1.000  H
  O46      1.0000 0.54360  0.66872  0.72670  Biso   1.000  O
  N94      1.0000 0.59311  0.76121  0.79929  Biso   1.000  N
  H138     1.0000 0.68429  0.81772  0.73131  Biso   1.000  H
  C140     1.0000 0.63519  0.81810  0.80291  Biso   1.000  C
  C141     1.0000 0.19518  0.68992  0.43631  Biso   1.000  C
  N95      1.0000 0.27762  0.82940  0.45082  Biso   1.000  N
  H139     1.0000 0.25631  0.76492  0.36899  Biso   1.000  H
  C142     1.0000 0.33621  0.86800  0.47552  Biso   1.000  C
  C143     1.0000 0.60310  0.90219  0.76661  Biso   1.000  C
  C144     1.0000 0.57849  0.74039  0.85399  Biso   1.000  C
  N96      1.0000 0.61009  0.87309  0.81539  Biso   1.000  N
  H140     1.0000 0.67818  0.82281  0.83258  Biso   1.000  H
  N97      1.0000 0.17022  0.72050  0.48350  Biso   1.000  N
  H141     1.0000 0.16791  0.68949  0.39439  Biso   1.000  H
  H142     1.0000 0.19221  0.64621  0.43988  Biso   1.000  H
  C145     1.0000 0.22080  0.85122  0.44641  Biso   1.000  C
  O47      1.0000 0.34720  0.92340  0.50491  Biso   1.000  O
  O48      1.0000 0.58801  0.95321  0.76680  Biso   1.000  O
  N98      1.0000 0.53151  0.76799  0.87709  Biso   1.000  N
  H143     1.0000 0.56250  0.69468  0.84272  Biso   1.000  H
  H144     1.0000 0.61869  0.75052  0.88831  Biso   1.000  H
  C146     1.0000 0.61328  0.90500  0.87789  Biso   1.000  C
  C147     1.0000 0.15852  0.69562  0.53191  Biso   1.000  C
  C148     1.0000 0.13988  0.77129  0.47359  Biso   1.000  C
  N99      1.0000 0.18508  0.83089  0.48871  Biso   1.000  N
  H145     1.0000 0.19302  0.83640  0.40270  Biso   1.000  H
  H146     1.0000 0.23218  0.89720  0.45561  Biso   1.000  H
  C149     1.0000 0.47439  0.73209  0.87479  Biso   1.000  C
  C150     1.0000 0.55011  0.82568  0.92268  Biso   1.000  C
  N100     1.0000 0.55878  0.88151  0.89901  Biso   1.000  N
  H147     1.0000 0.65262  0.90132  0.90751  Biso   1.000  H
  H148     1.0000 0.61671  0.94972  0.87868  Biso   1.000  H
  O49      1.0000 0.17672  0.65050  0.54721  Biso   1.000  O
  N101     1.0000 0.12412  0.72971  0.56040  Biso   1.000  N
  C151     1.0000 0.10628  0.77598  0.52768  Biso   1.000  C
  H149     1.0000 0.10889  0.76258  0.43110  Biso   1.000  H
  C152     1.0000 0.18111  0.87008  0.54022  Biso   1.000  C
  O50      1.0000 0.45131  0.67908  0.84779  Biso   1.000  O
  N102     1.0000 0.44689  0.76829  0.91310  Biso   1.000  N
  H150     1.0000 0.58842  0.82672  0.95728  Biso   1.000  H
  C153     1.0000 0.49001  0.82658  0.94798  Biso   1.000  C
  C154     1.0000 0.51611  0.91539  0.90822  Biso   1.000  C
  C155     1.0000 0.08780  0.70360  0.59951  Biso   1.000  C
  N103     1.0000 0.13730  0.83979  0.56379  Biso   1.000  N
  H151     1.0000 0.05879  0.76932  0.51162  Biso   1.000  H
  O51      1.0000 0.21262  0.92450  0.56102  Biso   1.000  O
  C156     1.0000 0.38991  0.74270  0.92981  Biso   1.000  C
  N104     1.0000 0.47259  0.88290  0.93399  Biso   1.000  N
  H152     1.0000 0.50090  0.82849  0.99418  Biso   1.000  H
  O52      1.0000 0.51409  0.96722  0.89770  Biso   1.000  O
  N105     1.0000 0.10989  0.73750  0.66590  Biso   1.000  N
  H153     1.0000 0.09062  0.65991  0.59740  Biso   1.000  H
  H154     1.0000 0.04232  0.70362  0.58252  Biso   1.000  H
  C157     1.0000 0.11602  0.86822  0.61501  Biso   1.000  C
  N106     1.0000 0.33620  0.76750  0.90498  Biso   1.000  N
  H155     1.0000 0.37808  0.69699  0.91399  Biso   1.000  H
  H156     1.0000 0.39932  0.75120  0.97611  Biso   1.000  H
  C158     1.0000 0.42811  0.90889  0.96108  Biso   1.000  C
  C159     1.0000 0.13572  0.70910  0.71192  Biso   1.000  C
  C160     1.0000 0.09883  0.79682  0.68900  Biso   1.000  C
  N107     1.0000 0.13737  0.84868  0.67370  Biso   1.000  N
  H157     1.0000 0.06859  0.85840  0.60229  Biso   1.000  H
  H158     1.0000 0.13148  0.91389  0.62280  Biso   1.000  H
  C161     1.0000 0.27968  0.72921  0.86540  Biso   1.000  C
  C162     1.0000 0.32549  0.82372  0.93831  Biso   1.000  C
  N108     1.0000 0.36138  0.88020  0.92808  Biso   1.000  N
  H159     1.0000 0.43620  0.95391  0.96141  Biso   1.000  H
  H160     1.0000 0.43588  0.90459  0.00522  Biso   1.000  H
  O53      1.0000 0.14428  0.65681  0.70530  Biso   1.000  O
  N109     1.0000 0.14849  0.75061  0.76920  Biso   1.000  N
  C163     1.0000 0.12738  0.80659  0.76290  Biso   1.000  C
  H161     1.0000 0.05218  0.79658  0.67722  Biso   1.000  H
  C164     1.0000 0.17949  0.88810  0.72520  Biso   1.000  C
  N110     1.0000 0.23268  0.76140  0.86178  Biso   1.000  N
  O54      1.0000 0.27250  0.67519  0.84122  Biso   1.000  O
  C165     1.0000 0.25519  0.82310  0.90352  Biso   1.000  C
  H162     1.0000 0.33121  0.82441  0.98390  Biso   1.000  H
  C166     1.0000 0.32411  0.90851  0.88972  Biso   1.000  C
  C167     1.0000 0.16729  0.73442  0.82868  Biso   1.000  C
  N111     1.0000 0.17681  0.86200  0.77690  Biso   1.000  N
  H163     1.0000 0.09439  0.81210  0.78572  Biso   1.000  H
  O55      1.0000 0.21339  0.93858  0.72769  Biso   1.000  O
  N112     1.0000 0.26212  0.87310  0.87150  Biso   1.000  N
  H164     1.0000 0.22861  0.82921  0.93338  Biso   1.000  H
  O56      1.0000 0.34088  0.95760  0.87540  Biso   1.000  O
  H165     1.0000 0.13998  0.74800  0.85502  Biso   1.000  H
  H166     1.0000 0.15971  0.68859  0.82201  Biso   1.000  H
  C168     1.0000 0.20968  0.89698  0.84080  Biso   1.000  C
  H167     1.0000 0.22641  0.94081  0.83981  Biso   1.000  H
  H168     1.0000 0.17841  0.89652  0.86591  Biso   1.000  H
  O57      1.0000 0.55989  0.45582  0.65980  Biso   1.000  O
  C169     1.0000 0.55471  0.47831  0.71182  Biso   1.000  C
  N113     1.0000 0.50710  0.46098  0.73849  Biso   1.000  N
  N114     1.0000 0.60069  0.52878  0.75380  Biso   1.000  N
  C170     1.0000 0.45080  0.41088  0.70642  Biso   1.000  C
  C171     1.0000 0.51591  0.50088  0.79859  Biso   1.000  C
  C172     1.0000 0.57401  0.55261  0.80450  Biso   1.000  C
  C173     1.0000 0.64711  0.56800  0.73210  Biso   1.000  C
  N115     1.0000 0.45389  0.35430  0.72769  Biso   1.000  N
  H169     1.0000 0.44630  0.40289  0.66079  Biso   1.000  H
  H170     1.0000 0.41230  0.42411  0.71342  Biso   1.000  H
  N116     1.0000 0.53841  0.47311  0.85178  Biso   1.000  N
  H171     1.0000 0.47723  0.51712  0.80112  Biso   1.000  H
  N117     1.0000 0.61282  0.55880  0.86662  Biso   1.000  N
  H172     1.0000 0.56120  0.59221  0.79910  Biso   1.000  H
  N118     1.0000 0.71320  0.57270  0.76478  Biso   1.000  N
  H173     1.0000 0.63909  0.61017  0.73699  Biso   1.000  H
  H174     1.0000 0.64038  0.55141  0.68670  Biso   1.000  H
  C174     1.0000 0.46042  0.30209  0.69220  Biso   1.000  C
  C175     1.0000 0.43080  0.34151  0.78121  Biso   1.000  C
  C176     1.0000 0.49400  0.43169  0.87399  Biso   1.000  C
  C177     1.0000 0.59271  0.51172  0.89282  Biso   1.000  C
  C178     1.0000 0.67061  0.60592  0.89690  Biso   1.000  C
  C179     1.0000 0.75471  0.54799  0.73750  Biso   1.000  C
  C180     1.0000 0.74458  0.61408  0.82788  Biso   1.000  C
  O58      1.0000 0.47692  0.29991  0.64252  Biso   1.000  O
  N119     1.0000 0.44952  0.25451  0.72041  Biso   1.000  N
  C181     1.0000 0.42391  0.27107  0.77328  Biso   1.000  C
  N120     1.0000 0.48039  0.36730  0.84061  Biso   1.000  N
  H175     1.0000 0.38969  0.35399  0.78150  Biso   1.000  H
  H176     1.0000 0.51238  0.43469  0.91939  Biso   1.000  H
  H177     1.0000 0.45340  0.44540  0.86878  Biso   1.000  H
  O59      1.0000 0.61681  0.50640  0.94629  Biso   1.000  O
  N121     1.0000 0.72591  0.59259  0.87831  Biso   1.000  N
  H178     1.0000 0.66419  0.64601  0.88718  Biso   1.000  H
  H179     1.0000 0.67930  0.61062  0.94301  Biso   1.000  H
  O60      1.0000 0.74241  0.51789  0.68389  Biso   1.000  O
  N122     1.0000 0.81428  0.56539  0.78079  Biso   1.000  N
  C182     1.0000 0.81469  0.60811  0.83741  Biso   1.000  C
  H180     1.0000 0.74109  0.65791  0.82840  Biso   1.000  H
  C183     1.0000 0.44302  0.19000  0.68792  Biso   1.000  C
  N123     1.0000 0.46629  0.26620  0.83211  Biso   1.000  N
  H181     1.0000 0.37861  0.24782  0.76600  Biso   1.000  H
  C184     1.0000 0.49437  0.32239  0.87108  Biso   1.000  C
  C185     1.0000 0.77790  0.58038  0.92150  Biso   1.000  C
  C186     1.0000 0.87069  0.55222  0.76502  Biso   1.000  C
  N124     1.0000 0.82721  0.58382  0.89451  Biso   1.000  N
  H182     1.0000 0.84452  0.64941  0.84328  Biso   1.000  H
  N125     1.0000 0.49260  0.16300  0.72131  Biso   1.000  N
  H183     1.0000 0.44649  0.18929  0.64468  Biso   1.000  H
  H184     1.0000 0.40031  0.16471  0.68501  Biso   1.000  H
  C187     1.0000 0.46139  0.20922  0.85319  Biso   1.000  C
  O61      1.0000 0.52630  0.33009  0.92629  Biso   1.000  O
  O62      1.0000 0.77552  0.56761  0.97080  Biso   1.000  O
  N126     1.0000 0.89487  0.50510  0.79469  Biso   1.000  N
  H185     1.0000 0.86059  0.53801  0.71891  Biso   1.000  H
  H186     1.0000 0.90479  0.59107  0.77788  Biso   1.000  H
  C188     1.0000 0.89008  0.58229  0.93019  Biso   1.000  C
  C189     1.0000 0.54291  0.15390  0.69891  Biso   1.000  C
  C190     1.0000 0.48379  0.13100  0.76971  Biso   1.000  C
  N127     1.0000 0.50330  0.17139  0.83220  Biso   1.000  N
  H187     1.0000 0.47270  0.21878  0.89958  Biso   1.000  H
  H188     1.0000 0.41640  0.18461  0.83732  Biso   1.000  H
  C191     1.0000 0.89469  0.44951  0.76070  Biso   1.000  C
  C192     1.0000 0.93961  0.51861  0.85779  Biso   1.000  C
  N128     1.0000 0.91111  0.52740  0.90911  Biso   1.000  N
  H189     1.0000 0.89028  0.58528  0.97470  Biso   1.000  H
  H190     1.0000 0.92141  0.61928  0.92822  Biso   1.000  H
  O63      1.0000 0.55892  0.17480  0.65792  Biso   1.000  O
  N129     1.0000 0.57302  0.11580  0.73271  Biso   1.000  N
  H191     1.0000 0.44000  0.10321  0.75952  Biso   1.000  H
  C193     1.0000 0.53832  0.09402  0.77441  Biso   1.000  C
  C194     1.0000 0.55430  0.15922  0.87371  Biso   1.000  C
  O64      1.0000 0.86900  0.42911  0.70501  Biso   1.000  O
  N130     1.0000 0.92782  0.41778  0.79962  Biso   1.000  N
  C195     1.0000 0.96152  0.45862  0.86169  Biso   1.000  C
  H192     1.0000 0.97672  0.55422  0.86310  Biso   1.000  H
  C196     1.0000 0.91508  0.48310  0.94338  Biso   1.000  C
  C197     1.0000 0.61199  0.08011  0.70642  Biso   1.000  C
  N131     1.0000 0.57417  0.11407  0.84108  Biso   1.000  N
  H193     1.0000 0.52028  0.04802  0.76178  Biso   1.000  H
  O65      1.0000 0.57598  0.18390  0.92869  Biso   1.000  O
  C198     1.0000 0.94682  0.36280  0.77520  Biso   1.000  C
  N132     1.0000 0.94119  0.43900  0.91258  Biso   1.000  N
  H194     1.0000 0.00902  0.46580  0.86962  Biso   1.000  H
  O66      1.0000 0.90188  0.48279  0.99348  Biso   1.000  O
  N133     1.0000 0.67900  0.09609  0.74300  Biso   1.000  N
  H195     1.0000 0.59390  0.03541  0.70281  Biso   1.000  H
  H196     1.0000 0.60980  0.08643  0.66341  Biso   1.000  H
  C199     1.0000 0.62478  0.08790  0.86920  Biso   1.000  C
  N134     1.0000 0.91909  0.30888  0.79539  Biso   1.000  N
  H197     1.0000 0.99410  0.37050  0.78920  Biso   1.000  H
  H198     1.0000 0.93361  0.35418  0.72882  Biso   1.000  H
  C200     1.0000 0.96329  0.39202  0.94230  Biso   1.000  C
  C201     1.0000 0.72758  0.12310  0.72121  Biso   1.000  C
  C202     1.0000 0.70122  0.07739  0.80159  Biso   1.000  C
  N135     1.0000 0.68429  0.10849  0.85380  Biso   1.000  N
  H199     1.0000 0.63279  0.09888  0.91540  Biso   1.000  H
  H200     1.0000 0.61088  0.04209  0.85558  Biso   1.000  H
  C203     1.0000 0.88579  0.25531  0.75370  Biso   1.000  C
  C204     1.0000 0.94860  0.29670  0.85601  Biso   1.000  C
  N136     1.0000 0.92963  0.32881  0.90831  Biso   1.000  N
  H201     1.0000 0.95790  0.39828  0.98522  Biso   1.000  H
  H202     1.0000 0.00962  0.39702  0.94611  Biso   1.000  H
  O67      1.0000 0.72261  0.13909  0.67149  Biso   1.000  O
  N137     1.0000 0.78452  0.13000  0.76680  Biso   1.000  N
  H203     1.0000 0.68841  0.03130  0.79600  Biso   1.000  H
  C205     1.0000 0.77560  0.10100  0.81708  Biso   1.000  C
  C206     1.0000 0.73809  0.14761  0.89798  Biso   1.000  C
  N138     1.0000 0.88191  0.20782  0.78398  Biso   1.000  N
  O68      1.0000 0.86431  0.25010  0.69708  Biso   1.000  O
  C207     1.0000 0.91791  0.22791  0.84939  Biso   1.000  C
  H204     1.0000 0.99619  0.30459  0.86469  Biso   1.000  H
  C208     1.0000 0.89291  0.28918  0.93249  Biso   1.000  C
  C209     1.0000 0.84629  0.14538  0.75389  Biso   1.000  C
  N139     1.0000 0.79058  0.14431  0.87760  Biso   1.000  N
  H205     1.0000 0.79789  0.06631  0.81981  Biso   1.000  H
  O69      1.0000 0.73717  0.17779  0.94808  Biso   1.000  O
  N140     1.0000 0.88018  0.22988  0.89380  Biso   1.000  N
  H206     1.0000 0.95119  0.20392  0.86000  Biso   1.000  H
  O70      1.0000 0.87401  0.30182  0.97719  Biso   1.000  O
  H207     1.0000 0.83937  0.13988  0.70788  Biso   1.000  H
  H208     1.0000 0.87180  0.11620  0.76812  Biso   1.000  H
  C210     1.0000 0.85438  0.17509  0.91540  Biso   1.000  C
  H209     1.0000 0.85399  0.18798  0.95958  Biso   1.000  H
  H210     1.0000 0.88262  0.14581  0.91371  Biso   1.000  H
  O71      1.0000 0.44010  0.54418  0.34021  Biso   1.000  O
  C211     1.0000 0.44528  0.52169  0.28818  Biso   1.000  C
  N141     1.0000 0.39930  0.47122  0.24621  Biso   1.000  N
  N142     1.0000 0.49293  0.53902  0.26152  Biso   1.000  N
  C212     1.0000 0.35288  0.43200  0.26790  Biso   1.000  C
  C213     1.0000 0.42598  0.44739  0.19550  Biso   1.000  C
  C214     1.0000 0.48413  0.49912  0.20142  Biso   1.000  C
  C215     1.0000 0.54919  0.58912  0.29358  Biso   1.000  C
  N143     1.0000 0.28677  0.42729  0.23518  Biso   1.000  N
  H211     1.0000 0.36090  0.38983  0.26302  Biso   1.000  H
  H212     1.0000 0.35961  0.44859  0.31330  Biso   1.000  H
  N144     1.0000 0.38722  0.44120  0.13339  Biso   1.000  N
  H213     1.0000 0.43879  0.40779  0.20090  Biso   1.000  H
  N145     1.0000 0.46157  0.52688  0.14818  Biso   1.000  N
  H214     1.0000 0.52281  0.48288  0.19888  Biso   1.000  H
  N146     1.0000 0.54610  0.64570  0.27231  Biso   1.000  N
  H215     1.0000 0.55369  0.59711  0.33922  Biso   1.000  H
  H216     1.0000 0.58769  0.57589  0.28659  Biso   1.000  H
  C216     1.0000 0.25541  0.38592  0.17212  Biso   1.000  C
  C217     1.0000 0.24532  0.45201  0.26250  Biso   1.000  C
  C218     1.0000 0.32938  0.39408  0.10310  Biso   1.000  C
  C219     1.0000 0.40728  0.48828  0.10719  Biso   1.000  C
  C220     1.0000 0.50599  0.56831  0.12602  Biso   1.000  C
  C221     1.0000 0.53962  0.69791  0.30781  Biso   1.000  C
  C222     1.0000 0.56919  0.65849  0.21879  Biso   1.000  C
  N147     1.0000 0.27412  0.40742  0.12170  Biso   1.000  N
  C223     1.0000 0.18530  0.39189  0.16259  Biso   1.000  C
  H217     1.0000 0.25890  0.34209  0.17161  Biso   1.000  H
  N148     1.0000 0.18571  0.43461  0.21921  Biso   1.000  N
  O72      1.0000 0.25762  0.48211  0.31612  Biso   1.000  O
  H218     1.0000 0.33580  0.35399  0.11282  Biso   1.000  H
  H219     1.0000 0.32069  0.38938  0.05700  Biso   1.000  H
  O73      1.0000 0.38318  0.49360  0.05371  Biso   1.000  O
  N149     1.0000 0.51960  0.63270  0.15940  Biso   1.000  N
  H220     1.0000 0.48761  0.56531  0.08061  Biso   1.000  H
  H221     1.0000 0.54657  0.55459  0.13118  Biso   1.000  H
  O74      1.0000 0.52307  0.70009  0.35748  Biso   1.000  O
  N150     1.0000 0.55052  0.74549  0.27959  Biso   1.000  N
  H222     1.0000 0.61030  0.64601  0.21851  Biso   1.000  H
  C224     1.0000 0.57611  0.72892  0.22668  Biso   1.000  C
  C225     1.0000 0.22209  0.41962  0.07850  Biso   1.000  C
  N151     1.0000 0.17278  0.41618  0.10550  Biso   1.000  N
  H223     1.0000 0.15552  0.35059  0.15672  Biso   1.000  H
  C226     1.0000 0.12930  0.44778  0.23499  Biso   1.000  C
  C227     1.0000 0.50560  0.67760  0.12888  Biso   1.000  C
  C228     1.0000 0.55697  0.81000  0.31208  Biso   1.000  C
  N152     1.0000 0.53370  0.73380  0.16790  Biso   1.000  N
  H224     1.0000 0.62138  0.75218  0.23400  Biso   1.000  H
  O75      1.0000 0.22452  0.43239  0.02920  Biso   1.000  O
  C229     1.0000 0.10991  0.41771  0.06982  Biso   1.000  C
  N153     1.0000 0.10511  0.49490  0.20532  Biso   1.000  N
  H225     1.0000 0.13940  0.46199  0.28109  Biso   1.000  H
  H226     1.0000 0.09518  0.40892  0.22208  Biso   1.000  H
  O76      1.0000 0.47369  0.66991  0.07371  Biso   1.000  O
  N154     1.0000 0.50739  0.83700  0.27870  Biso   1.000  N
  H227     1.0000 0.55349  0.81070  0.35528  Biso   1.000  H
  H228     1.0000 0.59968  0.83529  0.31499  Biso   1.000  H
  C230     1.0000 0.53860  0.79079  0.14682  Biso   1.000  C
  N155     1.0000 0.08888  0.47260  0.09090  Biso   1.000  N
  H229     1.0000 0.10971  0.41472  0.02531  Biso   1.000  H
  H230     1.0000 0.07858  0.38072  0.07179  Biso   1.000  H
  C231     1.0000 0.10530  0.55050  0.23931  Biso   1.000  C
  C232     1.0000 0.06038  0.48139  0.14221  Biso   1.000  C
  C233     1.0000 0.45708  0.84610  0.30110  Biso   1.000  C
  C234     1.0000 0.51620  0.86900  0.23029  Biso   1.000  C
  N156     1.0000 0.49669  0.82861  0.16780  Biso   1.000  N
  H231     1.0000 0.52732  0.78121  0.10038  Biso   1.000  H
  H232     1.0000 0.58359  0.81539  0.16268  Biso   1.000  H
  C235     1.0000 0.08491  0.51690  0.05662  Biso   1.000  C
  O77      1.0000 0.13099  0.57089  0.29499  Biso   1.000  O
  N157     1.0000 0.07221  0.58222  0.20039  Biso   1.000  N
  C236     1.0000 0.03852  0.54138  0.13832  Biso   1.000  C
  H233     1.0000 0.02332  0.44579  0.13691  Biso   1.000  H
  O78      1.0000 0.44111  0.82520  0.34208  Biso   1.000  O
  N158     1.0000 0.42702  0.88420  0.26729  Biso   1.000  N
  H234     1.0000 0.55999  0.89679  0.24048  Biso   1.000  H
  C237     1.0000 0.46171  0.90598  0.22560  Biso   1.000  C
  C238     1.0000 0.44569  0.84078  0.12630  Biso   1.000  C
  O79      1.0000 0.09810  0.51720  0.00648  Biso   1.000  O
  N159     1.0000 0.05880  0.56100  0.08742  Biso   1.000  N
  C239     1.0000 0.05322  0.63720  0.22480  Biso   1.000  C
  H235     1.0000 0.99102  0.53420  0.13038  Biso   1.000  H
  C240     1.0000 0.38800  0.91989  0.29358  Biso   1.000  C
  N160     1.0000 0.42581  0.88592  0.15888  Biso   1.000  N
  H236     1.0000 0.47970  0.95202  0.23818  Biso   1.000  H
  O80      1.0000 0.42400  0.81610  0.07132  Biso   1.000  O
  C241     1.0000 0.03670  0.60798  0.05770  Biso   1.000  C
  N161     1.0000 0.08090  0.69112  0.20461  Biso   1.000  N
  H237     1.0000 0.00589  0.62950  0.21081  Biso   1.000  H
  H238     1.0000 0.06638  0.64582  0.27119  Biso   1.000  H
  N162     1.0000 0.32099  0.90391  0.25701  Biso   1.000  N
  H239     1.0000 0.40609  0.96459  0.29720  Biso   1.000  H
  H240     1.0000 0.39019  0.91362  0.33659  Biso   1.000  H
  C242     1.0000 0.37521  0.91210  0.13080  Biso   1.000  C
  N163     1.0000 0.07041  0.67119  0.09169  Biso   1.000  N
  H241     1.0000 0.04209  0.60172  0.01479  Biso   1.000  H
  H242     1.0000 0.99038  0.60302  0.05390  Biso   1.000  H
  C243     1.0000 0.11420  0.74469  0.24630  Biso   1.000  C
  C244     1.0000 0.05139  0.70330  0.14400  Biso   1.000  C
  C245     1.0000 0.27241  0.87690  0.27879  Biso   1.000  C
  C246     1.0000 0.29882  0.92261  0.19841  Biso   1.000  C
  N164     1.0000 0.31570  0.89151  0.14620  Biso   1.000  N
  H243     1.0000 0.36720  0.90112  0.08461  Biso   1.000  H
  H244     1.0000 0.38911  0.95791  0.14442  Biso   1.000  H
  C247     1.0000 0.10713  0.71082  0.06752  Biso   1.000  C
  O81      1.0000 0.13571  0.74989  0.30288  Biso   1.000  O
  N165     1.0000 0.11812  0.79218  0.21602  Biso   1.000  N
  C248     1.0000 0.08212  0.77209  0.15062  Biso   1.000  C
  H245     1.0000 0.00380  0.69541  0.13531  Biso   1.000  H
  N166     1.0000 0.21552  0.87000  0.23320  Biso   1.000  N
  O82      1.0000 0.27742  0.86091  0.32851  Biso   1.000  O
  C249     1.0000 0.22439  0.89900  0.18292  Biso   1.000  C
  H246     1.0000 0.31162  0.96870  0.20400  Biso   1.000  H
  C250     1.0000 0.26189  0.85238  0.10198  Biso   1.000  C
  O83      1.0000 0.12598  0.69818  0.02282  Biso   1.000  O
  N167     1.0000 0.11981  0.77012  0.10620  Biso   1.000  N
  C251     1.0000 0.15370  0.85462  0.24612  Biso   1.000  C
  H247     1.0000 0.04880  0.79608  0.14001  Biso   1.000  H
  N168     1.0000 0.20941  0.85569  0.12240  Biso   1.000  N
  H248     1.0000 0.20210  0.93370  0.18020  Biso   1.000  H
  O84      1.0000 0.26281  0.82220  0.05188  Biso   1.000  O
  C252     1.0000 0.14561  0.82491  0.08461  Biso   1.000  C
  H249     1.0000 0.16060  0.86011  0.29208  Biso   1.000  H
  H250     1.0000 0.12819  0.88380  0.23189  Biso   1.000  H
  H251     1.0000 0.14598  0.81201  0.04038  Biso   1.000  H
  H252     1.0000 0.11741  0.85419  0.08630  Biso   1.000  H
