data_image0
_cell_length_a       38.167
_cell_length_b       16.311
_cell_length_c       20.656
_cell_angle_alpha    90
_cell_angle_beta     109.58
_cell_angle_gamma    90

_symmetry_space_group_name_H-M    "P 1"
_symmetry_int_tables_number       1

loop_
  _symmetry_equiv_pos_as_xyz
  'x, y, z'

loop_
  _atom_site_label
  _atom_site_occupancy
  _atom_site_fract_x
  _atom_site_fract_y
  _atom_site_fract_z
  _atom_site_thermal_displace_type
  _atom_site_B_iso_or_equiv
  _atom_site_type_symbol
  C1       1.0000 0.57240  0.50052  0.52134  Biso   1.000  C
  N1       1.0000 0.56040  0.54846  0.45731  Biso   1.000  N
  H1       1.0000 0.55332  0.46055  0.51985  Biso   1.000  H
  H2       1.0000 0.59489  0.47073  0.52426  Biso   1.000  H
  C2       1.0000 0.57980  0.55257  0.58510  Biso   1.000  C
  C3       1.0000 0.52098  0.57041  0.43979  Biso   1.000  C
  C4       1.0000 0.56580  0.49770  0.40187  Biso   1.000  C
  N2       1.0000 0.61370  0.60493  0.59882  Biso   1.000  N
  H3       1.0000 0.58289  0.51720  0.62436  Biso   1.000  H
  H4       1.0000 0.55846  0.58758  0.57981  Biso   1.000  H
  H5       1.0000 0.50605  0.52155  0.42391  Biso   1.000  H
  H6       1.0000 0.51668  0.58911  0.48105  Biso   1.000  H
  C5       1.0000 0.50789  0.63607  0.38522  Biso   1.000  C
  H7       1.0000 0.55783  0.44209  0.40603  Biso   1.000  H
  H8       1.0000 0.55018  0.51891  0.35778  Biso   1.000  H
  C6       1.0000 0.60545  0.49611  0.40351  Biso   1.000  C
  H9       1.0000 0.63258  0.57446  0.59641  Biso   1.000  H
  H10      1.0000 0.60943  0.64404  0.56702  Biso   1.000  H
  C7       1.0000 0.62383  0.64349  0.66911  Biso   1.000  C
  N3       1.0000 0.52526  0.71786  0.40572  Biso   1.000  N
  H11      1.0000 0.48116  0.64178  0.37289  Biso   1.000  H
  H12      1.0000 0.51301  0.61811  0.34453  Biso   1.000  H
  N4       1.0000 0.61782  0.57654  0.38532  Biso   1.000  N
  H13      1.0000 0.60801  0.45485  0.37155  Biso   1.000  H
  H14      1.0000 0.62144  0.48053  0.44919  Biso   1.000  H
  H15      1.0000 0.63491  0.60211  0.70359  Biso   1.000  H
  H16      1.0000 0.60131  0.66274  0.67610  Biso   1.000  H
  C8       1.0000 0.65054  0.71418  0.67898  Biso   1.000  C
  H17      1.0000 0.51940  0.74962  0.36852  Biso   1.000  H
  H18      1.0000 0.54985  0.71173  0.42098  Biso   1.000  H
  C9       1.0000 0.51443  0.75998  0.45839  Biso   1.000  C
  H19      1.0000 0.60225  0.59267  0.34468  Biso   1.000  H
  H20      1.0000 0.61721  0.61370  0.41646  Biso   1.000  H
  C10      1.0000 0.65610  0.57152  0.38229  Biso   1.000  C
  C11      1.0000 0.68772  0.70198  0.68694  Biso   1.000  C
  C12      1.0000 0.63823  0.79382  0.68278  Biso   1.000  C
  H21      1.0000 0.48752  0.75900  0.44539  Biso   1.000  H
  H22      1.0000 0.52457  0.73055  0.50145  Biso   1.000  H
  C13      1.0000 0.52761  0.84802  0.46898  Biso   1.000  C
  H23      1.0000 0.67208  0.54650  0.42448  Biso   1.000  H
  H24      1.0000 0.65575  0.53559  0.34468  Biso   1.000  H
  C14      1.0000 0.67308  0.65299  0.37279  Biso   1.000  C
  H25      1.0000 0.69650  0.64901  0.68607  Biso   1.000  H
  C15      1.0000 0.71209  0.76789  0.69619  Biso   1.000  C
  C16      1.0000 0.66224  0.85997  0.69208  Biso   1.000  C
  H26      1.0000 0.61355  0.80271  0.67903  Biso   1.000  H
  C17      1.0000 0.56109  0.86708  0.51949  Biso   1.000  C
  C18      1.0000 0.50734  0.91018  0.42828  Biso   1.000  C
  C19      1.0000 0.65671  0.70400  0.31719  Biso   1.000  C
  C20      1.0000 0.70776  0.67402  0.41852  Biso   1.000  C
  H27      1.0000 0.73696  0.75912  0.70128  Biso   1.000  H
  C21      1.0000 0.69892  0.84691  0.69784  Biso   1.000  C
  H28      1.0000 0.65369  0.91288  0.69450  Biso   1.000  H
  H29      1.0000 0.57518  0.82570  0.54708  Biso   1.000  H
  C22      1.0000 0.57366  0.94721  0.52899  Biso   1.000  C
  C23      1.0000 0.51956  0.99172  0.43743  Biso   1.000  C
  H30      1.0000 0.48499  0.89780  0.39406  Biso   1.000  H
  H31      1.0000 0.63380  0.68978  0.28533  Biso   1.000  H
  C24      1.0000 0.67402  0.77641  0.30804  Biso   1.000  C
  C25      1.0000 0.72547  0.74453  0.40953  Biso   1.000  C
  H32      1.0000 0.71923  0.64006  0.45577  Biso   1.000  H
  O1       1.0000 0.71978  0.91723  0.70493  Biso   1.000  O
  H33      1.0000 0.59601  0.95960  0.56326  Biso   1.000  H
  C26      1.0000 0.55296  0.00920  0.48753  Biso   1.000  C
  H34      1.0000 0.50538  0.03323  0.41009  Biso   1.000  H
  H35      1.0000 0.66274  0.81056  0.27084  Biso   1.000  H
  C27      1.0000 0.70810  0.79640  0.35511  Biso   1.000  C
  H36      1.0000 0.74899  0.75716  0.43984  Biso   1.000  H
  C28      1.0000 0.75768  0.91043  0.71079  Biso   1.000  C
  O2       1.0000 0.56868  0.08638  0.50083  Biso   1.000  O
  O3       1.0000 0.72842  0.86567  0.35270  Biso   1.000  O
  H37      1.0000 0.77202  0.89007  0.75605  Biso   1.000  H
  H38      1.0000 0.76028  0.87187  0.67687  Biso   1.000  H
  C29      1.0000 0.77203  0.99399  0.69933  Biso   1.000  C
  C30      1.0000 0.54979  0.15352  0.45968  Biso   1.000  C
  C31      1.0000 0.70919  0.93232  0.31056  Biso   1.000  C
  N5       1.0000 0.74673  0.04708  0.66171  Biso   1.000  N
  O4       1.0000 0.80602  0.00809  0.72194  Biso   1.000  O
  H39      1.0000 0.54092  0.13770  0.41163  Biso   1.000  H
  H40      1.0000 0.52851  0.16909  0.47262  Biso   1.000  H
  C32      1.0000 0.57612  0.22488  0.47005  Biso   1.000  C
  H41      1.0000 0.70812  0.92477  0.26334  Biso   1.000  H
  H42      1.0000 0.68403  0.93685  0.31154  Biso   1.000  H
  C33      1.0000 0.73181  0.00822  0.34165  Biso   1.000  C
  C34      1.0000 0.75763  0.12887  0.64424  Biso   1.000  C
  N6       1.0000 0.61227  0.20673  0.49122  Biso   1.000  N
  O5       1.0000 0.56380  0.29569  0.45526  Biso   1.000  O
  N7       1.0000 0.71223  0.06787  0.35722  Biso   1.000  N
  O6       1.0000 0.76567  0.01128  0.35110  Biso   1.000  O
  H43      1.0000 0.75669  0.16811  0.67893  Biso   1.000  H
  H44      1.0000 0.78301  0.12672  0.64419  Biso   1.000  H
  C35      1.0000 0.73228  0.15707  0.57467  Biso   1.000  C
  C36      1.0000 0.64075  0.27031  0.49688  Biso   1.000  C
  C37      1.0000 0.72878  0.14573  0.38851  Biso   1.000  C
  C38      1.0000 0.70028  0.20293  0.56928  Biso   1.000  C
  C39      1.0000 0.74087  0.13659  0.51599  Biso   1.000  C
  H45      1.0000 0.63326  0.30482  0.45628  Biso   1.000  H
  H46      1.0000 0.64366  0.30458  0.53675  Biso   1.000  H
  C40      1.0000 0.67700  0.22819  0.50376  Biso   1.000  C
  H47      1.0000 0.75563  0.14236  0.40177  Biso   1.000  H
  H48      1.0000 0.72034  0.18957  0.35511  Biso   1.000  H
  C41      1.0000 0.71805  0.16529  0.45140  Biso   1.000  C
  C42      1.0000 0.68971  0.22212  0.63202  Biso   1.000  C
  C43      1.0000 0.77378  0.08117  0.52221  Biso   1.000  C
  C44      1.0000 0.68571  0.20967  0.44472  Biso   1.000  C
  H49      1.0000 0.69709  0.27711  0.64687  Biso   1.000  H
  H50      1.0000 0.66328  0.21685  0.62066  Biso   1.000  H
  H51      1.0000 0.70200  0.18442  0.66819  Biso   1.000  H
  H52      1.0000 0.77877  0.04739  0.56229  Biso   1.000  H
  H53      1.0000 0.76815  0.04715  0.48208  Biso   1.000  H
  H54      1.0000 0.79522  0.11416  0.52601  Biso   1.000  H
  C45      1.0000 0.65938  0.23450  0.37494  Biso   1.000  C
  H55      1.0000 0.66499  0.20373  0.34000  Biso   1.000  H
  H56      1.0000 0.63426  0.22347  0.37253  Biso   1.000  H
  H57      1.0000 0.66217  0.29195  0.36796  Biso   1.000  H
  C46      1.0000 0.47902  0.42959  0.56018  Biso   1.000  C
  N8       1.0000 0.43958  0.45154  0.54266  Biso   1.000  N
  H58      1.0000 0.49393  0.47845  0.57611  Biso   1.000  H
  H59      1.0000 0.48331  0.41089  0.51897  Biso   1.000  H
  C47      1.0000 0.49210  0.36393  0.61480  Biso   1.000  C
  C48      1.0000 0.42758  0.49948  0.47864  Biso   1.000  C
  C49      1.0000 0.43418  0.50230  0.59810  Biso   1.000  C
  N9       1.0000 0.47473  0.28214  0.59430  Biso   1.000  N
  H60      1.0000 0.51885  0.35822  0.62708  Biso   1.000  H
  H61      1.0000 0.48698  0.38189  0.65550  Biso   1.000  H
  C50      1.0000 0.42018  0.44743  0.41487  Biso   1.000  C
  H62      1.0000 0.44666  0.53945  0.48013  Biso   1.000  H
  H63      1.0000 0.40510  0.52927  0.47576  Biso   1.000  H
  H64      1.0000 0.44217  0.55791  0.59394  Biso   1.000  H
  H65      1.0000 0.44981  0.48109  0.64224  Biso   1.000  H
  C51      1.0000 0.39453  0.50389  0.59651  Biso   1.000  C
  H66      1.0000 0.48057  0.25038  0.63145  Biso   1.000  H
  H67      1.0000 0.45013  0.28827  0.57904  Biso   1.000  H
  C52      1.0000 0.48555  0.24002  0.54158  Biso   1.000  C
  N10      1.0000 0.38628  0.39507  0.40120  Biso   1.000  N
  H68      1.0000 0.41713  0.48280  0.37566  Biso   1.000  H
  H69      1.0000 0.44156  0.41242  0.42021  Biso   1.000  H
  N11      1.0000 0.38219  0.42346  0.61470  Biso   1.000  N
  H70      1.0000 0.39196  0.54515  0.62842  Biso   1.000  H
  H71      1.0000 0.37855  0.51947  0.55083  Biso   1.000  H
  H72      1.0000 0.51246  0.24100  0.55458  Biso   1.000  H
  H73      1.0000 0.47542  0.26945  0.49857  Biso   1.000  H
  C53      1.0000 0.47237  0.15198  0.53105  Biso   1.000  C
  C54      1.0000 0.37615  0.35651  0.33091  Biso   1.000  C
  H74      1.0000 0.36743  0.42554  0.40356  Biso   1.000  H
  H75      1.0000 0.39057  0.35596  0.43296  Biso   1.000  H
  H76      1.0000 0.39773  0.40733  0.65529  Biso   1.000  H
  H77      1.0000 0.38278  0.38630  0.58356  Biso   1.000  H
  C55      1.0000 0.34388  0.42848  0.61768  Biso   1.000  C
  C56      1.0000 0.43891  0.13292  0.48049  Biso   1.000  C
  C57      1.0000 0.49266  0.08982  0.57169  Biso   1.000  C
  C58      1.0000 0.34947  0.28582  0.32104  Biso   1.000  C
  H78      1.0000 0.36507  0.39789  0.29638  Biso   1.000  H
  H79      1.0000 0.39867  0.33726  0.32387  Biso   1.000  H
  H80      1.0000 0.32790  0.45350  0.57554  Biso   1.000  H
  H81      1.0000 0.34424  0.46441  0.65534  Biso   1.000  H
  C59      1.0000 0.32692  0.34701  0.62719  Biso   1.000  C
  H82      1.0000 0.42479  0.17430  0.45289  Biso   1.000  H
  C60      1.0000 0.42634  0.05279  0.47098  Biso   1.000  C
  C61      1.0000 0.48043  0.00828  0.56260  Biso   1.000  C
  H83      1.0000 0.51499  0.10220  0.60596  Biso   1.000  H
  C62      1.0000 0.31229  0.29802  0.31308  Biso   1.000  C
  C63      1.0000 0.36177  0.20618  0.31719  Biso   1.000  C
  C64      1.0000 0.34327  0.29600  0.68278  Biso   1.000  C
  C65      1.0000 0.29222  0.32598  0.58145  Biso   1.000  C
  H84      1.0000 0.40399  0.04040  0.43671  Biso   1.000  H
  C66      1.0000 0.44702  0.99080  0.51245  Biso   1.000  C
  H85      1.0000 0.49460  0.96677  0.58988  Biso   1.000  H
  C67      1.0000 0.28789  0.23211  0.30378  Biso   1.000  C
  H86      1.0000 0.30349  0.35099  0.31395  Biso   1.000  H
  C68      1.0000 0.33773  0.14003  0.30789  Biso   1.000  C
  H87      1.0000 0.38643  0.19729  0.32099  Biso   1.000  H
  H88      1.0000 0.36618  0.31022  0.71464  Biso   1.000  H
  C69      1.0000 0.32596  0.22359  0.69193  Biso   1.000  C
  C70      1.0000 0.27454  0.25547  0.59045  Biso   1.000  C
  H89      1.0000 0.28077  0.35994  0.54420  Biso   1.000  H
  O7       1.0000 0.43132  0.91362  0.49914  Biso   1.000  O
  H90      1.0000 0.26305  0.24088  0.29874  Biso   1.000  H
  C71      1.0000 0.30109  0.15309  0.30219  Biso   1.000  C
  H91      1.0000 0.34628  0.08712  0.30547  Biso   1.000  H
  H92      1.0000 0.33726  0.18944  0.72913  Biso   1.000  H
  C72      1.0000 0.29190  0.20360  0.64486  Biso   1.000  C
  H93      1.0000 0.25101  0.24284  0.56013  Biso   1.000  H
  C73      1.0000 0.45018  0.84648  0.54030  Biso   1.000  C
  O8       1.0000 0.28020  0.08277  0.29504  Biso   1.000  O
  O9       1.0000 0.27156  0.13433  0.64728  Biso   1.000  O
  C74      1.0000 0.42385  0.77512  0.52992  Biso   1.000  C
  H94      1.0000 0.45905  0.86230  0.58834  Biso   1.000  H
  H95      1.0000 0.47148  0.83091  0.52740  Biso   1.000  H
  C75      1.0000 0.24231  0.08957  0.28924  Biso   1.000  C
  C76      1.0000 0.29082  0.06768  0.68946  Biso   1.000  C
  N12      1.0000 0.38771  0.79327  0.50875  Biso   1.000  N
  O10      1.0000 0.43619  0.70431  0.54477  Biso   1.000  O
  H96      1.0000 0.22797  0.10993  0.24397  Biso   1.000  H
  H97      1.0000 0.23970  0.12813  0.32310  Biso   1.000  H
  C77      1.0000 0.22795  0.00601  0.30064  Biso   1.000  C
  C78      1.0000 0.26818  0.99178  0.65837  Biso   1.000  C
  H98      1.0000 0.29185  0.07523  0.73663  Biso   1.000  H
  H99      1.0000 0.31597  0.06315  0.68843  Biso   1.000  H
  C79      1.0000 0.35923  0.72969  0.50309  Biso   1.000  C
  N13      1.0000 0.25327  0.95292  0.33826  Biso   1.000  N
  O11      1.0000 0.19396  0.99191  0.27809  Biso   1.000  O
  N14      1.0000 0.28778  0.93213  0.64281  Biso   1.000  N
  O12      1.0000 0.23433  0.98872  0.64887  Biso   1.000  O
  C80      1.0000 0.32297  0.77181  0.49621  Biso   1.000  C
  H100     1.0000 0.36675  0.69518  0.54369  Biso   1.000  H
  H101     1.0000 0.35633  0.69542  0.46327  Biso   1.000  H
  C81      1.0000 0.24235  0.87113  0.35578  Biso   1.000  C
  C82      1.0000 0.27122  0.85427  0.61146  Biso   1.000  C
  C83      1.0000 0.29969  0.79707  0.43070  Biso   1.000  C
  C84      1.0000 0.31427  0.79033  0.55525  Biso   1.000  C
  H102     1.0000 0.24329  0.83189  0.32109  Biso   1.000  H
  H103     1.0000 0.21697  0.87328  0.35583  Biso   1.000  H
  C85      1.0000 0.26769  0.84293  0.42530  Biso   1.000  C
  C86      1.0000 0.28194  0.83471  0.54862  Biso   1.000  C
  H104     1.0000 0.24436  0.85764  0.59826  Biso   1.000  H
  H105     1.0000 0.27964  0.81043  0.64486  Biso   1.000  H
  C87      1.0000 0.31031  0.77788  0.36801  Biso   1.000  C
  C88      1.0000 0.34061  0.76550  0.62508  Biso   1.000  C
  C89      1.0000 0.25910  0.86341  0.48398  Biso   1.000  C
  H106     1.0000 0.30289  0.72289  0.35311  Biso   1.000  H
  H107     1.0000 0.33673  0.78315  0.37936  Biso   1.000  H
  H108     1.0000 0.29797  0.81558  0.33178  Biso   1.000  H
  H109     1.0000 0.33502  0.79627  0.66002  Biso   1.000  H
  H110     1.0000 0.36573  0.77653  0.62749  Biso   1.000  H
  H111     1.0000 0.33781  0.70805  0.63207  Biso   1.000  H
  C90      1.0000 0.22623  0.91883  0.47781  Biso   1.000  C
  H112     1.0000 0.22122  0.95261  0.43773  Biso   1.000  H
  H113     1.0000 0.23182  0.95285  0.51789  Biso   1.000  H
  H114     1.0000 0.20476  0.88584  0.47401  Biso   1.000  H
  O13      1.0000 0.54269  0.74520  0.69558  Biso   1.000  O
  C91      1.0000 0.52959  0.79872  0.72430  Biso   1.000  C
  O14      1.0000 0.53345  0.84612  0.67538  Biso   1.000  O
  O15      1.0000 0.49575  0.80412  0.72019  Biso   1.000  O
  O16      1.0000 0.50423  0.80412  0.77979  Biso   1.000  O
  C92      1.0000 0.55779  0.85090  0.77579  Biso   1.000  C
  C93      1.0000 0.47039  0.79872  0.77568  Biso   1.000  C
  H115     1.0000 0.56365  0.91993  0.79958  Biso   1.000  H
  H116     1.0000 0.58094  0.84955  0.76602  Biso   1.000  H
  H117     1.0000 0.56251  0.82834  0.82131  Biso   1.000  H
  C94      1.0000 0.54528  0.93930  0.77502  Biso   1.000  C
  C95      1.0000 0.44219  0.85090  0.72420  Biso   1.000  C
  O17      1.0000 0.46653  0.84612  0.82460  Biso   1.000  O
  O18      1.0000 0.45729  0.74520  0.80441  Biso   1.000  O
  C96      1.0000 0.57278  0.97272  0.81987  Biso   1.000  C
  H118     1.0000 0.52208  0.94047  0.78462  Biso   1.000  H
  H119     1.0000 0.54046  0.96162  0.72934  Biso   1.000  H
  C97      1.0000 0.57430  0.99540  0.82840  Biso   1.000  C
  C98      1.0000 0.54513  0.04298  0.78241  Biso   1.000  C
  H120     1.0000 0.43634  0.91993  0.70046  Biso   1.000  H
  H121     1.0000 0.41904  0.84955  0.73396  Biso   1.000  H
  H122     1.0000 0.43747  0.82834  0.67867  Biso   1.000  H
  C99      1.0000 0.45471  0.93930  0.72502  Biso   1.000  C
  H123     1.0000 0.57540  0.97106  0.86828  Biso   1.000  H
  C100     1.0000 0.61118  0.99332  0.81068  Biso   1.000  C
  H124     1.0000 0.57883  0.98007  0.87588  Biso   1.000  H
  C101     1.0000 0.60498  0.96438  0.79922  Biso   1.000  C
  H125     1.0000 0.56904  0.05358  0.82147  Biso   1.000  H
  C102     1.0000 0.56279  0.12752  0.79947  Biso   1.000  C
  H126     1.0000 0.53744  0.03446  0.73309  Biso   1.000  H
  H127     1.0000 0.52312  0.04046  0.79583  Biso   1.000  H
  C103     1.0000 0.42720  0.97272  0.68011  Biso   1.000  C
  H128     1.0000 0.47790  0.94047  0.71536  Biso   1.000  H
  H129     1.0000 0.45952  0.96162  0.77065  Biso   1.000  H
  C104     1.0000 0.42568  0.99540  0.67158  Biso   1.000  C
  C105     1.0000 0.45486  0.04298  0.71762  Biso   1.000  C
  O19      1.0000 0.61219  0.99663  0.75071  Biso   1.000  O
  O20      1.0000 0.64160  0.98400  0.86170  Biso   1.000  O
  O21      1.0000 0.59859  0.95561  0.73637  Biso   1.000  O
  O22      1.0000 0.63760  0.96309  0.84500  Biso   1.000  O
  C106     1.0000 0.53510  0.19110  0.75929  Biso   1.000  C
  H130     1.0000 0.58523  0.13028  0.78750  Biso   1.000  H
  H131     1.0000 0.56936  0.13794  0.84839  Biso   1.000  H
  O23      1.0000 0.56280  0.20170  0.76500  Biso   1.000  O
  H132     1.0000 0.42459  0.97106  0.63176  Biso   1.000  H
  C107     1.0000 0.38881  0.99332  0.68931  Biso   1.000  C
  H133     1.0000 0.42115  0.98007  0.62410  Biso   1.000  H
  C108     1.0000 0.39501  0.96438  0.70082  Biso   1.000  C
  H134     1.0000 0.43095  0.05358  0.67852  Biso   1.000  H
  C109     1.0000 0.43719  0.12752  0.70051  Biso   1.000  C
  H135     1.0000 0.46254  0.03446  0.76690  Biso   1.000  H
  H136     1.0000 0.47686  0.04046  0.70416  Biso   1.000  H
  O24      1.0000 0.51308  0.22138  0.78658  Biso   1.000  O
  O25      1.0000 0.53275  0.20489  0.69881  Biso   1.000  O
  O26      1.0000 0.38779  0.99663  0.74927  Biso   1.000  O
  O27      1.0000 0.35838  0.98400  0.63828  Biso   1.000  O
  O28      1.0000 0.40139  0.95561  0.76361  Biso   1.000  O
  O29      1.0000 0.36238  0.96309  0.65498  Biso   1.000  O
  C110     1.0000 0.46489  0.19110  0.74069  Biso   1.000  C
  H137     1.0000 0.41478  0.13028  0.71248  Biso   1.000  H
  H138     1.0000 0.43062  0.13794  0.65159  Biso   1.000  H
  O30      1.0000 0.43718  0.20170  0.73499  Biso   1.000  O
  O31      1.0000 0.48690  0.22138  0.71341  Biso   1.000  O
  O32      1.0000 0.46724  0.20489  0.80122  Biso   1.000  O
  O33      1.0000 0.45731  0.25480  0.30439  Biso   1.000  O
  C111     1.0000 0.47040  0.20128  0.27572  Biso   1.000  C
  O34      1.0000 0.46653  0.15388  0.32459  Biso   1.000  O
  C112     1.0000 0.44219  0.14910  0.22419  Biso   1.000  C
  O35      1.0000 0.50425  0.19588  0.27978  Biso   1.000  O
  O36      1.0000 0.49575  0.19588  0.22018  Biso   1.000  O
  H139     1.0000 0.43636  0.08007  0.20045  Biso   1.000  H
  C113     1.0000 0.45470  0.06070  0.22501  Biso   1.000  C
  H140     1.0000 0.41905  0.15045  0.23400  Biso   1.000  H
  H141     1.0000 0.43747  0.17166  0.17866  Biso   1.000  H
  C114     1.0000 0.52958  0.20128  0.22429  Biso   1.000  C
  C115     1.0000 0.42719  0.02728  0.18010  Biso   1.000  C
  C116     1.0000 0.42571  0.00460  0.17162  Biso   1.000  C
  C117     1.0000 0.45485  0.95702  0.21761  Biso   1.000  C
  H142     1.0000 0.47792  0.05953  0.21535  Biso   1.000  H
  H143     1.0000 0.45953  0.03838  0.27069  Biso   1.000  H
  O37      1.0000 0.53348  0.15388  0.17542  Biso   1.000  O
  O38      1.0000 0.54270  0.25480  0.19562  Biso   1.000  O
  C118     1.0000 0.55779  0.14910  0.27577  Biso   1.000  C
  C119     1.0000 0.38880  0.00668  0.18930  Biso   1.000  C
  C120     1.0000 0.39500  0.03562  0.20081  Biso   1.000  C
  H144     1.0000 0.42458  0.02894  0.13175  Biso   1.000  H
  H145     1.0000 0.42115  0.01993  0.12409  Biso   1.000  H
  H146     1.0000 0.43094  0.94642  0.17851  Biso   1.000  H
  C121     1.0000 0.43721  0.87248  0.20050  Biso   1.000  C
  H147     1.0000 0.46256  0.96554  0.26689  Biso   1.000  H
  H148     1.0000 0.47687  0.95954  0.20420  Biso   1.000  H
  H149     1.0000 0.56365  0.08007  0.29956  Biso   1.000  H
  H150     1.0000 0.58096  0.15045  0.26601  Biso   1.000  H
  H151     1.0000 0.56251  0.17166  0.32130  Biso   1.000  H
  C122     1.0000 0.54531  0.06070  0.27500  Biso   1.000  C
  O39      1.0000 0.36241  0.03691  0.15502  Biso   1.000  O
  O40      1.0000 0.38779  0.00337  0.24931  Biso   1.000  O
  O41      1.0000 0.35841  0.01600  0.13832  Biso   1.000  O
  O42      1.0000 0.40139  0.04439  0.26360  Biso   1.000  O
  C123     1.0000 0.46491  0.80890  0.24068  Biso   1.000  C
  H152     1.0000 0.41478  0.86972  0.21247  Biso   1.000  H
  H153     1.0000 0.43062  0.86206  0.15158  Biso   1.000  H
  O43      1.0000 0.43720  0.79830  0.23498  Biso   1.000  O
  C124     1.0000 0.57281  0.02728  0.31991  Biso   1.000  C
  H154     1.0000 0.52208  0.05953  0.28461  Biso   1.000  H
  H155     1.0000 0.54045  0.03838  0.22932  Biso   1.000  H
  C125     1.0000 0.57430  0.00460  0.32839  Biso   1.000  C
  C126     1.0000 0.54513  0.95702  0.28240  Biso   1.000  C
  O44      1.0000 0.46724  0.79511  0.30121  Biso   1.000  O
  O45      1.0000 0.48692  0.77862  0.21340  Biso   1.000  O
  H156     1.0000 0.57540  0.02894  0.36826  Biso   1.000  H
  C127     1.0000 0.61121  0.00668  0.31072  Biso   1.000  C
  H157     1.0000 0.57882  0.01993  0.37587  Biso   1.000  H
  C128     1.0000 0.60500  0.03562  0.29921  Biso   1.000  C
  H158     1.0000 0.56907  0.94642  0.32151  Biso   1.000  H
  C129     1.0000 0.56280  0.87248  0.29951  Biso   1.000  C
  H159     1.0000 0.53745  0.96554  0.23313  Biso   1.000  H
  H160     1.0000 0.52311  0.95954  0.29581  Biso   1.000  H
  O46      1.0000 0.51309  0.77862  0.28662  Biso   1.000  O
  O47      1.0000 0.61219  0.00337  0.25070  Biso   1.000  O
  O48      1.0000 0.64159  0.01600  0.36169  Biso   1.000  O
  O49      1.0000 0.59859  0.04439  0.23641  Biso   1.000  O
  O50      1.0000 0.63760  0.03691  0.34499  Biso   1.000  O
  C130     1.0000 0.53509  0.80890  0.25928  Biso   1.000  C
  O51      1.0000 0.56280  0.79830  0.26498  Biso   1.000  O
  H161     1.0000 0.58522  0.86972  0.28749  Biso   1.000  H
  H162     1.0000 0.56936  0.86206  0.34838  Biso   1.000  H
  O52      1.0000 0.53277  0.79511  0.19880  Biso   1.000  O
  O53      1.0000 0.73432  0.48875  0.64887  Biso   1.000  O
  C131     1.0000 0.76819  0.49182  0.65837  Biso   1.000  C
  N15      1.0000 0.78777  0.43216  0.64281  Biso   1.000  N
  C132     1.0000 0.79081  0.56772  0.68946  Biso   1.000  C
  C133     1.0000 0.77121  0.35430  0.61146  Biso   1.000  C
  O54      1.0000 0.77157  0.63436  0.64728  Biso   1.000  O
  H163     1.0000 0.79187  0.57526  0.73663  Biso   1.000  H
  H164     1.0000 0.81595  0.56312  0.68843  Biso   1.000  H
  C134     1.0000 0.78195  0.33468  0.54862  Biso   1.000  C
  H165     1.0000 0.74437  0.35761  0.59826  Biso   1.000  H
  H166     1.0000 0.77965  0.31047  0.64486  Biso   1.000  H
  C135     1.0000 0.79189  0.70357  0.64486  Biso   1.000  C
  C136     1.0000 0.75912  0.36337  0.48398  Biso   1.000  C
  C137     1.0000 0.81425  0.29029  0.55525  Biso   1.000  C
  C138     1.0000 0.82594  0.72362  0.69193  Biso   1.000  C
  C139     1.0000 0.77452  0.75550  0.59045  Biso   1.000  C
  C140     1.0000 0.76771  0.34290  0.42530  Biso   1.000  C
  C141     1.0000 0.72622  0.41880  0.47781  Biso   1.000  C
  C142     1.0000 0.82299  0.27178  0.49621  Biso   1.000  C
  C143     1.0000 0.84062  0.26553  0.62508  Biso   1.000  C
  C144     1.0000 0.84328  0.79603  0.68278  Biso   1.000  C
  H167     1.0000 0.83725  0.68941  0.72913  Biso   1.000  H
  H168     1.0000 0.75100  0.74281  0.56013  Biso   1.000  H
  C145     1.0000 0.79223  0.82601  0.58145  Biso   1.000  C
  C146     1.0000 0.74236  0.37110  0.35578  Biso   1.000  C
  C147     1.0000 0.79971  0.29710  0.43070  Biso   1.000  C
  H169     1.0000 0.72123  0.45258  0.43773  Biso   1.000  H
  H170     1.0000 0.73184  0.45288  0.51789  Biso   1.000  H
  H171     1.0000 0.70475  0.38581  0.47401  Biso   1.000  H
  C148     1.0000 0.85921  0.22972  0.50309  Biso   1.000  C
  H172     1.0000 0.83501  0.29630  0.66002  Biso   1.000  H
  H173     1.0000 0.86574  0.27650  0.62749  Biso   1.000  H
  H174     1.0000 0.83783  0.20808  0.63207  Biso   1.000  H
  C149     1.0000 0.82691  0.84697  0.62719  Biso   1.000  C
  H175     1.0000 0.86617  0.81025  0.71464  Biso   1.000  H
  H176     1.0000 0.78076  0.85991  0.54420  Biso   1.000  H
  N16      1.0000 0.75326  0.45295  0.33826  Biso   1.000  N
  H177     1.0000 0.74330  0.33192  0.32109  Biso   1.000  H
  H178     1.0000 0.71696  0.37325  0.35583  Biso   1.000  H
  C150     1.0000 0.81029  0.27791  0.36801  Biso   1.000  C
  N17      1.0000 0.88772  0.29324  0.50875  Biso   1.000  N
  H179     1.0000 0.86673  0.19514  0.54369  Biso   1.000  H
  H180     1.0000 0.85634  0.19545  0.46327  Biso   1.000  H
  C151     1.0000 0.84389  0.92851  0.61768  Biso   1.000  C
  C152     1.0000 0.72794  0.50598  0.30064  Biso   1.000  C
  H181     1.0000 0.80287  0.22292  0.35311  Biso   1.000  H
  H182     1.0000 0.83672  0.28312  0.37936  Biso   1.000  H
  H183     1.0000 0.79799  0.31555  0.33178  Biso   1.000  H
  C153     1.0000 0.92387  0.27509  0.52992  Biso   1.000  C
  N18      1.0000 0.88218  0.92349  0.61470  Biso   1.000  N
  H184     1.0000 0.82792  0.95353  0.57554  Biso   1.000  H
  H185     1.0000 0.84425  0.96444  0.65534  Biso   1.000  H
  O55      1.0000 0.69395  0.49188  0.27809  Biso   1.000  O
  C154     1.0000 0.74232  0.58960  0.28924  Biso   1.000  C
  O56      1.0000 0.93620  0.20434  0.54477  Biso   1.000  O
  C155     1.0000 0.95019  0.34651  0.54030  Biso   1.000  C
  C156     1.0000 0.89455  0.00392  0.59651  Biso   1.000  C
  H186     1.0000 0.89774  0.90730  0.65529  Biso   1.000  H
  H187     1.0000 0.88279  0.88627  0.58356  Biso   1.000  H
  O57      1.0000 0.78021  0.58274  0.29504  Biso   1.000  O
  H188     1.0000 0.72798  0.60990  0.24397  Biso   1.000  H
  H189     1.0000 0.73969  0.62817  0.32310  Biso   1.000  H
  O58      1.0000 0.93131  0.41365  0.49914  Biso   1.000  O
  H190     1.0000 0.95907  0.36227  0.58834  Biso   1.000  H
  H191     1.0000 0.97146  0.33094  0.52740  Biso   1.000  H
  C157     1.0000 0.93419  0.00233  0.59810  Biso   1.000  C
  H192     1.0000 0.89198  0.04518  0.62842  Biso   1.000  H
  H193     1.0000 0.87856  0.01950  0.55083  Biso   1.000  H
  C158     1.0000 0.80108  0.65312  0.30219  Biso   1.000  C
  C159     1.0000 0.94703  0.49077  0.51245  Biso   1.000  C
  N19      1.0000 0.93959  0.95151  0.54266  Biso   1.000  N
  H194     1.0000 0.94982  0.98106  0.64224  Biso   1.000  H
  H195     1.0000 0.94216  0.05794  0.59394  Biso   1.000  H
  C160     1.0000 0.78790  0.73208  0.30378  Biso   1.000  C
  C161     1.0000 0.83775  0.64000  0.30789  Biso   1.000  C
  C162     1.0000 0.92633  0.55282  0.47098  Biso   1.000  C
  C163     1.0000 0.98044  0.50831  0.56260  Biso   1.000  C
  C164     1.0000 0.92759  0.99951  0.47864  Biso   1.000  C
  C165     1.0000 0.97901  0.92962  0.56018  Biso   1.000  C
  C166     1.0000 0.81228  0.79799  0.31308  Biso   1.000  C
  H196     1.0000 0.76304  0.74085  0.29874  Biso   1.000  H
  H197     1.0000 0.84630  0.58715  0.30547  Biso   1.000  H
  C167     1.0000 0.86176  0.70621  0.31719  Biso   1.000  C
  C168     1.0000 0.93890  0.63289  0.48049  Biso   1.000  C
  H198     1.0000 0.90398  0.54043  0.43671  Biso   1.000  H
  H199     1.0000 0.99461  0.46674  0.58988  Biso   1.000  H
  C169     1.0000 0.99265  0.58979  0.57169  Biso   1.000  C
  C170     1.0000 0.92019  0.94740  0.41487  Biso   1.000  C
  H200     1.0000 0.94667  0.03942  0.48013  Biso   1.000  H
  H201     1.0000 0.90511  0.02924  0.47576  Biso   1.000  H
  H202     1.0000 0.99395  0.97848  0.57611  Biso   1.000  H
  H203     1.0000 0.98332  0.91092  0.51897  Biso   1.000  H
  C171     1.0000 0.99211  0.86390  0.61480  Biso   1.000  C
  C172     1.0000 0.84946  0.78579  0.32104  Biso   1.000  C
  H204     1.0000 0.80350  0.85102  0.31395  Biso   1.000  H
  H205     1.0000 0.88645  0.69732  0.32099  Biso   1.000  H
  C173     1.0000 0.97239  0.65201  0.53105  Biso   1.000  C
  H206     1.0000 0.92481  0.67433  0.45289  Biso   1.000  H
  H207     1.0000 0.01500  0.60223  0.60596  Biso   1.000  H
  N20      1.0000 0.88630  0.89504  0.40120  Biso   1.000  N
  H208     1.0000 0.91711  0.98277  0.37566  Biso   1.000  H
  H209     1.0000 0.94154  0.91239  0.42021  Biso   1.000  H
  N21      1.0000 0.97474  0.78217  0.59430  Biso   1.000  N
  H210     1.0000 0.98699  0.88192  0.65550  Biso   1.000  H
  H211     1.0000 0.01883  0.85819  0.62708  Biso   1.000  H
  C174     1.0000 0.87617  0.85648  0.33091  Biso   1.000  C
  C175     1.0000 0.98556  0.73999  0.54158  Biso   1.000  C
  H212     1.0000 0.86741  0.92557  0.40356  Biso   1.000  H
  H213     1.0000 0.89056  0.85599  0.43296  Biso   1.000  H
  H214     1.0000 0.98059  0.75041  0.63145  Biso   1.000  H
  H215     1.0000 0.95015  0.78824  0.57904  Biso   1.000  H
  H216     1.0000 0.86508  0.89786  0.29638  Biso   1.000  H
  H217     1.0000 0.89865  0.83723  0.32387  Biso   1.000  H
  H218     1.0000 0.97543  0.76948  0.49857  Biso   1.000  H
  H219     1.0000 0.01244  0.74097  0.55458  Biso   1.000  H
  C176     1.0000 0.65672  0.29600  0.81720  Biso   1.000  C
  C177     1.0000 0.67306  0.34701  0.87280  Biso   1.000  C
  H220     1.0000 0.63380  0.31022  0.78534  Biso   1.000  H
  C178     1.0000 0.67403  0.22359  0.80805  Biso   1.000  C
  C179     1.0000 0.65611  0.42848  0.88230  Biso   1.000  C
  C180     1.0000 0.70777  0.32598  0.91853  Biso   1.000  C
  H221     1.0000 0.66272  0.18944  0.77085  Biso   1.000  H
  C181     1.0000 0.70808  0.20360  0.85512  Biso   1.000  C
  N22      1.0000 0.61779  0.42346  0.88528  Biso   1.000  N
  H222     1.0000 0.67208  0.45350  0.92444  Biso   1.000  H
  H223     1.0000 0.65575  0.46441  0.84469  Biso   1.000  H
  C182     1.0000 0.72545  0.25547  0.90954  Biso   1.000  C
  H224     1.0000 0.71921  0.35994  0.95578  Biso   1.000  H
  O59      1.0000 0.72842  0.13433  0.85271  Biso   1.000  O
  C183     1.0000 0.60545  0.50389  0.90347  Biso   1.000  C
  H225     1.0000 0.60225  0.40733  0.84469  Biso   1.000  H
  H226     1.0000 0.61720  0.38630  0.91642  Biso   1.000  H
  H227     1.0000 0.74897  0.24284  0.93985  Biso   1.000  H
  C184     1.0000 0.70919  0.06768  0.81052  Biso   1.000  C
  C185     1.0000 0.56581  0.50230  0.90188  Biso   1.000  C
  H228     1.0000 0.60802  0.54515  0.87156  Biso   1.000  H
  H229     1.0000 0.62144  0.51947  0.94920  Biso   1.000  H
  H230     1.0000 0.70813  0.07523  0.76335  Biso   1.000  H
  H231     1.0000 0.68404  0.06315  0.81155  Biso   1.000  H
  C186     1.0000 0.73182  0.99178  0.84166  Biso   1.000  C
  N23      1.0000 0.56040  0.45154  0.95732  Biso   1.000  N
  H232     1.0000 0.55784  0.55791  0.90604  Biso   1.000  H
  H233     1.0000 0.55018  0.48109  0.85779  Biso   1.000  H
  N24      1.0000 0.71220  0.93213  0.85718  Biso   1.000  N
  O60      1.0000 0.76565  0.98872  0.85111  Biso   1.000  O
  C187     1.0000 0.52096  0.42959  0.93980  Biso   1.000  C
  C188     1.0000 0.57244  0.49948  0.02140  Biso   1.000  C
  C189     1.0000 0.72876  0.85427  0.88852  Biso   1.000  C
  C190     1.0000 0.50789  0.36393  0.88518  Biso   1.000  C
  H234     1.0000 0.50606  0.47845  0.92392  Biso   1.000  H
  H235     1.0000 0.51667  0.41089  0.98101  Biso   1.000  H
  H236     1.0000 0.55336  0.53945  0.01991  Biso   1.000  H
  H237     1.0000 0.59493  0.52927  0.02433  Biso   1.000  H
  C191     1.0000 0.57984  0.44743  0.08517  Biso   1.000  C
  C192     1.0000 0.71804  0.83471  0.95136  Biso   1.000  C
  H238     1.0000 0.75563  0.85764  0.90173  Biso   1.000  H
  H239     1.0000 0.72034  0.81043  0.85512  Biso   1.000  H
  N25      1.0000 0.52525  0.28214  0.90568  Biso   1.000  N
  H240     1.0000 0.48116  0.35822  0.87290  Biso   1.000  H
  H241     1.0000 0.51301  0.38189  0.84454  Biso   1.000  H
  N26      1.0000 0.61374  0.39507  0.09883  Biso   1.000  N
  H242     1.0000 0.58289  0.48280  0.12437  Biso   1.000  H
  H243     1.0000 0.55847  0.41242  0.07987  Biso   1.000  H
  C193     1.0000 0.68572  0.79033  0.94473  Biso   1.000  C
  C194     1.0000 0.74091  0.86341  0.01605  Biso   1.000  C
  H244     1.0000 0.51941  0.25038  0.86853  Biso   1.000  H
  H245     1.0000 0.54986  0.28827  0.92100  Biso   1.000  H
  C195     1.0000 0.51443  0.24002  0.95840  Biso   1.000  C
  H246     1.0000 0.63259  0.42554  0.09647  Biso   1.000  H
  H247     1.0000 0.60944  0.35596  0.06708  Biso   1.000  H
  C196     1.0000 0.62386  0.35651  0.16913  Biso   1.000  C
  C197     1.0000 0.67704  0.77181  0.00383  Biso   1.000  C
  C198     1.0000 0.65938  0.76550  0.87496  Biso   1.000  C
  C199     1.0000 0.73232  0.84293  0.07473  Biso   1.000  C
  C200     1.0000 0.77381  0.91883  0.02222  Biso   1.000  C
  H248     1.0000 0.48752  0.24100  0.94540  Biso   1.000  H
  C201     1.0000 0.52761  0.15198  0.96894  Biso   1.000  C
  H249     1.0000 0.52460  0.26945  0.00146  Biso   1.000  H
  H250     1.0000 0.63495  0.39789  0.20366  Biso   1.000  H
  H251     1.0000 0.60135  0.33726  0.17616  Biso   1.000  H
  C202     1.0000 0.65058  0.28582  0.17904  Biso   1.000  C
  C203     1.0000 0.64076  0.72969  0.99689  Biso   1.000  C
  C204     1.0000 0.70032  0.79707  0.06934  Biso   1.000  C
  H252     1.0000 0.66496  0.79627  0.83996  Biso   1.000  H
  H253     1.0000 0.63426  0.77653  0.87254  Biso   1.000  H
  H254     1.0000 0.66217  0.70805  0.86792  Biso   1.000  H
  C205     1.0000 0.75768  0.87113  0.14431  Biso   1.000  C
  H255     1.0000 0.76816  0.95285  0.98209  Biso   1.000  H
  H256     1.0000 0.77880  0.95261  0.06230  Biso   1.000  H
  H257     1.0000 0.79525  0.88584  0.02602  Biso   1.000  H
  C206     1.0000 0.50732  0.08982  0.92829  Biso   1.000  C
  C207     1.0000 0.56110  0.13292  0.01955  Biso   1.000  C
  C208     1.0000 0.68775  0.29802  0.18696  Biso   1.000  C
  C209     1.0000 0.63825  0.20618  0.18284  Biso   1.000  C
  N27      1.0000 0.61227  0.79327  0.99124  Biso   1.000  N
  H258     1.0000 0.63324  0.69518  0.95630  Biso   1.000  H
  H259     1.0000 0.64369  0.69542  0.03676  Biso   1.000  H
  C210     1.0000 0.68971  0.77788  0.13203  Biso   1.000  C
  N28      1.0000 0.74675  0.95292  0.16178  Biso   1.000  N
  H260     1.0000 0.75674  0.83189  0.17899  Biso   1.000  H
  H261     1.0000 0.78305  0.87328  0.14420  Biso   1.000  H
  C211     1.0000 0.51956  0.00828  0.93744  Biso   1.000  C
  H262     1.0000 0.48500  0.10220  0.89407  Biso   1.000  H
  H263     1.0000 0.57523  0.17430  0.04714  Biso   1.000  H
  C212     1.0000 0.57367  0.05279  0.02905  Biso   1.000  C
  H264     1.0000 0.69653  0.35099  0.18608  Biso   1.000  H
  C213     1.0000 0.71213  0.23211  0.19626  Biso   1.000  C
  C214     1.0000 0.66228  0.14003  0.19215  Biso   1.000  C
  H265     1.0000 0.61359  0.19729  0.17909  Biso   1.000  H
  C215     1.0000 0.57613  0.77512  0.97007  Biso   1.000  C
  H266     1.0000 0.69713  0.72289  0.14693  Biso   1.000  H
  H267     1.0000 0.66329  0.78315  0.12067  Biso   1.000  H
  H268     1.0000 0.70205  0.81558  0.16825  Biso   1.000  H
  C216     1.0000 0.77207  0.00601  0.19939  Biso   1.000  C
  C217     1.0000 0.55297  0.99080  0.98754  Biso   1.000  C
  H269     1.0000 0.50538  0.96677  0.91010  Biso   1.000  H
  H270     1.0000 0.59603  0.04040  0.06333  Biso   1.000  H
  H271     1.0000 0.73699  0.24088  0.20129  Biso   1.000  H
  C218     1.0000 0.69892  0.15309  0.19785  Biso   1.000  C
  H272     1.0000 0.65373  0.08712  0.19456  Biso   1.000  H
  C219     1.0000 0.54980  0.84648  0.95969  Biso   1.000  C
  O61      1.0000 0.56379  0.70431  0.95522  Biso   1.000  O
  C220     1.0000 0.75771  0.08957  0.21080  Biso   1.000  C
  O62      1.0000 0.80606  0.99191  0.22200  Biso   1.000  O
  O63      1.0000 0.56870  0.91362  0.00090  Biso   1.000  O
  O64      1.0000 0.71982  0.08277  0.20499  Biso   1.000  O
  H273     1.0000 0.54093  0.86230  0.91164  Biso   1.000  H
  H274     1.0000 0.52851  0.83091  0.97258  Biso   1.000  H
  H275     1.0000 0.77206  0.10993  0.25612  Biso   1.000  H
  H276     1.0000 0.76032  0.12813  0.17694  Biso   1.000  H
  C221     1.0000 0.49212  0.63607  0.11479  Biso   1.000  C
  C222     1.0000 0.47902  0.57041  0.06022  Biso   1.000  C
  N29      1.0000 0.47475  0.71786  0.09429  Biso   1.000  N
  H277     1.0000 0.51885  0.64178  0.12712  Biso   1.000  H
  H278     1.0000 0.48700  0.61811  0.15549  Biso   1.000  H
  N30      1.0000 0.43958  0.54846  0.04270  Biso   1.000  N
  H279     1.0000 0.49393  0.52155  0.07610  Biso   1.000  H
  H280     1.0000 0.48330  0.58911  0.01896  Biso   1.000  H
  H281     1.0000 0.48057  0.74962  0.13144  Biso   1.000  H
  H282     1.0000 0.45013  0.71173  0.07903  Biso   1.000  H
  C223     1.0000 0.48558  0.75998  0.04162  Biso   1.000  C
  C224     1.0000 0.43421  0.49770  0.09814  Biso   1.000  C
  C225     1.0000 0.42756  0.50052  0.97857  Biso   1.000  C
  H283     1.0000 0.51245  0.75900  0.05457  Biso   1.000  H
  C226     1.0000 0.47237  0.84802  0.03104  Biso   1.000  C
  H284     1.0000 0.47538  0.73055  0.99851  Biso   1.000  H
  C227     1.0000 0.39456  0.49611  0.09650  Biso   1.000  C
  H285     1.0000 0.44218  0.44209  0.09398  Biso   1.000  H
  H286     1.0000 0.44980  0.51891  0.14223  Biso   1.000  H
  H287     1.0000 0.44662  0.46055  0.98006  Biso   1.000  H
  H288     1.0000 0.40508  0.47073  0.97570  Biso   1.000  H
  C228     1.0000 0.42016  0.55257  0.91481  Biso   1.000  C
  C229     1.0000 0.49266  0.91018  0.07168  Biso   1.000  C
  C230     1.0000 0.43888  0.86708  0.98047  Biso   1.000  C
  N31      1.0000 0.38219  0.57654  0.11469  Biso   1.000  N
  H289     1.0000 0.39199  0.45485  0.12846  Biso   1.000  H
  H290     1.0000 0.37854  0.48053  0.05082  Biso   1.000  H
  N32      1.0000 0.38627  0.60493  0.90114  Biso   1.000  N
  H291     1.0000 0.41708  0.51720  0.87560  Biso   1.000  H
  H292     1.0000 0.44151  0.58758  0.92015  Biso   1.000  H
  C231     1.0000 0.48042  0.99172  0.06258  Biso   1.000  C
  H293     1.0000 0.51501  0.89780  0.10595  Biso   1.000  H
  H294     1.0000 0.42476  0.82570  0.95288  Biso   1.000  H
  C232     1.0000 0.42631  0.94721  0.97097  Biso   1.000  C
  C233     1.0000 0.34388  0.57152  0.11772  Biso   1.000  C
  H295     1.0000 0.39776  0.59267  0.15533  Biso   1.000  H
  H296     1.0000 0.38280  0.61370  0.08355  Biso   1.000  H
  H297     1.0000 0.36740  0.57446  0.90355  Biso   1.000  H
  H298     1.0000 0.39054  0.64404  0.93294  Biso   1.000  H
  C234     1.0000 0.37614  0.64349  0.83085  Biso   1.000  C
  C235     1.0000 0.44704  0.00920  0.01243  Biso   1.000  C
  H299     1.0000 0.49462  0.03323  0.08987  Biso   1.000  H
  H300     1.0000 0.40396  0.95960  0.93670  Biso   1.000  H
  H301     1.0000 0.32792  0.54650  0.07553  Biso   1.000  H
  H302     1.0000 0.34426  0.53559  0.15533  Biso   1.000  H
  C236     1.0000 0.32692  0.65299  0.12723  Biso   1.000  C
  H303     1.0000 0.36506  0.60211  0.79637  Biso   1.000  H
  H304     1.0000 0.39863  0.66274  0.82381  Biso   1.000  H
  C237     1.0000 0.34943  0.71418  0.82098  Biso   1.000  C
  O65      1.0000 0.43129  0.08638  0.99913  Biso   1.000  O
  C238     1.0000 0.34330  0.70400  0.18282  Biso   1.000  C
  C239     1.0000 0.29222  0.67402  0.08149  Biso   1.000  C
  C240     1.0000 0.31225  0.70198  0.81302  Biso   1.000  C
  C241     1.0000 0.36174  0.79382  0.81718  Biso   1.000  C
  C242     1.0000 0.45018  0.15352  0.04028  Biso   1.000  C
  H305     1.0000 0.36617  0.68978  0.21463  Biso   1.000  H
  C243     1.0000 0.32595  0.77641  0.19192  Biso   1.000  C
  C244     1.0000 0.27454  0.74453  0.09049  Biso   1.000  C
  H306     1.0000 0.28077  0.64006  0.04424  Biso   1.000  H
  H307     1.0000 0.30345  0.64901  0.81389  Biso   1.000  H
  C245     1.0000 0.28787  0.76789  0.80372  Biso   1.000  C
  C246     1.0000 0.33772  0.85997  0.80783  Biso   1.000  C
  H308     1.0000 0.38642  0.80271  0.82093  Biso   1.000  H
  H309     1.0000 0.45906  0.13770  0.08838  Biso   1.000  H
  H310     1.0000 0.47147  0.16909  0.02739  Biso   1.000  H
  C247     1.0000 0.42387  0.22488  0.02991  Biso   1.000  C
  H311     1.0000 0.33726  0.81056  0.22917  Biso   1.000  H
  C248     1.0000 0.29190  0.79640  0.14490  Biso   1.000  C
  H312     1.0000 0.25101  0.75716  0.06012  Biso   1.000  H
  H313     1.0000 0.26301  0.75912  0.79868  Biso   1.000  H
  C249     1.0000 0.30105  0.84691  0.80212  Biso   1.000  C
  H314     1.0000 0.34628  0.91288  0.80546  Biso   1.000  H
  N33      1.0000 0.38773  0.20673  0.00874  Biso   1.000  N
  O66      1.0000 0.43621  0.29569  0.04475  Biso   1.000  O
  O67      1.0000 0.27155  0.86567  0.14726  Biso   1.000  O
  O68      1.0000 0.28017  0.91723  0.79503  Biso   1.000  O
  C250     1.0000 0.35922  0.27031  0.00308  Biso   1.000  C
  C251     1.0000 0.29081  0.93232  0.18945  Biso   1.000  C
  C252     1.0000 0.24229  0.91043  0.78917  Biso   1.000  C
  C253     1.0000 0.32293  0.22819  0.99615  Biso   1.000  C
  H315     1.0000 0.35628  0.30458  0.96321  Biso   1.000  H
  H316     1.0000 0.36674  0.30482  0.04368  Biso   1.000  H
  H317     1.0000 0.29188  0.92477  0.23667  Biso   1.000  H
  H318     1.0000 0.31596  0.93685  0.18842  Biso   1.000  H
  C254     1.0000 0.26820  0.00822  0.15836  Biso   1.000  C
  H319     1.0000 0.22795  0.89007  0.74391  Biso   1.000  H
  H320     1.0000 0.23967  0.87187  0.82309  Biso   1.000  H
  C255     1.0000 0.22791  0.99399  0.80058  Biso   1.000  C
  C256     1.0000 0.31426  0.20967  0.05524  Biso   1.000  C
  C257     1.0000 0.29966  0.20293  0.93068  Biso   1.000  C
  N34      1.0000 0.28777  0.06787  0.14279  Biso   1.000  N
  O69      1.0000 0.23432  0.01128  0.14886  Biso   1.000  O
  N35      1.0000 0.25324  0.04708  0.83825  Biso   1.000  N
  O70      1.0000 0.19392  0.00809  0.77802  Biso   1.000  O
  C258     1.0000 0.28196  0.16529  0.04861  Biso   1.000  C
  C259     1.0000 0.34060  0.23450  0.12507  Biso   1.000  C
  C260     1.0000 0.26768  0.15707  0.92524  Biso   1.000  C
  C261     1.0000 0.31026  0.22212  0.86794  Biso   1.000  C
  C262     1.0000 0.27123  0.14573  0.11150  Biso   1.000  C
  C263     1.0000 0.24234  0.12887  0.85572  Biso   1.000  C
  C264     1.0000 0.25909  0.13659  0.98392  Biso   1.000  C
  H321     1.0000 0.33502  0.20373  0.16001  Biso   1.000  H
  H322     1.0000 0.36572  0.22347  0.12748  Biso   1.000  H
  H323     1.0000 0.33783  0.29195  0.13206  Biso   1.000  H
  H324     1.0000 0.30286  0.27711  0.85309  Biso   1.000  H
  H325     1.0000 0.33669  0.21685  0.87930  Biso   1.000  H
  H326     1.0000 0.29796  0.18442  0.83172  Biso   1.000  H
  H327     1.0000 0.24435  0.14236  0.09824  Biso   1.000  H
  H328     1.0000 0.27966  0.18957  0.14485  Biso   1.000  H
  H329     1.0000 0.24328  0.16811  0.82103  Biso   1.000  H
  H330     1.0000 0.21693  0.12672  0.85577  Biso   1.000  H
  C265     1.0000 0.22619  0.08117  0.97775  Biso   1.000  C
  H331     1.0000 0.22120  0.04739  0.93767  Biso   1.000  H
  H332     1.0000 0.20472  0.11416  0.97395  Biso   1.000  H
  H333     1.0000 0.23184  0.04715  0.01788  Biso   1.000  H
  O71      1.0000 0.26566  0.51125  0.35110  Biso   1.000  O
  C266     1.0000 0.23180  0.50818  0.34165  Biso   1.000  C
  C267     1.0000 0.20918  0.43228  0.31056  Biso   1.000  C
  N36      1.0000 0.21222  0.56784  0.35722  Biso   1.000  N
  O72      1.0000 0.22843  0.36564  0.35270  Biso   1.000  O
  H334     1.0000 0.20811  0.42474  0.26334  Biso   1.000  H
  H335     1.0000 0.18402  0.43688  0.31154  Biso   1.000  H
  C268     1.0000 0.22877  0.64570  0.38851  Biso   1.000  C
  C269     1.0000 0.20809  0.29643  0.35511  Biso   1.000  C
  H336     1.0000 0.25564  0.64239  0.40177  Biso   1.000  H
  H337     1.0000 0.22035  0.68953  0.35511  Biso   1.000  H
  C270     1.0000 0.21806  0.66532  0.45140  Biso   1.000  C
  C271     1.0000 0.17403  0.27638  0.30804  Biso   1.000  C
  C272     1.0000 0.22545  0.24450  0.40953  Biso   1.000  C
  C273     1.0000 0.18572  0.70971  0.44472  Biso   1.000  C
  C274     1.0000 0.24088  0.63663  0.51599  Biso   1.000  C
  C275     1.0000 0.15672  0.20397  0.31719  Biso   1.000  C
  H338     1.0000 0.16273  0.31059  0.27084  Biso   1.000  H
  H339     1.0000 0.24898  0.25719  0.43984  Biso   1.000  H
  C276     1.0000 0.20777  0.17399  0.41852  Biso   1.000  C
  C277     1.0000 0.17702  0.72822  0.50376  Biso   1.000  C
  C278     1.0000 0.15939  0.73447  0.37494  Biso   1.000  C
  C279     1.0000 0.23227  0.65710  0.57467  Biso   1.000  C
  C280     1.0000 0.27377  0.58120  0.52221  Biso   1.000  C
  C281     1.0000 0.17307  0.15303  0.37279  Biso   1.000  C
  H340     1.0000 0.13381  0.18975  0.28533  Biso   1.000  H
  H341     1.0000 0.21922  0.14009  0.45577  Biso   1.000  H
  C282     1.0000 0.14076  0.77028  0.49688  Biso   1.000  C
  C283     1.0000 0.20030  0.70290  0.56928  Biso   1.000  C
  H342     1.0000 0.16498  0.70370  0.34000  Biso   1.000  H
  H343     1.0000 0.13427  0.72350  0.37253  Biso   1.000  H
  H344     1.0000 0.16218  0.79192  0.36796  Biso   1.000  H
  C284     1.0000 0.25765  0.62890  0.64424  Biso   1.000  C
  H345     1.0000 0.27876  0.54742  0.56229  Biso   1.000  H
  H346     1.0000 0.26817  0.54712  0.48208  Biso   1.000  H
  H347     1.0000 0.29523  0.61419  0.52601  Biso   1.000  H
  C285     1.0000 0.15611  0.07149  0.38229  Biso   1.000  C
  N37      1.0000 0.11228  0.70676  0.49122  Biso   1.000  N
  H348     1.0000 0.13324  0.80486  0.45628  Biso   1.000  H
  H349     1.0000 0.14367  0.80455  0.53675  Biso   1.000  H
  C286     1.0000 0.18969  0.72209  0.63202  Biso   1.000  C
  N38      1.0000 0.24672  0.54705  0.66171  Biso   1.000  N
  H350     1.0000 0.25671  0.66808  0.67893  Biso   1.000  H
  H351     1.0000 0.28303  0.62675  0.64419  Biso   1.000  H
  N39      1.0000 0.11781  0.07651  0.38532  Biso   1.000  N
  H352     1.0000 0.17210  0.04647  0.42448  Biso   1.000  H
  H353     1.0000 0.15576  0.03556  0.34468  Biso   1.000  H
  C287     1.0000 0.07611  0.72491  0.47005  Biso   1.000  C
  H354     1.0000 0.19710  0.77708  0.64687  Biso   1.000  H
  H355     1.0000 0.16327  0.71688  0.62066  Biso   1.000  H
  H356     1.0000 0.20199  0.68445  0.66819  Biso   1.000  H
  C288     1.0000 0.27204  0.49402  0.69933  Biso   1.000  C
  H357     1.0000 0.10223  0.09270  0.34468  Biso   1.000  H
  H358     1.0000 0.11719  0.11373  0.41646  Biso   1.000  H
  C289     1.0000 0.10544  0.99608  0.40351  Biso   1.000  C
  O73      1.0000 0.06381  0.79566  0.45526  Biso   1.000  O
  C290     1.0000 0.04981  0.65349  0.45968  Biso   1.000  C
  O74      1.0000 0.30604  0.50812  0.72194  Biso   1.000  O
  C291     1.0000 0.25766  0.41040  0.71079  Biso   1.000  C
  C292     1.0000 0.06579  0.99767  0.40187  Biso   1.000  C
  H359     1.0000 0.10803  0.95482  0.37155  Biso   1.000  H
  H360     1.0000 0.12145  0.98050  0.44919  Biso   1.000  H
  O75      1.0000 0.06867  0.58635  0.50083  Biso   1.000  O
  H361     1.0000 0.04094  0.63773  0.41163  Biso   1.000  H
  H362     1.0000 0.02852  0.66906  0.47262  Biso   1.000  H
  O76      1.0000 0.21979  0.41726  0.70493  Biso   1.000  O
  H363     1.0000 0.27203  0.39010  0.75605  Biso   1.000  H
  H364     1.0000 0.26029  0.37183  0.67687  Biso   1.000  H
  N40      1.0000 0.06041  0.04849  0.45731  Biso   1.000  N
  H365     1.0000 0.05019  0.01894  0.35778  Biso   1.000  H
  H366     1.0000 0.05782  0.94206  0.40603  Biso   1.000  H
  C293     1.0000 0.05297  0.50923  0.48753  Biso   1.000  C
  C294     1.0000 0.19891  0.34688  0.69784  Biso   1.000  C
  C295     1.0000 0.07241  0.00049  0.52134  Biso   1.000  C
  C296     1.0000 0.02097  0.07038  0.43979  Biso   1.000  C
  C297     1.0000 0.07365  0.44718  0.52899  Biso   1.000  C
  C298     1.0000 0.01957  0.49169  0.43743  Biso   1.000  C
  C299     1.0000 0.21210  0.26792  0.69619  Biso   1.000  C
  C300     1.0000 0.16223  0.36000  0.69208  Biso   1.000  C
  C301     1.0000 0.07981  0.05260  0.58510  Biso   1.000  C
  H367     1.0000 0.05333  0.96058  0.51985  Biso   1.000  H
  H368     1.0000 0.09488  0.97076  0.52426  Biso   1.000  H
  H369     1.0000 0.00606  0.02152  0.42391  Biso   1.000  H
  H370     1.0000 0.01669  0.08908  0.48105  Biso   1.000  H
  C302     1.0000 0.00790  0.13610  0.38522  Biso   1.000  C
  C303     1.0000 0.06107  0.36711  0.51949  Biso   1.000  C
  H371     1.0000 0.09600  0.45957  0.56326  Biso   1.000  H
  C304     1.0000 0.00733  0.41021  0.42828  Biso   1.000  C
  H372     1.0000 0.00539  0.53326  0.41009  Biso   1.000  H
  C305     1.0000 0.18771  0.20201  0.68694  Biso   1.000  C
  H373     1.0000 0.23694  0.25915  0.70128  Biso   1.000  H
  C306     1.0000 0.13822  0.29379  0.68278  Biso   1.000  C
  H374     1.0000 0.15368  0.41285  0.69450  Biso   1.000  H
  N41      1.0000 0.11372  0.10496  0.59882  Biso   1.000  N
  H375     1.0000 0.08287  0.01723  0.62436  Biso   1.000  H
  H376     1.0000 0.05844  0.08761  0.57981  Biso   1.000  H
  N42      1.0000 0.02527  0.21783  0.40572  Biso   1.000  N
  H377     1.0000 0.01302  0.11808  0.34453  Biso   1.000  H
  H378     1.0000 0.98114  0.14181  0.37289  Biso   1.000  H
  C307     1.0000 0.02763  0.34799  0.46898  Biso   1.000  C
  H379     1.0000 0.07520  0.32567  0.54708  Biso   1.000  H
  H380     1.0000 0.98501  0.39777  0.39406  Biso   1.000  H
  C308     1.0000 0.15053  0.21421  0.67898  Biso   1.000  C
  H381     1.0000 0.19651  0.14898  0.68607  Biso   1.000  H
  H382     1.0000 0.11357  0.30268  0.67903  Biso   1.000  H
  H383     1.0000 0.13256  0.07443  0.59641  Biso   1.000  H
  H384     1.0000 0.10942  0.14401  0.56702  Biso   1.000  H
  C309     1.0000 0.12385  0.14352  0.66911  Biso   1.000  C
  H385     1.0000 0.01942  0.24959  0.36852  Biso   1.000  H
  H386     1.0000 0.04986  0.21176  0.42098  Biso   1.000  H
  C310     1.0000 0.01441  0.26001  0.45839  Biso   1.000  C
  H387     1.0000 0.13492  0.10214  0.70359  Biso   1.000  H
  H388     1.0000 0.10132  0.16277  0.67610  Biso   1.000  H
  H389     1.0000 0.02458  0.23052  0.50145  Biso   1.000  H
  H390     1.0000 0.98753  0.25903  0.44539  Biso   1.000  H
  O77      1.0000 0.85840  0.48403  0.63828  Biso   1.000  O
  C311     1.0000 0.88879  0.49329  0.68931  Biso   1.000  C
  C312     1.0000 0.89499  0.46441  0.70082  Biso   1.000  C
  C313     1.0000 0.92719  0.47269  0.68011  Biso   1.000  C
  O78      1.0000 0.88780  0.49660  0.74927  Biso   1.000  O
  C314     1.0000 0.92569  0.49537  0.67158  Biso   1.000  C
  O79      1.0000 0.90140  0.45558  0.76361  Biso   1.000  O
  O80      1.0000 0.86239  0.46312  0.65498  Biso   1.000  O
  C315     1.0000 0.95485  0.54301  0.71762  Biso   1.000  C
  H391     1.0000 0.93635  0.41996  0.70046  Biso   1.000  H
  H392     1.0000 0.92460  0.47103  0.63176  Biso   1.000  H
  C316     1.0000 0.95469  0.43927  0.72502  Biso   1.000  C
  H393     1.0000 0.92117  0.48011  0.62410  Biso   1.000  H
  H394     1.0000 0.93093  0.55355  0.67852  Biso   1.000  H
  C317     1.0000 0.93720  0.62749  0.70051  Biso   1.000  C
  H395     1.0000 0.96255  0.53442  0.76690  Biso   1.000  H
  H396     1.0000 0.97687  0.54049  0.70416  Biso   1.000  H
  C318     1.0000 0.94220  0.35093  0.72420  Biso   1.000  C
  H397     1.0000 0.97791  0.44044  0.71536  Biso   1.000  H
  H398     1.0000 0.95951  0.46159  0.77065  Biso   1.000  H
  C319     1.0000 0.96490  0.69113  0.74069  Biso   1.000  C
  H399     1.0000 0.91477  0.63025  0.71248  Biso   1.000  H
  H400     1.0000 0.93063  0.63791  0.65159  Biso   1.000  H
  O81      1.0000 0.93719  0.70167  0.73499  Biso   1.000  O
  C320     1.0000 0.97038  0.29869  0.77568  Biso   1.000  C
  H401     1.0000 0.91903  0.34952  0.73396  Biso   1.000  H
  H402     1.0000 0.93748  0.32831  0.67867  Biso   1.000  H
  O82      1.0000 0.96723  0.70492  0.80122  Biso   1.000  O
  O83      1.0000 0.98691  0.72141  0.71341  Biso   1.000  O
  O84      1.0000 0.96652  0.34609  0.82460  Biso   1.000  O
  O85      1.0000 0.99574  0.30409  0.72019  Biso   1.000  O
  O86      1.0000 0.95730  0.24517  0.80441  Biso   1.000  O
  O87      1.0000 0.00424  0.30409  0.77979  Biso   1.000  O
  O88      1.0000 0.01307  0.72141  0.78658  Biso   1.000  O
  C321     1.0000 0.02960  0.29869  0.72430  Biso   1.000  C
  C322     1.0000 0.03508  0.69113  0.75929  Biso   1.000  C
  O89      1.0000 0.03346  0.34609  0.67538  Biso   1.000  O
  O90      1.0000 0.04268  0.24517  0.69558  Biso   1.000  O
  C323     1.0000 0.05778  0.35093  0.77579  Biso   1.000  C
  O91      1.0000 0.03276  0.70492  0.69881  Biso   1.000  O
  C324     1.0000 0.06278  0.62749  0.79947  Biso   1.000  C
  O92      1.0000 0.06279  0.70167  0.76500  Biso   1.000  O
  H403     1.0000 0.06364  0.41996  0.79958  Biso   1.000  H
  H404     1.0000 0.08095  0.34952  0.76602  Biso   1.000  H
  H405     1.0000 0.06252  0.32831  0.82131  Biso   1.000  H
  C325     1.0000 0.04530  0.43927  0.77502  Biso   1.000  C
  H406     1.0000 0.08521  0.63025  0.78750  Biso   1.000  H
  H407     1.0000 0.06937  0.63791  0.84839  Biso   1.000  H
  C326     1.0000 0.04515  0.54301  0.78241  Biso   1.000  C
  H408     1.0000 0.06905  0.55355  0.82147  Biso   1.000  H
  C327     1.0000 0.07280  0.47269  0.81987  Biso   1.000  C
  H409     1.0000 0.02207  0.44044  0.78462  Biso   1.000  H
  H410     1.0000 0.04047  0.46159  0.72934  Biso   1.000  H
  C328     1.0000 0.07429  0.49537  0.82840  Biso   1.000  C
  H411     1.0000 0.03743  0.53442  0.73309  Biso   1.000  H
  H412     1.0000 0.02313  0.54049  0.79583  Biso   1.000  H
  H413     1.0000 0.07539  0.47103  0.86828  Biso   1.000  H
  C329     1.0000 0.11119  0.49329  0.81068  Biso   1.000  C
  H414     1.0000 0.07884  0.48011  0.87588  Biso   1.000  H
  C330     1.0000 0.10500  0.46441  0.79922  Biso   1.000  C
  O93      1.0000 0.11221  0.49660  0.75071  Biso   1.000  O
  O94      1.0000 0.14159  0.48403  0.86170  Biso   1.000  O
  O95      1.0000 0.09858  0.45558  0.73637  Biso   1.000  O
  O96      1.0000 0.13759  0.46312  0.84500  Biso   1.000  O
  O97      1.0000 0.73434  0.51125  0.14886  Biso   1.000  O
  C331     1.0000 0.76818  0.50818  0.15836  Biso   1.000  C
  N43      1.0000 0.78779  0.56784  0.14279  Biso   1.000  N
  C332     1.0000 0.79080  0.43228  0.18945  Biso   1.000  C
  C333     1.0000 0.77121  0.64570  0.11150  Biso   1.000  C
  O98      1.0000 0.77157  0.36564  0.14726  Biso   1.000  O
  H415     1.0000 0.79187  0.42474  0.23667  Biso   1.000  H
  H416     1.0000 0.81595  0.43688  0.18842  Biso   1.000  H
  H417     1.0000 0.74436  0.64239  0.09824  Biso   1.000  H
  H418     1.0000 0.77964  0.68953  0.14485  Biso   1.000  H
  C334     1.0000 0.78194  0.66532  0.04861  Biso   1.000  C
  C335     1.0000 0.79189  0.29643  0.14490  Biso   1.000  C
  C336     1.0000 0.81427  0.70971  0.05524  Biso   1.000  C
  C337     1.0000 0.75908  0.63663  0.98392  Biso   1.000  C
  C338     1.0000 0.82596  0.27638  0.19192  Biso   1.000  C
  C339     1.0000 0.77455  0.24450  0.09049  Biso   1.000  C
  C340     1.0000 0.84061  0.73447  0.12507  Biso   1.000  C
  C341     1.0000 0.82294  0.72822  0.99615  Biso   1.000  C
  C342     1.0000 0.76766  0.65710  0.92524  Biso   1.000  C
  C343     1.0000 0.72618  0.58120  0.97775  Biso   1.000  C
  C344     1.0000 0.84328  0.20397  0.18282  Biso   1.000  C
  H419     1.0000 0.83725  0.31059  0.22917  Biso   1.000  H
  H420     1.0000 0.75102  0.25719  0.06012  Biso   1.000  H
  C345     1.0000 0.79223  0.17399  0.08149  Biso   1.000  C
  H421     1.0000 0.83503  0.70370  0.16001  Biso   1.000  H
  H422     1.0000 0.86573  0.72350  0.12748  Biso   1.000  H
  H423     1.0000 0.83782  0.79192  0.13206  Biso   1.000  H
  C346     1.0000 0.85923  0.77028  0.00308  Biso   1.000  C
  C347     1.0000 0.79967  0.70290  0.93068  Biso   1.000  C
  C348     1.0000 0.74232  0.62890  0.85572  Biso   1.000  C
  H424     1.0000 0.73183  0.54712  0.01788  Biso   1.000  H
  H425     1.0000 0.72119  0.54742  0.93767  Biso   1.000  H
  H426     1.0000 0.70474  0.61419  0.97395  Biso   1.000  H
  C349     1.0000 0.82691  0.15303  0.12723  Biso   1.000  C
  H427     1.0000 0.86619  0.18975  0.21463  Biso   1.000  H
  H428     1.0000 0.78079  0.14009  0.04424  Biso   1.000  H
  N44      1.0000 0.88772  0.70676  0.00874  Biso   1.000  N
  H429     1.0000 0.86673  0.80486  0.04368  Biso   1.000  H
  H430     1.0000 0.85630  0.80455  0.96321  Biso   1.000  H
  C350     1.0000 0.81028  0.72209  0.86794  Biso   1.000  C
  N45      1.0000 0.75325  0.54705  0.83825  Biso   1.000  N
  H431     1.0000 0.74326  0.66808  0.82103  Biso   1.000  H
  H432     1.0000 0.71694  0.62675  0.85577  Biso   1.000  H
  C351     1.0000 0.84389  0.07149  0.11772  Biso   1.000  C
  C352     1.0000 0.92386  0.72491  0.02991  Biso   1.000  C
  H433     1.0000 0.80287  0.77708  0.85309  Biso   1.000  H
  H434     1.0000 0.83670  0.71688  0.87930  Biso   1.000  H
  H435     1.0000 0.79794  0.68445  0.83172  Biso   1.000  H
  C353     1.0000 0.72792  0.49402  0.80058  Biso   1.000  C
  N46      1.0000 0.88220  0.07651  0.11469  Biso   1.000  N
  H436     1.0000 0.82791  0.04647  0.07553  Biso   1.000  H
  H437     1.0000 0.84424  0.03556  0.15533  Biso   1.000  H
  O99      1.0000 0.93620  0.79566  0.04475  Biso   1.000  O
  C354     1.0000 0.95019  0.65349  0.04028  Biso   1.000  C
  O100     1.0000 0.69393  0.50812  0.77802  Biso   1.000  O
  C355     1.0000 0.74228  0.41040  0.78917  Biso   1.000  C
  H438     1.0000 0.89775  0.09270  0.15533  Biso   1.000  H
  H439     1.0000 0.88279  0.11373  0.08355  Biso   1.000  H
  C356     1.0000 0.89454  0.99608  0.09650  Biso   1.000  C
  H440     1.0000 0.95907  0.63773  0.08838  Biso   1.000  H
  H441     1.0000 0.97148  0.66906  0.02739  Biso   1.000  H
  O101     1.0000 0.93130  0.58635  0.99913  Biso   1.000  O
  O102     1.0000 0.78018  0.41726  0.79503  Biso   1.000  O
  H442     1.0000 0.72794  0.39010  0.74391  Biso   1.000  H
  H443     1.0000 0.73968  0.37183  0.82309  Biso   1.000  H
  C357     1.0000 0.93419  0.99767  0.09814  Biso   1.000  C
  H444     1.0000 0.89198  0.95482  0.12846  Biso   1.000  H
  H445     1.0000 0.87855  0.98050  0.05082  Biso   1.000  H
  C358     1.0000 0.94702  0.50923  0.01243  Biso   1.000  C
  C359     1.0000 0.80106  0.34688  0.80212  Biso   1.000  C
  N47      1.0000 0.93960  0.04849  0.04270  Biso   1.000  N
  H446     1.0000 0.94981  0.01894  0.14223  Biso   1.000  H
  H447     1.0000 0.94216  0.94206  0.09398  Biso   1.000  H
  C360     1.0000 0.98043  0.49169  0.06258  Biso   1.000  C
  C361     1.0000 0.92630  0.44718  0.97097  Biso   1.000  C
  C362     1.0000 0.78786  0.26792  0.80372  Biso   1.000  C
  C363     1.0000 0.83771  0.36000  0.80783  Biso   1.000  C
  C364     1.0000 0.97904  0.07038  0.06022  Biso   1.000  C
  C365     1.0000 0.92755  0.00049  0.97857  Biso   1.000  C
  H448     1.0000 0.99461  0.53326  0.08987  Biso   1.000  H
  C366     1.0000 0.99267  0.41021  0.07168  Biso   1.000  C
  C367     1.0000 0.93887  0.36711  0.98047  Biso   1.000  C
  H449     1.0000 0.90394  0.45957  0.93670  Biso   1.000  H
  C368     1.0000 0.81224  0.20201  0.81302  Biso   1.000  C
  H450     1.0000 0.76300  0.25915  0.79868  Biso   1.000  H
  H451     1.0000 0.84626  0.41285  0.80546  Biso   1.000  H
  C369     1.0000 0.86175  0.29379  0.81718  Biso   1.000  C
  H452     1.0000 0.99394  0.02152  0.07610  Biso   1.000  H
  H453     1.0000 0.98332  0.08908  0.01896  Biso   1.000  H
  C370     1.0000 0.99210  0.13610  0.11479  Biso   1.000  C
  H454     1.0000 0.94663  0.96058  0.98006  Biso   1.000  H
  H455     1.0000 0.90507  0.97076  0.97570  Biso   1.000  H
  C371     1.0000 0.92015  0.05260  0.91481  Biso   1.000  C
  C372     1.0000 0.97238  0.34799  0.03104  Biso   1.000  C
  H456     1.0000 0.01500  0.39777  0.10595  Biso   1.000  H
  H457     1.0000 0.92477  0.32567  0.95288  Biso   1.000  H
  C373     1.0000 0.84942  0.21421  0.82098  Biso   1.000  C
  H458     1.0000 0.80346  0.14898  0.81389  Biso   1.000  H
  H459     1.0000 0.88640  0.30268  0.82093  Biso   1.000  H
  N48      1.0000 0.97473  0.21783  0.09429  Biso   1.000  N
  H460     1.0000 0.98699  0.11808  0.15549  Biso   1.000  H
  H461     1.0000 0.01884  0.14181  0.12712  Biso   1.000  H
  N49      1.0000 0.88625  0.10496  0.90114  Biso   1.000  N
  H462     1.0000 0.91707  0.01723  0.87560  Biso   1.000  H
  H463     1.0000 0.94150  0.08761  0.92015  Biso   1.000  H
  C374     1.0000 0.98557  0.26001  0.04162  Biso   1.000  C
  C375     1.0000 0.87613  0.14352  0.83085  Biso   1.000  C
  H464     1.0000 0.98058  0.24959  0.13144  Biso   1.000  H
  H465     1.0000 0.95014  0.21176  0.07903  Biso   1.000  H
  H466     1.0000 0.86738  0.07443  0.90355  Biso   1.000  H
  H467     1.0000 0.89056  0.14401  0.93294  Biso   1.000  H
  H468     1.0000 0.97539  0.23052  0.99851  Biso   1.000  H
  H469     1.0000 0.01246  0.25903  0.05457  Biso   1.000  H
  H470     1.0000 0.86505  0.10214  0.79637  Biso   1.000  H
  H471     1.0000 0.89864  0.16277  0.82381  Biso   1.000  H
  O103     1.0000 0.26567  0.48875  0.85111  Biso   1.000  O
  C376     1.0000 0.23180  0.49182  0.84166  Biso   1.000  C
  N50      1.0000 0.21222  0.43216  0.85718  Biso   1.000  N
  C377     1.0000 0.20918  0.56772  0.81052  Biso   1.000  C
  C378     1.0000 0.22877  0.35430  0.88852  Biso   1.000  C
  O104     1.0000 0.22841  0.63436  0.85271  Biso   1.000  O
  H472     1.0000 0.20812  0.57526  0.76335  Biso   1.000  H
  H473     1.0000 0.18403  0.56312  0.81155  Biso   1.000  H
  H474     1.0000 0.25561  0.35761  0.90173  Biso   1.000  H
  H475     1.0000 0.22033  0.31047  0.85512  Biso   1.000  H
  C379     1.0000 0.21803  0.33468  0.95136  Biso   1.000  C
  C380     1.0000 0.20810  0.70357  0.85512  Biso   1.000  C
  C381     1.0000 0.18573  0.29029  0.94473  Biso   1.000  C
  C382     1.0000 0.24090  0.36337  0.01605  Biso   1.000  C
  C383     1.0000 0.17404  0.72362  0.80805  Biso   1.000  C
  C384     1.0000 0.22546  0.75550  0.90954  Biso   1.000  C
  C385     1.0000 0.15940  0.26553  0.87496  Biso   1.000  C
  C386     1.0000 0.17706  0.27178  0.00383  Biso   1.000  C
  C387     1.0000 0.23231  0.34290  0.07473  Biso   1.000  C
  C388     1.0000 0.27380  0.41880  0.02222  Biso   1.000  C
  C389     1.0000 0.15670  0.79603  0.81720  Biso   1.000  C
  H476     1.0000 0.16273  0.68941  0.77085  Biso   1.000  H
  H477     1.0000 0.24898  0.74281  0.93985  Biso   1.000  H
  C390     1.0000 0.20775  0.82601  0.91853  Biso   1.000  C
  H478     1.0000 0.16497  0.29630  0.83996  Biso   1.000  H
  H479     1.0000 0.13425  0.27650  0.87254  Biso   1.000  H
  H480     1.0000 0.16216  0.20808  0.86792  Biso   1.000  H
  C391     1.0000 0.14077  0.22972  0.99689  Biso   1.000  C
  C392     1.0000 0.20034  0.29710  0.06934  Biso   1.000  C
  C393     1.0000 0.25766  0.37110  0.14431  Biso   1.000  C
  H481     1.0000 0.26815  0.45288  0.98209  Biso   1.000  H
  H482     1.0000 0.27879  0.45258  0.06230  Biso   1.000  H
  H483     1.0000 0.29527  0.38581  0.02602  Biso   1.000  H
  C394     1.0000 0.17308  0.84697  0.87280  Biso   1.000  C
  H484     1.0000 0.13382  0.81025  0.78534  Biso   1.000  H
  H485     1.0000 0.21923  0.85991  0.95578  Biso   1.000  H
  N51      1.0000 0.11226  0.29324  0.99124  Biso   1.000  N
  H486     1.0000 0.13325  0.19514  0.95630  Biso   1.000  H
  H487     1.0000 0.14368  0.19545  0.03676  Biso   1.000  H
  C395     1.0000 0.18972  0.27791  0.13203  Biso   1.000  C
  N52      1.0000 0.24676  0.45295  0.16178  Biso   1.000  N
  H488     1.0000 0.25672  0.33192  0.17899  Biso   1.000  H
  H489     1.0000 0.28306  0.37325  0.14420  Biso   1.000  H
  C396     1.0000 0.15609  0.92851  0.88230  Biso   1.000  C
  C397     1.0000 0.07612  0.27509  0.97007  Biso   1.000  C
  H490     1.0000 0.19714  0.22292  0.14693  Biso   1.000  H
  H491     1.0000 0.16330  0.28312  0.12067  Biso   1.000  H
  H492     1.0000 0.20203  0.31555  0.16825  Biso   1.000  H
  C398     1.0000 0.27208  0.50598  0.19939  Biso   1.000  C
  N53      1.0000 0.11780  0.92349  0.88528  Biso   1.000  N
  H493     1.0000 0.17207  0.95353  0.92444  Biso   1.000  H
  H494     1.0000 0.15574  0.96444  0.84469  Biso   1.000  H
  O105     1.0000 0.06378  0.20434  0.95522  Biso   1.000  O
  C399     1.0000 0.04981  0.34651  0.95969  Biso   1.000  C
  O106     1.0000 0.30608  0.49188  0.22200  Biso   1.000  O
  C400     1.0000 0.25770  0.58960  0.21080  Biso   1.000  C
  H495     1.0000 0.10224  0.90730  0.84469  Biso   1.000  H
  H496     1.0000 0.11719  0.88627  0.91642  Biso   1.000  H
  C401     1.0000 0.10543  0.00392  0.90347  Biso   1.000  C
  H497     1.0000 0.04094  0.36227  0.91164  Biso   1.000  H
  H498     1.0000 0.02852  0.33094  0.97258  Biso   1.000  H
  O107     1.0000 0.06871  0.41365  0.00090  Biso   1.000  O
  O108     1.0000 0.21981  0.58274  0.20499  Biso   1.000  O
  H499     1.0000 0.27205  0.60990  0.25612  Biso   1.000  H
  H500     1.0000 0.26033  0.62817  0.17694  Biso   1.000  H
  C402     1.0000 0.06579  0.00233  0.90188  Biso   1.000  C
  H501     1.0000 0.10800  0.04518  0.87156  Biso   1.000  H
  H502     1.0000 0.12143  0.01950  0.94920  Biso   1.000  H
  C403     1.0000 0.05295  0.49077  0.98754  Biso   1.000  C
  C404     1.0000 0.19894  0.65312  0.19785  Biso   1.000  C
  N54      1.0000 0.06039  0.95151  0.95732  Biso   1.000  N
  H503     1.0000 0.05017  0.98106  0.85779  Biso   1.000  H
  H504     1.0000 0.05782  0.05794  0.90604  Biso   1.000  H
  C405     1.0000 0.01958  0.50831  0.93744  Biso   1.000  C
  C406     1.0000 0.07369  0.55282  0.02905  Biso   1.000  C
  C407     1.0000 0.21212  0.73208  0.19626  Biso   1.000  C
  C408     1.0000 0.16227  0.64000  0.19215  Biso   1.000  C
  C409     1.0000 0.02098  0.92962  0.93980  Biso   1.000  C
  C410     1.0000 0.07243  0.99951  0.02140  Biso   1.000  C
  H505     1.0000 0.00537  0.46674  0.91010  Biso   1.000  H
  C411     1.0000 0.00733  0.58979  0.92829  Biso   1.000  C
  C412     1.0000 0.06112  0.63289  0.01955  Biso   1.000  C
  H506     1.0000 0.09604  0.54043  0.06333  Biso   1.000  H
  C413     1.0000 0.18774  0.79799  0.18696  Biso   1.000  C
  H507     1.0000 0.23698  0.74085  0.20129  Biso   1.000  H
  H508     1.0000 0.15372  0.58715  0.19456  Biso   1.000  H
  C414     1.0000 0.13826  0.70621  0.18284  Biso   1.000  C
  H509     1.0000 0.00604  0.97848  0.92392  Biso   1.000  H
  H510     1.0000 0.01666  0.91092  0.98101  Biso   1.000  H
  C415     1.0000 0.00787  0.86390  0.88518  Biso   1.000  C
  C416     1.0000 0.07983  0.94740  0.08517  Biso   1.000  C
  H511     1.0000 0.05335  0.03942  0.01991  Biso   1.000  H
  H512     1.0000 0.09492  0.02924  0.02433  Biso   1.000  H
  C417     1.0000 0.02760  0.65201  0.96894  Biso   1.000  C
  H513     1.0000 0.98499  0.60223  0.89407  Biso   1.000  H
  H514     1.0000 0.07521  0.67433  0.04714  Biso   1.000  H
  C418     1.0000 0.15057  0.78579  0.17904  Biso   1.000  C
  H515     1.0000 0.19654  0.85102  0.18608  Biso   1.000  H
  H516     1.0000 0.11358  0.69732  0.17909  Biso   1.000  H
  N55      1.0000 0.02524  0.78217  0.90568  Biso   1.000  N
  H517     1.0000 0.01300  0.88192  0.84454  Biso   1.000  H
  H518     1.0000 0.98115  0.85819  0.87290  Biso   1.000  H
  N56      1.0000 0.11372  0.89504  0.09883  Biso   1.000  N
  H519     1.0000 0.08290  0.98277  0.12437  Biso   1.000  H
  H520     1.0000 0.05848  0.91239  0.07987  Biso   1.000  H
  C419     1.0000 0.01442  0.73999  0.95840  Biso   1.000  C
  C420     1.0000 0.12385  0.85648  0.16913  Biso   1.000  C
  H521     1.0000 0.01939  0.75041  0.86853  Biso   1.000  H
  H522     1.0000 0.04984  0.78824  0.92100  Biso   1.000  H
  H523     1.0000 0.13260  0.92557  0.09647  Biso   1.000  H
  H524     1.0000 0.10946  0.85599  0.06708  Biso   1.000  H
  H525     1.0000 0.98754  0.74097  0.94540  Biso   1.000  H
  H526     1.0000 0.02461  0.76948  0.00146  Biso   1.000  H
  H527     1.0000 0.13493  0.89786  0.20366  Biso   1.000  H
  H528     1.0000 0.10136  0.83723  0.17616  Biso   1.000  H
  O109     1.0000 0.88780  0.50340  0.24931  Biso   1.000  O
  C421     1.0000 0.88879  0.50671  0.18930  Biso   1.000  C
  C422     1.0000 0.89499  0.53559  0.20081  Biso   1.000  C
  O110     1.0000 0.85840  0.51597  0.13832  Biso   1.000  O
  C423     1.0000 0.92721  0.52731  0.18010  Biso   1.000  C
  C424     1.0000 0.92570  0.50463  0.17162  Biso   1.000  C
  O111     1.0000 0.90140  0.54442  0.26360  Biso   1.000  O
  O112     1.0000 0.86240  0.53688  0.15502  Biso   1.000  O
  C425     1.0000 0.95487  0.45699  0.21761  Biso   1.000  C
  H529     1.0000 0.93635  0.58004  0.20045  Biso   1.000  H
  H530     1.0000 0.92459  0.52897  0.13175  Biso   1.000  H
  C426     1.0000 0.95469  0.56073  0.22501  Biso   1.000  C
  H531     1.0000 0.92116  0.51989  0.12409  Biso   1.000  H
  H532     1.0000 0.93095  0.44645  0.17851  Biso   1.000  H
  C427     1.0000 0.93719  0.37251  0.20050  Biso   1.000  C
  H533     1.0000 0.96255  0.46558  0.26689  Biso   1.000  H
  H534     1.0000 0.97688  0.45951  0.20420  Biso   1.000  H
  C428     1.0000 0.94220  0.64907  0.22419  Biso   1.000  C
  H535     1.0000 0.97790  0.55956  0.21535  Biso   1.000  H
  H536     1.0000 0.95954  0.53841  0.27069  Biso   1.000  H
  C429     1.0000 0.96489  0.30887  0.24068  Biso   1.000  C
  H537     1.0000 0.91476  0.36975  0.21247  Biso   1.000  H
  H538     1.0000 0.93063  0.36209  0.15158  Biso   1.000  H
  O113     1.0000 0.93719  0.29833  0.23498  Biso   1.000  O
  C430     1.0000 0.97041  0.70131  0.27572  Biso   1.000  C
  H539     1.0000 0.91904  0.65048  0.23400  Biso   1.000  H
  H540     1.0000 0.93748  0.67169  0.17866  Biso   1.000  H
  O114     1.0000 0.96725  0.29508  0.30121  Biso   1.000  O
  O115     1.0000 0.98690  0.27859  0.21340  Biso   1.000  O
  O116     1.0000 0.96651  0.65391  0.32459  Biso   1.000  O
  O117     1.0000 0.95730  0.75483  0.30439  Biso   1.000  O
  O118     1.0000 0.99573  0.69591  0.22018  Biso   1.000  O
  O119     1.0000 0.00424  0.69591  0.27978  Biso   1.000  O
  O120     1.0000 0.01310  0.27859  0.28662  Biso   1.000  O
  C431     1.0000 0.02960  0.70131  0.22429  Biso   1.000  C
  C432     1.0000 0.03510  0.30887  0.25928  Biso   1.000  C
  O121     1.0000 0.03347  0.65391  0.17542  Biso   1.000  O
  O122     1.0000 0.04271  0.75483  0.19562  Biso   1.000  O
  C433     1.0000 0.05780  0.64907  0.27577  Biso   1.000  C
  O123     1.0000 0.03276  0.29508  0.19880  Biso   1.000  O
  C434     1.0000 0.06281  0.37251  0.29951  Biso   1.000  C
  O124     1.0000 0.06278  0.29833  0.26498  Biso   1.000  O
  H541     1.0000 0.06363  0.58004  0.29956  Biso   1.000  H
  H542     1.0000 0.08094  0.65048  0.26601  Biso   1.000  H
  H543     1.0000 0.06252  0.67169  0.32130  Biso   1.000  H
  C435     1.0000 0.04529  0.56073  0.27500  Biso   1.000  C
  H544     1.0000 0.08521  0.36975  0.28749  Biso   1.000  H
  H545     1.0000 0.06937  0.36209  0.34838  Biso   1.000  H
  C436     1.0000 0.04514  0.45699  0.28240  Biso   1.000  C
  H546     1.0000 0.06905  0.44645  0.32151  Biso   1.000  H
  C437     1.0000 0.07280  0.52731  0.31991  Biso   1.000  C
  H547     1.0000 0.02207  0.55956  0.28461  Biso   1.000  H
  H548     1.0000 0.04047  0.53841  0.22932  Biso   1.000  H
  C438     1.0000 0.07428  0.50463  0.32839  Biso   1.000  C
  H549     1.0000 0.03743  0.46558  0.23313  Biso   1.000  H
  H550     1.0000 0.02313  0.45951  0.29581  Biso   1.000  H
  H551     1.0000 0.07541  0.52897  0.36826  Biso   1.000  H
  C439     1.0000 0.11119  0.50671  0.31072  Biso   1.000  C
  H552     1.0000 0.07883  0.51989  0.37587  Biso   1.000  H
  C440     1.0000 0.10499  0.53559  0.29921  Biso   1.000  C
  O125     1.0000 0.11220  0.50340  0.25070  Biso   1.000  O
  O126     1.0000 0.14161  0.51597  0.36169  Biso   1.000  O
  O127     1.0000 0.09861  0.54442  0.23641  Biso   1.000  O
  O128     1.0000 0.13758  0.53688  0.34499  Biso   1.000  O
