data_image0
_cell_length_a       31.981
_cell_length_b       18.519
_cell_length_c       20.326
_cell_angle_alpha    90
_cell_angle_beta     90
_cell_angle_gamma    90

_symmetry_space_group_name_H-M    "P 1"
_symmetry_int_tables_number       1

loop_
  _symmetry_equiv_pos_as_xyz
  'x, y, z'

loop_
  _atom_site_label
  _atom_site_occupancy
  _atom_site_fract_x
  _atom_site_fract_y
  _atom_site_fract_z
  _atom_site_thermal_displace_type
  _atom_site_B_iso_or_equiv
  _atom_site_type_symbol
  C1       1.0000 0.16338  0.47260  0.47442  Biso   1.000  C
  C2       1.0000 0.14018  0.47297  0.41449  Biso   1.000  C
  C3       1.0000 0.18411  0.47351  0.52189  Biso   1.000  C
  C4       1.0000 0.15916  0.49430  0.35570  Biso   1.000  C
  C5       1.0000 0.09831  0.45364  0.41312  Biso   1.000  C
  C6       1.0000 0.15913  0.49430  0.35570  Biso   1.000  C
  C7       1.0000 0.09834  0.45364  0.41312  Biso   1.000  C
  C8       1.0000 0.16341  0.47260  0.47442  Biso   1.000  C
  C9       1.0000 0.20944  0.47724  0.57803  Biso   1.000  C
  H1       1.0000 0.18761  0.50888  0.35570  Biso   1.000  H
  C10      1.0000 0.13680  0.49441  0.29770  Biso   1.000  C
  C11      1.0000 0.13683  0.49441  0.29770  Biso   1.000  C
  C12      1.0000 0.07523  0.45445  0.35477  Biso   1.000  C
  H2       1.0000 0.08499  0.43939  0.45282  Biso   1.000  H
  H3       1.0000 0.08502  0.43939  0.45282  Biso   1.000  H
  C13      1.0000 0.23279  0.48458  0.62521  Biso   1.000  C
  H4       1.0000 0.15000  0.50829  0.25780  Biso   1.000  H
  C14      1.0000 0.09556  0.47432  0.29750  Biso   1.000  C
  C15      1.0000 0.09559  0.47432  0.29750  Biso   1.000  C
  C16      1.0000 0.03261  0.43399  0.35477  Biso   1.000  C
  C17      1.0000 0.26090  0.49571  0.67824  Biso   1.000  C
  H5       1.0000 0.08061  0.47411  0.25721  Biso   1.000  H
  C18      1.0000 0.99675  0.41331  0.35629  Biso   1.000  C
  C19      1.0000 0.25278  0.46563  0.73950  Biso   1.000  C
  C20      1.0000 0.29668  0.53642  0.66983  Biso   1.000  C
  C21      1.0000 0.95482  0.38393  0.36161  Biso   1.000  C
  C22      1.0000 0.95485  0.38393  0.36161  Biso   1.000  C
  C23      1.0000 0.28014  0.47654  0.79253  Biso   1.000  C
  H6       1.0000 0.22829  0.43723  0.74560  Biso   1.000  H
  H7       1.0000 0.22832  0.43723  0.74560  Biso   1.000  H
  H8       1.0000 0.30240  0.55781  0.62831  Biso   1.000  H
  C24      1.0000 0.32447  0.54630  0.72213  Biso   1.000  C
  C25      1.0000 0.94306  0.32772  0.32215  Biso   1.000  C
  C26      1.0000 0.92758  0.41012  0.40702  Biso   1.000  C
  C27      1.0000 0.94309  0.32772  0.32215  Biso   1.000  C
  C28      1.0000 0.26954  0.44430  0.85442  Biso   1.000  C
  C29      1.0000 0.31572  0.51660  0.78313  Biso   1.000  C
  C30      1.0000 0.31575  0.51660  0.78313  Biso   1.000  C
  H9       1.0000 0.34939  0.57341  0.71573  Biso   1.000  H
  C31      1.0000 0.90488  0.29489  0.33051  Biso   1.000  C
  H10      1.0000 0.96151  0.31119  0.28869  Biso   1.000  H
  C32      1.0000 0.88881  0.37691  0.41499  Biso   1.000  C
  H11      1.0000 0.93490  0.45073  0.43319  Biso   1.000  H
  C33      1.0000 0.25671  0.41239  0.90106  Biso   1.000  C
  H12      1.0000 0.33451  0.52411  0.81871  Biso   1.000  H
  C34      1.0000 0.87658  0.31632  0.37942  Biso   1.000  C
  H13      1.0000 0.89741  0.25628  0.30213  Biso   1.000  H
  H14      1.0000 0.86989  0.39662  0.44623  Biso   1.000  H
  C35      1.0000 0.23686  0.37497  0.95380  Biso   1.000  C
  C36      1.0000 0.83584  0.27480  0.38866  Biso   1.000  C
  C37      1.0000 0.19834  0.34262  0.94224  Biso   1.000  C
  C38      1.0000 0.25337  0.37027  0.01687  Biso   1.000  C
  C39      1.0000 0.84406  0.19677  0.41415  Biso   1.000  C
  C40      1.0000 0.80814  0.30947  0.44298  Biso   1.000  C
  C41      1.0000 0.81342  0.27496  0.32161  Biso   1.000  C
  C42      1.0000 0.84409  0.19677  0.41415  Biso   1.000  C
  H15      1.0000 0.18699  0.34262  0.89905  Biso   1.000  H
  C43      1.0000 0.17629  0.31038  0.99272  Biso   1.000  C
  H16      1.0000 0.18702  0.34262  0.89905  Biso   1.000  H
  C44      1.0000 0.23095  0.33787  0.06711  Biso   1.000  C
  H17      1.0000 0.28029  0.38949  0.02563  Biso   1.000  H
  C45      1.0000 0.23098  0.33787  0.06711  Biso   1.000  C
  H18      1.0000 0.28032  0.38949  0.02563  Biso   1.000  H
  C46      1.0000 0.81058  0.15260  0.42960  Biso   1.000  C
  C47      1.0000 0.88315  0.17199  0.43142  Biso   1.000  C
  C48      1.0000 0.81061  0.15260  0.42960  Biso   1.000  C
  C49      1.0000 0.76905  0.33787  0.43294  Biso   1.000  C
  C50      1.0000 0.82371  0.31038  0.50733  Biso   1.000  C
  C51      1.0000 0.80416  0.34030  0.29170  Biso   1.000  C
  C52      1.0000 0.80479  0.21302  0.28569  Biso   1.000  C
  C53      1.0000 0.80420  0.34030  0.29170  Biso   1.000  C
  H19      1.0000 0.15009  0.28841  0.98362  Biso   1.000  H
  H20      1.0000 0.15012  0.28841  0.98362  Biso   1.000  H
  C54      1.0000 0.19186  0.30947  0.05707  Biso   1.000  C
  H21      1.0000 0.24299  0.33522  0.10971  Biso   1.000  H
  H22      1.0000 0.24302  0.33522  0.10971  Biso   1.000  H
  H23      1.0000 0.78309  0.16853  0.41932  Biso   1.000  H
  C55      1.0000 0.81570  0.08710  0.45912  Biso   1.000  C
  H24      1.0000 0.90701  0.20120  0.42310  Biso   1.000  H
  C56      1.0000 0.88809  0.10530  0.46069  Biso   1.000  C
  H25      1.0000 0.75701  0.33522  0.39029  Biso   1.000  H
  C57      1.0000 0.74663  0.37027  0.48317  Biso   1.000  C
  C58      1.0000 0.80166  0.34262  0.55781  Biso   1.000  C
  H26      1.0000 0.84991  0.28841  0.51643  Biso   1.000  H
  H27      1.0000 0.81120  0.38350  0.31423  Biso   1.000  H
  C59      1.0000 0.78512  0.34581  0.23039  Biso   1.000  C
  H28      1.0000 0.81061  0.16702  0.30419  Biso   1.000  H
  C60      1.0000 0.78787  0.21751  0.22370  Biso   1.000  C
  C61      1.0000 0.16416  0.27480  0.11138  Biso   1.000  C
  C62      1.0000 0.16419  0.27480  0.11138  Biso   1.000  C
  H29      1.0000 0.79181  0.05870  0.46891  Biso   1.000  H
  C63      1.0000 0.85413  0.06140  0.47471  Biso   1.000  C
  H30      1.0000 0.91539  0.08910  0.47151  Biso   1.000  H
  H31      1.0000 0.91542  0.08910  0.47151  Biso   1.000  H
  C64      1.0000 0.76314  0.37497  0.54625  Biso   1.000  C
  H32      1.0000 0.71971  0.38949  0.47442  Biso   1.000  H
  H33      1.0000 0.81301  0.34262  0.60100  Biso   1.000  H
  H34      1.0000 0.77781  0.39160  0.21268  Biso   1.000  H
  C65      1.0000 0.77721  0.28311  0.19601  Biso   1.000  C
  H35      1.0000 0.78340  0.17452  0.19920  Biso   1.000  H
  C66      1.0000 0.15594  0.19677  0.08590  Biso   1.000  C
  C67      1.0000 0.12342  0.31632  0.12058  Biso   1.000  C
  C68      1.0000 0.18658  0.27496  0.17844  Biso   1.000  C
  C69      1.0000 0.86023  0.99228  0.50659  Biso   1.000  C
  C70      1.0000 0.74329  0.41239  0.59899  Biso   1.000  C
  C71      1.0000 0.74332  0.41239  0.59899  Biso   1.000  C
  O1       1.0000 0.75942  0.27982  0.13520  Biso   1.000  O
  C72      1.0000 0.18942  0.15260  0.07040  Biso   1.000  C
  C73      1.0000 0.11685  0.17199  0.06863  Biso   1.000  C
  C74      1.0000 0.09512  0.29489  0.16954  Biso   1.000  C
  C75      1.0000 0.11119  0.37691  0.08501  Biso   1.000  C
  C76      1.0000 0.09515  0.29489  0.16954  Biso   1.000  C
  C77      1.0000 0.19584  0.34030  0.20835  Biso   1.000  C
  C78      1.0000 0.19521  0.21302  0.21426  Biso   1.000  C
  C79      1.0000 0.19524  0.21302  0.21426  Biso   1.000  C
  C80      1.0000 0.86595  0.93612  0.53419  Biso   1.000  C
  C81      1.0000 0.73046  0.44430  0.64563  Biso   1.000  C
  C82      1.0000 0.74769  0.34462  0.10322  Biso   1.000  C
  H36      1.0000 0.21691  0.16853  0.08073  Biso   1.000  H
  C83      1.0000 0.18430  0.08710  0.04093  Biso   1.000  C
  H37      1.0000 0.09299  0.20120  0.07695  Biso   1.000  H
  C84      1.0000 0.11191  0.10530  0.03931  Biso   1.000  C
  H38      1.0000 0.10259  0.25628  0.19792  Biso   1.000  H
  C85      1.0000 0.05694  0.32772  0.17790  Biso   1.000  C
  H39      1.0000 0.13011  0.39662  0.05382  Biso   1.000  H
  C86      1.0000 0.07242  0.41012  0.09298  Biso   1.000  C
  H40      1.0000 0.18880  0.38350  0.18582  Biso   1.000  H
  C87      1.0000 0.21488  0.34581  0.26961  Biso   1.000  C
  H41      1.0000 0.18939  0.16702  0.19581  Biso   1.000  H
  C88      1.0000 0.21213  0.21751  0.27635  Biso   1.000  C
  C89      1.0000 0.87564  0.87089  0.56902  Biso   1.000  C
  C90      1.0000 0.71986  0.47654  0.70752  Biso   1.000  C
  H42      1.0000 0.72809  0.37140  0.13111  Biso   1.000  H
  H43      1.0000 0.73431  0.33323  0.06110  Biso   1.000  H
  H44      1.0000 0.77258  0.37410  0.09530  Biso   1.000  H
  H45      1.0000 0.72812  0.37140  0.13111  Biso   1.000  H
  H46      1.0000 0.77261  0.37410  0.09530  Biso   1.000  H
  H47      1.0000 0.20819  0.05870  0.03114  Biso   1.000  H
  C91      1.0000 0.14587  0.06140  0.02534  Biso   1.000  C
  H48      1.0000 0.20822  0.05870  0.03114  Biso   1.000  H
  H49      1.0000 0.08461  0.08910  0.02853  Biso   1.000  H
  C92      1.0000 0.04518  0.38393  0.13839  Biso   1.000  C
  H50      1.0000 0.03849  0.31119  0.21131  Biso   1.000  H
  H51      1.0000 0.06510  0.45073  0.06681  Biso   1.000  H
  H52      1.0000 0.22219  0.39160  0.28732  Biso   1.000  H
  C93      1.0000 0.22279  0.28311  0.30404  Biso   1.000  C
  C94      1.0000 0.22282  0.28311  0.30404  Biso   1.000  C
  H53      1.0000 0.21660  0.17452  0.30080  Biso   1.000  H
  C95      1.0000 0.90804  0.87208  0.61261  Biso   1.000  C
  C96      1.0000 0.85332  0.80782  0.56012  Biso   1.000  C
  C97      1.0000 0.90807  0.87208  0.61261  Biso   1.000  C
  C98      1.0000 0.85335  0.80782  0.56012  Biso   1.000  C
  C99      1.0000 0.74722  0.46563  0.76055  Biso   1.000  C
  C100     1.0000 0.68428  0.51660  0.71691  Biso   1.000  C
  C101     1.0000 0.74726  0.46563  0.76055  Biso   1.000  C
  C102     1.0000 0.13977  0.99228  0.99341  Biso   1.000  C
  C103     1.0000 0.00325  0.41331  0.14371  Biso   1.000  C
  O2       1.0000 0.24058  0.27982  0.36485  Biso   1.000  O
  O3       1.0000 0.24061  0.27982  0.36485  Biso   1.000  O
  C104     1.0000 0.91967  0.80971  0.64814  Biso   1.000  C
  H54      1.0000 0.92311  0.91571  0.61921  Biso   1.000  H
  C105     1.0000 0.86401  0.74540  0.59382  Biso   1.000  C
  H55      1.0000 0.83040  0.80712  0.53040  Biso   1.000  H
  C106     1.0000 0.73910  0.49571  0.82180  Biso   1.000  C
  H56      1.0000 0.77171  0.43723  0.75440  Biso   1.000  H
  C107     1.0000 0.73913  0.49571  0.82180  Biso   1.000  C
  H57      1.0000 0.66549  0.52411  0.68129  Biso   1.000  H
  C108     1.0000 0.67553  0.54630  0.77792  Biso   1.000  C
  C109     1.0000 0.13405  0.93612  0.96581  Biso   1.000  C
  C110     1.0000 0.96739  0.43399  0.14528  Biso   1.000  C
  C111     1.0000 0.96742  0.43399  0.14528  Biso   1.000  C
  C112     1.0000 0.25231  0.34462  0.39683  Biso   1.000  C
  C113     1.0000 0.89678  0.74572  0.63751  Biso   1.000  C
  C114     1.0000 0.95491  0.81198  0.69291  Biso   1.000  C
  H58      1.0000 0.84860  0.70231  0.58674  Biso   1.000  H
  C115     1.0000 0.76721  0.48458  0.87484  Biso   1.000  C
  C116     1.0000 0.70332  0.53642  0.83022  Biso   1.000  C
  C117     1.0000 0.70336  0.53642  0.83022  Biso   1.000  C
  H59      1.0000 0.65061  0.57341  0.78432  Biso   1.000  H
  C118     1.0000 0.12436  0.87089  0.93102  Biso   1.000  C
  C119     1.0000 0.92477  0.45445  0.14528  Biso   1.000  C
  C120     1.0000 0.92480  0.45445  0.14528  Biso   1.000  C
  H60      1.0000 0.27191  0.37140  0.36889  Biso   1.000  H
  H61      1.0000 0.26569  0.33323  0.43895  Biso   1.000  H
  H62      1.0000 0.22742  0.37410  0.40475  Biso   1.000  H
  H63      1.0000 0.26572  0.33323  0.43895  Biso   1.000  H
  H64      1.0000 0.90401  0.70279  0.66063  Biso   1.000  H
  C121     1.0000 0.98330  0.81489  0.72961  Biso   1.000  C
  C122     1.0000 0.79056  0.47724  0.92202  Biso   1.000  C
  H65      1.0000 0.69760  0.55781  0.87174  Biso   1.000  H
  C123     1.0000 0.09196  0.87208  0.88743  Biso   1.000  C
  C124     1.0000 0.14668  0.80782  0.93993  Biso   1.000  C
  C125     1.0000 0.90169  0.45364  0.08693  Biso   1.000  C
  C126     1.0000 0.90444  0.47432  0.20255  Biso   1.000  C
  C127     1.0000 0.01670  0.81489  0.77044  Biso   1.000  C
  C128     1.0000 0.81589  0.47351  0.97811  Biso   1.000  C
  C129     1.0000 0.08033  0.80971  0.85191  Biso   1.000  C
  C130     1.0000 0.08036  0.80971  0.85191  Biso   1.000  C
  H66      1.0000 0.07689  0.91571  0.88084  Biso   1.000  H
  H67      1.0000 0.07692  0.91571  0.88084  Biso   1.000  H
  C131     1.0000 0.13599  0.74540  0.90623  Biso   1.000  C
  H68      1.0000 0.16960  0.80712  0.96964  Biso   1.000  H
  C132     1.0000 0.85982  0.47297  0.08556  Biso   1.000  C
  H69      1.0000 0.91501  0.43939  0.04723  Biso   1.000  H
  C133     1.0000 0.86320  0.49441  0.20235  Biso   1.000  C
  H70      1.0000 0.91939  0.47411  0.24284  Biso   1.000  H
  H71      1.0000 0.91942  0.47411  0.24284  Biso   1.000  H
  C134     1.0000 0.04509  0.81198  0.80714  Biso   1.000  C
  C135     1.0000 0.04512  0.81198  0.80714  Biso   1.000  C
  C136     1.0000 0.83662  0.47260  0.02563  Biso   1.000  C
  C137     1.0000 0.10322  0.74572  0.86254  Biso   1.000  C
  H72      1.0000 0.15140  0.70231  0.91331  Biso   1.000  H
  C138     1.0000 0.84087  0.49430  0.14430  Biso   1.000  C
  H73      1.0000 0.85000  0.50829  0.24225  Biso   1.000  H
  H74      1.0000 0.09599  0.70279  0.83942  Biso   1.000  H
  H75      1.0000 0.81239  0.50888  0.14435  Biso   1.000  H
  H76      1.0000 0.81242  0.50888  0.14435  Biso   1.000  H
  C139     1.0000 0.16338  0.47260  0.47442  Biso   1.000  C
  C140     1.0000 0.14018  0.47297  0.41449  Biso   1.000  C
  C141     1.0000 0.18411  0.47351  0.52189  Biso   1.000  C
  C142     1.0000 0.09831  0.45364  0.41312  Biso   1.000  C
  C143     1.0000 0.15913  0.49430  0.35570  Biso   1.000  C
  C144     1.0000 0.09834  0.45364  0.41312  Biso   1.000  C
  C145     1.0000 0.15916  0.49430  0.35570  Biso   1.000  C
  C146     1.0000 0.16341  0.47260  0.47442  Biso   1.000  C
  C147     1.0000 0.20944  0.47724  0.57803  Biso   1.000  C
  C148     1.0000 0.07523  0.45445  0.35477  Biso   1.000  C
  H77      1.0000 0.08499  0.43939  0.45282  Biso   1.000  H
  H78      1.0000 0.08502  0.43939  0.45282  Biso   1.000  H
  H79      1.0000 0.18761  0.50888  0.35570  Biso   1.000  H
  C149     1.0000 0.13680  0.49441  0.29770  Biso   1.000  C
  C150     1.0000 0.13683  0.49441  0.29770  Biso   1.000  C
  C151     1.0000 0.23279  0.48458  0.62521  Biso   1.000  C
  C152     1.0000 0.03261  0.43399  0.35477  Biso   1.000  C
  C153     1.0000 0.09556  0.47432  0.29750  Biso   1.000  C
  C154     1.0000 0.09559  0.47432  0.29750  Biso   1.000  C
  H80      1.0000 0.15000  0.50829  0.25780  Biso   1.000  H
  C155     1.0000 0.26090  0.49571  0.67824  Biso   1.000  C
  C156     1.0000 0.99675  0.41331  0.35629  Biso   1.000  C
  H81      1.0000 0.08061  0.47411  0.25721  Biso   1.000  H
  C157     1.0000 0.25278  0.46563  0.73950  Biso   1.000  C
  C158     1.0000 0.29668  0.53642  0.66983  Biso   1.000  C
  C159     1.0000 0.95482  0.38393  0.36161  Biso   1.000  C
  C160     1.0000 0.95485  0.38393  0.36161  Biso   1.000  C
  C161     1.0000 0.28014  0.47654  0.79253  Biso   1.000  C
  H82      1.0000 0.22829  0.43723  0.74560  Biso   1.000  H
  H83      1.0000 0.22832  0.43723  0.74560  Biso   1.000  H
  H84      1.0000 0.30240  0.55781  0.62831  Biso   1.000  H
  C162     1.0000 0.32447  0.54630  0.72213  Biso   1.000  C
  C163     1.0000 0.94306  0.32772  0.32215  Biso   1.000  C
  C164     1.0000 0.92758  0.41012  0.40702  Biso   1.000  C
  C165     1.0000 0.94309  0.32772  0.32215  Biso   1.000  C
  C166     1.0000 0.26954  0.44430  0.85442  Biso   1.000  C
  C167     1.0000 0.31572  0.51660  0.78313  Biso   1.000  C
  C168     1.0000 0.31575  0.51660  0.78313  Biso   1.000  C
  H85      1.0000 0.34939  0.57341  0.71573  Biso   1.000  H
  C169     1.0000 0.90488  0.29489  0.33051  Biso   1.000  C
  H86      1.0000 0.96151  0.31119  0.28869  Biso   1.000  H
  C170     1.0000 0.88881  0.37691  0.41499  Biso   1.000  C
  H87      1.0000 0.93490  0.45073  0.43319  Biso   1.000  H
  C171     1.0000 0.25671  0.41239  0.90106  Biso   1.000  C
  H88      1.0000 0.33451  0.52411  0.81871  Biso   1.000  H
  C172     1.0000 0.87658  0.31632  0.37942  Biso   1.000  C
  H89      1.0000 0.89741  0.25628  0.30213  Biso   1.000  H
  H90      1.0000 0.86989  0.39662  0.44623  Biso   1.000  H
  C173     1.0000 0.23686  0.37497  0.95380  Biso   1.000  C
  C174     1.0000 0.83584  0.27480  0.38866  Biso   1.000  C
  C175     1.0000 0.19834  0.34262  0.94224  Biso   1.000  C
  C176     1.0000 0.25337  0.37027  0.01687  Biso   1.000  C
  C177     1.0000 0.84406  0.19677  0.41415  Biso   1.000  C
  C178     1.0000 0.80814  0.30947  0.44298  Biso   1.000  C
  C179     1.0000 0.81342  0.27496  0.32161  Biso   1.000  C
  C180     1.0000 0.84409  0.19677  0.41415  Biso   1.000  C
  C181     1.0000 0.17629  0.31038  0.99272  Biso   1.000  C
  H91      1.0000 0.18699  0.34262  0.89905  Biso   1.000  H
  H92      1.0000 0.18702  0.34262  0.89905  Biso   1.000  H
  C182     1.0000 0.23095  0.33787  0.06711  Biso   1.000  C
  H93      1.0000 0.28029  0.38949  0.02563  Biso   1.000  H
  C183     1.0000 0.23098  0.33787  0.06711  Biso   1.000  C
  H94      1.0000 0.28032  0.38949  0.02563  Biso   1.000  H
  C184     1.0000 0.81058  0.15260  0.42960  Biso   1.000  C
  C185     1.0000 0.88315  0.17199  0.43142  Biso   1.000  C
  C186     1.0000 0.81061  0.15260  0.42960  Biso   1.000  C
  C187     1.0000 0.76905  0.33787  0.43294  Biso   1.000  C
  C188     1.0000 0.82371  0.31038  0.50733  Biso   1.000  C
  C189     1.0000 0.80416  0.34030  0.29170  Biso   1.000  C
  C190     1.0000 0.80479  0.21302  0.28569  Biso   1.000  C
  C191     1.0000 0.80420  0.34030  0.29170  Biso   1.000  C
  H95      1.0000 0.15009  0.28841  0.98362  Biso   1.000  H
  H96      1.0000 0.15012  0.28841  0.98362  Biso   1.000  H
  C192     1.0000 0.19186  0.30947  0.05707  Biso   1.000  C
  H97      1.0000 0.24299  0.33522  0.10971  Biso   1.000  H
  H98      1.0000 0.24302  0.33522  0.10971  Biso   1.000  H
  H99      1.0000 0.78309  0.16853  0.41932  Biso   1.000  H
  C193     1.0000 0.81570  0.08710  0.45912  Biso   1.000  C
  H100     1.0000 0.90701  0.20120  0.42310  Biso   1.000  H
  C194     1.0000 0.88809  0.10530  0.46069  Biso   1.000  C
  H101     1.0000 0.75701  0.33522  0.39029  Biso   1.000  H
  C195     1.0000 0.74663  0.37027  0.48317  Biso   1.000  C
  C196     1.0000 0.80166  0.34262  0.55781  Biso   1.000  C
  H102     1.0000 0.84991  0.28841  0.51643  Biso   1.000  H
  H103     1.0000 0.81120  0.38350  0.31423  Biso   1.000  H
  C197     1.0000 0.78512  0.34581  0.23039  Biso   1.000  C
  H104     1.0000 0.81061  0.16702  0.30419  Biso   1.000  H
  C198     1.0000 0.78787  0.21751  0.22370  Biso   1.000  C
  C199     1.0000 0.16416  0.27480  0.11138  Biso   1.000  C
  C200     1.0000 0.16419  0.27480  0.11138  Biso   1.000  C
  H105     1.0000 0.79181  0.05870  0.46891  Biso   1.000  H
  C201     1.0000 0.85413  0.06140  0.47471  Biso   1.000  C
  H106     1.0000 0.91539  0.08910  0.47151  Biso   1.000  H
  H107     1.0000 0.91542  0.08910  0.47151  Biso   1.000  H
  C202     1.0000 0.76314  0.37497  0.54625  Biso   1.000  C
  H108     1.0000 0.71971  0.38949  0.47442  Biso   1.000  H
  H109     1.0000 0.81301  0.34262  0.60100  Biso   1.000  H
  H110     1.0000 0.77781  0.39160  0.21268  Biso   1.000  H
  C203     1.0000 0.77721  0.28311  0.19601  Biso   1.000  C
  H111     1.0000 0.78340  0.17452  0.19920  Biso   1.000  H
  C204     1.0000 0.15594  0.19677  0.08590  Biso   1.000  C
  C205     1.0000 0.12342  0.31632  0.12058  Biso   1.000  C
  C206     1.0000 0.18658  0.27496  0.17844  Biso   1.000  C
  C207     1.0000 0.86023  0.99228  0.50659  Biso   1.000  C
  C208     1.0000 0.74329  0.41239  0.59899  Biso   1.000  C
  C209     1.0000 0.74332  0.41239  0.59899  Biso   1.000  C
  O4       1.0000 0.75942  0.27982  0.13520  Biso   1.000  O
  C210     1.0000 0.18942  0.15260  0.07040  Biso   1.000  C
  C211     1.0000 0.11685  0.17199  0.06863  Biso   1.000  C
  C212     1.0000 0.09512  0.29489  0.16954  Biso   1.000  C
  C213     1.0000 0.11119  0.37691  0.08501  Biso   1.000  C
  C214     1.0000 0.09515  0.29489  0.16954  Biso   1.000  C
  C215     1.0000 0.19584  0.34030  0.20835  Biso   1.000  C
  C216     1.0000 0.19521  0.21302  0.21426  Biso   1.000  C
  C217     1.0000 0.19524  0.21302  0.21426  Biso   1.000  C
  C218     1.0000 0.86595  0.93612  0.53419  Biso   1.000  C
  C219     1.0000 0.73046  0.44430  0.64563  Biso   1.000  C
  C220     1.0000 0.74769  0.34462  0.10322  Biso   1.000  C
  H112     1.0000 0.21691  0.16853  0.08073  Biso   1.000  H
  C221     1.0000 0.18430  0.08710  0.04093  Biso   1.000  C
  H113     1.0000 0.09299  0.20120  0.07695  Biso   1.000  H
  C222     1.0000 0.11191  0.10530  0.03931  Biso   1.000  C
  H114     1.0000 0.10259  0.25628  0.19792  Biso   1.000  H
  C223     1.0000 0.05694  0.32772  0.17790  Biso   1.000  C
  H115     1.0000 0.13011  0.39662  0.05382  Biso   1.000  H
  C224     1.0000 0.07242  0.41012  0.09298  Biso   1.000  C
  H116     1.0000 0.18880  0.38350  0.18582  Biso   1.000  H
  C225     1.0000 0.21488  0.34581  0.26961  Biso   1.000  C
  H117     1.0000 0.18939  0.16702  0.19581  Biso   1.000  H
  C226     1.0000 0.21213  0.21751  0.27635  Biso   1.000  C
  C227     1.0000 0.87564  0.87089  0.56902  Biso   1.000  C
  C228     1.0000 0.71986  0.47654  0.70752  Biso   1.000  C
  H118     1.0000 0.72809  0.37140  0.13111  Biso   1.000  H
  H119     1.0000 0.73431  0.33323  0.06110  Biso   1.000  H
  H120     1.0000 0.77258  0.37410  0.09530  Biso   1.000  H
  H121     1.0000 0.72812  0.37140  0.13111  Biso   1.000  H
  H122     1.0000 0.77261  0.37410  0.09530  Biso   1.000  H
  H123     1.0000 0.20819  0.05870  0.03114  Biso   1.000  H
  C229     1.0000 0.14587  0.06140  0.02534  Biso   1.000  C
  H124     1.0000 0.20822  0.05870  0.03114  Biso   1.000  H
  H125     1.0000 0.08461  0.08910  0.02853  Biso   1.000  H
  C230     1.0000 0.04518  0.38393  0.13839  Biso   1.000  C
  H126     1.0000 0.03849  0.31119  0.21131  Biso   1.000  H
  H127     1.0000 0.06510  0.45073  0.06681  Biso   1.000  H
  H128     1.0000 0.22219  0.39160  0.28732  Biso   1.000  H
  C231     1.0000 0.22279  0.28311  0.30404  Biso   1.000  C
  C232     1.0000 0.22282  0.28311  0.30404  Biso   1.000  C
  H129     1.0000 0.21660  0.17452  0.30080  Biso   1.000  H
  C233     1.0000 0.90804  0.87208  0.61261  Biso   1.000  C
  C234     1.0000 0.85332  0.80782  0.56012  Biso   1.000  C
  C235     1.0000 0.90807  0.87208  0.61261  Biso   1.000  C
  C236     1.0000 0.85335  0.80782  0.56012  Biso   1.000  C
  C237     1.0000 0.74722  0.46563  0.76055  Biso   1.000  C
  C238     1.0000 0.68428  0.51660  0.71691  Biso   1.000  C
  C239     1.0000 0.74726  0.46563  0.76055  Biso   1.000  C
  C240     1.0000 0.13977  0.99228  0.99341  Biso   1.000  C
  C241     1.0000 0.00325  0.41331  0.14371  Biso   1.000  C
  O5       1.0000 0.24058  0.27982  0.36485  Biso   1.000  O
  O6       1.0000 0.24061  0.27982  0.36485  Biso   1.000  O
  C242     1.0000 0.91967  0.80971  0.64814  Biso   1.000  C
  H130     1.0000 0.92311  0.91571  0.61921  Biso   1.000  H
  C243     1.0000 0.86401  0.74540  0.59382  Biso   1.000  C
  H131     1.0000 0.83040  0.80712  0.53040  Biso   1.000  H
  C244     1.0000 0.73910  0.49571  0.82180  Biso   1.000  C
  H132     1.0000 0.77171  0.43723  0.75440  Biso   1.000  H
  C245     1.0000 0.73913  0.49571  0.82180  Biso   1.000  C
  H133     1.0000 0.66549  0.52411  0.68129  Biso   1.000  H
  C246     1.0000 0.67553  0.54630  0.77792  Biso   1.000  C
  C247     1.0000 0.13405  0.93612  0.96581  Biso   1.000  C
  C248     1.0000 0.96739  0.43399  0.14528  Biso   1.000  C
  C249     1.0000 0.96742  0.43399  0.14528  Biso   1.000  C
  C250     1.0000 0.25231  0.34462  0.39683  Biso   1.000  C
  C251     1.0000 0.89678  0.74572  0.63751  Biso   1.000  C
  C252     1.0000 0.95491  0.81198  0.69291  Biso   1.000  C
  H134     1.0000 0.84860  0.70231  0.58674  Biso   1.000  H
  C253     1.0000 0.76721  0.48458  0.87484  Biso   1.000  C
  C254     1.0000 0.70332  0.53642  0.83022  Biso   1.000  C
  C255     1.0000 0.70336  0.53642  0.83022  Biso   1.000  C
  H135     1.0000 0.65061  0.57341  0.78432  Biso   1.000  H
  C256     1.0000 0.12436  0.87089  0.93102  Biso   1.000  C
  C257     1.0000 0.92477  0.45445  0.14528  Biso   1.000  C
  C258     1.0000 0.92480  0.45445  0.14528  Biso   1.000  C
  H136     1.0000 0.27191  0.37140  0.36889  Biso   1.000  H
  H137     1.0000 0.26569  0.33323  0.43895  Biso   1.000  H
  H138     1.0000 0.22742  0.37410  0.40475  Biso   1.000  H
  H139     1.0000 0.26572  0.33323  0.43895  Biso   1.000  H
  H140     1.0000 0.90401  0.70279  0.66063  Biso   1.000  H
  C259     1.0000 0.98330  0.81489  0.72961  Biso   1.000  C
  C260     1.0000 0.79056  0.47724  0.92202  Biso   1.000  C
  H141     1.0000 0.69760  0.55781  0.87174  Biso   1.000  H
  C261     1.0000 0.09196  0.87208  0.88743  Biso   1.000  C
  C262     1.0000 0.14668  0.80782  0.93993  Biso   1.000  C
  C263     1.0000 0.90169  0.45364  0.08693  Biso   1.000  C
  C264     1.0000 0.90444  0.47432  0.20255  Biso   1.000  C
  C265     1.0000 0.01670  0.81489  0.77044  Biso   1.000  C
  C266     1.0000 0.81589  0.47351  0.97811  Biso   1.000  C
  C267     1.0000 0.08033  0.80971  0.85191  Biso   1.000  C
  C268     1.0000 0.08036  0.80971  0.85191  Biso   1.000  C
  H142     1.0000 0.07689  0.91571  0.88084  Biso   1.000  H
  H143     1.0000 0.07692  0.91571  0.88084  Biso   1.000  H
  C269     1.0000 0.13599  0.74540  0.90623  Biso   1.000  C
  H144     1.0000 0.16960  0.80712  0.96964  Biso   1.000  H
  C270     1.0000 0.85982  0.47297  0.08556  Biso   1.000  C
  H145     1.0000 0.91501  0.43939  0.04723  Biso   1.000  H
  C271     1.0000 0.86320  0.49441  0.20235  Biso   1.000  C
  H146     1.0000 0.91939  0.47411  0.24284  Biso   1.000  H
  H147     1.0000 0.91942  0.47411  0.24284  Biso   1.000  H
  C272     1.0000 0.04509  0.81198  0.80714  Biso   1.000  C
  C273     1.0000 0.04512  0.81198  0.80714  Biso   1.000  C
  C274     1.0000 0.83662  0.47260  0.02563  Biso   1.000  C
  C275     1.0000 0.10322  0.74572  0.86254  Biso   1.000  C
  H148     1.0000 0.15140  0.70231  0.91331  Biso   1.000  H
  C276     1.0000 0.84087  0.49430  0.14430  Biso   1.000  C
  H149     1.0000 0.85000  0.50829  0.24225  Biso   1.000  H
  H150     1.0000 0.09599  0.70279  0.83942  Biso   1.000  H
  H151     1.0000 0.81239  0.50888  0.14435  Biso   1.000  H
  H152     1.0000 0.81242  0.50888  0.14435  Biso   1.000  H
  C277     1.0000 0.11119  0.62309  0.58501  Biso   1.000  C
  C278     1.0000 0.12342  0.68368  0.62058  Biso   1.000  C
  H153     1.0000 0.13011  0.60343  0.55382  Biso   1.000  H
  C279     1.0000 0.07242  0.58993  0.59303  Biso   1.000  C
  C280     1.0000 0.16416  0.72520  0.61134  Biso   1.000  C
  C281     1.0000 0.16419  0.72520  0.61134  Biso   1.000  C
  C282     1.0000 0.09512  0.70511  0.66954  Biso   1.000  C
  C283     1.0000 0.09515  0.70511  0.66954  Biso   1.000  C
  C284     1.0000 0.04518  0.61612  0.63839  Biso   1.000  C
  H154     1.0000 0.06510  0.54933  0.56681  Biso   1.000  H
  C285     1.0000 0.19186  0.69059  0.55707  Biso   1.000  C
  C286     1.0000 0.15594  0.80328  0.58585  Biso   1.000  C
  C287     1.0000 0.18658  0.72504  0.67844  Biso   1.000  C
  H155     1.0000 0.10259  0.74372  0.69792  Biso   1.000  H
  C288     1.0000 0.05694  0.67234  0.67785  Biso   1.000  C
  C289     1.0000 0.00325  0.58669  0.64371  Biso   1.000  C
  C290     1.0000 0.17629  0.68962  0.49272  Biso   1.000  C
  C291     1.0000 0.23095  0.66218  0.56711  Biso   1.000  C
  C292     1.0000 0.23098  0.66218  0.56711  Biso   1.000  C
  C293     1.0000 0.18942  0.84740  0.57040  Biso   1.000  C
  C294     1.0000 0.11685  0.82801  0.56863  Biso   1.000  C
  C295     1.0000 0.19584  0.65975  0.70830  Biso   1.000  C
  C296     1.0000 0.19521  0.78703  0.71431  Biso   1.000  C
  C297     1.0000 0.19524  0.78703  0.71431  Biso   1.000  C
  H156     1.0000 0.03849  0.68881  0.71131  Biso   1.000  H
  C298     1.0000 0.96739  0.56601  0.64528  Biso   1.000  C
  C299     1.0000 0.96742  0.56601  0.64528  Biso   1.000  C
  C300     1.0000 0.19834  0.65743  0.44224  Biso   1.000  C
  H157     1.0000 0.15009  0.71159  0.48362  Biso   1.000  H
  H158     1.0000 0.15012  0.71159  0.48362  Biso   1.000  H
  C301     1.0000 0.25337  0.62973  0.51683  Biso   1.000  C
  H159     1.0000 0.24299  0.66483  0.60971  Biso   1.000  H
  H160     1.0000 0.24302  0.66483  0.60971  Biso   1.000  H
  H161     1.0000 0.21691  0.83152  0.58073  Biso   1.000  H
  C302     1.0000 0.18430  0.91290  0.54093  Biso   1.000  C
  H162     1.0000 0.09299  0.79880  0.57690  Biso   1.000  H
  C303     1.0000 0.11191  0.89470  0.53931  Biso   1.000  C
  H163     1.0000 0.18880  0.61650  0.68582  Biso   1.000  H
  C304     1.0000 0.21488  0.65419  0.76961  Biso   1.000  C
  H164     1.0000 0.18939  0.83304  0.69581  Biso   1.000  H
  C305     1.0000 0.21213  0.78249  0.77630  Biso   1.000  C
  C306     1.0000 0.92477  0.54555  0.64523  Biso   1.000  C
  C307     1.0000 0.92480  0.54555  0.64523  Biso   1.000  C
  C308     1.0000 0.23686  0.62503  0.45380  Biso   1.000  C
  H165     1.0000 0.18699  0.65743  0.39900  Biso   1.000  H
  H166     1.0000 0.18702  0.65743  0.39900  Biso   1.000  H
  H167     1.0000 0.28029  0.61051  0.52563  Biso   1.000  H
  H168     1.0000 0.28032  0.61051  0.52563  Biso   1.000  H
  H169     1.0000 0.20819  0.94130  0.53109  Biso   1.000  H
  C309     1.0000 0.14587  0.93860  0.52534  Biso   1.000  C
  H170     1.0000 0.20822  0.94130  0.53109  Biso   1.000  H
  H171     1.0000 0.08461  0.91090  0.52853  Biso   1.000  H
  H172     1.0000 0.22219  0.60840  0.78732  Biso   1.000  H
  C310     1.0000 0.22279  0.71689  0.80404  Biso   1.000  C
  C311     1.0000 0.22282  0.71689  0.80404  Biso   1.000  C
  H173     1.0000 0.21660  0.82553  0.80080  Biso   1.000  H
  C312     1.0000 0.90169  0.54641  0.58693  Biso   1.000  C
  C313     1.0000 0.90444  0.52573  0.70250  Biso   1.000  C
  C314     1.0000 0.25671  0.58761  0.40106  Biso   1.000  C
  C315     1.0000 0.13977  0.00772  0.49341  Biso   1.000  C
  O7       1.0000 0.24058  0.72023  0.86480  Biso   1.000  O
  O8       1.0000 0.24061  0.72023  0.86480  Biso   1.000  O
  H174     1.0000 0.91501  0.56061  0.54723  Biso   1.000  H
  C316     1.0000 0.85982  0.52708  0.58556  Biso   1.000  C
  C317     1.0000 0.86320  0.50559  0.70230  Biso   1.000  C
  H175     1.0000 0.91939  0.52589  0.74284  Biso   1.000  H
  H176     1.0000 0.91942  0.52589  0.74284  Biso   1.000  H
  C318     1.0000 0.26954  0.55570  0.35442  Biso   1.000  C
  C319     1.0000 0.13405  0.06393  0.46581  Biso   1.000  C
  C320     1.0000 0.25231  0.65543  0.89683  Biso   1.000  C
  C321     1.0000 0.84087  0.50570  0.64430  Biso   1.000  C
  C322     1.0000 0.83662  0.52740  0.52563  Biso   1.000  C
  H177     1.0000 0.85000  0.49171  0.74220  Biso   1.000  H
  C323     1.0000 0.28014  0.52346  0.29248  Biso   1.000  C
  C324     1.0000 0.12436  0.12911  0.43102  Biso   1.000  C
  H178     1.0000 0.27191  0.62860  0.86894  Biso   1.000  H
  H179     1.0000 0.26569  0.66683  0.93895  Biso   1.000  H
  H180     1.0000 0.22742  0.62590  0.90470  Biso   1.000  H
  H181     1.0000 0.26572  0.66683  0.93895  Biso   1.000  H
  H182     1.0000 0.81239  0.49112  0.64430  Biso   1.000  H
  H183     1.0000 0.81242  0.49112  0.64430  Biso   1.000  H
  C325     1.0000 0.81589  0.52649  0.47811  Biso   1.000  C
  C326     1.0000 0.31572  0.48340  0.28309  Biso   1.000  C
  C327     1.0000 0.31575  0.48340  0.28309  Biso   1.000  C
  C328     1.0000 0.25278  0.53437  0.23950  Biso   1.000  C
  C329     1.0000 0.09196  0.12792  0.38739  Biso   1.000  C
  C330     1.0000 0.14668  0.19224  0.43993  Biso   1.000  C
  C331     1.0000 0.79056  0.52276  0.42202  Biso   1.000  C
  C332     1.0000 0.32447  0.45370  0.22213  Biso   1.000  C
  H184     1.0000 0.33451  0.47589  0.31871  Biso   1.000  H
  C333     1.0000 0.26090  0.50429  0.17824  Biso   1.000  C
  H185     1.0000 0.22829  0.56283  0.24560  Biso   1.000  H
  H186     1.0000 0.22832  0.56283  0.24560  Biso   1.000  H
  C334     1.0000 0.08033  0.19035  0.35191  Biso   1.000  C
  H187     1.0000 0.07689  0.08429  0.38079  Biso   1.000  H
  C335     1.0000 0.08036  0.19035  0.35191  Biso   1.000  C
  H188     1.0000 0.07692  0.08429  0.38079  Biso   1.000  H
  C336     1.0000 0.13599  0.25460  0.40623  Biso   1.000  C
  H189     1.0000 0.16960  0.19294  0.46960  Biso   1.000  H
  C337     1.0000 0.76721  0.51542  0.37484  Biso   1.000  C
  C338     1.0000 0.29668  0.46363  0.16983  Biso   1.000  C
  H190     1.0000 0.34939  0.42659  0.21568  Biso   1.000  H
  C339     1.0000 0.23279  0.51542  0.12516  Biso   1.000  C
  C340     1.0000 0.10322  0.25433  0.36249  Biso   1.000  C
  C341     1.0000 0.04509  0.18802  0.30709  Biso   1.000  C
  C342     1.0000 0.04512  0.18802  0.30709  Biso   1.000  C
  H191     1.0000 0.15140  0.29769  0.41331  Biso   1.000  H
  C343     1.0000 0.73910  0.50429  0.32180  Biso   1.000  C
  C344     1.0000 0.73913  0.50429  0.32180  Biso   1.000  C
  H192     1.0000 0.30240  0.44219  0.12831  Biso   1.000  H
  C345     1.0000 0.20944  0.52276  0.07798  Biso   1.000  C
  H193     1.0000 0.09599  0.29721  0.33942  Biso   1.000  H
  C346     1.0000 0.01670  0.18511  0.27039  Biso   1.000  C
  C347     1.0000 0.74722  0.53437  0.26050  Biso   1.000  C
  C348     1.0000 0.74726  0.53437  0.26050  Biso   1.000  C
  C349     1.0000 0.70332  0.46363  0.33017  Biso   1.000  C
  C350     1.0000 0.70336  0.46363  0.33017  Biso   1.000  C
  C351     1.0000 0.18411  0.52649  0.02189  Biso   1.000  C
  C352     1.0000 0.98330  0.18511  0.22961  Biso   1.000  C
  C353     1.0000 0.71986  0.52346  0.20752  Biso   1.000  C
  H194     1.0000 0.77171  0.56283  0.25440  Biso   1.000  H
  C354     1.0000 0.67553  0.45370  0.27792  Biso   1.000  C
  H195     1.0000 0.69760  0.44219  0.37169  Biso   1.000  H
  C355     1.0000 0.16338  0.52740  0.97442  Biso   1.000  C
  C356     1.0000 0.16341  0.52740  0.97442  Biso   1.000  C
  C357     1.0000 0.95491  0.18802  0.19291  Biso   1.000  C
  C358     1.0000 0.73046  0.55570  0.14558  Biso   1.000  C
  C359     1.0000 0.68428  0.48340  0.21691  Biso   1.000  C
  H196     1.0000 0.65061  0.42659  0.28432  Biso   1.000  H
  C360     1.0000 0.14018  0.52708  0.91449  Biso   1.000  C
  C361     1.0000 0.91967  0.19035  0.14809  Biso   1.000  C
  C362     1.0000 0.74329  0.58761  0.09899  Biso   1.000  C
  C363     1.0000 0.74332  0.58761  0.09899  Biso   1.000  C
  H197     1.0000 0.66549  0.47589  0.18129  Biso   1.000  H
  C364     1.0000 0.09831  0.54641  0.91317  Biso   1.000  C
  C365     1.0000 0.15913  0.50570  0.85570  Biso   1.000  C
  C366     1.0000 0.09834  0.54641  0.91317  Biso   1.000  C
  C367     1.0000 0.15916  0.50570  0.85570  Biso   1.000  C
  C368     1.0000 0.90804  0.12792  0.11261  Biso   1.000  C
  C369     1.0000 0.90807  0.12792  0.11261  Biso   1.000  C
  C370     1.0000 0.89678  0.25433  0.13751  Biso   1.000  C
  C371     1.0000 0.76314  0.62503  0.04620  Biso   1.000  C
  C372     1.0000 0.07523  0.54555  0.85482  Biso   1.000  C
  H198     1.0000 0.08499  0.56061  0.95282  Biso   1.000  H
  H199     1.0000 0.08502  0.56061  0.95282  Biso   1.000  H
  H200     1.0000 0.18761  0.49112  0.85570  Biso   1.000  H
  C373     1.0000 0.13680  0.50559  0.79775  Biso   1.000  C
  C374     1.0000 0.13683  0.50559  0.79775  Biso   1.000  C
  C375     1.0000 0.87564  0.12911  0.06902  Biso   1.000  C
  H201     1.0000 0.92311  0.08429  0.11921  Biso   1.000  H
  C376     1.0000 0.86401  0.25460  0.09382  Biso   1.000  C
  H202     1.0000 0.90401  0.29721  0.16058  Biso   1.000  H
  C377     1.0000 0.74663  0.62973  0.98322  Biso   1.000  C
  C378     1.0000 0.80166  0.65743  0.05776  Biso   1.000  C
  C379     1.0000 0.09556  0.52573  0.79750  Biso   1.000  C
  C380     1.0000 0.03261  0.56601  0.85482  Biso   1.000  C
  C381     1.0000 0.09559  0.52573  0.79750  Biso   1.000  C
  H203     1.0000 0.15000  0.49171  0.75785  Biso   1.000  H
  C382     1.0000 0.86595  0.06393  0.03419  Biso   1.000  C
  C383     1.0000 0.85332  0.19224  0.06012  Biso   1.000  C
  C384     1.0000 0.85335  0.19224  0.06012  Biso   1.000  C
  H204     1.0000 0.84860  0.29769  0.08669  Biso   1.000  H
  C385     1.0000 0.76905  0.66218  0.93294  Biso   1.000  C
  H205     1.0000 0.71971  0.61051  0.97442  Biso   1.000  H
  C386     1.0000 0.82371  0.68962  0.00728  Biso   1.000  C
  H206     1.0000 0.81301  0.65743  0.10100  Biso   1.000  H
  H207     1.0000 0.08061  0.52589  0.75726  Biso   1.000  H
  C387     1.0000 0.99675  0.58669  0.85629  Biso   1.000  C
  C388     1.0000 0.86023  0.00772  0.00659  Biso   1.000  C
  H208     1.0000 0.83040  0.19294  0.03040  Biso   1.000  H
  C389     1.0000 0.80814  0.69059  0.94298  Biso   1.000  C
  H209     1.0000 0.75701  0.66483  0.89034  Biso   1.000  H
  H210     1.0000 0.84991  0.71159  0.01638  Biso   1.000  H
  C390     1.0000 0.95482  0.61612  0.86166  Biso   1.000  C
  C391     1.0000 0.95485  0.61612  0.86166  Biso   1.000  C
  C392     1.0000 0.85413  0.93860  0.97471  Biso   1.000  C
  C393     1.0000 0.83584  0.72520  0.88871  Biso   1.000  C
  C394     1.0000 0.94306  0.67234  0.82220  Biso   1.000  C
  C395     1.0000 0.92758  0.58993  0.90702  Biso   1.000  C
  C396     1.0000 0.94309  0.67234  0.82220  Biso   1.000  C
  C397     1.0000 0.81570  0.91290  0.95907  Biso   1.000  C
  C398     1.0000 0.88809  0.89470  0.96069  Biso   1.000  C
  C399     1.0000 0.87658  0.68368  0.87942  Biso   1.000  C
  C400     1.0000 0.84406  0.80328  0.91415  Biso   1.000  C
  C401     1.0000 0.81342  0.72504  0.82166  Biso   1.000  C
  C402     1.0000 0.84409  0.80328  0.91415  Biso   1.000  C
  C403     1.0000 0.90488  0.70511  0.83051  Biso   1.000  C
  H211     1.0000 0.96151  0.68881  0.78874  Biso   1.000  H
  C404     1.0000 0.88881  0.62309  0.91503  Biso   1.000  C
  H212     1.0000 0.93490  0.54933  0.93324  Biso   1.000  H
  C405     1.0000 0.81058  0.84740  0.92960  Biso   1.000  C
  C406     1.0000 0.81061  0.84740  0.92960  Biso   1.000  C
  H213     1.0000 0.79181  0.94130  0.96896  Biso   1.000  H
  C407     1.0000 0.88315  0.82801  0.93147  Biso   1.000  C
  H214     1.0000 0.91539  0.91090  0.97151  Biso   1.000  H
  H215     1.0000 0.91542  0.91090  0.97151  Biso   1.000  H
  C408     1.0000 0.80416  0.65975  0.79174  Biso   1.000  C
  C409     1.0000 0.80479  0.78703  0.78574  Biso   1.000  C
  C410     1.0000 0.80420  0.65975  0.79174  Biso   1.000  C
  H216     1.0000 0.89741  0.74372  0.80208  Biso   1.000  H
  H217     1.0000 0.86989  0.60343  0.94618  Biso   1.000  H
  H218     1.0000 0.78309  0.83152  0.91936  Biso   1.000  H
  H219     1.0000 0.90701  0.79880  0.92315  Biso   1.000  H
  H220     1.0000 0.81120  0.61650  0.81423  Biso   1.000  H
  C411     1.0000 0.78512  0.65419  0.73039  Biso   1.000  C
  H221     1.0000 0.81061  0.83304  0.80424  Biso   1.000  H
  C412     1.0000 0.78787  0.78249  0.72375  Biso   1.000  C
  H222     1.0000 0.77781  0.60840  0.71273  Biso   1.000  H
  C413     1.0000 0.77721  0.71689  0.69605  Biso   1.000  C
  H223     1.0000 0.78340  0.82553  0.69925  Biso   1.000  H
  O9       1.0000 0.75942  0.72023  0.63525  Biso   1.000  O
  C414     1.0000 0.74769  0.65543  0.60322  Biso   1.000  C
  H224     1.0000 0.72809  0.62860  0.63116  Biso   1.000  H
  H225     1.0000 0.73431  0.66683  0.56115  Biso   1.000  H
  H226     1.0000 0.77258  0.62590  0.59530  Biso   1.000  H
  H227     1.0000 0.72812  0.62860  0.63116  Biso   1.000  H
  H228     1.0000 0.77261  0.62590  0.59530  Biso   1.000  H
  C415     1.0000 0.11119  0.62309  0.58501  Biso   1.000  C
  C416     1.0000 0.12342  0.68368  0.62058  Biso   1.000  C
  H229     1.0000 0.13011  0.60343  0.55382  Biso   1.000  H
  C417     1.0000 0.07242  0.58993  0.59303  Biso   1.000  C
  C418     1.0000 0.16416  0.72520  0.61134  Biso   1.000  C
  C419     1.0000 0.16419  0.72520  0.61134  Biso   1.000  C
  C420     1.0000 0.09512  0.70511  0.66954  Biso   1.000  C
  C421     1.0000 0.09515  0.70511  0.66954  Biso   1.000  C
  C422     1.0000 0.04518  0.61612  0.63839  Biso   1.000  C
  H230     1.0000 0.06510  0.54933  0.56681  Biso   1.000  H
  C423     1.0000 0.19186  0.69059  0.55707  Biso   1.000  C
  C424     1.0000 0.15594  0.80328  0.58585  Biso   1.000  C
  C425     1.0000 0.18658  0.72504  0.67844  Biso   1.000  C
  H231     1.0000 0.10259  0.74372  0.69792  Biso   1.000  H
  C426     1.0000 0.05694  0.67234  0.67785  Biso   1.000  C
  C427     1.0000 0.00325  0.58669  0.64371  Biso   1.000  C
  C428     1.0000 0.17629  0.68962  0.49272  Biso   1.000  C
  C429     1.0000 0.23095  0.66218  0.56711  Biso   1.000  C
  C430     1.0000 0.23098  0.66218  0.56711  Biso   1.000  C
  C431     1.0000 0.18942  0.84740  0.57040  Biso   1.000  C
  C432     1.0000 0.11685  0.82801  0.56863  Biso   1.000  C
  C433     1.0000 0.19584  0.65975  0.70830  Biso   1.000  C
  C434     1.0000 0.19521  0.78703  0.71431  Biso   1.000  C
  C435     1.0000 0.19524  0.78703  0.71431  Biso   1.000  C
  H232     1.0000 0.03849  0.68881  0.71131  Biso   1.000  H
  C436     1.0000 0.96739  0.56601  0.64528  Biso   1.000  C
  C437     1.0000 0.96742  0.56601  0.64528  Biso   1.000  C
  C438     1.0000 0.19834  0.65743  0.44224  Biso   1.000  C
  H233     1.0000 0.15009  0.71159  0.48362  Biso   1.000  H
  H234     1.0000 0.15012  0.71159  0.48362  Biso   1.000  H
  C439     1.0000 0.25337  0.62973  0.51683  Biso   1.000  C
  H235     1.0000 0.24299  0.66483  0.60971  Biso   1.000  H
  H236     1.0000 0.24302  0.66483  0.60971  Biso   1.000  H
  H237     1.0000 0.21691  0.83152  0.58073  Biso   1.000  H
  C440     1.0000 0.18430  0.91290  0.54093  Biso   1.000  C
  H238     1.0000 0.09299  0.79880  0.57690  Biso   1.000  H
  C441     1.0000 0.11191  0.89470  0.53931  Biso   1.000  C
  H239     1.0000 0.18880  0.61650  0.68582  Biso   1.000  H
  C442     1.0000 0.21488  0.65419  0.76961  Biso   1.000  C
  H240     1.0000 0.18939  0.83304  0.69581  Biso   1.000  H
  C443     1.0000 0.21213  0.78249  0.77630  Biso   1.000  C
  C444     1.0000 0.92477  0.54555  0.64523  Biso   1.000  C
  C445     1.0000 0.92480  0.54555  0.64523  Biso   1.000  C
  C446     1.0000 0.23686  0.62503  0.45380  Biso   1.000  C
  H241     1.0000 0.18699  0.65743  0.39900  Biso   1.000  H
  H242     1.0000 0.18702  0.65743  0.39900  Biso   1.000  H
  H243     1.0000 0.28029  0.61051  0.52563  Biso   1.000  H
  H244     1.0000 0.28032  0.61051  0.52563  Biso   1.000  H
  C447     1.0000 0.14587  0.93860  0.52534  Biso   1.000  C
  H245     1.0000 0.20819  0.94130  0.53109  Biso   1.000  H
  H246     1.0000 0.20822  0.94130  0.53109  Biso   1.000  H
  H247     1.0000 0.08461  0.91090  0.52853  Biso   1.000  H
  H248     1.0000 0.22219  0.60840  0.78732  Biso   1.000  H
  C448     1.0000 0.22279  0.71689  0.80404  Biso   1.000  C
  C449     1.0000 0.22282  0.71689  0.80404  Biso   1.000  C
  H249     1.0000 0.21660  0.82553  0.80080  Biso   1.000  H
  C450     1.0000 0.90169  0.54641  0.58693  Biso   1.000  C
  C451     1.0000 0.90444  0.52573  0.70250  Biso   1.000  C
  C452     1.0000 0.25671  0.58761  0.40106  Biso   1.000  C
  C453     1.0000 0.13977  0.00772  0.49341  Biso   1.000  C
  O10      1.0000 0.24058  0.72023  0.86480  Biso   1.000  O
  O11      1.0000 0.24061  0.72023  0.86480  Biso   1.000  O
  H250     1.0000 0.91501  0.56061  0.54723  Biso   1.000  H
  C454     1.0000 0.85982  0.52708  0.58556  Biso   1.000  C
  C455     1.0000 0.86320  0.50559  0.70230  Biso   1.000  C
  H251     1.0000 0.91939  0.52589  0.74284  Biso   1.000  H
  H252     1.0000 0.91942  0.52589  0.74284  Biso   1.000  H
  C456     1.0000 0.26954  0.55570  0.35442  Biso   1.000  C
  C457     1.0000 0.13405  0.06393  0.46581  Biso   1.000  C
  C458     1.0000 0.25231  0.65543  0.89683  Biso   1.000  C
  C459     1.0000 0.84087  0.50570  0.64430  Biso   1.000  C
  C460     1.0000 0.83662  0.52740  0.52563  Biso   1.000  C
  H253     1.0000 0.85000  0.49171  0.74220  Biso   1.000  H
  C461     1.0000 0.28014  0.52346  0.29248  Biso   1.000  C
  C462     1.0000 0.12436  0.12911  0.43102  Biso   1.000  C
  H254     1.0000 0.27191  0.62860  0.86894  Biso   1.000  H
  H255     1.0000 0.22742  0.62590  0.90470  Biso   1.000  H
  H256     1.0000 0.26569  0.66683  0.93895  Biso   1.000  H
  H257     1.0000 0.26572  0.66683  0.93895  Biso   1.000  H
  H258     1.0000 0.81239  0.49112  0.64430  Biso   1.000  H
  H259     1.0000 0.81242  0.49112  0.64430  Biso   1.000  H
  C463     1.0000 0.81589  0.52649  0.47811  Biso   1.000  C
  C464     1.0000 0.31572  0.48340  0.28309  Biso   1.000  C
  C465     1.0000 0.31575  0.48340  0.28309  Biso   1.000  C
  C466     1.0000 0.25278  0.53437  0.23950  Biso   1.000  C
  C467     1.0000 0.09196  0.12792  0.38739  Biso   1.000  C
  C468     1.0000 0.14668  0.19224  0.43993  Biso   1.000  C
  C469     1.0000 0.79056  0.52276  0.42202  Biso   1.000  C
  C470     1.0000 0.32447  0.45370  0.22213  Biso   1.000  C
  H260     1.0000 0.33451  0.47589  0.31871  Biso   1.000  H
  C471     1.0000 0.26090  0.50429  0.17824  Biso   1.000  C
  H261     1.0000 0.22829  0.56283  0.24560  Biso   1.000  H
  H262     1.0000 0.22832  0.56283  0.24560  Biso   1.000  H
  C472     1.0000 0.08033  0.19035  0.35191  Biso   1.000  C
  H263     1.0000 0.07689  0.08429  0.38079  Biso   1.000  H
  C473     1.0000 0.08036  0.19035  0.35191  Biso   1.000  C
  H264     1.0000 0.07692  0.08429  0.38079  Biso   1.000  H
  C474     1.0000 0.13599  0.25460  0.40623  Biso   1.000  C
  H265     1.0000 0.16960  0.19294  0.46960  Biso   1.000  H
  C475     1.0000 0.76721  0.51542  0.37484  Biso   1.000  C
  C476     1.0000 0.29668  0.46363  0.16983  Biso   1.000  C
  H266     1.0000 0.34939  0.42659  0.21568  Biso   1.000  H
  C477     1.0000 0.23279  0.51542  0.12516  Biso   1.000  C
  C478     1.0000 0.10322  0.25433  0.36249  Biso   1.000  C
  C479     1.0000 0.04509  0.18802  0.30709  Biso   1.000  C
  C480     1.0000 0.04512  0.18802  0.30709  Biso   1.000  C
  H267     1.0000 0.15140  0.29769  0.41331  Biso   1.000  H
  C481     1.0000 0.73910  0.50429  0.32180  Biso   1.000  C
  C482     1.0000 0.73913  0.50429  0.32180  Biso   1.000  C
  H268     1.0000 0.30240  0.44219  0.12831  Biso   1.000  H
  C483     1.0000 0.20944  0.52276  0.07798  Biso   1.000  C
  H269     1.0000 0.09599  0.29721  0.33942  Biso   1.000  H
  C484     1.0000 0.01670  0.18511  0.27039  Biso   1.000  C
  C485     1.0000 0.74722  0.53437  0.26050  Biso   1.000  C
  C486     1.0000 0.74726  0.53437  0.26050  Biso   1.000  C
  C487     1.0000 0.70332  0.46363  0.33017  Biso   1.000  C
  C488     1.0000 0.70336  0.46363  0.33017  Biso   1.000  C
  C489     1.0000 0.18411  0.52649  0.02189  Biso   1.000  C
  C490     1.0000 0.98330  0.18511  0.22961  Biso   1.000  C
  C491     1.0000 0.71986  0.52346  0.20752  Biso   1.000  C
  H270     1.0000 0.77171  0.56283  0.25440  Biso   1.000  H
  C492     1.0000 0.67553  0.45370  0.27792  Biso   1.000  C
  H271     1.0000 0.69760  0.44219  0.37169  Biso   1.000  H
  C493     1.0000 0.16338  0.52740  0.97442  Biso   1.000  C
  C494     1.0000 0.16341  0.52740  0.97442  Biso   1.000  C
  C495     1.0000 0.95491  0.18802  0.19291  Biso   1.000  C
  C496     1.0000 0.73046  0.55570  0.14558  Biso   1.000  C
  C497     1.0000 0.68428  0.48340  0.21691  Biso   1.000  C
  H272     1.0000 0.65061  0.42659  0.28432  Biso   1.000  H
  C498     1.0000 0.14018  0.52708  0.91449  Biso   1.000  C
  C499     1.0000 0.91967  0.19035  0.14809  Biso   1.000  C
  C500     1.0000 0.74329  0.58761  0.09899  Biso   1.000  C
  C501     1.0000 0.74332  0.58761  0.09899  Biso   1.000  C
  H273     1.0000 0.66549  0.47589  0.18129  Biso   1.000  H
  C502     1.0000 0.09831  0.54641  0.91317  Biso   1.000  C
  C503     1.0000 0.15913  0.50570  0.85570  Biso   1.000  C
  C504     1.0000 0.09834  0.54641  0.91317  Biso   1.000  C
  C505     1.0000 0.15916  0.50570  0.85570  Biso   1.000  C
  C506     1.0000 0.90804  0.12792  0.11261  Biso   1.000  C
  C507     1.0000 0.90807  0.12792  0.11261  Biso   1.000  C
  C508     1.0000 0.89678  0.25433  0.13751  Biso   1.000  C
  C509     1.0000 0.76314  0.62503  0.04620  Biso   1.000  C
  C510     1.0000 0.07523  0.54555  0.85482  Biso   1.000  C
  H274     1.0000 0.08499  0.56061  0.95282  Biso   1.000  H
  H275     1.0000 0.08502  0.56061  0.95282  Biso   1.000  H
  H276     1.0000 0.18761  0.49112  0.85570  Biso   1.000  H
  C511     1.0000 0.13680  0.50559  0.79775  Biso   1.000  C
  C512     1.0000 0.13683  0.50559  0.79775  Biso   1.000  C
  C513     1.0000 0.87564  0.12911  0.06902  Biso   1.000  C
  H277     1.0000 0.92311  0.08429  0.11921  Biso   1.000  H
  C514     1.0000 0.86401  0.25460  0.09382  Biso   1.000  C
  H278     1.0000 0.90401  0.29721  0.16058  Biso   1.000  H
  C515     1.0000 0.74663  0.62973  0.98322  Biso   1.000  C
  C516     1.0000 0.80166  0.65743  0.05776  Biso   1.000  C
  C517     1.0000 0.09556  0.52573  0.79750  Biso   1.000  C
  C518     1.0000 0.03261  0.56601  0.85482  Biso   1.000  C
  C519     1.0000 0.09559  0.52573  0.79750  Biso   1.000  C
  H279     1.0000 0.15000  0.49171  0.75785  Biso   1.000  H
  C520     1.0000 0.86595  0.06393  0.03419  Biso   1.000  C
  C521     1.0000 0.85332  0.19224  0.06012  Biso   1.000  C
  C522     1.0000 0.85335  0.19224  0.06012  Biso   1.000  C
  H280     1.0000 0.84860  0.29769  0.08669  Biso   1.000  H
  C523     1.0000 0.76905  0.66218  0.93294  Biso   1.000  C
  H281     1.0000 0.71971  0.61051  0.97442  Biso   1.000  H
  C524     1.0000 0.82371  0.68962  0.00728  Biso   1.000  C
  H282     1.0000 0.81301  0.65743  0.10100  Biso   1.000  H
  H283     1.0000 0.08061  0.52589  0.75726  Biso   1.000  H
  C525     1.0000 0.99675  0.58669  0.85629  Biso   1.000  C
  C526     1.0000 0.86023  0.00772  0.00659  Biso   1.000  C
  H284     1.0000 0.83040  0.19294  0.03040  Biso   1.000  H
  C527     1.0000 0.80814  0.69059  0.94298  Biso   1.000  C
  H285     1.0000 0.75701  0.66483  0.89034  Biso   1.000  H
  H286     1.0000 0.84991  0.71159  0.01638  Biso   1.000  H
  C528     1.0000 0.95482  0.61612  0.86166  Biso   1.000  C
  C529     1.0000 0.95485  0.61612  0.86166  Biso   1.000  C
  C530     1.0000 0.85413  0.93860  0.97471  Biso   1.000  C
  C531     1.0000 0.83584  0.72520  0.88871  Biso   1.000  C
  C532     1.0000 0.94306  0.67234  0.82220  Biso   1.000  C
  C533     1.0000 0.92758  0.58993  0.90702  Biso   1.000  C
  C534     1.0000 0.94309  0.67234  0.82220  Biso   1.000  C
  C535     1.0000 0.81570  0.91290  0.95907  Biso   1.000  C
  C536     1.0000 0.88809  0.89470  0.96069  Biso   1.000  C
  C537     1.0000 0.87658  0.68368  0.87942  Biso   1.000  C
  C538     1.0000 0.84406  0.80328  0.91415  Biso   1.000  C
  C539     1.0000 0.81342  0.72504  0.82166  Biso   1.000  C
  C540     1.0000 0.84409  0.80328  0.91415  Biso   1.000  C
  C541     1.0000 0.90488  0.70511  0.83051  Biso   1.000  C
  H287     1.0000 0.96151  0.68881  0.78874  Biso   1.000  H
  C542     1.0000 0.88881  0.62309  0.91503  Biso   1.000  C
  H288     1.0000 0.93490  0.54933  0.93324  Biso   1.000  H
  C543     1.0000 0.81058  0.84740  0.92960  Biso   1.000  C
  C544     1.0000 0.81061  0.84740  0.92960  Biso   1.000  C
  H289     1.0000 0.79181  0.94130  0.96896  Biso   1.000  H
  C545     1.0000 0.88315  0.82801  0.93147  Biso   1.000  C
  H290     1.0000 0.91539  0.91090  0.97151  Biso   1.000  H
  H291     1.0000 0.91542  0.91090  0.97151  Biso   1.000  H
  C546     1.0000 0.80416  0.65975  0.79174  Biso   1.000  C
  C547     1.0000 0.80479  0.78703  0.78574  Biso   1.000  C
  C548     1.0000 0.80420  0.65975  0.79174  Biso   1.000  C
  H292     1.0000 0.89741  0.74372  0.80208  Biso   1.000  H
  H293     1.0000 0.86989  0.60343  0.94618  Biso   1.000  H
  H294     1.0000 0.78309  0.83152  0.91936  Biso   1.000  H
  H295     1.0000 0.90701  0.79880  0.92315  Biso   1.000  H
  H296     1.0000 0.81120  0.61650  0.81423  Biso   1.000  H
  C549     1.0000 0.78512  0.65419  0.73039  Biso   1.000  C
  H297     1.0000 0.81061  0.83304  0.80424  Biso   1.000  H
  C550     1.0000 0.78787  0.78249  0.72375  Biso   1.000  C
  H298     1.0000 0.77781  0.60840  0.71273  Biso   1.000  H
  C551     1.0000 0.77721  0.71689  0.69605  Biso   1.000  C
  H299     1.0000 0.78340  0.82553  0.69925  Biso   1.000  H
  O12      1.0000 0.75942  0.72023  0.63525  Biso   1.000  O
  C552     1.0000 0.74769  0.65543  0.60322  Biso   1.000  C
  H300     1.0000 0.72809  0.62860  0.63116  Biso   1.000  H
  H301     1.0000 0.73431  0.66683  0.56115  Biso   1.000  H
  H302     1.0000 0.77258  0.62590  0.59530  Biso   1.000  H
  H303     1.0000 0.72812  0.62860  0.63116  Biso   1.000  H
  H304     1.0000 0.77261  0.62590  0.59530  Biso   1.000  H
  C553     1.0000 0.31572  0.41293  0.54093  Biso   1.000  C
  C554     1.0000 0.31059  0.34743  0.57040  Biso   1.000  C
  H305     1.0000 0.29180  0.44133  0.53109  Biso   1.000  H
  C555     1.0000 0.35415  0.43863  0.52534  Biso   1.000  C
  C556     1.0000 0.34408  0.30326  0.58585  Biso   1.000  C
  H306     1.0000 0.28311  0.33150  0.58073  Biso   1.000  H
  C557     1.0000 0.38811  0.39473  0.53931  Biso   1.000  C
  C558     1.0000 0.36025  0.50769  0.49341  Biso   1.000  C
  C559     1.0000 0.33582  0.22523  0.61134  Biso   1.000  C
  C560     1.0000 0.38317  0.32799  0.56863  Biso   1.000  C
  H307     1.0000 0.41540  0.41093  0.52853  Biso   1.000  H
  C561     1.0000 0.36597  0.56391  0.46581  Biso   1.000  C
  C562     1.0000 0.30812  0.19056  0.55707  Biso   1.000  C
  C563     1.0000 0.37657  0.18365  0.62058  Biso   1.000  C
  C564     1.0000 0.31344  0.22507  0.67844  Biso   1.000  C
  H308     1.0000 0.40699  0.29883  0.57690  Biso   1.000  H
  C565     1.0000 0.37566  0.62908  0.43102  Biso   1.000  C
  C566     1.0000 0.32372  0.18959  0.49272  Biso   1.000  C
  C567     1.0000 0.26903  0.16216  0.56711  Biso   1.000  C
  C568     1.0000 0.40487  0.20509  0.66954  Biso   1.000  C
  C569     1.0000 0.38882  0.12312  0.58501  Biso   1.000  C
  C570     1.0000 0.30418  0.15973  0.70830  Biso   1.000  C
  C571     1.0000 0.30477  0.28700  0.71431  Biso   1.000  C
  C572     1.0000 0.40805  0.62790  0.38739  Biso   1.000  C
  C573     1.0000 0.35333  0.69221  0.43993  Biso   1.000  C
  C574     1.0000 0.30165  0.15741  0.44224  Biso   1.000  C
  H309     1.0000 0.34990  0.21162  0.48362  Biso   1.000  H
  C575     1.0000 0.24665  0.12970  0.51683  Biso   1.000  C
  H310     1.0000 0.25700  0.16480  0.60971  Biso   1.000  H
  H311     1.0000 0.39739  0.24370  0.69792  Biso   1.000  H
  C576     1.0000 0.44308  0.17231  0.67785  Biso   1.000  C
  H312     1.0000 0.36991  0.10341  0.55382  Biso   1.000  H
  C577     1.0000 0.42760  0.08991  0.59303  Biso   1.000  C
  H313     1.0000 0.31122  0.11647  0.68582  Biso   1.000  H
  C578     1.0000 0.28514  0.15422  0.76961  Biso   1.000  C
  H314     1.0000 0.31059  0.33301  0.69581  Biso   1.000  H
  C579     1.0000 0.28786  0.28252  0.77630  Biso   1.000  C
  C580     1.0000 0.41966  0.69032  0.35191  Biso   1.000  C
  H315     1.0000 0.42309  0.58432  0.38079  Biso   1.000  H
  C581     1.0000 0.36400  0.75463  0.40623  Biso   1.000  C
  H316     1.0000 0.33041  0.69291  0.46960  Biso   1.000  H
  C582     1.0000 0.26316  0.12501  0.45380  Biso   1.000  C
  H317     1.0000 0.31300  0.15741  0.39900  Biso   1.000  H
  H318     1.0000 0.21969  0.11048  0.52563  Biso   1.000  H
  C583     1.0000 0.45483  0.11610  0.63839  Biso   1.000  C
  H319     1.0000 0.46149  0.18878  0.71131  Biso   1.000  H
  H320     1.0000 0.43491  0.04930  0.56681  Biso   1.000  H
  H321     1.0000 0.27779  0.10838  0.78732  Biso   1.000  H
  C584     1.0000 0.27720  0.21691  0.80404  Biso   1.000  C
  H322     1.0000 0.28339  0.32550  0.80080  Biso   1.000  H
  C585     1.0000 0.39680  0.75431  0.36249  Biso   1.000  C
  C586     1.0000 0.45490  0.68800  0.30709  Biso   1.000  C
  H323     1.0000 0.34861  0.79772  0.41331  Biso   1.000  H
  C587     1.0000 0.24330  0.08759  0.40106  Biso   1.000  C
  C588     1.0000 0.49676  0.08672  0.64371  Biso   1.000  C
  O13      1.0000 0.25940  0.22021  0.86480  Biso   1.000  O
  H324     1.0000 0.40399  0.79724  0.33942  Biso   1.000  H
  C589     1.0000 0.48332  0.68513  0.27039  Biso   1.000  C
  C590     1.0000 0.23045  0.05573  0.35442  Biso   1.000  C
  C591     1.0000 0.53260  0.06599  0.64528  Biso   1.000  C
  C592     1.0000 0.24771  0.15541  0.89683  Biso   1.000  C
  C593     1.0000 0.51671  0.68513  0.22961  Biso   1.000  C
  C594     1.0000 0.21985  0.02344  0.29248  Biso   1.000  C
  C595     1.0000 0.57522  0.04557  0.64523  Biso   1.000  C
  H325     1.0000 0.22810  0.12862  0.86894  Biso   1.000  H
  H326     1.0000 0.23430  0.16680  0.93895  Biso   1.000  H
  H327     1.0000 0.27260  0.12592  0.90470  Biso   1.000  H
  C596     1.0000 0.54510  0.68800  0.19291  Biso   1.000  C
  C597     1.0000 0.24724  0.03440  0.23950  Biso   1.000  C
  C598     1.0000 0.18427  0.98342  0.28309  Biso   1.000  C
  C599     1.0000 0.59832  0.04638  0.58693  Biso   1.000  C
  C600     1.0000 0.59557  0.02570  0.70250  Biso   1.000  C
  C601     1.0000 0.58034  0.69032  0.14809  Biso   1.000  C
  C602     1.0000 0.23911  0.00432  0.17824  Biso   1.000  C
  H328     1.0000 0.27169  0.06280  0.24560  Biso   1.000  H
  H329     1.0000 0.16550  0.97592  0.31871  Biso   1.000  H
  C603     1.0000 0.17554  0.95372  0.22213  Biso   1.000  C
  H330     1.0000 0.58500  0.06059  0.54723  Biso   1.000  H
  C604     1.0000 0.64019  0.02705  0.58556  Biso   1.000  C
  C605     1.0000 0.63682  0.00562  0.70230  Biso   1.000  C
  H331     1.0000 0.58059  0.02592  0.74284  Biso   1.000  H
  C606     1.0000 0.60323  0.75431  0.13751  Biso   1.000  C
  C607     1.0000 0.59195  0.62790  0.11261  Biso   1.000  C
  C608     1.0000 0.26722  0.01539  0.12516  Biso   1.000  C
  C609     1.0000 0.20334  0.96360  0.16983  Biso   1.000  C
  H332     1.0000 0.15059  0.92662  0.21568  Biso   1.000  H
  C610     1.0000 0.65914  0.00572  0.64430  Biso   1.000  C
  C611     1.0000 0.66339  0.02738  0.52563  Biso   1.000  C
  H333     1.0000 0.65001  0.99168  0.74220  Biso   1.000  H
  H334     1.0000 0.59601  0.79724  0.16058  Biso   1.000  H
  C612     1.0000 0.63600  0.75463  0.09382  Biso   1.000  C
  C613     1.0000 0.62434  0.62908  0.06902  Biso   1.000  C
  H335     1.0000 0.57691  0.58432  0.11921  Biso   1.000  H
  C614     1.0000 0.29058  0.02279  0.07798  Biso   1.000  C
  H336     1.0000 0.19759  0.94222  0.12831  Biso   1.000  H
  H337     1.0000 0.68760  0.99109  0.64430  Biso   1.000  H
  C615     1.0000 0.68409  0.02646  0.47811  Biso   1.000  C
  C616     1.0000 0.64667  0.69221  0.06012  Biso   1.000  C
  H338     1.0000 0.65142  0.79772  0.08669  Biso   1.000  H
  C617     1.0000 0.63403  0.56391  0.03419  Biso   1.000  C
  C618     1.0000 0.31591  0.02646  0.02189  Biso   1.000  C
  C619     1.0000 0.70942  0.02279  0.42202  Biso   1.000  C
  H339     1.0000 0.66962  0.69291  0.03040  Biso   1.000  H
  C620     1.0000 0.63979  0.50769  0.00659  Biso   1.000  C
  C621     1.0000 0.33661  0.02738  0.97442  Biso   1.000  C
  C622     1.0000 0.73281  0.01539  0.37484  Biso   1.000  C
  C623     1.0000 0.64588  0.43863  0.97471  Biso   1.000  C
  C624     1.0000 0.35981  0.02705  0.91449  Biso   1.000  C
  C625     1.0000 0.76089  0.00432  0.32180  Biso   1.000  C
  C626     1.0000 0.68428  0.41293  0.95907  Biso   1.000  C
  C627     1.0000 0.61193  0.39473  0.96069  Biso   1.000  C
  C628     1.0000 0.40168  0.04638  0.91317  Biso   1.000  C
  C629     1.0000 0.34086  0.00572  0.85570  Biso   1.000  C
  C630     1.0000 0.75276  0.03440  0.26050  Biso   1.000  C
  C631     1.0000 0.79666  0.96360  0.33017  Biso   1.000  C
  C632     1.0000 0.68941  0.34743  0.92960  Biso   1.000  C
  H340     1.0000 0.70820  0.44133  0.96896  Biso   1.000  H
  C633     1.0000 0.61687  0.32799  0.93147  Biso   1.000  C
  H341     1.0000 0.58460  0.41093  0.97151  Biso   1.000  H
  C634     1.0000 0.42478  0.04557  0.85482  Biso   1.000  C
  H342     1.0000 0.41500  0.06059  0.95282  Biso   1.000  H
  H343     1.0000 0.31240  0.99109  0.85570  Biso   1.000  H
  C635     1.0000 0.36318  0.00562  0.79775  Biso   1.000  C
  C636     1.0000 0.78015  0.02344  0.20752  Biso   1.000  C
  H344     1.0000 0.72831  0.06280  0.25440  Biso   1.000  H
  H345     1.0000 0.80241  0.94222  0.37169  Biso   1.000  H
  C637     1.0000 0.82449  0.95372  0.27792  Biso   1.000  C
  C638     1.0000 0.65592  0.30326  0.91415  Biso   1.000  C
  H346     1.0000 0.71689  0.33150  0.91936  Biso   1.000  H
  H347     1.0000 0.59301  0.29883  0.92315  Biso   1.000  H
  C639     1.0000 0.40443  0.02570  0.79750  Biso   1.000  C
  C640     1.0000 0.46740  0.06599  0.85482  Biso   1.000  C
  H348     1.0000 0.34999  0.99168  0.75785  Biso   1.000  H
  C641     1.0000 0.76955  0.05573  0.14558  Biso   1.000  C
  C642     1.0000 0.81573  0.98342  0.21691  Biso   1.000  C
  H349     1.0000 0.84941  0.92662  0.28432  Biso   1.000  H
  C643     1.0000 0.66418  0.22523  0.88871  Biso   1.000  C
  H350     1.0000 0.41941  0.02592  0.75726  Biso   1.000  H
  C644     1.0000 0.50327  0.08672  0.85629  Biso   1.000  C
  C645     1.0000 0.75670  0.08759  0.09899  Biso   1.000  C
  H351     1.0000 0.83450  0.97592  0.18129  Biso   1.000  H
  C646     1.0000 0.62343  0.18365  0.87942  Biso   1.000  C
  C647     1.0000 0.69188  0.19056  0.94298  Biso   1.000  C
  C648     1.0000 0.68656  0.22507  0.82166  Biso   1.000  C
  C649     1.0000 0.54517  0.11610  0.86166  Biso   1.000  C
  C650     1.0000 0.73688  0.12501  0.04620  Biso   1.000  C
  C651     1.0000 0.59513  0.20509  0.83051  Biso   1.000  C
  C652     1.0000 0.61121  0.12312  0.91503  Biso   1.000  C
  C653     1.0000 0.67631  0.18959  0.00728  Biso   1.000  C
  C654     1.0000 0.73097  0.16216  0.93294  Biso   1.000  C
  C655     1.0000 0.69582  0.15973  0.79174  Biso   1.000  C
  C656     1.0000 0.69523  0.28700  0.78574  Biso   1.000  C
  C657     1.0000 0.55692  0.17231  0.82220  Biso   1.000  C
  C658     1.0000 0.57243  0.08991  0.90702  Biso   1.000  C
  C659     1.0000 0.69835  0.15741  0.05776  Biso   1.000  C
  C660     1.0000 0.75335  0.12970  0.98322  Biso   1.000  C
  H352     1.0000 0.60261  0.24370  0.80208  Biso   1.000  H
  H353     1.0000 0.63009  0.10341  0.94618  Biso   1.000  H
  H354     1.0000 0.65010  0.21162  0.01638  Biso   1.000  H
  H355     1.0000 0.74300  0.16480  0.89034  Biso   1.000  H
  H356     1.0000 0.68882  0.11647  0.81423  Biso   1.000  H
  C661     1.0000 0.71486  0.15422  0.73039  Biso   1.000  C
  H357     1.0000 0.68941  0.33301  0.80424  Biso   1.000  H
  C662     1.0000 0.71214  0.28252  0.72375  Biso   1.000  C
  H358     1.0000 0.53851  0.18878  0.78874  Biso   1.000  H
  H359     1.0000 0.56512  0.04930  0.93324  Biso   1.000  H
  H360     1.0000 0.68700  0.15741  0.10100  Biso   1.000  H
  H361     1.0000 0.78031  0.11048  0.97442  Biso   1.000  H
  H362     1.0000 0.72221  0.10838  0.71273  Biso   1.000  H
  C663     1.0000 0.72280  0.21691  0.69605  Biso   1.000  C
  H363     1.0000 0.71661  0.32550  0.69925  Biso   1.000  H
  O14      1.0000 0.74060  0.22021  0.63525  Biso   1.000  O
  C664     1.0000 0.75229  0.15541  0.60322  Biso   1.000  C
  H364     1.0000 0.77190  0.12862  0.63116  Biso   1.000  H
  H365     1.0000 0.76570  0.16680  0.56115  Biso   1.000  H
  H366     1.0000 0.72740  0.12592  0.59530  Biso   1.000  H
  C665     1.0000 0.29058  0.97727  0.57803  Biso   1.000  C
  C666     1.0000 0.31591  0.97354  0.52189  Biso   1.000  C
  C667     1.0000 0.26722  0.98461  0.62521  Biso   1.000  C
  C668     1.0000 0.33661  0.97262  0.47442  Biso   1.000  C
  C669     1.0000 0.23911  0.99573  0.67824  Biso   1.000  C
  C670     1.0000 0.35981  0.97295  0.41449  Biso   1.000  C
  C671     1.0000 0.24724  0.96566  0.73950  Biso   1.000  C
  C672     1.0000 0.20334  0.03640  0.66983  Biso   1.000  C
  C673     1.0000 0.40168  0.95362  0.41312  Biso   1.000  C
  C674     1.0000 0.34086  0.99433  0.35570  Biso   1.000  C
  C675     1.0000 0.21985  0.97656  0.79253  Biso   1.000  C
  H367     1.0000 0.27169  0.93720  0.74560  Biso   1.000  H
  C676     1.0000 0.17554  0.04633  0.72213  Biso   1.000  C
  H368     1.0000 0.19759  0.05783  0.62831  Biso   1.000  H
  C677     1.0000 0.42478  0.95448  0.35477  Biso   1.000  C
  H369     1.0000 0.41500  0.93941  0.45282  Biso   1.000  H
  C678     1.0000 0.36318  0.99444  0.29770  Biso   1.000  C
  H370     1.0000 0.31240  0.00891  0.35570  Biso   1.000  H
  C679     1.0000 0.23045  0.94433  0.85442  Biso   1.000  C
  C680     1.0000 0.18427  0.01663  0.78313  Biso   1.000  C
  H371     1.0000 0.15059  0.07344  0.71573  Biso   1.000  H
  C681     1.0000 0.46740  0.93401  0.35477  Biso   1.000  C
  C682     1.0000 0.40443  0.97430  0.29750  Biso   1.000  C
  H372     1.0000 0.34999  0.00832  0.25780  Biso   1.000  H
  C683     1.0000 0.24330  0.91241  0.90106  Biso   1.000  C
  H373     1.0000 0.16550  0.02414  0.81871  Biso   1.000  H
  C684     1.0000 0.50327  0.91333  0.35629  Biso   1.000  C
  H374     1.0000 0.41941  0.97413  0.25721  Biso   1.000  H
  C685     1.0000 0.26316  0.87499  0.95380  Biso   1.000  C
  C686     1.0000 0.54517  0.88390  0.36161  Biso   1.000  C
  C687     1.0000 0.30165  0.84259  0.94224  Biso   1.000  C
  C688     1.0000 0.24665  0.87030  0.01687  Biso   1.000  C
  C689     1.0000 0.55692  0.82769  0.32215  Biso   1.000  C
  C690     1.0000 0.57243  0.91009  0.40702  Biso   1.000  C
  C691     1.0000 0.32372  0.81041  0.99272  Biso   1.000  C
  H375     1.0000 0.31300  0.84259  0.89905  Biso   1.000  H
  C692     1.0000 0.26903  0.83784  0.06711  Biso   1.000  C
  H376     1.0000 0.21969  0.88952  0.02563  Biso   1.000  H
  C693     1.0000 0.59513  0.79491  0.33051  Biso   1.000  C
  H377     1.0000 0.53851  0.81122  0.28869  Biso   1.000  H
  C694     1.0000 0.61121  0.87694  0.41499  Biso   1.000  C
  H378     1.0000 0.56512  0.95070  0.43319  Biso   1.000  H
  C695     1.0000 0.30812  0.80944  0.05707  Biso   1.000  C
  H379     1.0000 0.34990  0.78843  0.98362  Biso   1.000  H
  H380     1.0000 0.25700  0.83520  0.10971  Biso   1.000  H
  C696     1.0000 0.62343  0.81635  0.37942  Biso   1.000  C
  H381     1.0000 0.60261  0.75630  0.30213  Biso   1.000  H
  H382     1.0000 0.63009  0.89659  0.44623  Biso   1.000  H
  C697     1.0000 0.33582  0.77483  0.11138  Biso   1.000  C
  C698     1.0000 0.66418  0.77483  0.38866  Biso   1.000  C
  C699     1.0000 0.34408  0.69674  0.08590  Biso   1.000  C
  C700     1.0000 0.37657  0.81635  0.12058  Biso   1.000  C
  C701     1.0000 0.31344  0.77499  0.17844  Biso   1.000  C
  C702     1.0000 0.65592  0.69674  0.41415  Biso   1.000  C
  C703     1.0000 0.69188  0.80944  0.44298  Biso   1.000  C
  C704     1.0000 0.68656  0.77499  0.32161  Biso   1.000  C
  C705     1.0000 0.31059  0.65263  0.07040  Biso   1.000  C
  C706     1.0000 0.38317  0.67201  0.06863  Biso   1.000  C
  C707     1.0000 0.40487  0.79491  0.16954  Biso   1.000  C
  C708     1.0000 0.38882  0.87694  0.08501  Biso   1.000  C
  C709     1.0000 0.30418  0.84027  0.20835  Biso   1.000  C
  C710     1.0000 0.30477  0.71300  0.21426  Biso   1.000  C
  C711     1.0000 0.68941  0.65263  0.42960  Biso   1.000  C
  C712     1.0000 0.61687  0.67201  0.43142  Biso   1.000  C
  C713     1.0000 0.73097  0.83784  0.43294  Biso   1.000  C
  C714     1.0000 0.67631  0.81041  0.50733  Biso   1.000  C
  C715     1.0000 0.69582  0.84027  0.29170  Biso   1.000  C
  C716     1.0000 0.69523  0.71300  0.28569  Biso   1.000  C
  C717     1.0000 0.31572  0.58713  0.04093  Biso   1.000  C
  H383     1.0000 0.28311  0.66850  0.08073  Biso   1.000  H
  C718     1.0000 0.38811  0.60532  0.03931  Biso   1.000  C
  H384     1.0000 0.40699  0.70123  0.07695  Biso   1.000  H
  H385     1.0000 0.39739  0.75630  0.19792  Biso   1.000  H
  C719     1.0000 0.44308  0.82769  0.17790  Biso   1.000  C
  H386     1.0000 0.36991  0.89659  0.05382  Biso   1.000  H
  C720     1.0000 0.42760  0.91009  0.09298  Biso   1.000  C
  H387     1.0000 0.31122  0.88353  0.18582  Biso   1.000  H
  C721     1.0000 0.28514  0.84583  0.26961  Biso   1.000  C
  H388     1.0000 0.31059  0.66699  0.19581  Biso   1.000  H
  C722     1.0000 0.28786  0.71753  0.27635  Biso   1.000  C
  C723     1.0000 0.68428  0.58713  0.45912  Biso   1.000  C
  H389     1.0000 0.71689  0.66850  0.41932  Biso   1.000  H
  C724     1.0000 0.61193  0.60532  0.46069  Biso   1.000  C
  H390     1.0000 0.59301  0.70123  0.42310  Biso   1.000  H
  H391     1.0000 0.74300  0.83520  0.39029  Biso   1.000  H
  C725     1.0000 0.75335  0.87030  0.48317  Biso   1.000  C
  C726     1.0000 0.69835  0.84259  0.55781  Biso   1.000  C
  H392     1.0000 0.65010  0.78843  0.51643  Biso   1.000  H
  H393     1.0000 0.68882  0.88353  0.31423  Biso   1.000  H
  C727     1.0000 0.71486  0.84583  0.23039  Biso   1.000  C
  H394     1.0000 0.68941  0.66699  0.30419  Biso   1.000  H
  C728     1.0000 0.71214  0.71753  0.22370  Biso   1.000  C
  C729     1.0000 0.35415  0.56142  0.02534  Biso   1.000  C
  H395     1.0000 0.29180  0.55872  0.03114  Biso   1.000  H
  H396     1.0000 0.41540  0.58912  0.02853  Biso   1.000  H
  C730     1.0000 0.45483  0.88390  0.13839  Biso   1.000  C
  H397     1.0000 0.46149  0.81122  0.21131  Biso   1.000  H
  H398     1.0000 0.43491  0.95070  0.06681  Biso   1.000  H
  H399     1.0000 0.27779  0.89162  0.28732  Biso   1.000  H
  C731     1.0000 0.27720  0.78309  0.30404  Biso   1.000  C
  H400     1.0000 0.28339  0.67450  0.30080  Biso   1.000  H
  C732     1.0000 0.64588  0.56142  0.47471  Biso   1.000  C
  H401     1.0000 0.70820  0.55872  0.46891  Biso   1.000  H
  H402     1.0000 0.58460  0.58912  0.47151  Biso   1.000  H
  C733     1.0000 0.73688  0.87499  0.54625  Biso   1.000  C
  H403     1.0000 0.78031  0.88952  0.47442  Biso   1.000  H
  H404     1.0000 0.68700  0.84259  0.60100  Biso   1.000  H
  H405     1.0000 0.72221  0.89162  0.21268  Biso   1.000  H
  C734     1.0000 0.72280  0.78309  0.19601  Biso   1.000  C
  H406     1.0000 0.71661  0.67450  0.19920  Biso   1.000  H
  C735     1.0000 0.36025  0.49231  0.99341  Biso   1.000  C
  C736     1.0000 0.49676  0.91333  0.14371  Biso   1.000  C
  O15      1.0000 0.25940  0.77979  0.36485  Biso   1.000  O
  C737     1.0000 0.63979  0.49231  0.50659  Biso   1.000  C
  C738     1.0000 0.75670  0.91241  0.59899  Biso   1.000  C
  O16      1.0000 0.74060  0.77979  0.13520  Biso   1.000  O
  C739     1.0000 0.36597  0.43609  0.96581  Biso   1.000  C
  C740     1.0000 0.53260  0.93401  0.14528  Biso   1.000  C
  C741     1.0000 0.24771  0.84459  0.39683  Biso   1.000  C
  C742     1.0000 0.63403  0.43609  0.53419  Biso   1.000  C
  C743     1.0000 0.76955  0.94433  0.64563  Biso   1.000  C
  C744     1.0000 0.75229  0.84459  0.10322  Biso   1.000  C
  C745     1.0000 0.37566  0.37092  0.93102  Biso   1.000  C
  C746     1.0000 0.57522  0.95448  0.14528  Biso   1.000  C
  H407     1.0000 0.22810  0.87143  0.36889  Biso   1.000  H
  H408     1.0000 0.23430  0.83320  0.43895  Biso   1.000  H
  H409     1.0000 0.27260  0.87413  0.40475  Biso   1.000  H
  C747     1.0000 0.62434  0.37092  0.56902  Biso   1.000  C
  C748     1.0000 0.78015  0.97656  0.70752  Biso   1.000  C
  H410     1.0000 0.77190  0.87143  0.13111  Biso   1.000  H
  H411     1.0000 0.76570  0.83320  0.06110  Biso   1.000  H
  H412     1.0000 0.72740  0.87413  0.09530  Biso   1.000  H
  C749     1.0000 0.40805  0.37210  0.88743  Biso   1.000  C
  C750     1.0000 0.35333  0.30779  0.93993  Biso   1.000  C
  C751     1.0000 0.59832  0.95362  0.08693  Biso   1.000  C
  C752     1.0000 0.59557  0.97430  0.20255  Biso   1.000  C
  C753     1.0000 0.59195  0.37210  0.61261  Biso   1.000  C
  C754     1.0000 0.64667  0.30779  0.56012  Biso   1.000  C
  C755     1.0000 0.75276  0.96566  0.76055  Biso   1.000  C
  C756     1.0000 0.81573  0.01663  0.71691  Biso   1.000  C
  C757     1.0000 0.41966  0.30968  0.85191  Biso   1.000  C
  H413     1.0000 0.42309  0.41568  0.88084  Biso   1.000  H
  C758     1.0000 0.36400  0.24542  0.90623  Biso   1.000  C
  H414     1.0000 0.33041  0.30709  0.96964  Biso   1.000  H
  H415     1.0000 0.58500  0.93941  0.04723  Biso   1.000  H
  C759     1.0000 0.64019  0.97295  0.08556  Biso   1.000  C
  C760     1.0000 0.63682  0.99444  0.20235  Biso   1.000  C
  H416     1.0000 0.58059  0.97413  0.24284  Biso   1.000  H
  C761     1.0000 0.58034  0.30968  0.64814  Biso   1.000  C
  H417     1.0000 0.57691  0.41568  0.61921  Biso   1.000  H
  C762     1.0000 0.63600  0.24542  0.59382  Biso   1.000  C
  H418     1.0000 0.66962  0.30709  0.53040  Biso   1.000  H
  C763     1.0000 0.76089  0.99573  0.82180  Biso   1.000  C
  H419     1.0000 0.72831  0.93720  0.75440  Biso   1.000  H
  H420     1.0000 0.83450  0.02414  0.68129  Biso   1.000  H
  C764     1.0000 0.82449  0.04633  0.77792  Biso   1.000  C
  C765     1.0000 0.45490  0.31200  0.80714  Biso   1.000  C
  C766     1.0000 0.39680  0.24569  0.86254  Biso   1.000  C
  H421     1.0000 0.34861  0.20228  0.91331  Biso   1.000  H
  C767     1.0000 0.65914  0.99433  0.14430  Biso   1.000  C
  C768     1.0000 0.66339  0.97262  0.02563  Biso   1.000  C
  H422     1.0000 0.65001  0.00832  0.24225  Biso   1.000  H
  C769     1.0000 0.54510  0.31200  0.69291  Biso   1.000  C
  C770     1.0000 0.60323  0.24569  0.63751  Biso   1.000  C
  H423     1.0000 0.65142  0.20228  0.58674  Biso   1.000  H
  C771     1.0000 0.73281  0.98461  0.87484  Biso   1.000  C
  C772     1.0000 0.79666  0.03640  0.83022  Biso   1.000  C
  H424     1.0000 0.84941  0.07344  0.78432  Biso   1.000  H
  C773     1.0000 0.48332  0.31492  0.77044  Biso   1.000  C
  H425     1.0000 0.40399  0.20282  0.83942  Biso   1.000  H
  H426     1.0000 0.68760  0.00891  0.14435  Biso   1.000  H
  C774     1.0000 0.68409  0.97354  0.97811  Biso   1.000  C
  C775     1.0000 0.51671  0.31492  0.72961  Biso   1.000  C
  H427     1.0000 0.59601  0.20282  0.66063  Biso   1.000  H
  C776     1.0000 0.70942  0.97727  0.92202  Biso   1.000  C
  H428     1.0000 0.80241  0.05783  0.87174  Biso   1.000  H
