data_image0
_cell_length_a       38.788
_cell_length_b       15.967
_cell_length_c       24.742
_cell_angle_alpha    90
_cell_angle_beta     118.42
_cell_angle_gamma    90

_symmetry_space_group_name_H-M    "P 1"
_symmetry_int_tables_number       1

loop_
  _symmetry_equiv_pos_as_xyz
  'x, y, z'

loop_
  _atom_site_label
  _atom_site_occupancy
  _atom_site_fract_x
  _atom_site_fract_y
  _atom_site_fract_z
  _atom_site_thermal_displace_type
  _atom_site_B_iso_or_equiv
  _atom_site_type_symbol
  O1       1.0000 0.59657  0.21833  0.62127  Biso   1.000  O
  C1       1.0000 0.61327  0.18062  0.67196  Biso   1.000  C
  N1       1.0000 0.59686  0.11411  0.68676  Biso   1.000  N
  N2       1.0000 0.64837  0.19878  0.71939  Biso   1.000  N
  C2       1.0000 0.55729  0.08662  0.64949  Biso   1.000  C
  C3       1.0000 0.61957  0.09701  0.75206  Biso   1.000  C
  C4       1.0000 0.65657  0.15169  0.77440  Biso   1.000  C
  C5       1.0000 0.67099  0.27200  0.72058  Biso   1.000  C
  N3       1.0000 0.55359  0.00407  0.62169  Biso   1.000  N
  H1       1.0000 0.54379  0.12733  0.61700  Biso   1.000  H
  H2       1.0000 0.54428  0.08549  0.67458  Biso   1.000  H
  N4       1.0000 0.63499  0.01259  0.76819  Biso   1.000  N
  H3       1.0000 0.60467  0.11229  0.77348  Biso   1.000  H
  N5       1.0000 0.68788  0.09012  0.79397  Biso   1.000  N
  H4       1.0000 0.65997  0.18858  0.80827  Biso   1.000  H
  N6       1.0000 0.70466  0.25509  0.71346  Biso   1.000  N
  H5       1.0000 0.65398  0.30970  0.68809  Biso   1.000  H
  H6       1.0000 0.67938  0.30093  0.75928  Biso   1.000  H
  C6       1.0000 0.54779  0.99662  0.56309  Biso   1.000  C
  C7       1.0000 0.55438  0.92253  0.64958  Biso   1.000  C
  C8       1.0000 0.61197  0.93862  0.76107  Biso   1.000  C
  C9       1.0000 0.67607  0.01121  0.79466  Biso   1.000  C
  C10      1.0000 0.72896  0.11192  0.82297  Biso   1.000  C
  C11      1.0000 0.74147  0.22509  0.76286  Biso   1.000  C
  C12      1.0000 0.70799  0.26931  0.66268  Biso   1.000  C
  O2       1.0000 0.54451  0.05530  0.52936  Biso   1.000  O
  N7       1.0000 0.54707  0.91451  0.54857  Biso   1.000  N
  C13      1.0000 0.54959  0.85871  0.59788  Biso   1.000  C
  N8       1.0000 0.59307  0.90230  0.70087  Biso   1.000  N
  C14      1.0000 0.52257  0.91802  0.66778  Biso   1.000  C
  H7       1.0000 0.62887  0.89660  0.78965  Biso   1.000  H
  H8       1.0000 0.59198  0.95240  0.77270  Biso   1.000  H
  O3       1.0000 0.69648  0.94958  0.81626  Biso   1.000  O
  N9       1.0000 0.74287  0.13810  0.78037  Biso   1.000  N
  H9       1.0000 0.74426  0.06382  0.84595  Biso   1.000  H
  H10      1.0000 0.73377  0.15682  0.85206  Biso   1.000  H
  H11      1.0000 0.75078  0.26179  0.79889  Biso   1.000  H
  C15      1.0000 0.76968  0.22728  0.73488  Biso   1.000  C
  O4       1.0000 0.67987  0.29768  0.61277  Biso   1.000  O
  N10      1.0000 0.74316  0.24782  0.67086  Biso   1.000  N
  C16      1.0000 0.53758  0.88739  0.48717  Biso   1.000  C
  N11      1.0000 0.58657  0.81230  0.62739  Biso   1.000  N
  C17      1.0000 0.51397  0.80172  0.57518  Biso   1.000  C
  C18      1.0000 0.61028  0.83779  0.68579  Biso   1.000  C
  H12      1.0000 0.49788  0.93167  0.63308  Biso   1.000  H
  H13      1.0000 0.52818  0.95710  0.70036  Biso   1.000  H
  H14      1.0000 0.52147  0.86240  0.68147  Biso   1.000  H
  C19      1.0000 0.77316  0.09770  0.77757  Biso   1.000  C
  N12      1.0000 0.78567  0.14461  0.74517  Biso   1.000  N
  H15      1.0000 0.79018  0.26981  0.75459  Biso   1.000  H
  C20      1.0000 0.75737  0.26818  0.62826  Biso   1.000  C
  N13      1.0000 0.57130  0.86378  0.48070  Biso   1.000  N
  H16      1.0000 0.51989  0.83992  0.47610  Biso   1.000  H
  H17      1.0000 0.52388  0.93230  0.45859  Biso   1.000  H
  C21      1.0000 0.59669  0.73971  0.60170  Biso   1.000  C
  H18      1.0000 0.51639  0.76627  0.60818  Biso   1.000  H
  H19      1.0000 0.51239  0.76758  0.54209  Biso   1.000  H
  H20      1.0000 0.49069  0.83510  0.56089  Biso   1.000  H
  O5       1.0000 0.64229  0.80867  0.72049  Biso   1.000  O
  O6       1.0000 0.78507  0.02681  0.79848  Biso   1.000  O
  C22      1.0000 0.82048  0.12488  0.73947  Biso   1.000  C
  N14      1.0000 0.76677  0.19741  0.60179  Biso   1.000  N
  H21      1.0000 0.73766  0.30162  0.59526  Biso   1.000  H
  H22      1.0000 0.78068  0.30262  0.64940  Biso   1.000  H
  C23      1.0000 0.58788  0.78017  0.49618  Biso   1.000  C
  C24      1.0000 0.58258  0.90718  0.44499  Biso   1.000  C
  N15      1.0000 0.61299  0.76558  0.56029  Biso   1.000  N
  H23      1.0000 0.57338  0.70589  0.57867  Biso   1.000  H
  H24      1.0000 0.61578  0.70571  0.63497  Biso   1.000  H
  N16      1.0000 0.81128  0.09820  0.67817  Biso   1.000  N
  H25      1.0000 0.83716  0.17411  0.75027  Biso   1.000  H
  H26      1.0000 0.83508  0.08092  0.76847  Biso   1.000  H
  C25      1.0000 0.80439  0.15632  0.62619  Biso   1.000  C
  C26      1.0000 0.74189  0.17417  0.54260  Biso   1.000  C
  H27      1.0000 0.56758  0.73689  0.47789  Biso   1.000  H
  C27      1.0000 0.61690  0.77829  0.46930  Biso   1.000  C
  O7       1.0000 0.56980  0.97482  0.42040  Biso   1.000  O
  N17      1.0000 0.61219  0.86171  0.44200  Biso   1.000  N
  C28      1.0000 0.65038  0.74961  0.57408  Biso   1.000  C
  C29      1.0000 0.81026  0.01691  0.66277  Biso   1.000  C
  C30      1.0000 0.79958  0.09319  0.57458  Biso   1.000  C
  C31      1.0000 0.83696  0.21958  0.64517  Biso   1.000  C
  N18      1.0000 0.76018  0.11267  0.52660  Biso   1.000  N
  O8       1.0000 0.70998  0.20567  0.50859  Biso   1.000  O
  N19      1.0000 0.65479  0.76702  0.52380  Biso   1.000  N
  H28      1.0000 0.61088  0.73339  0.43920  Biso   1.000  H
  C32      1.0000 0.62807  0.88232  0.40147  Biso   1.000  C
  O9       1.0000 0.67740  0.72550  0.62408  Biso   1.000  O
  N20      1.0000 0.80117  0.01002  0.60206  Biso   1.000  N
  O10      1.0000 0.81684  0.95747  0.69770  Biso   1.000  O
  C33      1.0000 0.83019  0.10039  0.55390  Biso   1.000  C
  H29      1.0000 0.86167  0.19102  0.66148  Biso   1.000  H
  H30      1.0000 0.83688  0.25603  0.67596  Biso   1.000  H
  H31      1.0000 0.83306  0.25208  0.61006  Biso   1.000  H
  C34      1.0000 0.73859  0.07459  0.46548  Biso   1.000  C
  C35      1.0000 0.68918  0.74247  0.51921  Biso   1.000  C
  N21      1.0000 0.66927  0.91088  0.43368  Biso   1.000  N
  H32      1.0000 0.61209  0.92591  0.37348  Biso   1.000  H
  H33      1.0000 0.62630  0.83328  0.37720  Biso   1.000  H
  C36      1.0000 0.80226  0.92973  0.57596  Biso   1.000  C
  H34      1.0000 0.85539  0.08662  0.58740  Biso   1.000  H
  H35      1.0000 0.83058  0.15670  0.54058  Biso   1.000  H
  H36      1.0000 0.82399  0.06250  0.52040  Biso   1.000  H
  N22      1.0000 0.71918  0.99699  0.46617  Biso   1.000  N
  H37      1.0000 0.71908  0.11399  0.43800  Biso   1.000  H
  H38      1.0000 0.75668  0.06351  0.44958  Biso   1.000  H
  N23      1.0000 0.71138  0.81142  0.51420  Biso   1.000  N
  H39      1.0000 0.70608  0.70971  0.55510  Biso   1.000  H
  H40      1.0000 0.68110  0.70677  0.48350  Biso   1.000  H
  C37      1.0000 0.70229  0.85432  0.45657  Biso   1.000  C
  C38      1.0000 0.68000  0.99029  0.43690  Biso   1.000  C
  N24      1.0000 0.76347  0.89278  0.53887  Biso   1.000  N
  H41      1.0000 0.81797  0.89140  0.60919  Biso   1.000  H
  H42      1.0000 0.81498  0.93618  0.55069  Biso   1.000  H
  C39      1.0000 0.73757  0.91658  0.47596  Biso   1.000  C
  C40      1.0000 0.74799  0.83078  0.55937  Biso   1.000  C
  H43      1.0000 0.70038  0.81499  0.42491  Biso   1.000  H
  O11      1.0000 0.65609  0.05098  0.41438  Biso   1.000  O
  H44      1.0000 0.75029  0.90931  0.45018  Biso   1.000  H
  O12      1.0000 0.76523  0.79702  0.60946  Biso   1.000  O
  O13      1.0000 0.40337  0.78167  0.37867  Biso   1.000  O
  C41      1.0000 0.38670  0.81938  0.32798  Biso   1.000  C
  N25      1.0000 0.35158  0.80122  0.28060  Biso   1.000  N
  N26      1.0000 0.40309  0.88589  0.31319  Biso   1.000  N
  C42      1.0000 0.32900  0.72800  0.27941  Biso   1.000  C
  C43      1.0000 0.34339  0.84831  0.22560  Biso   1.000  C
  C44      1.0000 0.38040  0.90299  0.24788  Biso   1.000  C
  C45      1.0000 0.44270  0.91338  0.35050  Biso   1.000  C
  N27      1.0000 0.29529  0.74491  0.28649  Biso   1.000  N
  H45      1.0000 0.34600  0.69030  0.31190  Biso   1.000  H
  H46      1.0000 0.32059  0.69913  0.24067  Biso   1.000  H
  N28      1.0000 0.31209  0.90988  0.20597  Biso   1.000  N
  H47      1.0000 0.33998  0.81142  0.19168  Biso   1.000  H
  N29      1.0000 0.36500  0.98741  0.23180  Biso   1.000  N
  H48      1.0000 0.39531  0.88771  0.22651  Biso   1.000  H
  N30      1.0000 0.44639  0.99593  0.37831  Biso   1.000  N
  H49      1.0000 0.45620  0.87267  0.38299  Biso   1.000  H
  H50      1.0000 0.45570  0.91451  0.32541  Biso   1.000  H
  C46      1.0000 0.29198  0.73069  0.33727  Biso   1.000  C
  C47      1.0000 0.25848  0.77491  0.23708  Biso   1.000  C
  C48      1.0000 0.27098  0.88808  0.17697  Biso   1.000  C
  C49      1.0000 0.32390  0.98879  0.20528  Biso   1.000  C
  C50      1.0000 0.38798  0.06138  0.23888  Biso   1.000  C
  C51      1.0000 0.44558  0.07753  0.35041  Biso   1.000  C
  C52      1.0000 0.45219  0.00338  0.43690  Biso   1.000  C
  O14      1.0000 0.32008  0.70232  0.38718  Biso   1.000  O
  N31      1.0000 0.25678  0.75218  0.32909  Biso   1.000  N
  C53      1.0000 0.23029  0.77272  0.26507  Biso   1.000  C
  N32      1.0000 0.25708  0.86190  0.21958  Biso   1.000  N
  H51      1.0000 0.24920  0.73821  0.20110  Biso   1.000  H
  H52      1.0000 0.25568  0.93618  0.15400  Biso   1.000  H
  H53      1.0000 0.26620  0.84318  0.14788  Biso   1.000  H
  O15      1.0000 0.30350  0.05042  0.18368  Biso   1.000  O
  N33      1.0000 0.40687  0.09770  0.29908  Biso   1.000  N
  H54      1.0000 0.37110  0.10340  0.21029  Biso   1.000  H
  H55      1.0000 0.40800  0.04760  0.22730  Biso   1.000  H
  C54      1.0000 0.45038  0.14129  0.40207  Biso   1.000  C
  C55      1.0000 0.47738  0.08198  0.33217  Biso   1.000  C
  O16      1.0000 0.45543  0.94470  0.47058  Biso   1.000  O
  N34      1.0000 0.45288  0.08549  0.45138  Biso   1.000  N
  C56      1.0000 0.24260  0.73182  0.37169  Biso   1.000  C
  N35      1.0000 0.21430  0.85539  0.25478  Biso   1.000  N
  H56      1.0000 0.20980  0.73019  0.24540  Biso   1.000  H
  C57      1.0000 0.22679  0.90230  0.22238  Biso   1.000  C
  C58      1.0000 0.38968  0.16221  0.31420  Biso   1.000  C
  N36      1.0000 0.41339  0.18770  0.37261  Biso   1.000  N
  C59      1.0000 0.48597  0.19828  0.42477  Biso   1.000  C
  H57      1.0000 0.50210  0.06833  0.36691  Biso   1.000  H
  H58      1.0000 0.47179  0.04290  0.29958  Biso   1.000  H
  H59      1.0000 0.47848  0.13760  0.31847  Biso   1.000  H
  C60      1.0000 0.46239  0.11261  0.51277  Biso   1.000  C
  N37      1.0000 0.23319  0.80259  0.39820  Biso   1.000  N
  H60      1.0000 0.26228  0.69838  0.40468  Biso   1.000  H
  H61      1.0000 0.21928  0.69738  0.35059  Biso   1.000  H
  C61      1.0000 0.17949  0.87512  0.26048  Biso   1.000  C
  O17      1.0000 0.21488  0.97319  0.20152  Biso   1.000  O
  O18      1.0000 0.35769  0.19133  0.27950  Biso   1.000  O
  C62      1.0000 0.40330  0.26029  0.39830  Biso   1.000  C
  H62      1.0000 0.48359  0.23373  0.39177  Biso   1.000  H
  H63      1.0000 0.48760  0.23242  0.45790  Biso   1.000  H
  H64      1.0000 0.50930  0.16490  0.43911  Biso   1.000  H
  N38      1.0000 0.42869  0.13622  0.51930  Biso   1.000  N
  H65      1.0000 0.48007  0.16008  0.52389  Biso   1.000  H
  H66      1.0000 0.47608  0.06770  0.54140  Biso   1.000  H
  C63      1.0000 0.19559  0.84368  0.37380  Biso   1.000  C
  C64      1.0000 0.25810  0.82583  0.45740  Biso   1.000  C
  N39      1.0000 0.18870  0.90180  0.32178  Biso   1.000  N
  H67      1.0000 0.16278  0.82589  0.24968  Biso   1.000  H
  H68      1.0000 0.16489  0.91908  0.23148  Biso   1.000  H
  N40      1.0000 0.38699  0.23442  0.43970  Biso   1.000  N
  H69      1.0000 0.42657  0.29411  0.42127  Biso   1.000  H
  H70      1.0000 0.38419  0.29429  0.36498  Biso   1.000  H
  C65      1.0000 0.41206  0.21983  0.50376  Biso   1.000  C
  C66      1.0000 0.41737  0.09282  0.55496  Biso   1.000  C
  C67      1.0000 0.20037  0.90681  0.42536  Biso   1.000  C
  C68      1.0000 0.16298  0.78042  0.35478  Biso   1.000  C
  O19      1.0000 0.29000  0.79433  0.49140  Biso   1.000  O
  N41      1.0000 0.23977  0.88733  0.47339  Biso   1.000  N
  C69      1.0000 0.18968  0.98309  0.33718  Biso   1.000  C
  C70      1.0000 0.34959  0.25039  0.42587  Biso   1.000  C
  C71      1.0000 0.38309  0.22171  0.53069  Biso   1.000  C
  H71      1.0000 0.43238  0.26311  0.52210  Biso   1.000  H
  N42      1.0000 0.38779  0.13829  0.55799  Biso   1.000  N
  O20      1.0000 0.43018  0.02518  0.57959  Biso   1.000  O
  N43      1.0000 0.19878  0.98998  0.39788  Biso   1.000  N
  C72      1.0000 0.16979  0.89961  0.44609  Biso   1.000  C
  H72      1.0000 0.13829  0.80898  0.33851  Biso   1.000  H
  H73      1.0000 0.16309  0.74403  0.32399  Biso   1.000  H
  H74      1.0000 0.16688  0.74792  0.38989  Biso   1.000  H
  C73      1.0000 0.26138  0.92541  0.53446  Biso   1.000  C
  O21      1.0000 0.18312  0.04253  0.30230  Biso   1.000  O
  N44      1.0000 0.34519  0.23298  0.47619  Biso   1.000  N
  O22      1.0000 0.32255  0.27450  0.37587  Biso   1.000  O
  H75      1.0000 0.38908  0.26661  0.56080  Biso   1.000  H
  C74      1.0000 0.37188  0.11768  0.59848  Biso   1.000  C
  C75      1.0000 0.19768  0.07033  0.42399  Biso   1.000  C
  H76      1.0000 0.14459  0.91338  0.41259  Biso   1.000  H
  H77      1.0000 0.16939  0.84330  0.45937  Biso   1.000  H
  H78      1.0000 0.17599  0.93750  0.47959  Biso   1.000  H
  H79      1.0000 0.28088  0.88601  0.56199  Biso   1.000  H
  H80      1.0000 0.24327  0.93649  0.55036  Biso   1.000  H
  N45      1.0000 0.28077  0.00301  0.53377  Biso   1.000  N
  C76      1.0000 0.31078  0.25753  0.48079  Biso   1.000  C
  N46      1.0000 0.33067  0.08912  0.56626  Biso   1.000  N
  H81      1.0000 0.38788  0.07409  0.62647  Biso   1.000  H
  H82      1.0000 0.37369  0.16672  0.62279  Biso   1.000  H
  N47      1.0000 0.23647  0.10722  0.46107  Biso   1.000  N
  H83      1.0000 0.18199  0.10860  0.39081  Biso   1.000  H
  H84      1.0000 0.18500  0.06382  0.44931  Biso   1.000  H
  C77      1.0000 0.26238  0.08342  0.52399  Biso   1.000  C
  C78      1.0000 0.31999  0.00971  0.56309  Biso   1.000  C
  N48      1.0000 0.28858  0.18858  0.48580  Biso   1.000  N
  H85      1.0000 0.29388  0.29029  0.44490  Biso   1.000  H
  H86      1.0000 0.31889  0.29323  0.51649  Biso   1.000  H
  C79      1.0000 0.29768  0.14574  0.54338  Biso   1.000  C
  C80      1.0000 0.25199  0.16922  0.44058  Biso   1.000  C
  H87      1.0000 0.24968  0.09069  0.54977  Biso   1.000  H
  O23      1.0000 0.34388  0.94902  0.58557  Biso   1.000  O
  H88      1.0000 0.29958  0.18501  0.57509  Biso   1.000  H
  O24      1.0000 0.23474  0.20298  0.39048  Biso   1.000  O
  C81      1.0000 0.67946  0.62491  0.76047  Biso   1.000  C
  N49      1.0000 0.68866  0.59823  0.82178  Biso   1.000  N
  N50      1.0000 0.71426  0.64458  0.75477  Biso   1.000  N
  H89      1.0000 0.66278  0.67408  0.74967  Biso   1.000  H
  H90      1.0000 0.66488  0.58089  0.73147  Biso   1.000  H
  C82      1.0000 0.68968  0.51688  0.83717  Biso   1.000  C
  C83      1.0000 0.69557  0.65629  0.87375  Biso   1.000  C
  C84      1.0000 0.73028  0.72731  0.76507  Biso   1.000  C
  C85      1.0000 0.72678  0.59773  0.72238  Biso   1.000  C
  O25      1.0000 0.68311  0.45751  0.80229  Biso   1.000  O
  N51      1.0000 0.69877  0.50999  0.89788  Biso   1.000  N
  C86      1.0000 0.70036  0.59322  0.92536  Biso   1.000  C
  N52      1.0000 0.73317  0.69738  0.89816  Biso   1.000  N
  C87      1.0000 0.66297  0.71961  0.85477  Biso   1.000  C
  N53      1.0000 0.75678  0.74779  0.82908  Biso   1.000  N
  C88      1.0000 0.75847  0.72512  0.73708  Biso   1.000  C
  H91      1.0000 0.70975  0.76978  0.74535  Biso   1.000  H
  O26      1.0000 0.71486  0.52677  0.70147  Biso   1.000  O
  N54      1.0000 0.75707  0.63813  0.71957  Biso   1.000  N
  C89      1.0000 0.69767  0.42970  0.92398  Biso   1.000  C
  N55      1.0000 0.73977  0.61270  0.97338  Biso   1.000  N
  C90      1.0000 0.66976  0.60043  0.94609  Biso   1.000  C
  C91      1.0000 0.74256  0.76821  0.87168  Biso   1.000  C
  C92      1.0000 0.75805  0.67420  0.95735  Biso   1.000  C
  H92      1.0000 0.63827  0.69099  0.83846  Biso   1.000  H
  H93      1.0000 0.66306  0.75600  0.82398  Biso   1.000  H
  H94      1.0000 0.66688  0.75211  0.88988  Biso   1.000  H
  C93      1.0000 0.79198  0.76927  0.83726  Biso   1.000  C
  N56      1.0000 0.79528  0.75512  0.78648  Biso   1.000  N
  H95      1.0000 0.74917  0.76182  0.70110  Biso   1.000  H
  C94      1.0000 0.77098  0.61189  0.67697  Biso   1.000  C
  N57      1.0000 0.73647  0.39281  0.96107  Biso   1.000  N
  H96      1.0000 0.68197  0.39143  0.89076  Biso   1.000  H
  H97      1.0000 0.68495  0.43621  0.94926  Biso   1.000  H
  C95      1.0000 0.76142  0.57462  0.03451  Biso   1.000  C
  H98      1.0000 0.64456  0.58658  0.91259  Biso   1.000  H
  H99      1.0000 0.66936  0.65673  0.95937  Biso   1.000  H
  H100     1.0000 0.67596  0.56247  0.97959  Biso   1.000  H
  H101     1.0000 0.76227  0.80159  0.90468  Biso   1.000  H
  H102     1.0000 0.71927  0.80259  0.85059  Biso   1.000  H
  O27      1.0000 0.78995  0.70571  0.99135  Biso   1.000  O
  O28      1.0000 0.82007  0.79771  0.88717  Biso   1.000  O
  C96      1.0000 0.82898  0.77203  0.77936  Biso   1.000  C
  N58      1.0000 0.81206  0.59009  0.70597  Biso   1.000  N
  H103     1.0000 0.75567  0.56379  0.65399  Biso   1.000  H
  H104     1.0000 0.76617  0.65679  0.64788  Biso   1.000  H
  C97      1.0000 0.75198  0.33081  0.94057  Biso   1.000  C
  C98      1.0000 0.76244  0.41661  0.02403  Biso   1.000  C
  N59      1.0000 0.78083  0.49703  0.03382  Biso   1.000  N
  H105     1.0000 0.78094  0.61402  0.06203  Biso   1.000  H
  H106     1.0000 0.74332  0.56347  0.05041  Biso   1.000  H
  N60      1.0000 0.85156  0.69882  0.78056  Biso   1.000  N
  H107     1.0000 0.84596  0.80973  0.81185  Biso   1.000  H
  H108     1.0000 0.82058  0.80090  0.74067  Biso   1.000  H
  C99      1.0000 0.84338  0.65172  0.72559  Biso   1.000  C
  C100     1.0000 0.82386  0.51118  0.70528  Biso   1.000  C
  O29      1.0000 0.73471  0.29699  0.89048  Biso   1.000  O
  N61      1.0000 0.78856  0.31139  0.98575  Biso   1.000  N
  H109     1.0000 0.74972  0.40928  0.04981  Biso   1.000  H
  C101     1.0000 0.79774  0.35429  0.04342  Biso   1.000  C
  C102     1.0000 0.82001  0.49032  0.06309  Biso   1.000  C
  C103     1.0000 0.88666  0.68059  0.82798  Biso   1.000  C
  H110     1.0000 0.83997  0.68861  0.69168  Biso   1.000  H
  C104     1.0000 0.88037  0.59698  0.74788  Biso   1.000  C
  O30      1.0000 0.80349  0.44961  0.68368  Biso   1.000  O
  N62      1.0000 0.86499  0.51262  0.73180  Biso   1.000  N
  C105     1.0000 0.81077  0.24250  0.98078  Biso   1.000  C
  N63      1.0000 0.83073  0.41091  0.06631  Biso   1.000  N
  H111     1.0000 0.79963  0.31502  0.07513  Biso   1.000  H
  O31      1.0000 0.84394  0.55101  0.08561  Biso   1.000  O
  O32      1.0000 0.90337  0.71829  0.87867  Biso   1.000  O
  N64      1.0000 0.90308  0.61408  0.81318  Biso   1.000  N
  H112     1.0000 0.89526  0.61233  0.72647  Biso   1.000  H
  C106     1.0000 0.88797  0.43859  0.73887  Biso   1.000  C
  N65      1.0000 0.84516  0.26699  0.97619  Biso   1.000  N
  H113     1.0000 0.79387  0.20968  0.94489  Biso   1.000  H
  H114     1.0000 0.81893  0.20680  0.01649  Biso   1.000  H
  C107     1.0000 0.87194  0.38229  0.09852  Biso   1.000  C
  C108     1.0000 0.94265  0.58658  0.85045  Biso   1.000  C
  N66      1.0000 0.90687  0.40233  0.79908  Biso   1.000  N
  H115     1.0000 0.87107  0.39663  0.71029  Biso   1.000  H
  H116     1.0000 0.90797  0.45243  0.72729  Biso   1.000  H
  C109     1.0000 0.84955  0.24958  0.92587  Biso   1.000  C
  C110     1.0000 0.88313  0.27832  0.03069  Biso   1.000  C
  N67      1.0000 0.88781  0.36168  0.05799  Biso   1.000  N
  H117     1.0000 0.88793  0.42588  0.12651  Biso   1.000  H
  H118     1.0000 0.87372  0.33331  0.12283  Biso   1.000  H
  N68      1.0000 0.94637  0.50410  0.87826  Biso   1.000  N
  H119     1.0000 0.95616  0.62729  0.88299  Biso   1.000  H
  H120     1.0000 0.95566  0.58552  0.82536  Biso   1.000  H
  C111     1.0000 0.94556  0.42250  0.85036  Biso   1.000  C
  C112     1.0000 0.88967  0.33782  0.81419  Biso   1.000  C
  O33      1.0000 0.82254  0.22553  0.87587  Biso   1.000  O
  N69      1.0000 0.88697  0.26561  0.93965  Biso   1.000  N
  C113     1.0000 0.91212  0.28020  0.00381  Biso   1.000  C
  H121     1.0000 0.88912  0.23342  0.06079  Biso   1.000  H
  C114     1.0000 0.91743  0.40721  0.05500  Biso   1.000  C
  C115     1.0000 0.95215  0.49659  0.93685  Biso   1.000  C
  C116     1.0000 0.95035  0.35868  0.90206  Biso   1.000  C
  C117     1.0000 0.97737  0.41799  0.83216  Biso   1.000  C
  N70      1.0000 0.91337  0.31233  0.87256  Biso   1.000  N
  O34      1.0000 0.85767  0.30870  0.77945  Biso   1.000  O
  C118     1.0000 0.90327  0.23968  0.89829  Biso   1.000  C
  N71      1.0000 0.92873  0.36381  0.01929  Biso   1.000  N
  H122     1.0000 0.93242  0.23693  0.02210  Biso   1.000  H
  O35      1.0000 0.93022  0.47479  0.07963  Biso   1.000  O
  N72      1.0000 0.95287  0.41448  0.95137  Biso   1.000  N
  O36      1.0000 0.95543  0.55533  0.97058  Biso   1.000  O
  C119     1.0000 0.98596  0.30168  0.92476  Biso   1.000  C
  H123     1.0000 0.97178  0.45713  0.79958  Biso   1.000  H
  H124     1.0000 0.97847  0.36237  0.81847  Biso   1.000  H
  H125     1.0000 0.00205  0.43170  0.86686  Biso   1.000  H
  H126     1.0000 0.92656  0.20592  0.92127  Biso   1.000  H
  H127     1.0000 0.88418  0.20567  0.86498  Biso   1.000  H
  C120     1.0000 0.96242  0.38742  0.01281  Biso   1.000  C
  H128     1.0000 0.98358  0.26630  0.89177  Biso   1.000  H
  H129     1.0000 0.98755  0.26761  0.95785  Biso   1.000  H
  H130     1.0000 0.00925  0.33513  0.93906  Biso   1.000  H
  H131     1.0000 0.98013  0.33989  0.02394  Biso   1.000  H
  H132     1.0000 0.97613  0.43233  0.04140  Biso   1.000  H
  C121     1.0000 0.32048  0.37509  0.23947  Biso   1.000  C
  N73      1.0000 0.28568  0.35542  0.24517  Biso   1.000  N
  N74      1.0000 0.31130  0.40183  0.17822  Biso   1.000  N
  H133     1.0000 0.33719  0.32592  0.25027  Biso   1.000  H
  H134     1.0000 0.33509  0.41911  0.26847  Biso   1.000  H
  C122     1.0000 0.26969  0.27269  0.23488  Biso   1.000  C
  C123     1.0000 0.27319  0.40233  0.27757  Biso   1.000  C
  C124     1.0000 0.31030  0.48312  0.16277  Biso   1.000  C
  C125     1.0000 0.30440  0.34371  0.12619  Biso   1.000  C
  N75      1.0000 0.24321  0.25221  0.17091  Biso   1.000  N
  C126     1.0000 0.24149  0.27488  0.26291  Biso   1.000  C
  H135     1.0000 0.29019  0.23022  0.25459  Biso   1.000  H
  N76      1.0000 0.24287  0.36187  0.28037  Biso   1.000  N
  O37      1.0000 0.28511  0.47323  0.29848  Biso   1.000  O
  O38      1.0000 0.31688  0.54249  0.19770  Biso   1.000  O
  N77      1.0000 0.30121  0.49001  0.10211  Biso   1.000  N
  N78      1.0000 0.26680  0.30262  0.10179  Biso   1.000  N
  C127     1.0000 0.29958  0.40678  0.07459  Biso   1.000  C
  C128     1.0000 0.33700  0.28039  0.14517  Biso   1.000  C
  C129     1.0000 0.20799  0.23073  0.16268  Biso   1.000  C
  C130     1.0000 0.25740  0.23179  0.12831  Biso   1.000  C
  N79      1.0000 0.20471  0.24488  0.21351  Biso   1.000  N
  H136     1.0000 0.25079  0.23818  0.29889  Biso   1.000  H
  C131     1.0000 0.22899  0.38811  0.32298  Biso   1.000  C
  C132     1.0000 0.30231  0.57030  0.07601  Biso   1.000  C
  C133     1.0000 0.24190  0.32580  0.04260  Biso   1.000  C
  N80      1.0000 0.26019  0.38730  0.02661  Biso   1.000  N
  C134     1.0000 0.33020  0.39957  0.05391  Biso   1.000  C
  H137     1.0000 0.36170  0.30901  0.16149  Biso   1.000  H
  H138     1.0000 0.33690  0.24400  0.17601  Biso   1.000  H
  H139     1.0000 0.33311  0.24789  0.11011  Biso   1.000  H
  O39      1.0000 0.17990  0.20229  0.11277  Biso   1.000  O
  H140     1.0000 0.23771  0.19841  0.09531  Biso   1.000  H
  H141     1.0000 0.28069  0.19741  0.14940  Biso   1.000  H
  C135     1.0000 0.17099  0.22797  0.22059  Biso   1.000  C
  N81      1.0000 0.18789  0.40991  0.29398  Biso   1.000  N
  H142     1.0000 0.24428  0.43621  0.34600  Biso   1.000  H
  H143     1.0000 0.23379  0.34321  0.35211  Biso   1.000  H
  N82      1.0000 0.26350  0.60719  0.03888  Biso   1.000  N
  H144     1.0000 0.31800  0.60863  0.10919  Biso   1.000  H
  H145     1.0000 0.31499  0.56379  0.05069  Biso   1.000  H
  O40      1.0000 0.20999  0.29429  0.00859  Biso   1.000  O
  C136     1.0000 0.23853  0.42538  0.96544  Biso   1.000  C
  H146     1.0000 0.35540  0.41342  0.08741  Biso   1.000  H
  H147     1.0000 0.33059  0.34333  0.04058  Biso   1.000  H
  H148     1.0000 0.32400  0.43753  0.02040  Biso   1.000  H
  N83      1.0000 0.14838  0.30118  0.21939  Biso   1.000  N
  H149     1.0000 0.15399  0.19033  0.18810  Biso   1.000  H
  H150     1.0000 0.17939  0.19910  0.25928  Biso   1.000  H
  C137     1.0000 0.15660  0.34828  0.27440  Biso   1.000  C
  C138     1.0000 0.17610  0.48882  0.29471  Biso   1.000  C
  C139     1.0000 0.24801  0.66919  0.05942  Biso   1.000  C
  C140     1.0000 0.23755  0.58339  0.97597  Biso   1.000  C
  N84      1.0000 0.21913  0.50297  0.96618  Biso   1.000  N
  H151     1.0000 0.21905  0.38598  0.93796  Biso   1.000  H
  H152     1.0000 0.25662  0.43653  0.94954  Biso   1.000  H
  C141     1.0000 0.11330  0.31941  0.17201  Biso   1.000  C
  H153     1.0000 0.15997  0.31139  0.30827  Biso   1.000  H
  C142     1.0000 0.11959  0.40302  0.25211  Biso   1.000  C
  O41      1.0000 0.19650  0.55039  0.31631  Biso   1.000  O
  N85      1.0000 0.13499  0.48738  0.26820  Biso   1.000  N
  O42      1.0000 0.26525  0.70301  0.10951  Biso   1.000  O
  N86      1.0000 0.21141  0.68861  0.01420  Biso   1.000  N
  H154     1.0000 0.25023  0.59072  0.95014  Biso   1.000  H
  C143     1.0000 0.20224  0.64571  0.95657  Biso   1.000  C
  C144     1.0000 0.17994  0.50968  0.93686  Biso   1.000  C
  O43      1.0000 0.09658  0.28171  0.12128  Biso   1.000  O
  N87      1.0000 0.09691  0.38592  0.18681  Biso   1.000  N
  H155     1.0000 0.10468  0.38767  0.27348  Biso   1.000  H
  C145     1.0000 0.11197  0.56141  0.26107  Biso   1.000  C
  C146     1.0000 0.18921  0.75750  0.01921  Biso   1.000  C
  N88      1.0000 0.16924  0.58909  0.93364  Biso   1.000  N
  H156     1.0000 0.20035  0.68498  0.92486  Biso   1.000  H
  O44      1.0000 0.15604  0.44899  0.91434  Biso   1.000  O
  C147     1.0000 0.05729  0.41342  0.14949  Biso   1.000  C
  N89      1.0000 0.09308  0.59773  0.20087  Biso   1.000  N
  H157     1.0000 0.12889  0.60343  0.28970  Biso   1.000  H
  H158     1.0000 0.09199  0.54763  0.27270  Biso   1.000  H
  N90      1.0000 0.15480  0.73301  0.02380  Biso   1.000  N
  H159     1.0000 0.20609  0.79032  0.05510  Biso   1.000  H
  H160     1.0000 0.18104  0.79320  0.98346  Biso   1.000  H
  C148     1.0000 0.12805  0.61771  0.90147  Biso   1.000  C
  N91      1.0000 0.05360  0.49590  0.12169  Biso   1.000  N
  H161     1.0000 0.04380  0.37271  0.11700  Biso   1.000  H
  H162     1.0000 0.04429  0.41448  0.17459  Biso   1.000  H
  C149     1.0000 0.05438  0.57750  0.14959  Biso   1.000  C
  C150     1.0000 0.11029  0.66218  0.18580  Biso   1.000  C
  C151     1.0000 0.15039  0.75042  0.07408  Biso   1.000  C
  C152     1.0000 0.11684  0.72168  0.96926  Biso   1.000  C
  N92      1.0000 0.11214  0.63832  0.94196  Biso   1.000  N
  H163     1.0000 0.11204  0.57412  0.87344  Biso   1.000  H
  H164     1.0000 0.12624  0.66669  0.87716  Biso   1.000  H
  C153     1.0000 0.04780  0.50341  0.06310  Biso   1.000  C
  C154     1.0000 0.04959  0.64132  0.09789  Biso   1.000  C
  C155     1.0000 0.02258  0.58201  0.16778  Biso   1.000  C
  O45      1.0000 0.14230  0.69130  0.22049  Biso   1.000  O
  N93      1.0000 0.08660  0.68773  0.12739  Biso   1.000  N
  N94      1.0000 0.11300  0.73439  0.06029  Biso   1.000  N
  O46      1.0000 0.17743  0.77453  0.12408  Biso   1.000  O
  C156     1.0000 0.08782  0.71980  0.99614  Biso   1.000  C
  H165     1.0000 0.11085  0.76658  0.93915  Biso   1.000  H
  C157     1.0000 0.08254  0.59279  0.94495  Biso   1.000  C
  O47      1.0000 0.04456  0.44473  0.02941  Biso   1.000  O
  N95      1.0000 0.04712  0.58552  0.04862  Biso   1.000  N
  C158     1.0000 0.01398  0.69832  0.07518  Biso   1.000  C
  H166     1.0000 0.02820  0.54293  0.20041  Biso   1.000  H
  H167     1.0000 0.02148  0.63763  0.18148  Biso   1.000  H
  H168     1.0000 0.99789  0.56830  0.13309  Biso   1.000  H
  C159     1.0000 0.09669  0.76032  0.10170  Biso   1.000  C
  N96      1.0000 0.07124  0.63619  0.98065  Biso   1.000  N
  H169     1.0000 0.06753  0.76307  0.97785  Biso   1.000  H
  O48      1.0000 0.06974  0.52521  0.92036  Biso   1.000  O
  C160     1.0000 0.03752  0.61258  0.98713  Biso   1.000  C
  H170     1.0000 0.01639  0.73370  0.10818  Biso   1.000  H
  H171     1.0000 0.01239  0.73239  0.04210  Biso   1.000  H
  H172     1.0000 0.99069  0.66493  0.06089  Biso   1.000  H
  H173     1.0000 0.07338  0.79408  0.07868  Biso   1.000  H
  H174     1.0000 0.11581  0.79433  0.13502  Biso   1.000  H
  H175     1.0000 0.01983  0.66011  0.97606  Biso   1.000  H
  H176     1.0000 0.02384  0.56773  0.95855  Biso   1.000  H
  C161     1.0000 0.66979  0.39957  0.44609  Biso   1.000  C
  C162     1.0000 0.70037  0.40678  0.42536  Biso   1.000  C
  H177     1.0000 0.64459  0.41342  0.41259  Biso   1.000  H
  H178     1.0000 0.66939  0.34333  0.45937  Biso   1.000  H
  H179     1.0000 0.67599  0.43753  0.47959  Biso   1.000  H
  N97      1.0000 0.73977  0.38730  0.47339  Biso   1.000  N
  N98      1.0000 0.69878  0.49001  0.39788  Biso   1.000  N
  C163     1.0000 0.69559  0.34371  0.37380  Biso   1.000  C
  C164     1.0000 0.76138  0.42538  0.53446  Biso   1.000  C
  C165     1.0000 0.75810  0.32580  0.45740  Biso   1.000  C
  C166     1.0000 0.69768  0.57030  0.42399  Biso   1.000  C
  C167     1.0000 0.68968  0.48312  0.33718  Biso   1.000  C
  N99      1.0000 0.68870  0.40183  0.32178  Biso   1.000  N
  N100     1.0000 0.73319  0.30262  0.39820  Biso   1.000  N
  C168     1.0000 0.66298  0.28039  0.35478  Biso   1.000  C
  N101     1.0000 0.78077  0.50297  0.53377  Biso   1.000  N
  H180     1.0000 0.78088  0.38598  0.56199  Biso   1.000  H
  H181     1.0000 0.74327  0.43653  0.55036  Biso   1.000  H
  O49      1.0000 0.79000  0.29429  0.49140  Biso   1.000  O
  N102     1.0000 0.73647  0.60719  0.46107  Biso   1.000  N
  H182     1.0000 0.68199  0.60863  0.39081  Biso   1.000  H
  H183     1.0000 0.68500  0.56379  0.44931  Biso   1.000  H
  O50      1.0000 0.68312  0.54249  0.30230  Biso   1.000  O
  C169     1.0000 0.67949  0.37509  0.26048  Biso   1.000  C
  C170     1.0000 0.74260  0.23179  0.37169  Biso   1.000  C
  H184     1.0000 0.63829  0.30901  0.33851  Biso   1.000  H
  H185     1.0000 0.66309  0.24400  0.32399  Biso   1.000  H
  H186     1.0000 0.66688  0.24789  0.38989  Biso   1.000  H
  C171     1.0000 0.76238  0.58339  0.52399  Biso   1.000  C
  C172     1.0000 0.81999  0.50968  0.56309  Biso   1.000  C
  C173     1.0000 0.75199  0.66919  0.44058  Biso   1.000  C
  N103     1.0000 0.71430  0.35542  0.25478  Biso   1.000  N
  H187     1.0000 0.66278  0.32592  0.24968  Biso   1.000  H
  H188     1.0000 0.66489  0.41911  0.23148  Biso   1.000  H
  N104     1.0000 0.75678  0.25221  0.32909  Biso   1.000  N
  H189     1.0000 0.76228  0.19841  0.40468  Biso   1.000  H
  H190     1.0000 0.71928  0.19741  0.35059  Biso   1.000  H
  H191     1.0000 0.74968  0.59072  0.54977  Biso   1.000  H
  C174     1.0000 0.79768  0.64571  0.54338  Biso   1.000  C
  O51      1.0000 0.84388  0.44899  0.58557  Biso   1.000  O
  N105     1.0000 0.83067  0.58909  0.56626  Biso   1.000  N
  O52      1.0000 0.73474  0.70301  0.39048  Biso   1.000  O
  N106     1.0000 0.78858  0.68861  0.48580  Biso   1.000  N
  C175     1.0000 0.73029  0.27269  0.26507  Biso   1.000  C
  C176     1.0000 0.72679  0.40233  0.22238  Biso   1.000  C
  C177     1.0000 0.79198  0.23073  0.33727  Biso   1.000  C
  H192     1.0000 0.79958  0.68498  0.57509  Biso   1.000  H
  C178     1.0000 0.87188  0.61771  0.59848  Biso   1.000  C
  C179     1.0000 0.81078  0.75750  0.48079  Biso   1.000  C
  C180     1.0000 0.75848  0.27488  0.23708  Biso   1.000  C
  H193     1.0000 0.70980  0.23022  0.24540  Biso   1.000  H
  O53      1.0000 0.71488  0.47323  0.20152  Biso   1.000  O
  N107     1.0000 0.75708  0.36187  0.21958  Biso   1.000  N
  O54      1.0000 0.82008  0.20229  0.38718  Biso   1.000  O
  N108     1.0000 0.79529  0.24488  0.28649  Biso   1.000  N
  N109     1.0000 0.88779  0.63832  0.55799  Biso   1.000  N
  H194     1.0000 0.88788  0.57412  0.62647  Biso   1.000  H
  H195     1.0000 0.87369  0.66669  0.62279  Biso   1.000  H
  N110     1.0000 0.84519  0.73301  0.47619  Biso   1.000  N
  H196     1.0000 0.79388  0.79032  0.44490  Biso   1.000  H
  H197     1.0000 0.81889  0.79320  0.51649  Biso   1.000  H
  H198     1.0000 0.74920  0.23818  0.20110  Biso   1.000  H
  C181     1.0000 0.77098  0.38811  0.17697  Biso   1.000  C
  C182     1.0000 0.82900  0.22797  0.27941  Biso   1.000  C
  C183     1.0000 0.91737  0.59279  0.55496  Biso   1.000  C
  C184     1.0000 0.88309  0.72168  0.53069  Biso   1.000  C
  C185     1.0000 0.84959  0.75042  0.42587  Biso   1.000  C
  N111     1.0000 0.81209  0.40991  0.20597  Biso   1.000  N
  H199     1.0000 0.75568  0.43621  0.15400  Biso   1.000  H
  H200     1.0000 0.76620  0.34321  0.14788  Biso   1.000  H
  N112     1.0000 0.85158  0.30118  0.28060  Biso   1.000  N
  H201     1.0000 0.84600  0.19033  0.31190  Biso   1.000  H
  H202     1.0000 0.82059  0.19910  0.24067  Biso   1.000  H
  O55      1.0000 0.93018  0.52521  0.57959  Biso   1.000  O
  N113     1.0000 0.92869  0.63619  0.51930  Biso   1.000  N
  C186     1.0000 0.91206  0.71980  0.50376  Biso   1.000  C
  H203     1.0000 0.88908  0.76658  0.56080  Biso   1.000  H
  O56      1.0000 0.82255  0.77453  0.37587  Biso   1.000  O
  N114     1.0000 0.88699  0.73439  0.43970  Biso   1.000  N
  C187     1.0000 0.84339  0.34828  0.22560  Biso   1.000  C
  C188     1.0000 0.82390  0.48882  0.20528  Biso   1.000  C
  C189     1.0000 0.88670  0.31941  0.32798  Biso   1.000  C
  C190     1.0000 0.96239  0.61258  0.51277  Biso   1.000  C
  H204     1.0000 0.93238  0.76307  0.52210  Biso   1.000  H
  C191     1.0000 0.90330  0.76032  0.39830  Biso   1.000  C
  H205     1.0000 0.83998  0.31139  0.19168  Biso   1.000  H
  C192     1.0000 0.88040  0.40302  0.24788  Biso   1.000  C
  O57      1.0000 0.80350  0.55039  0.18368  Biso   1.000  O
  N115     1.0000 0.86500  0.48738  0.23180  Biso   1.000  N
  O58      1.0000 0.90337  0.28171  0.37867  Biso   1.000  O
  N116     1.0000 0.90309  0.38592  0.31319  Biso   1.000  N
  N117     1.0000 0.95288  0.58552  0.45138  Biso   1.000  N
  H206     1.0000 0.98007  0.66011  0.52389  Biso   1.000  H
  H207     1.0000 0.97608  0.56773  0.54140  Biso   1.000  H
  N118     1.0000 0.91339  0.68773  0.37261  Biso   1.000  N
  H208     1.0000 0.92657  0.79408  0.42127  Biso   1.000  H
  H209     1.0000 0.88419  0.79433  0.36498  Biso   1.000  H
  H210     1.0000 0.89531  0.38767  0.22651  Biso   1.000  H
  C193     1.0000 0.88798  0.56141  0.23888  Biso   1.000  C
  C194     1.0000 0.94270  0.41342  0.35050  Biso   1.000  C
  C195     1.0000 0.95038  0.64132  0.40207  Biso   1.000  C
  C196     1.0000 0.95219  0.50341  0.43690  Biso   1.000  C
  C197     1.0000 0.88968  0.66218  0.31420  Biso   1.000  C
  N119     1.0000 0.90687  0.59773  0.29908  Biso   1.000  N
  H211     1.0000 0.87110  0.60343  0.21029  Biso   1.000  H
  H212     1.0000 0.90800  0.54763  0.22730  Biso   1.000  H
  N120     1.0000 0.94639  0.49590  0.37831  Biso   1.000  N
  H213     1.0000 0.95620  0.37271  0.38299  Biso   1.000  H
  H214     1.0000 0.95570  0.41448  0.32541  Biso   1.000  H
  C198     1.0000 0.94558  0.57750  0.35041  Biso   1.000  C
  C199     1.0000 0.98597  0.69832  0.42477  Biso   1.000  C
  O59      1.0000 0.95543  0.44473  0.47058  Biso   1.000  O
  O60      1.0000 0.85769  0.69130  0.27950  Biso   1.000  O
  C200     1.0000 0.97738  0.58201  0.33217  Biso   1.000  C
  H215     1.0000 0.98359  0.73370  0.39177  Biso   1.000  H
  H216     1.0000 0.98760  0.73239  0.45790  Biso   1.000  H
  H217     1.0000 0.00930  0.66493  0.43911  Biso   1.000  H
  H218     1.0000 0.97179  0.54293  0.29958  Biso   1.000  H
  H219     1.0000 0.97848  0.63763  0.31847  Biso   1.000  H
  H220     1.0000 0.00210  0.56830  0.36691  Biso   1.000  H
  C201     1.0000 0.33019  0.60043  0.55390  Biso   1.000  C
  C202     1.0000 0.29958  0.59322  0.57458  Biso   1.000  C
  H221     1.0000 0.35539  0.58658  0.58740  Biso   1.000  H
  H222     1.0000 0.33058  0.65673  0.54058  Biso   1.000  H
  H223     1.0000 0.32399  0.56247  0.52040  Biso   1.000  H
  N121     1.0000 0.30117  0.50999  0.60206  Biso   1.000  N
  N122     1.0000 0.26018  0.61270  0.52660  Biso   1.000  N
  C203     1.0000 0.30439  0.65629  0.62619  Biso   1.000  C
  C204     1.0000 0.30226  0.42970  0.57596  Biso   1.000  C
  C205     1.0000 0.31026  0.51688  0.66277  Biso   1.000  C
  C206     1.0000 0.23859  0.57462  0.46548  Biso   1.000  C
  C207     1.0000 0.24189  0.67420  0.54260  Biso   1.000  C
  N123     1.0000 0.31128  0.59823  0.67817  Biso   1.000  N
  N124     1.0000 0.26677  0.69738  0.60179  Biso   1.000  N
  C208     1.0000 0.33696  0.71961  0.64517  Biso   1.000  C
  N125     1.0000 0.26347  0.39281  0.53887  Biso   1.000  N
  H224     1.0000 0.31797  0.39143  0.60919  Biso   1.000  H
  H225     1.0000 0.31498  0.43621  0.55069  Biso   1.000  H
  O61      1.0000 0.31684  0.45751  0.69770  Biso   1.000  O
  N126     1.0000 0.21918  0.49703  0.46617  Biso   1.000  N
  H226     1.0000 0.21908  0.61402  0.43800  Biso   1.000  H
  H227     1.0000 0.25668  0.56347  0.44958  Biso   1.000  H
  O62      1.0000 0.20998  0.70571  0.50859  Biso   1.000  O
  C209     1.0000 0.32048  0.62491  0.73947  Biso   1.000  C
  C210     1.0000 0.25737  0.76821  0.62826  Biso   1.000  C
  H228     1.0000 0.36167  0.69099  0.66148  Biso   1.000  H
  H229     1.0000 0.33688  0.75600  0.67596  Biso   1.000  H
  H230     1.0000 0.33306  0.75211  0.61006  Biso   1.000  H
  C211     1.0000 0.23757  0.41661  0.47596  Biso   1.000  C
  C212     1.0000 0.24799  0.33081  0.55937  Biso   1.000  C
  C213     1.0000 0.18000  0.49032  0.43690  Biso   1.000  C
  N127     1.0000 0.28567  0.64458  0.74517  Biso   1.000  N
  H231     1.0000 0.33716  0.67408  0.75027  Biso   1.000  H
  H232     1.0000 0.33508  0.58089  0.76847  Biso   1.000  H
  N128     1.0000 0.24316  0.74779  0.67086  Biso   1.000  N
  H233     1.0000 0.23766  0.80159  0.59526  Biso   1.000  H
  H234     1.0000 0.28068  0.80259  0.64940  Biso   1.000  H
  H235     1.0000 0.25029  0.40928  0.45018  Biso   1.000  H
  C214     1.0000 0.20229  0.35429  0.45657  Biso   1.000  C
  N129     1.0000 0.21138  0.31139  0.51420  Biso   1.000  N
  O63      1.0000 0.26523  0.29699  0.60946  Biso   1.000  O
  N130     1.0000 0.16927  0.41091  0.43368  Biso   1.000  N
  O64      1.0000 0.15609  0.55101  0.41438  Biso   1.000  O
  C215     1.0000 0.26968  0.72731  0.73488  Biso   1.000  C
  C216     1.0000 0.27316  0.59773  0.77757  Biso   1.000  C
  C217     1.0000 0.20799  0.76927  0.66268  Biso   1.000  C
  H236     1.0000 0.20038  0.31502  0.42491  Biso   1.000  H
  C218     1.0000 0.18918  0.24250  0.51921  Biso   1.000  C
  C219     1.0000 0.12807  0.38229  0.40147  Biso   1.000  C
  C220     1.0000 0.24147  0.72512  0.76286  Biso   1.000  C
  H237     1.0000 0.29018  0.76978  0.75459  Biso   1.000  H
  O65      1.0000 0.28507  0.52677  0.79848  Biso   1.000  O
  N131     1.0000 0.24287  0.63813  0.78037  Biso   1.000  N
  O66      1.0000 0.17987  0.79771  0.61277  Biso   1.000  O
  N132     1.0000 0.20466  0.75512  0.71346  Biso   1.000  N
  N133     1.0000 0.15479  0.26699  0.52380  Biso   1.000  N
  H238     1.0000 0.20608  0.20968  0.55510  Biso   1.000  H
  H239     1.0000 0.18110  0.20680  0.48350  Biso   1.000  H
  N134     1.0000 0.11219  0.36168  0.44200  Biso   1.000  N
  H240     1.0000 0.11209  0.42588  0.37348  Biso   1.000  H
  H241     1.0000 0.12630  0.33331  0.37720  Biso   1.000  H
  H242     1.0000 0.25078  0.76182  0.79889  Biso   1.000  H
  C221     1.0000 0.22896  0.61189  0.82297  Biso   1.000  C
  C222     1.0000 0.17099  0.77203  0.72058  Biso   1.000  C
  C223     1.0000 0.15038  0.24958  0.57408  Biso   1.000  C
  C224     1.0000 0.11690  0.27832  0.46930  Biso   1.000  C
  C225     1.0000 0.08258  0.40721  0.44499  Biso   1.000  C
  N135     1.0000 0.18788  0.59009  0.79397  Biso   1.000  N
  H243     1.0000 0.24426  0.56379  0.84595  Biso   1.000  H
  H244     1.0000 0.23377  0.65679  0.85206  Biso   1.000  H
  N136     1.0000 0.14837  0.69882  0.71939  Biso   1.000  N
  H245     1.0000 0.15398  0.80973  0.68809  Biso   1.000  H
  H246     1.0000 0.17938  0.80090  0.75928  Biso   1.000  H
  O67      1.0000 0.17740  0.22553  0.62408  Biso   1.000  O
  N137     1.0000 0.11299  0.26561  0.56029  Biso   1.000  N
  C226     1.0000 0.08788  0.28020  0.49618  Biso   1.000  C
  H247     1.0000 0.11088  0.23342  0.43920  Biso   1.000  H
  O68      1.0000 0.06980  0.47479  0.42040  Biso   1.000  O
  N138     1.0000 0.07130  0.36381  0.48070  Biso   1.000  N
  C227     1.0000 0.15657  0.65172  0.77440  Biso   1.000  C
  C228     1.0000 0.17607  0.51118  0.79466  Biso   1.000  C
  C229     1.0000 0.11327  0.68059  0.67196  Biso   1.000  C
  C230     1.0000 0.09669  0.23968  0.60170  Biso   1.000  C
  H248     1.0000 0.06758  0.23693  0.47789  Biso   1.000  H
  C231     1.0000 0.03758  0.38742  0.48717  Biso   1.000  C
  H249     1.0000 0.15997  0.68861  0.80827  Biso   1.000  H
  C232     1.0000 0.11957  0.59698  0.75206  Biso   1.000  C
  N139     1.0000 0.13499  0.51262  0.76819  Biso   1.000  N
  O69      1.0000 0.19648  0.44961  0.81626  Biso   1.000  O
  N140     1.0000 0.09686  0.61408  0.68676  Biso   1.000  N
  O70      1.0000 0.09657  0.71829  0.62127  Biso   1.000  O
  N141     1.0000 0.08657  0.31233  0.62739  Biso   1.000  N
  H250     1.0000 0.07338  0.20592  0.57867  Biso   1.000  H
  H251     1.0000 0.11578  0.20567  0.63497  Biso   1.000  H
  N142     1.0000 0.04707  0.41448  0.54857  Biso   1.000  N
  H252     1.0000 0.01989  0.33989  0.47610  Biso   1.000  H
  H253     1.0000 0.02388  0.43233  0.45859  Biso   1.000  H
  H254     1.0000 0.10467  0.61233  0.77348  Biso   1.000  H
  C233     1.0000 0.11197  0.43859  0.76107  Biso   1.000  C
  C234     1.0000 0.05729  0.58658  0.64949  Biso   1.000  C
  C235     1.0000 0.04959  0.35868  0.59788  Biso   1.000  C
  C236     1.0000 0.11028  0.33782  0.68579  Biso   1.000  C
  C237     1.0000 0.04779  0.49659  0.56309  Biso   1.000  C
  N143     1.0000 0.09307  0.40233  0.70087  Biso   1.000  N
  H255     1.0000 0.12887  0.39663  0.78965  Biso   1.000  H
  H256     1.0000 0.09198  0.45243  0.77270  Biso   1.000  H
  N144     1.0000 0.05359  0.50410  0.62169  Biso   1.000  N
  H257     1.0000 0.04379  0.62729  0.61700  Biso   1.000  H
  H258     1.0000 0.04428  0.58552  0.67458  Biso   1.000  H
  C238     1.0000 0.05438  0.42250  0.64958  Biso   1.000  C
  C239     1.0000 0.01397  0.30168  0.57518  Biso   1.000  C
  O71      1.0000 0.14229  0.30870  0.72049  Biso   1.000  O
  O72      1.0000 0.04451  0.55533  0.52936  Biso   1.000  O
  C240     1.0000 0.02257  0.41799  0.66778  Biso   1.000  C
  H259     1.0000 0.01639  0.26630  0.60818  Biso   1.000  H
  H260     1.0000 0.01239  0.26761  0.54209  Biso   1.000  H
  H261     1.0000 0.99069  0.33513  0.56089  Biso   1.000  H
  H262     1.0000 0.02818  0.45713  0.70036  Biso   1.000  H
  H263     1.0000 0.02147  0.36237  0.68147  Biso   1.000  H
  H264     1.0000 0.99788  0.43170  0.63308  Biso   1.000  H
  C241     1.0000 0.61959  0.90299  0.25211  Biso   1.000  C
  N145     1.0000 0.59691  0.88589  0.18681  Biso   1.000  N
  N146     1.0000 0.63499  0.98741  0.26820  Biso   1.000  N
  C242     1.0000 0.65660  0.84831  0.27440  Biso   1.000  C
  H265     1.0000 0.60468  0.88771  0.27348  Biso   1.000  H
  C243     1.0000 0.55729  0.91338  0.14949  Biso   1.000  C
  C244     1.0000 0.61330  0.81938  0.17201  Biso   1.000  C
  C245     1.0000 0.61197  0.06138  0.26107  Biso   1.000  C
  C246     1.0000 0.67610  0.98879  0.29471  Biso   1.000  C
  N147     1.0000 0.64838  0.80122  0.21939  Biso   1.000  N
  N148     1.0000 0.68789  0.90988  0.29398  Biso   1.000  N
  H266     1.0000 0.65997  0.81142  0.30827  Biso   1.000  H
  N149     1.0000 0.55360  0.99593  0.12169  Biso   1.000  N
  H267     1.0000 0.54380  0.87267  0.11700  Biso   1.000  H
  H268     1.0000 0.54429  0.91451  0.17459  Biso   1.000  H
  O73      1.0000 0.59658  0.78167  0.12128  Biso   1.000  O
  N150     1.0000 0.59308  0.09770  0.20087  Biso   1.000  N
  H269     1.0000 0.62889  0.10340  0.28970  Biso   1.000  H
  H270     1.0000 0.59199  0.04760  0.27270  Biso   1.000  H
  O74      1.0000 0.69650  0.05042  0.31631  Biso   1.000  O
  C247     1.0000 0.67099  0.72800  0.22059  Biso   1.000  C
  C248     1.0000 0.72899  0.88808  0.32298  Biso   1.000  C
  C249     1.0000 0.55438  0.07753  0.14959  Biso   1.000  C
  C250     1.0000 0.54780  0.00338  0.06310  Biso   1.000  C
  C251     1.0000 0.61029  0.16221  0.18580  Biso   1.000  C
  N151     1.0000 0.70471  0.74491  0.21351  Biso   1.000  N
  H271     1.0000 0.65399  0.69030  0.18810  Biso   1.000  H
  H272     1.0000 0.67939  0.69913  0.25928  Biso   1.000  H
  N152     1.0000 0.74287  0.86190  0.28037  Biso   1.000  N
  H273     1.0000 0.74428  0.93618  0.34600  Biso   1.000  H
  H274     1.0000 0.73379  0.84318  0.35211  Biso   1.000  H
  C252     1.0000 0.54959  0.14129  0.09789  Biso   1.000  C
  C253     1.0000 0.52258  0.08198  0.16778  Biso   1.000  C
  O75      1.0000 0.54456  0.94470  0.02941  Biso   1.000  O
  N153     1.0000 0.54712  0.08549  0.04862  Biso   1.000  N
  N154     1.0000 0.58660  0.18770  0.12739  Biso   1.000  N
  O76      1.0000 0.64230  0.19133  0.22049  Biso   1.000  O
  C254     1.0000 0.74149  0.77491  0.26291  Biso   1.000  C
  C255     1.0000 0.70799  0.73069  0.16268  Biso   1.000  C
  C256     1.0000 0.77319  0.90230  0.27757  Biso   1.000  C
  C257     1.0000 0.51398  0.19828  0.07518  Biso   1.000  C
  H275     1.0000 0.49789  0.06833  0.13309  Biso   1.000  H
  H276     1.0000 0.52820  0.04290  0.20041  Biso   1.000  H
  H277     1.0000 0.52148  0.13760  0.18148  Biso   1.000  H
  C258     1.0000 0.53752  0.11261  0.98713  Biso   1.000  C
  C259     1.0000 0.59669  0.26029  0.10170  Biso   1.000  C
  H278     1.0000 0.75079  0.73821  0.29889  Biso   1.000  H
  C260     1.0000 0.76969  0.77272  0.23488  Biso   1.000  C
  O77      1.0000 0.67990  0.70232  0.11277  Biso   1.000  O
  N155     1.0000 0.74321  0.75218  0.17091  Biso   1.000  N
  O78      1.0000 0.78511  0.97319  0.29848  Biso   1.000  O
  N156     1.0000 0.78568  0.85539  0.24517  Biso   1.000  N
  H279     1.0000 0.51639  0.23373  0.10818  Biso   1.000  H
  H280     1.0000 0.51239  0.23242  0.04210  Biso   1.000  H
  H281     1.0000 0.49069  0.16490  0.06089  Biso   1.000  H
  N157     1.0000 0.57124  0.13622  0.98065  Biso   1.000  N
  H282     1.0000 0.51983  0.16008  0.97606  Biso   1.000  H
  H283     1.0000 0.52384  0.06770  0.95855  Biso   1.000  H
  N158     1.0000 0.61300  0.23442  0.06029  Biso   1.000  N
  H284     1.0000 0.57338  0.29411  0.07868  Biso   1.000  H
  H285     1.0000 0.61581  0.29429  0.13502  Biso   1.000  H
  H286     1.0000 0.79019  0.73019  0.25459  Biso   1.000  H
  C261     1.0000 0.75740  0.73182  0.12831  Biso   1.000  C
  C262     1.0000 0.82048  0.87512  0.23947  Biso   1.000  C
  C263     1.0000 0.58782  0.21983  0.99614  Biso   1.000  C
  C264     1.0000 0.58254  0.09282  0.94495  Biso   1.000  C
  C265     1.0000 0.65039  0.25039  0.07408  Biso   1.000  C
  N159     1.0000 0.76680  0.80259  0.10179  Biso   1.000  N
  H287     1.0000 0.73771  0.69838  0.09531  Biso   1.000  H
  H288     1.0000 0.78069  0.69738  0.14940  Biso   1.000  H
  N160     1.0000 0.81130  0.90180  0.17822  Biso   1.000  N
  H289     1.0000 0.83719  0.82589  0.25027  Biso   1.000  H
  H290     1.0000 0.83509  0.91908  0.26847  Biso   1.000  H
  H291     1.0000 0.56753  0.26311  0.97785  Biso   1.000  H
  C266     1.0000 0.61684  0.22171  0.96926  Biso   1.000  C
  O79      1.0000 0.56974  0.02518  0.92036  Biso   1.000  O
  N161     1.0000 0.61214  0.13829  0.94196  Biso   1.000  N
  O80      1.0000 0.67743  0.27450  0.12408  Biso   1.000  O
  N162     1.0000 0.65480  0.23298  0.02380  Biso   1.000  N
  C267     1.0000 0.80440  0.84368  0.12619  Biso   1.000  C
  C268     1.0000 0.74190  0.82583  0.04260  Biso   1.000  C
  C269     1.0000 0.81030  0.98309  0.16277  Biso   1.000  C
  H292     1.0000 0.61085  0.26661  0.93915  Biso   1.000  H
  C270     1.0000 0.62805  0.11768  0.90147  Biso   1.000  C
  C271     1.0000 0.68921  0.25753  0.01921  Biso   1.000  C
  C272     1.0000 0.79958  0.90681  0.07459  Biso   1.000  C
  C273     1.0000 0.83700  0.78042  0.14517  Biso   1.000  C
  O81      1.0000 0.70999  0.79433  0.00859  Biso   1.000  O
  N163     1.0000 0.76019  0.88733  0.02661  Biso   1.000  N
  N164     1.0000 0.80121  0.98998  0.10211  Biso   1.000  N
  O82      1.0000 0.81688  0.04253  0.19770  Biso   1.000  O
  N165     1.0000 0.66924  0.08912  0.93364  Biso   1.000  N
  H293     1.0000 0.61204  0.07409  0.87344  Biso   1.000  H
  H294     1.0000 0.62624  0.16672  0.87716  Biso   1.000  H
  H295     1.0000 0.68104  0.29323  0.98346  Biso   1.000  H
  N166     1.0000 0.71141  0.18858  0.01420  Biso   1.000  N
  H296     1.0000 0.70609  0.29029  0.05510  Biso   1.000  H
  C274     1.0000 0.83020  0.89961  0.05391  Biso   1.000  C
  H297     1.0000 0.86170  0.80898  0.16149  Biso   1.000  H
  H298     1.0000 0.83690  0.74403  0.17601  Biso   1.000  H
  H299     1.0000 0.83311  0.74792  0.11011  Biso   1.000  H
  C275     1.0000 0.73853  0.92541  0.96544  Biso   1.000  C
  C276     1.0000 0.80231  0.07033  0.07601  Biso   1.000  C
  C277     1.0000 0.70224  0.14574  0.95657  Biso   1.000  C
  C278     1.0000 0.67994  0.00971  0.93686  Biso   1.000  C
  C279     1.0000 0.74801  0.16922  0.05942  Biso   1.000  C
  H300     1.0000 0.85540  0.91338  0.08741  Biso   1.000  H
  H301     1.0000 0.83059  0.84330  0.04058  Biso   1.000  H
  H302     1.0000 0.82400  0.93750  0.02040  Biso   1.000  H
  N167     1.0000 0.71913  0.00301  0.96618  Biso   1.000  N
  H303     1.0000 0.71905  0.88601  0.93796  Biso   1.000  H
  H304     1.0000 0.75662  0.93649  0.94954  Biso   1.000  H
  N168     1.0000 0.76350  0.10722  0.03888  Biso   1.000  N
  H305     1.0000 0.81800  0.10860  0.10919  Biso   1.000  H
  H306     1.0000 0.81499  0.06382  0.05069  Biso   1.000  H
  C280     1.0000 0.73755  0.08342  0.97597  Biso   1.000  C
  H307     1.0000 0.70035  0.18501  0.92486  Biso   1.000  H
  O83      1.0000 0.65604  0.94902  0.91434  Biso   1.000  O
  O84      1.0000 0.76525  0.20298  0.10951  Biso   1.000  O
  H308     1.0000 0.75023  0.09069  0.95014  Biso   1.000  H
  C281     1.0000 0.38037  0.09701  0.74788  Biso   1.000  C
  C282     1.0000 0.34338  0.15169  0.72559  Biso   1.000  C
  N169     1.0000 0.36499  0.01259  0.73180  Biso   1.000  N
  N170     1.0000 0.40308  0.11411  0.81318  Biso   1.000  N
  H309     1.0000 0.39526  0.11229  0.72647  Biso   1.000  H
  N171     1.0000 0.31206  0.09012  0.70597  Biso   1.000  N
  N172     1.0000 0.35156  0.19878  0.78056  Biso   1.000  N
  H310     1.0000 0.33997  0.18858  0.69168  Biso   1.000  H
  C283     1.0000 0.32386  0.01121  0.70528  Biso   1.000  C
  C284     1.0000 0.38797  0.93862  0.73887  Biso   1.000  C
  C285     1.0000 0.38666  0.18062  0.82798  Biso   1.000  C
  C286     1.0000 0.44265  0.08662  0.85045  Biso   1.000  C
  C287     1.0000 0.27098  0.11192  0.67697  Biso   1.000  C
  C288     1.0000 0.32898  0.27200  0.77936  Biso   1.000  C
  O85      1.0000 0.30349  0.94958  0.68368  Biso   1.000  O
  N173     1.0000 0.40687  0.90230  0.79908  Biso   1.000  N
  H311     1.0000 0.37107  0.89660  0.71029  Biso   1.000  H
  H312     1.0000 0.40797  0.95240  0.72729  Biso   1.000  H
  O86      1.0000 0.40337  0.21833  0.87867  Biso   1.000  O
  N174     1.0000 0.44637  0.00407  0.87826  Biso   1.000  N
  H313     1.0000 0.45616  0.12733  0.88299  Biso   1.000  H
  H314     1.0000 0.45566  0.08549  0.82536  Biso   1.000  H
  N175     1.0000 0.25707  0.13810  0.71957  Biso   1.000  N
  H315     1.0000 0.25567  0.06382  0.65399  Biso   1.000  H
  H316     1.0000 0.26617  0.15682  0.64788  Biso   1.000  H
  N176     1.0000 0.29528  0.25509  0.78648  Biso   1.000  N
  H317     1.0000 0.34596  0.30970  0.81185  Biso   1.000  H
  H318     1.0000 0.32058  0.30093  0.74067  Biso   1.000  H
  C289     1.0000 0.44556  0.92253  0.85036  Biso   1.000  C
  C290     1.0000 0.38967  0.83779  0.81419  Biso   1.000  C
  C291     1.0000 0.45215  0.99662  0.93685  Biso   1.000  C
  C292     1.0000 0.25847  0.22509  0.73708  Biso   1.000  C
  C293     1.0000 0.22678  0.09770  0.72238  Biso   1.000  C
  C294     1.0000 0.29198  0.26931  0.83726  Biso   1.000  C
  C295     1.0000 0.45035  0.85871  0.90206  Biso   1.000  C
  C296     1.0000 0.47737  0.91802  0.83216  Biso   1.000  C
  O87      1.0000 0.35767  0.80867  0.77945  Biso   1.000  O
  N177     1.0000 0.41337  0.81230  0.87256  Biso   1.000  N
  O88      1.0000 0.45543  0.05530  0.97058  Biso   1.000  O
  N178     1.0000 0.45287  0.91451  0.95137  Biso   1.000  N
  H319     1.0000 0.24917  0.26179  0.70110  Biso   1.000  H
  C297     1.0000 0.23028  0.22728  0.76507  Biso   1.000  C
  O89      1.0000 0.21486  0.02681  0.70147  Biso   1.000  O
  N179     1.0000 0.21426  0.14461  0.75477  Biso   1.000  N
  N180     1.0000 0.25678  0.24782  0.82908  Biso   1.000  N
  O90      1.0000 0.32007  0.29768  0.88717  Biso   1.000  O
  C298     1.0000 0.48596  0.80172  0.92476  Biso   1.000  C
  H320     1.0000 0.50205  0.93167  0.86686  Biso   1.000  H
  H321     1.0000 0.47178  0.95710  0.79958  Biso   1.000  H
  H322     1.0000 0.47847  0.86240  0.81847  Biso   1.000  H
  C299     1.0000 0.40327  0.73971  0.89829  Biso   1.000  C
  C300     1.0000 0.46242  0.88739  0.01281  Biso   1.000  C
  H323     1.0000 0.20975  0.26981  0.74535  Biso   1.000  H
  C301     1.0000 0.17946  0.12488  0.76047  Biso   1.000  C
  C302     1.0000 0.24256  0.26818  0.87168  Biso   1.000  C
  H324     1.0000 0.48358  0.76627  0.89177  Biso   1.000  H
  H325     1.0000 0.48755  0.76758  0.95785  Biso   1.000  H
  H326     1.0000 0.50925  0.83510  0.93906  Biso   1.000  H
  N181     1.0000 0.38697  0.76558  0.93965  Biso   1.000  N
  H327     1.0000 0.42656  0.70589  0.92127  Biso   1.000  H
  H328     1.0000 0.38418  0.70571  0.86498  Biso   1.000  H
  N182     1.0000 0.42873  0.86378  0.01929  Biso   1.000  N
  H329     1.0000 0.48013  0.83992  0.02394  Biso   1.000  H
  H330     1.0000 0.47613  0.93230  0.04140  Biso   1.000  H
  N183     1.0000 0.18866  0.09820  0.82178  Biso   1.000  N
  H331     1.0000 0.16278  0.17411  0.74967  Biso   1.000  H
  H332     1.0000 0.16488  0.08092  0.73147  Biso   1.000  H
  N184     1.0000 0.23317  0.19741  0.89816  Biso   1.000  N
  H333     1.0000 0.26227  0.30162  0.90468  Biso   1.000  H
  H334     1.0000 0.21927  0.30262  0.85059  Biso   1.000  H
  C303     1.0000 0.34955  0.74961  0.92587  Biso   1.000  C
  C304     1.0000 0.41212  0.78017  0.00381  Biso   1.000  C
  C305     1.0000 0.41743  0.90718  0.05500  Biso   1.000  C
  C306     1.0000 0.18968  0.01691  0.83717  Biso   1.000  C
  C307     1.0000 0.19557  0.15632  0.87375  Biso   1.000  C
  C308     1.0000 0.25805  0.17417  0.95735  Biso   1.000  C
  O91      1.0000 0.32254  0.72550  0.87587  Biso   1.000  O
  N185     1.0000 0.34516  0.76702  0.97619  Biso   1.000  N
  H335     1.0000 0.43242  0.73689  0.02210  Biso   1.000  H
  C309     1.0000 0.38313  0.77829  0.03069  Biso   1.000  C
  O92      1.0000 0.43022  0.97482  0.07963  Biso   1.000  O
  N186     1.0000 0.38781  0.86171  0.05799  Biso   1.000  N
  N187     1.0000 0.19877  0.01002  0.89788  Biso   1.000  N
  O93      1.0000 0.18311  0.95747  0.80229  Biso   1.000  O
  C310     1.0000 0.20036  0.09319  0.92536  Biso   1.000  C
  C311     1.0000 0.16297  0.21958  0.85477  Biso   1.000  C
  O94      1.0000 0.28995  0.20567  0.99135  Biso   1.000  O
  N188     1.0000 0.23977  0.11267  0.97338  Biso   1.000  N
  C312     1.0000 0.31077  0.74247  0.98078  Biso   1.000  C
  H336     1.0000 0.38912  0.73339  0.06079  Biso   1.000  H
  C313     1.0000 0.37194  0.88232  0.09852  Biso   1.000  C
  C314     1.0000 0.19767  0.92973  0.92398  Biso   1.000  C
  C315     1.0000 0.16976  0.10039  0.94609  Biso   1.000  C
  H337     1.0000 0.13827  0.19102  0.83846  Biso   1.000  H
  H338     1.0000 0.16306  0.25603  0.82398  Biso   1.000  H
  H339     1.0000 0.16688  0.25208  0.88988  Biso   1.000  H
  C316     1.0000 0.26142  0.07459  0.03451  Biso   1.000  C
  N189     1.0000 0.28856  0.81142  0.98575  Biso   1.000  N
  H340     1.0000 0.29387  0.70971  0.94489  Biso   1.000  H
  H341     1.0000 0.31893  0.70677  0.01649  Biso   1.000  H
  N190     1.0000 0.33073  0.91088  0.06631  Biso   1.000  N
  H342     1.0000 0.38793  0.92591  0.12651  Biso   1.000  H
  H343     1.0000 0.37372  0.83328  0.12283  Biso   1.000  H
  N191     1.0000 0.23647  0.89278  0.96107  Biso   1.000  N
  H344     1.0000 0.18197  0.89140  0.89076  Biso   1.000  H
  H345     1.0000 0.18495  0.93618  0.94926  Biso   1.000  H
  H346     1.0000 0.14456  0.08662  0.91259  Biso   1.000  H
  H347     1.0000 0.16936  0.15670  0.95937  Biso   1.000  H
  H348     1.0000 0.17596  0.06250  0.97959  Biso   1.000  H
  N192     1.0000 0.28083  0.99699  0.03382  Biso   1.000  N
  H349     1.0000 0.28094  0.11399  0.06203  Biso   1.000  H
  H350     1.0000 0.24332  0.06351  0.05041  Biso   1.000  H
  C317     1.0000 0.25198  0.83078  0.94057  Biso   1.000  C
  C318     1.0000 0.29774  0.85432  0.04342  Biso   1.000  C
  C319     1.0000 0.32001  0.99029  0.06309  Biso   1.000  C
  C320     1.0000 0.26244  0.91658  0.02403  Biso   1.000  C
  O95      1.0000 0.23471  0.79702  0.89048  Biso   1.000  O
  H351     1.0000 0.29963  0.81499  0.07513  Biso   1.000  H
  O96      1.0000 0.34394  0.05098  0.08561  Biso   1.000  O
  H352     1.0000 0.24972  0.90931  0.04981  Biso   1.000  H
