data_image0
_cell_length_a       24.069
_cell_length_b       24.069
_cell_length_c       10.954
_cell_angle_alpha    90
_cell_angle_beta     90
_cell_angle_gamma    90

_symmetry_space_group_name_H-M    "P 1"
_symmetry_int_tables_number       1

loop_
  _symmetry_equiv_pos_as_xyz
  'x, y, z'

loop_
  _atom_site_label
  _atom_site_occupancy
  _atom_site_fract_x
  _atom_site_fract_y
  _atom_site_fract_z
  _atom_site_thermal_displace_type
  _atom_site_B_iso_or_equiv
  _atom_site_type_symbol
  C1       1.0000 0.18829  0.18829  0.16268  Biso   1.000  C
  N1       1.0000 0.20790  0.13686  0.11055  Biso   1.000  N
  N2       1.0000 0.13686  0.20790  0.11055  Biso   1.000  N
  H1       1.0000 0.21708  0.21708  0.15127  Biso   1.000  H
  H2       1.0000 0.18302  0.18302  0.25160  Biso   1.000  H
  H3       1.0000 0.21708  0.21708  0.15136  Biso   1.000  H
  N3       1.0000 0.20790  0.13690  0.11055  Biso   1.000  N
  N4       1.0000 0.13686  0.20794  0.11055  Biso   1.000  N
  H4       1.0000 0.21708  0.21713  0.15127  Biso   1.000  H
  H5       1.0000 0.21708  0.21713  0.15136  Biso   1.000  H
  N5       1.0000 0.20794  0.13686  0.11055  Biso   1.000  N
  N6       1.0000 0.13690  0.20790  0.11055  Biso   1.000  N
  H6       1.0000 0.21713  0.21708  0.15127  Biso   1.000  H
  H7       1.0000 0.21713  0.21708  0.15136  Biso   1.000  H
  N7       1.0000 0.20794  0.13690  0.11055  Biso   1.000  N
  N8       1.0000 0.13690  0.20794  0.11055  Biso   1.000  N
  H8       1.0000 0.21713  0.21713  0.15127  Biso   1.000  H
  H9       1.0000 0.21713  0.21713  0.15136  Biso   1.000  H
  C2       1.0000 0.24039  0.13357  0.00000  Biso   1.000  C
  C3       1.0000 0.20927  0.08858  0.17528  Biso   1.000  C
  C4       1.0000 0.24039  0.13362  0.00000  Biso   1.000  C
  C5       1.0000 0.20927  0.08862  0.17528  Biso   1.000  C
  C6       1.0000 0.24035  0.13357  0.00000  Biso   1.000  C
  C7       1.0000 0.20931  0.08858  0.17528  Biso   1.000  C
  C8       1.0000 0.24035  0.13362  0.00000  Biso   1.000  C
  C9       1.0000 0.20931  0.08862  0.17528  Biso   1.000  C
  C10      1.0000 0.13357  0.24039  0.00000  Biso   1.000  C
  C11      1.0000 0.08858  0.20927  0.17528  Biso   1.000  C
  C12      1.0000 0.13357  0.24035  0.00000  Biso   1.000  C
  C13      1.0000 0.08858  0.20931  0.17528  Biso   1.000  C
  C14      1.0000 0.13362  0.24039  0.00000  Biso   1.000  C
  C15      1.0000 0.08862  0.20927  0.17528  Biso   1.000  C
  C16      1.0000 0.13362  0.24035  0.00000  Biso   1.000  C
  C17      1.0000 0.08862  0.20931  0.17528  Biso   1.000  C
  H10      1.0000 0.27180  0.16079  0.00000  Biso   1.000  H
  C18      1.0000 0.26133  0.07271  0.00000  Biso   1.000  C
  H11      1.0000 0.27180  0.16083  0.00000  Biso   1.000  H
  N9       1.0000 0.20790  0.13686  0.88945  Biso   1.000  N
  N10      1.0000 0.20790  0.13690  0.88945  Biso   1.000  N
  N11      1.0000 0.20794  0.13686  0.88945  Biso   1.000  N
  N12      1.0000 0.20794  0.13690  0.88945  Biso   1.000  N
  O1       1.0000 0.18896  0.08147  0.27734  Biso   1.000  O
  N13      1.0000 0.23798  0.05023  0.11055  Biso   1.000  N
  N14      1.0000 0.23798  0.05023  0.11064  Biso   1.000  N
  O2       1.0000 0.18896  0.08152  0.27734  Biso   1.000  O
  H12      1.0000 0.16079  0.27180  0.00000  Biso   1.000  H
  C19      1.0000 0.07271  0.26133  0.00000  Biso   1.000  C
  H13      1.0000 0.16083  0.27180  0.00000  Biso   1.000  H
  N15      1.0000 0.13686  0.20790  0.88945  Biso   1.000  N
  N16      1.0000 0.13686  0.20794  0.88945  Biso   1.000  N
  N17      1.0000 0.13690  0.20790  0.88945  Biso   1.000  N
  N18      1.0000 0.13690  0.20794  0.88945  Biso   1.000  N
  O3       1.0000 0.08147  0.18896  0.27734  Biso   1.000  O
  N19      1.0000 0.05023  0.23798  0.11055  Biso   1.000  N
  N20      1.0000 0.05023  0.23798  0.11064  Biso   1.000  N
  O4       1.0000 0.08152  0.18896  0.27734  Biso   1.000  O
  H14      1.0000 0.30280  0.07059  0.00000  Biso   1.000  H
  H15      1.0000 0.30280  0.07063  0.00000  Biso   1.000  H
  N21      1.0000 0.23798  0.05023  0.88945  Biso   1.000  N
  C20      1.0000 0.20927  0.08858  0.82472  Biso   1.000  C
  C21      1.0000 0.18829  0.18829  0.83732  Biso   1.000  C
  C22      1.0000 0.20927  0.08862  0.82472  Biso   1.000  C
  C23      1.0000 0.20931  0.08858  0.82472  Biso   1.000  C
  C24      1.0000 0.20931  0.08862  0.82472  Biso   1.000  C
  C25      1.0000 0.25946  0.00000  0.16606  Biso   1.000  C
  C26      1.0000 0.25946  0.00000  0.16615  Biso   1.000  C
  C27      1.0000 0.25946  0.00004  0.16606  Biso   1.000  C
  C28      1.0000 0.25946  0.00004  0.16615  Biso   1.000  C
  C29      1.0000 0.25950  0.00000  0.16606  Biso   1.000  C
  C30      1.0000 0.25950  0.00000  0.16615  Biso   1.000  C
  C31      1.0000 0.25950  0.00004  0.16606  Biso   1.000  C
  C32      1.0000 0.25950  0.00004  0.16615  Biso   1.000  C
  H16      1.0000 0.07059  0.30280  0.00000  Biso   1.000  H
  H17      1.0000 0.07063  0.30280  0.00000  Biso   1.000  H
  N22      1.0000 0.05023  0.23798  0.88945  Biso   1.000  N
  C33      1.0000 0.08858  0.20927  0.82472  Biso   1.000  C
  C34      1.0000 0.08858  0.20931  0.82472  Biso   1.000  C
  C35      1.0000 0.08862  0.20927  0.82472  Biso   1.000  C
  C36      1.0000 0.08862  0.20931  0.82472  Biso   1.000  C
  C37      1.0000 0.00000  0.25946  0.16606  Biso   1.000  C
  C38      1.0000 0.00000  0.25946  0.16615  Biso   1.000  C
  C39      1.0000 0.00000  0.25950  0.16606  Biso   1.000  C
  C40      1.0000 0.00000  0.25950  0.16615  Biso   1.000  C
  C41      1.0000 0.00004  0.25946  0.16606  Biso   1.000  C
  C42      1.0000 0.00004  0.25946  0.16615  Biso   1.000  C
  C43      1.0000 0.00004  0.25950  0.16606  Biso   1.000  C
  C44      1.0000 0.00004  0.25950  0.16615  Biso   1.000  C
  C45      1.0000 0.25946  0.00000  0.83394  Biso   1.000  C
  C46      1.0000 0.25946  0.00004  0.83394  Biso   1.000  C
  C47      1.0000 0.25950  0.00000  0.83394  Biso   1.000  C
  C48      1.0000 0.25950  0.00004  0.83394  Biso   1.000  C
  O5       1.0000 0.18896  0.08147  0.72266  Biso   1.000  O
  O6       1.0000 0.18896  0.08152  0.72266  Biso   1.000  O
  H18      1.0000 0.21708  0.21708  0.84873  Biso   1.000  H
  H19      1.0000 0.18302  0.18302  0.74840  Biso   1.000  H
  H20      1.0000 0.21708  0.21713  0.84873  Biso   1.000  H
  H21      1.0000 0.21713  0.21708  0.84873  Biso   1.000  H
  H22      1.0000 0.21713  0.21713  0.84873  Biso   1.000  H
  H23      1.0000 0.24991  0.00000  0.25397  Biso   1.000  H
  H24      1.0000 0.30051  0.00000  0.15930  Biso   1.000  H
  H25      1.0000 0.24991  0.00000  0.25406  Biso   1.000  H
  H26      1.0000 0.24991  0.00004  0.25397  Biso   1.000  H
  H27      1.0000 0.30051  0.00004  0.15930  Biso   1.000  H
  H28      1.0000 0.24991  0.00004  0.25406  Biso   1.000  H
  H29      1.0000 0.24986  0.00000  0.25397  Biso   1.000  H
  H30      1.0000 0.24986  0.00000  0.25406  Biso   1.000  H
  H31      1.0000 0.24986  0.00004  0.25397  Biso   1.000  H
  H32      1.0000 0.24986  0.00004  0.25406  Biso   1.000  H
  N23      1.0000 0.23798  0.94977  0.11055  Biso   1.000  N
  N24      1.0000 0.23798  0.94977  0.11064  Biso   1.000  N
  N25      1.0000 0.23798  0.94973  0.11055  Biso   1.000  N
  N26      1.0000 0.23798  0.94973  0.11064  Biso   1.000  N
  C49      1.0000 0.00000  0.25946  0.83394  Biso   1.000  C
  C50      1.0000 0.00000  0.25950  0.83394  Biso   1.000  C
  C51      1.0000 0.00004  0.25946  0.83394  Biso   1.000  C
  C52      1.0000 0.00004  0.25950  0.83394  Biso   1.000  C
  O7       1.0000 0.08147  0.18896  0.72266  Biso   1.000  O
  O8       1.0000 0.08152  0.18896  0.72266  Biso   1.000  O
  H33      1.0000 0.00000  0.24991  0.25397  Biso   1.000  H
  H34      1.0000 0.00000  0.30051  0.15930  Biso   1.000  H
  H35      1.0000 0.00000  0.24991  0.25406  Biso   1.000  H
  H36      1.0000 0.00000  0.24986  0.25397  Biso   1.000  H
  H37      1.0000 0.00000  0.24986  0.25406  Biso   1.000  H
  H38      1.0000 0.00004  0.24991  0.25397  Biso   1.000  H
  H39      1.0000 0.00004  0.30051  0.15930  Biso   1.000  H
  H40      1.0000 0.00004  0.24991  0.25406  Biso   1.000  H
  H41      1.0000 0.00004  0.24986  0.25397  Biso   1.000  H
  H42      1.0000 0.00004  0.24986  0.25406  Biso   1.000  H
  N27      1.0000 0.94977  0.23798  0.11055  Biso   1.000  N
  N28      1.0000 0.94977  0.23798  0.11064  Biso   1.000  N
  N29      1.0000 0.94973  0.23798  0.11055  Biso   1.000  N
  N30      1.0000 0.94973  0.23798  0.11064  Biso   1.000  N
  N31      1.0000 0.23798  0.94977  0.88945  Biso   1.000  N
  N32      1.0000 0.23798  0.94973  0.88945  Biso   1.000  N
  H43      1.0000 0.24991  0.00000  0.74603  Biso   1.000  H
  H44      1.0000 0.30051  0.00000  0.84070  Biso   1.000  H
  H45      1.0000 0.24991  0.00004  0.74603  Biso   1.000  H
  H46      1.0000 0.30051  0.00004  0.84070  Biso   1.000  H
  H47      1.0000 0.24986  0.00000  0.74603  Biso   1.000  H
  H48      1.0000 0.24986  0.00004  0.74603  Biso   1.000  H
  C53      1.0000 0.26133  0.92729  0.00000  Biso   1.000  C
  C54      1.0000 0.20927  0.91142  0.17528  Biso   1.000  C
  C55      1.0000 0.20927  0.91138  0.17528  Biso   1.000  C
  C56      1.0000 0.20931  0.91142  0.17528  Biso   1.000  C
  C57      1.0000 0.20931  0.91138  0.17528  Biso   1.000  C
  N33      1.0000 0.94977  0.23798  0.88945  Biso   1.000  N
  N34      1.0000 0.94973  0.23798  0.88945  Biso   1.000  N
  H49      1.0000 0.00000  0.24991  0.74603  Biso   1.000  H
  H50      1.0000 0.00000  0.30051  0.84070  Biso   1.000  H
  H51      1.0000 0.00000  0.24986  0.74603  Biso   1.000  H
  H52      1.0000 0.00004  0.24991  0.74603  Biso   1.000  H
  H53      1.0000 0.00004  0.30051  0.84070  Biso   1.000  H
  H54      1.0000 0.00004  0.24986  0.74603  Biso   1.000  H
  C58      1.0000 0.92729  0.26133  0.00000  Biso   1.000  C
  C59      1.0000 0.91142  0.20927  0.17528  Biso   1.000  C
  C60      1.0000 0.91142  0.20931  0.17528  Biso   1.000  C
  C61      1.0000 0.91138  0.20927  0.17528  Biso   1.000  C
  C62      1.0000 0.91138  0.20931  0.17528  Biso   1.000  C
  C63      1.0000 0.20927  0.91142  0.82472  Biso   1.000  C
  C64      1.0000 0.20927  0.91138  0.82472  Biso   1.000  C
  C65      1.0000 0.20931  0.91142  0.82472  Biso   1.000  C
  C66      1.0000 0.20931  0.91138  0.82472  Biso   1.000  C
  C67      1.0000 0.24039  0.86643  0.00000  Biso   1.000  C
  H55      1.0000 0.30280  0.92941  0.00000  Biso   1.000  H
  C68      1.0000 0.24039  0.86638  0.00000  Biso   1.000  C
  H56      1.0000 0.30280  0.92937  0.00000  Biso   1.000  H
  C69      1.0000 0.24035  0.86643  0.00000  Biso   1.000  C
  C70      1.0000 0.24035  0.86638  0.00000  Biso   1.000  C
  O9       1.0000 0.18896  0.91853  0.27734  Biso   1.000  O
  N35      1.0000 0.20790  0.86310  0.11055  Biso   1.000  N
  O10      1.0000 0.18896  0.91848  0.27734  Biso   1.000  O
  N36      1.0000 0.20794  0.86310  0.11055  Biso   1.000  N
  C71      1.0000 0.91142  0.20927  0.82472  Biso   1.000  C
  C72      1.0000 0.91142  0.20931  0.82472  Biso   1.000  C
  C73      1.0000 0.91138  0.20927  0.82472  Biso   1.000  C
  C74      1.0000 0.91138  0.20931  0.82472  Biso   1.000  C
  C75      1.0000 0.86643  0.24039  0.00000  Biso   1.000  C
  H57      1.0000 0.92941  0.30280  0.00000  Biso   1.000  H
  C76      1.0000 0.86643  0.24035  0.00000  Biso   1.000  C
  C77      1.0000 0.86638  0.24039  0.00000  Biso   1.000  C
  H58      1.0000 0.92937  0.30280  0.00000  Biso   1.000  H
  C78      1.0000 0.86638  0.24035  0.00000  Biso   1.000  C
  O11      1.0000 0.91853  0.18896  0.27734  Biso   1.000  O
  N37      1.0000 0.86310  0.20790  0.11055  Biso   1.000  N
  N38      1.0000 0.86310  0.20794  0.11055  Biso   1.000  N
  O12      1.0000 0.91848  0.18896  0.27734  Biso   1.000  O
  O13      1.0000 0.18896  0.91853  0.72266  Biso   1.000  O
  N39      1.0000 0.20790  0.86310  0.88945  Biso   1.000  N
  O14      1.0000 0.18896  0.91848  0.72266  Biso   1.000  O
  N40      1.0000 0.20794  0.86310  0.88945  Biso   1.000  N
  H59      1.0000 0.27180  0.83921  0.00000  Biso   1.000  H
  H60      1.0000 0.27180  0.83917  0.00000  Biso   1.000  H
  C79      1.0000 0.18829  0.81171  0.16268  Biso   1.000  C
  O15      1.0000 0.91853  0.18896  0.72266  Biso   1.000  O
  N41      1.0000 0.86310  0.20790  0.88945  Biso   1.000  N
  N42      1.0000 0.86310  0.20794  0.88945  Biso   1.000  N
  O16      1.0000 0.91848  0.18896  0.72266  Biso   1.000  O
  H61      1.0000 0.83921  0.27180  0.00000  Biso   1.000  H
  H62      1.0000 0.83917  0.27180  0.00000  Biso   1.000  H
  C80      1.0000 0.81171  0.18829  0.16268  Biso   1.000  C
  C81      1.0000 0.18829  0.81171  0.83732  Biso   1.000  C
  N43      1.0000 0.13686  0.79210  0.11055  Biso   1.000  N
  H63      1.0000 0.21708  0.78292  0.15127  Biso   1.000  H
  H64      1.0000 0.18302  0.81698  0.25160  Biso   1.000  H
  H65      1.0000 0.21708  0.78292  0.15136  Biso   1.000  H
  N44      1.0000 0.13686  0.79206  0.11055  Biso   1.000  N
  H66      1.0000 0.21708  0.78287  0.15127  Biso   1.000  H
  H67      1.0000 0.21708  0.78287  0.15136  Biso   1.000  H
  N45      1.0000 0.13690  0.79210  0.11055  Biso   1.000  N
  H68      1.0000 0.21713  0.78292  0.15127  Biso   1.000  H
  H69      1.0000 0.21713  0.78292  0.15136  Biso   1.000  H
  N46      1.0000 0.13690  0.79206  0.11055  Biso   1.000  N
  H70      1.0000 0.21713  0.78287  0.15127  Biso   1.000  H
  H71      1.0000 0.21713  0.78287  0.15136  Biso   1.000  H
  C82      1.0000 0.81171  0.18829  0.83732  Biso   1.000  C
  N47      1.0000 0.79210  0.13686  0.11055  Biso   1.000  N
  H72      1.0000 0.78292  0.21708  0.15127  Biso   1.000  H
  H73      1.0000 0.81698  0.18302  0.25160  Biso   1.000  H
  H74      1.0000 0.78292  0.21708  0.15136  Biso   1.000  H
  N48      1.0000 0.79210  0.13690  0.11055  Biso   1.000  N
  H75      1.0000 0.78292  0.21713  0.15127  Biso   1.000  H
  H76      1.0000 0.78292  0.21713  0.15136  Biso   1.000  H
  N49      1.0000 0.79206  0.13686  0.11055  Biso   1.000  N
  H77      1.0000 0.78287  0.21708  0.15127  Biso   1.000  H
  H78      1.0000 0.78287  0.21708  0.15136  Biso   1.000  H
  N50      1.0000 0.79206  0.13690  0.11055  Biso   1.000  N
  H79      1.0000 0.78287  0.21713  0.15127  Biso   1.000  H
  H80      1.0000 0.78287  0.21713  0.15136  Biso   1.000  H
  N51      1.0000 0.13686  0.79210  0.88945  Biso   1.000  N
  H81      1.0000 0.21708  0.78292  0.84873  Biso   1.000  H
  H82      1.0000 0.18302  0.81698  0.74840  Biso   1.000  H
  N52      1.0000 0.13686  0.79206  0.88945  Biso   1.000  N
  H83      1.0000 0.21708  0.78287  0.84873  Biso   1.000  H
  N53      1.0000 0.13690  0.79210  0.88945  Biso   1.000  N
  H84      1.0000 0.21713  0.78292  0.84873  Biso   1.000  H
  N54      1.0000 0.13690  0.79206  0.88945  Biso   1.000  N
  H85      1.0000 0.21713  0.78287  0.84873  Biso   1.000  H
  C83      1.0000 0.13357  0.75961  0.00000  Biso   1.000  C
  C84      1.0000 0.13362  0.75961  0.00000  Biso   1.000  C
  C85      1.0000 0.08858  0.79073  0.17528  Biso   1.000  C
  C86      1.0000 0.08858  0.79069  0.17528  Biso   1.000  C
  C87      1.0000 0.08862  0.79073  0.17528  Biso   1.000  C
  C88      1.0000 0.08862  0.79069  0.17528  Biso   1.000  C
  N55      1.0000 0.79210  0.13686  0.88945  Biso   1.000  N
  H86      1.0000 0.78292  0.21708  0.84873  Biso   1.000  H
  H87      1.0000 0.81698  0.18302  0.74840  Biso   1.000  H
  N56      1.0000 0.79210  0.13690  0.88945  Biso   1.000  N
  H88      1.0000 0.78292  0.21713  0.84873  Biso   1.000  H
  N57      1.0000 0.79206  0.13686  0.88945  Biso   1.000  N
  H89      1.0000 0.78287  0.21708  0.84873  Biso   1.000  H
  N58      1.0000 0.79206  0.13690  0.88945  Biso   1.000  N
  H90      1.0000 0.78287  0.21713  0.84873  Biso   1.000  H
  C89      1.0000 0.75961  0.13357  0.00000  Biso   1.000  C
  C90      1.0000 0.75961  0.13362  0.00000  Biso   1.000  C
  C91      1.0000 0.79073  0.08858  0.17528  Biso   1.000  C
  C92      1.0000 0.79073  0.08862  0.17528  Biso   1.000  C
  C93      1.0000 0.79069  0.08858  0.17528  Biso   1.000  C
  C94      1.0000 0.79069  0.08862  0.17528  Biso   1.000  C
  C95      1.0000 0.08858  0.79073  0.82472  Biso   1.000  C
  C96      1.0000 0.08858  0.79069  0.82472  Biso   1.000  C
  C97      1.0000 0.08862  0.79073  0.82472  Biso   1.000  C
  C98      1.0000 0.08862  0.79069  0.82472  Biso   1.000  C
  H91      1.0000 0.16079  0.72816  0.00000  Biso   1.000  H
  C99      1.0000 0.07271  0.73867  0.00000  Biso   1.000  C
  H92      1.0000 0.16079  0.72820  0.00000  Biso   1.000  H
  H93      1.0000 0.16083  0.72816  0.00000  Biso   1.000  H
  H94      1.0000 0.16083  0.72820  0.00000  Biso   1.000  H
  O17      1.0000 0.08147  0.81104  0.27734  Biso   1.000  O
  N59      1.0000 0.05023  0.76202  0.11055  Biso   1.000  N
  N60      1.0000 0.05023  0.76202  0.11064  Biso   1.000  N
  O18      1.0000 0.08152  0.81104  0.27734  Biso   1.000  O
  C100     1.0000 0.79073  0.08858  0.82472  Biso   1.000  C
  C101     1.0000 0.79073  0.08862  0.82472  Biso   1.000  C
  C102     1.0000 0.79069  0.08858  0.82472  Biso   1.000  C
  C103     1.0000 0.79069  0.08862  0.82472  Biso   1.000  C
  H95      1.0000 0.72816  0.16079  0.00000  Biso   1.000  H
  C104     1.0000 0.73867  0.07271  0.00000  Biso   1.000  C
  H96      1.0000 0.72816  0.16083  0.00000  Biso   1.000  H
  H97      1.0000 0.72820  0.16079  0.00000  Biso   1.000  H
  H98      1.0000 0.72820  0.16083  0.00000  Biso   1.000  H
  O19      1.0000 0.81104  0.08147  0.27734  Biso   1.000  O
  N61      1.0000 0.76202  0.05023  0.11055  Biso   1.000  N
  N62      1.0000 0.76202  0.05023  0.11064  Biso   1.000  N
  O20      1.0000 0.81104  0.08152  0.27734  Biso   1.000  O
  O21      1.0000 0.08147  0.81104  0.72266  Biso   1.000  O
  N63      1.0000 0.05023  0.76202  0.88945  Biso   1.000  N
  O22      1.0000 0.08152  0.81104  0.72266  Biso   1.000  O
  H99      1.0000 0.07059  0.69716  0.00000  Biso   1.000  H
  H100     1.0000 0.07059  0.69720  0.00000  Biso   1.000  H
  H101     1.0000 0.07063  0.69716  0.00000  Biso   1.000  H
  H102     1.0000 0.07063  0.69720  0.00000  Biso   1.000  H
  C105     1.0000 0.00000  0.74054  0.16606  Biso   1.000  C
  C106     1.0000 0.00000  0.74054  0.16615  Biso   1.000  C
  C107     1.0000 0.00000  0.74050  0.16606  Biso   1.000  C
  C108     1.0000 0.00000  0.74050  0.16615  Biso   1.000  C
  C109     1.0000 0.00004  0.74054  0.16606  Biso   1.000  C
  C110     1.0000 0.00004  0.74054  0.16615  Biso   1.000  C
  C111     1.0000 0.00004  0.74050  0.16606  Biso   1.000  C
  C112     1.0000 0.00004  0.74050  0.16615  Biso   1.000  C
  O23      1.0000 0.81104  0.08147  0.72266  Biso   1.000  O
  N64      1.0000 0.76202  0.05023  0.88945  Biso   1.000  N
  O24      1.0000 0.81104  0.08152  0.72266  Biso   1.000  O
  H103     1.0000 0.69716  0.07059  0.00000  Biso   1.000  H
  H104     1.0000 0.69716  0.07063  0.00000  Biso   1.000  H
  H105     1.0000 0.69720  0.07059  0.00000  Biso   1.000  H
  H106     1.0000 0.69720  0.07063  0.00000  Biso   1.000  H
  C113     1.0000 0.74054  0.00000  0.16606  Biso   1.000  C
  C114     1.0000 0.74054  0.00000  0.16615  Biso   1.000  C
  C115     1.0000 0.74054  0.00004  0.16606  Biso   1.000  C
  C116     1.0000 0.74054  0.00004  0.16615  Biso   1.000  C
  C117     1.0000 0.74050  0.00000  0.16606  Biso   1.000  C
  C118     1.0000 0.74050  0.00000  0.16615  Biso   1.000  C
  C119     1.0000 0.74050  0.00004  0.16606  Biso   1.000  C
  C120     1.0000 0.74050  0.00004  0.16615  Biso   1.000  C
  C121     1.0000 0.00000  0.74054  0.83394  Biso   1.000  C
  C122     1.0000 0.00000  0.74050  0.83394  Biso   1.000  C
  C123     1.0000 0.00004  0.74054  0.83394  Biso   1.000  C
  C124     1.0000 0.00004  0.74050  0.83394  Biso   1.000  C
  N65      1.0000 0.94977  0.76202  0.11055  Biso   1.000  N
  N66      1.0000 0.94977  0.76202  0.11064  Biso   1.000  N
  N67      1.0000 0.94973  0.76202  0.11055  Biso   1.000  N
  N68      1.0000 0.94973  0.76202  0.11064  Biso   1.000  N
  H107     1.0000 0.00000  0.75005  0.25397  Biso   1.000  H
  H108     1.0000 0.00000  0.69945  0.15930  Biso   1.000  H
  H109     1.0000 0.00000  0.75005  0.25406  Biso   1.000  H
  H110     1.0000 0.00000  0.75009  0.25397  Biso   1.000  H
  H111     1.0000 0.00000  0.69949  0.15930  Biso   1.000  H
  H112     1.0000 0.00000  0.75009  0.25406  Biso   1.000  H
  H113     1.0000 0.00004  0.75005  0.25397  Biso   1.000  H
  H114     1.0000 0.00004  0.69945  0.15930  Biso   1.000  H
  H115     1.0000 0.00004  0.75005  0.25406  Biso   1.000  H
  H116     1.0000 0.00004  0.75009  0.25397  Biso   1.000  H
  H117     1.0000 0.00004  0.69949  0.15930  Biso   1.000  H
  H118     1.0000 0.00004  0.75009  0.25406  Biso   1.000  H
  C125     1.0000 0.74054  0.00000  0.83394  Biso   1.000  C
  C126     1.0000 0.74054  0.00004  0.83394  Biso   1.000  C
  C127     1.0000 0.74050  0.00000  0.83394  Biso   1.000  C
  C128     1.0000 0.74050  0.00004  0.83394  Biso   1.000  C
  N69      1.0000 0.76202  0.94977  0.11055  Biso   1.000  N
  N70      1.0000 0.76202  0.94977  0.11064  Biso   1.000  N
  N71      1.0000 0.76202  0.94973  0.11055  Biso   1.000  N
  N72      1.0000 0.76202  0.94973  0.11064  Biso   1.000  N
  H119     1.0000 0.75005  0.00000  0.25397  Biso   1.000  H
  H120     1.0000 0.69945  0.00000  0.15930  Biso   1.000  H
  H121     1.0000 0.75005  0.00000  0.25406  Biso   1.000  H
  H122     1.0000 0.75005  0.00004  0.25397  Biso   1.000  H
  H123     1.0000 0.69945  0.00004  0.15930  Biso   1.000  H
  H124     1.0000 0.75005  0.00004  0.25406  Biso   1.000  H
  H125     1.0000 0.75009  0.00000  0.25397  Biso   1.000  H
  H126     1.0000 0.69949  0.00000  0.15930  Biso   1.000  H
  H127     1.0000 0.75009  0.00000  0.25406  Biso   1.000  H
  H128     1.0000 0.75009  0.00004  0.25397  Biso   1.000  H
  H129     1.0000 0.69949  0.00004  0.15930  Biso   1.000  H
  H130     1.0000 0.75009  0.00004  0.25406  Biso   1.000  H
  N73      1.0000 0.94977  0.76202  0.88945  Biso   1.000  N
  N74      1.0000 0.94973  0.76202  0.88945  Biso   1.000  N
  H131     1.0000 0.00000  0.75005  0.74603  Biso   1.000  H
  H132     1.0000 0.00000  0.69945  0.84070  Biso   1.000  H
  H133     1.0000 0.00000  0.75009  0.74603  Biso   1.000  H
  H134     1.0000 0.00000  0.69949  0.84070  Biso   1.000  H
  H135     1.0000 0.00004  0.75005  0.74603  Biso   1.000  H
  H136     1.0000 0.00004  0.69945  0.84070  Biso   1.000  H
  H137     1.0000 0.00004  0.75009  0.74603  Biso   1.000  H
  H138     1.0000 0.00004  0.69949  0.84070  Biso   1.000  H
  C129     1.0000 0.92729  0.73867  0.00000  Biso   1.000  C
  C130     1.0000 0.91142  0.79073  0.17528  Biso   1.000  C
  C131     1.0000 0.91142  0.79069  0.17528  Biso   1.000  C
  C132     1.0000 0.91138  0.79073  0.17528  Biso   1.000  C
  C133     1.0000 0.91138  0.79069  0.17528  Biso   1.000  C
  N75      1.0000 0.76202  0.94977  0.88945  Biso   1.000  N
  N76      1.0000 0.76202  0.94973  0.88945  Biso   1.000  N
  H139     1.0000 0.75005  0.00000  0.74603  Biso   1.000  H
  H140     1.0000 0.69945  0.00000  0.84070  Biso   1.000  H
  H141     1.0000 0.75005  0.00004  0.74603  Biso   1.000  H
  H142     1.0000 0.69945  0.00004  0.84070  Biso   1.000  H
  H143     1.0000 0.75009  0.00000  0.74603  Biso   1.000  H
  H144     1.0000 0.69949  0.00000  0.84070  Biso   1.000  H
  H145     1.0000 0.75009  0.00004  0.74603  Biso   1.000  H
  H146     1.0000 0.69949  0.00004  0.84070  Biso   1.000  H
  C134     1.0000 0.73867  0.92729  0.00000  Biso   1.000  C
  C135     1.0000 0.79073  0.91142  0.17528  Biso   1.000  C
  C136     1.0000 0.79073  0.91138  0.17528  Biso   1.000  C
  C137     1.0000 0.79069  0.91142  0.17528  Biso   1.000  C
  C138     1.0000 0.79069  0.91138  0.17528  Biso   1.000  C
  C139     1.0000 0.91142  0.79073  0.82472  Biso   1.000  C
  C140     1.0000 0.91142  0.79069  0.82472  Biso   1.000  C
  C141     1.0000 0.91138  0.79073  0.82472  Biso   1.000  C
  C142     1.0000 0.91138  0.79069  0.82472  Biso   1.000  C
  C143     1.0000 0.86643  0.75961  0.00000  Biso   1.000  C
  H147     1.0000 0.92941  0.69716  0.00000  Biso   1.000  H
  H148     1.0000 0.92941  0.69720  0.00000  Biso   1.000  H
  C144     1.0000 0.86638  0.75961  0.00000  Biso   1.000  C
  H149     1.0000 0.92937  0.69716  0.00000  Biso   1.000  H
  H150     1.0000 0.92937  0.69720  0.00000  Biso   1.000  H
  O25      1.0000 0.91853  0.81104  0.27734  Biso   1.000  O
  N77      1.0000 0.86310  0.79210  0.11055  Biso   1.000  N
  N78      1.0000 0.86310  0.79206  0.11055  Biso   1.000  N
  O26      1.0000 0.91848  0.81104  0.27734  Biso   1.000  O
  C145     1.0000 0.79073  0.91142  0.82472  Biso   1.000  C
  C146     1.0000 0.79073  0.91138  0.82472  Biso   1.000  C
  C147     1.0000 0.79069  0.91142  0.82472  Biso   1.000  C
  C148     1.0000 0.79069  0.91138  0.82472  Biso   1.000  C
  C149     1.0000 0.75961  0.86643  0.00000  Biso   1.000  C
  H151     1.0000 0.69716  0.92941  0.00000  Biso   1.000  H
  C150     1.0000 0.75961  0.86638  0.00000  Biso   1.000  C
  H152     1.0000 0.69716  0.92937  0.00000  Biso   1.000  H
  H153     1.0000 0.69720  0.92941  0.00000  Biso   1.000  H
  H154     1.0000 0.69720  0.92937  0.00000  Biso   1.000  H
  O27      1.0000 0.81104  0.91853  0.27734  Biso   1.000  O
  N79      1.0000 0.79210  0.86310  0.11055  Biso   1.000  N
  O28      1.0000 0.81104  0.91848  0.27734  Biso   1.000  O
  N80      1.0000 0.79206  0.86310  0.11055  Biso   1.000  N
  O29      1.0000 0.91853  0.81104  0.72266  Biso   1.000  O
  N81      1.0000 0.86310  0.79210  0.88945  Biso   1.000  N
  N82      1.0000 0.86310  0.79206  0.88945  Biso   1.000  N
  O30      1.0000 0.91848  0.81104  0.72266  Biso   1.000  O
  H155     1.0000 0.83921  0.72816  0.00000  Biso   1.000  H
  H156     1.0000 0.83921  0.72820  0.00000  Biso   1.000  H
  H157     1.0000 0.83917  0.72816  0.00000  Biso   1.000  H
  H158     1.0000 0.83917  0.72820  0.00000  Biso   1.000  H
  C151     1.0000 0.81171  0.81171  0.16268  Biso   1.000  C
  O31      1.0000 0.81104  0.91853  0.72266  Biso   1.000  O
  N83      1.0000 0.79210  0.86310  0.88945  Biso   1.000  N
  O32      1.0000 0.81104  0.91848  0.72266  Biso   1.000  O
  N84      1.0000 0.79206  0.86310  0.88945  Biso   1.000  N
  H159     1.0000 0.72816  0.83921  0.00000  Biso   1.000  H
  H160     1.0000 0.72816  0.83917  0.00000  Biso   1.000  H
  H161     1.0000 0.72820  0.83921  0.00000  Biso   1.000  H
  H162     1.0000 0.72820  0.83917  0.00000  Biso   1.000  H
  C152     1.0000 0.81171  0.81171  0.83732  Biso   1.000  C
  H163     1.0000 0.78292  0.78292  0.15127  Biso   1.000  H
  H164     1.0000 0.81698  0.81698  0.25160  Biso   1.000  H
  H165     1.0000 0.78292  0.78292  0.15136  Biso   1.000  H
  H166     1.0000 0.78292  0.78287  0.15127  Biso   1.000  H
  H167     1.0000 0.78292  0.78287  0.15136  Biso   1.000  H
  H168     1.0000 0.78287  0.78292  0.15127  Biso   1.000  H
  H169     1.0000 0.78287  0.78292  0.15136  Biso   1.000  H
  H170     1.0000 0.78287  0.78287  0.15127  Biso   1.000  H
  H171     1.0000 0.78287  0.78287  0.15136  Biso   1.000  H
  H172     1.0000 0.78292  0.78292  0.84873  Biso   1.000  H
  H173     1.0000 0.81698  0.81698  0.74840  Biso   1.000  H
  H174     1.0000 0.78292  0.78287  0.84873  Biso   1.000  H
  H175     1.0000 0.78287  0.78292  0.84873  Biso   1.000  H
  H176     1.0000 0.78287  0.78287  0.84873  Biso   1.000  H
  C153     1.0000 0.18829  0.18829  0.16268  Biso   1.000  C
  N85      1.0000 0.20790  0.13686  0.11055  Biso   1.000  N
  N86      1.0000 0.13686  0.20790  0.11055  Biso   1.000  N
  H177     1.0000 0.18302  0.18302  0.25160  Biso   1.000  H
  N87      1.0000 0.20790  0.13690  0.11055  Biso   1.000  N
  N88      1.0000 0.13686  0.20794  0.11055  Biso   1.000  N
  N89      1.0000 0.20794  0.13686  0.11055  Biso   1.000  N
  N90      1.0000 0.13690  0.20790  0.11055  Biso   1.000  N
  N91      1.0000 0.20794  0.13690  0.11055  Biso   1.000  N
  N92      1.0000 0.13690  0.20794  0.11055  Biso   1.000  N
  H178     1.0000 0.21708  0.21708  0.15127  Biso   1.000  H
  H179     1.0000 0.21708  0.21708  0.15136  Biso   1.000  H
  H180     1.0000 0.21708  0.21713  0.15127  Biso   1.000  H
  H181     1.0000 0.21708  0.21713  0.15136  Biso   1.000  H
  H182     1.0000 0.21713  0.21708  0.15127  Biso   1.000  H
  H183     1.0000 0.21713  0.21708  0.15136  Biso   1.000  H
  H184     1.0000 0.21713  0.21713  0.15127  Biso   1.000  H
  H185     1.0000 0.21713  0.21713  0.15136  Biso   1.000  H
  C154     1.0000 0.20927  0.08858  0.17528  Biso   1.000  C
  C155     1.0000 0.20927  0.08862  0.17528  Biso   1.000  C
  C156     1.0000 0.20931  0.08858  0.17528  Biso   1.000  C
  C157     1.0000 0.20931  0.08862  0.17528  Biso   1.000  C
  C158     1.0000 0.24039  0.13357  0.00000  Biso   1.000  C
  C159     1.0000 0.24039  0.13362  0.00000  Biso   1.000  C
  C160     1.0000 0.24035  0.13357  0.00000  Biso   1.000  C
  C161     1.0000 0.24035  0.13362  0.00000  Biso   1.000  C
  C162     1.0000 0.08858  0.20927  0.17528  Biso   1.000  C
  C163     1.0000 0.08858  0.20931  0.17528  Biso   1.000  C
  C164     1.0000 0.08862  0.20927  0.17528  Biso   1.000  C
  C165     1.0000 0.08862  0.20931  0.17528  Biso   1.000  C
  C166     1.0000 0.13357  0.24039  0.00000  Biso   1.000  C
  C167     1.0000 0.13357  0.24035  0.00000  Biso   1.000  C
  C168     1.0000 0.13362  0.24039  0.00000  Biso   1.000  C
  C169     1.0000 0.13362  0.24035  0.00000  Biso   1.000  C
  O33      1.0000 0.18896  0.08147  0.27734  Biso   1.000  O
  N93      1.0000 0.23798  0.05023  0.11055  Biso   1.000  N
  O34      1.0000 0.18896  0.08152  0.27734  Biso   1.000  O
  N94      1.0000 0.23798  0.05023  0.11064  Biso   1.000  N
  C170     1.0000 0.26133  0.07271  0.00000  Biso   1.000  C
  H186     1.0000 0.27180  0.16079  0.00000  Biso   1.000  H
  H187     1.0000 0.27180  0.16083  0.00000  Biso   1.000  H
  N95      1.0000 0.20790  0.13686  0.88945  Biso   1.000  N
  N96      1.0000 0.20790  0.13690  0.88945  Biso   1.000  N
  N97      1.0000 0.20794  0.13686  0.88945  Biso   1.000  N
  N98      1.0000 0.20794  0.13690  0.88945  Biso   1.000  N
  O35      1.0000 0.08147  0.18896  0.27734  Biso   1.000  O
  N99      1.0000 0.05023  0.23798  0.11055  Biso   1.000  N
  N100     1.0000 0.05023  0.23798  0.11064  Biso   1.000  N
  O36      1.0000 0.08152  0.18896  0.27734  Biso   1.000  O
  H188     1.0000 0.16079  0.27180  0.00000  Biso   1.000  H
  C171     1.0000 0.07271  0.26133  0.00000  Biso   1.000  C
  H189     1.0000 0.16083  0.27180  0.00000  Biso   1.000  H
  N101     1.0000 0.13686  0.20790  0.88945  Biso   1.000  N
  N102     1.0000 0.13686  0.20794  0.88945  Biso   1.000  N
  N103     1.0000 0.13690  0.20790  0.88945  Biso   1.000  N
  N104     1.0000 0.13690  0.20794  0.88945  Biso   1.000  N
  C172     1.0000 0.25946  0.00000  0.16606  Biso   1.000  C
  C173     1.0000 0.25946  0.00000  0.16615  Biso   1.000  C
  C174     1.0000 0.25946  0.00004  0.16606  Biso   1.000  C
  C175     1.0000 0.25946  0.00004  0.16615  Biso   1.000  C
  C176     1.0000 0.25950  0.00000  0.16606  Biso   1.000  C
  C177     1.0000 0.25950  0.00000  0.16615  Biso   1.000  C
  C178     1.0000 0.25950  0.00004  0.16606  Biso   1.000  C
  C179     1.0000 0.25950  0.00004  0.16615  Biso   1.000  C
  H190     1.0000 0.30280  0.07059  0.00000  Biso   1.000  H
  H191     1.0000 0.30280  0.07063  0.00000  Biso   1.000  H
  N105     1.0000 0.23798  0.05023  0.88945  Biso   1.000  N
  C180     1.0000 0.20927  0.08858  0.82472  Biso   1.000  C
  C181     1.0000 0.18829  0.18829  0.83732  Biso   1.000  C
  C182     1.0000 0.20927  0.08862  0.82472  Biso   1.000  C
  C183     1.0000 0.20931  0.08858  0.82472  Biso   1.000  C
  C184     1.0000 0.20931  0.08862  0.82472  Biso   1.000  C
  C185     1.0000 0.00000  0.25946  0.16606  Biso   1.000  C
  C186     1.0000 0.00000  0.25946  0.16615  Biso   1.000  C
  C187     1.0000 0.00000  0.25950  0.16606  Biso   1.000  C
  C188     1.0000 0.00000  0.25950  0.16615  Biso   1.000  C
  C189     1.0000 0.00004  0.25946  0.16606  Biso   1.000  C
  C190     1.0000 0.00004  0.25946  0.16615  Biso   1.000  C
  C191     1.0000 0.00004  0.25950  0.16606  Biso   1.000  C
  C192     1.0000 0.00004  0.25950  0.16615  Biso   1.000  C
  H192     1.0000 0.07059  0.30280  0.00000  Biso   1.000  H
  H193     1.0000 0.07063  0.30280  0.00000  Biso   1.000  H
  N106     1.0000 0.05023  0.23798  0.88945  Biso   1.000  N
  C193     1.0000 0.08858  0.20927  0.82472  Biso   1.000  C
  C194     1.0000 0.08858  0.20931  0.82472  Biso   1.000  C
  C195     1.0000 0.08862  0.20927  0.82472  Biso   1.000  C
  C196     1.0000 0.08862  0.20931  0.82472  Biso   1.000  C
  H194     1.0000 0.30051  0.00000  0.15930  Biso   1.000  H
  H195     1.0000 0.30051  0.00004  0.15930  Biso   1.000  H
  N107     1.0000 0.23798  0.94977  0.11055  Biso   1.000  N
  N108     1.0000 0.23798  0.94977  0.11064  Biso   1.000  N
  N109     1.0000 0.23798  0.94973  0.11055  Biso   1.000  N
  N110     1.0000 0.23798  0.94973  0.11064  Biso   1.000  N
  H196     1.0000 0.24991  0.00000  0.25397  Biso   1.000  H
  H197     1.0000 0.24991  0.00000  0.25406  Biso   1.000  H
  H198     1.0000 0.24991  0.00004  0.25397  Biso   1.000  H
  H199     1.0000 0.24991  0.00004  0.25406  Biso   1.000  H
  H200     1.0000 0.24986  0.00000  0.25397  Biso   1.000  H
  H201     1.0000 0.24986  0.00000  0.25406  Biso   1.000  H
  H202     1.0000 0.24986  0.00004  0.25397  Biso   1.000  H
  H203     1.0000 0.24986  0.00004  0.25406  Biso   1.000  H
  C197     1.0000 0.25946  0.00000  0.83394  Biso   1.000  C
  C198     1.0000 0.25946  0.00004  0.83394  Biso   1.000  C
  C199     1.0000 0.25950  0.00000  0.83394  Biso   1.000  C
  C200     1.0000 0.25950  0.00004  0.83394  Biso   1.000  C
  O37      1.0000 0.18896  0.08147  0.72266  Biso   1.000  O
  O38      1.0000 0.18896  0.08152  0.72266  Biso   1.000  O
  H204     1.0000 0.21708  0.21708  0.84873  Biso   1.000  H
  H205     1.0000 0.18302  0.18302  0.74840  Biso   1.000  H
  H206     1.0000 0.21708  0.21713  0.84873  Biso   1.000  H
  H207     1.0000 0.21713  0.21708  0.84873  Biso   1.000  H
  H208     1.0000 0.21713  0.21713  0.84873  Biso   1.000  H
  H209     1.0000 0.00000  0.30051  0.15930  Biso   1.000  H
  H210     1.0000 0.00004  0.30051  0.15930  Biso   1.000  H
  N111     1.0000 0.94977  0.23798  0.11055  Biso   1.000  N
  N112     1.0000 0.94977  0.23798  0.11064  Biso   1.000  N
  N113     1.0000 0.94973  0.23798  0.11055  Biso   1.000  N
  N114     1.0000 0.94973  0.23798  0.11064  Biso   1.000  N
  H211     1.0000 0.00000  0.24991  0.25397  Biso   1.000  H
  H212     1.0000 0.00000  0.24991  0.25406  Biso   1.000  H
  H213     1.0000 0.00000  0.24986  0.25397  Biso   1.000  H
  H214     1.0000 0.00000  0.24986  0.25406  Biso   1.000  H
  H215     1.0000 0.00004  0.24991  0.25397  Biso   1.000  H
  H216     1.0000 0.00004  0.24991  0.25406  Biso   1.000  H
  H217     1.0000 0.00004  0.24986  0.25397  Biso   1.000  H
  H218     1.0000 0.00004  0.24986  0.25406  Biso   1.000  H
  C201     1.0000 0.00000  0.25946  0.83394  Biso   1.000  C
  C202     1.0000 0.00000  0.25950  0.83394  Biso   1.000  C
  C203     1.0000 0.00004  0.25946  0.83394  Biso   1.000  C
  C204     1.0000 0.00004  0.25950  0.83394  Biso   1.000  C
  O39      1.0000 0.08147  0.18896  0.72266  Biso   1.000  O
  O40      1.0000 0.08152  0.18896  0.72266  Biso   1.000  O
  C205     1.0000 0.26133  0.92729  0.00000  Biso   1.000  C
  C206     1.0000 0.20927  0.91142  0.17528  Biso   1.000  C
  C207     1.0000 0.20927  0.91138  0.17528  Biso   1.000  C
  C208     1.0000 0.20931  0.91142  0.17528  Biso   1.000  C
  C209     1.0000 0.20931  0.91138  0.17528  Biso   1.000  C
  N115     1.0000 0.23798  0.94977  0.88945  Biso   1.000  N
  N116     1.0000 0.23798  0.94973  0.88945  Biso   1.000  N
  H219     1.0000 0.24991  0.00000  0.74603  Biso   1.000  H
  H220     1.0000 0.30051  0.00000  0.84070  Biso   1.000  H
  H221     1.0000 0.24991  0.00004  0.74603  Biso   1.000  H
  H222     1.0000 0.30051  0.00004  0.84070  Biso   1.000  H
  H223     1.0000 0.24986  0.00000  0.74603  Biso   1.000  H
  H224     1.0000 0.24986  0.00004  0.74603  Biso   1.000  H
  C210     1.0000 0.92729  0.26133  0.00000  Biso   1.000  C
  C211     1.0000 0.91142  0.20927  0.17528  Biso   1.000  C
  C212     1.0000 0.91142  0.20931  0.17528  Biso   1.000  C
  C213     1.0000 0.91138  0.20927  0.17528  Biso   1.000  C
  C214     1.0000 0.91138  0.20931  0.17528  Biso   1.000  C
  N117     1.0000 0.94977  0.23798  0.88945  Biso   1.000  N
  N118     1.0000 0.94973  0.23798  0.88945  Biso   1.000  N
  H225     1.0000 0.00000  0.24991  0.74603  Biso   1.000  H
  H226     1.0000 0.00000  0.30051  0.84070  Biso   1.000  H
  H227     1.0000 0.00000  0.24986  0.74603  Biso   1.000  H
  H228     1.0000 0.00004  0.24991  0.74603  Biso   1.000  H
  H229     1.0000 0.00004  0.30051  0.84070  Biso   1.000  H
  H230     1.0000 0.00004  0.24986  0.74603  Biso   1.000  H
  C215     1.0000 0.24039  0.86643  0.00000  Biso   1.000  C
  H231     1.0000 0.30280  0.92941  0.00000  Biso   1.000  H
  C216     1.0000 0.24039  0.86638  0.00000  Biso   1.000  C
  H232     1.0000 0.30280  0.92937  0.00000  Biso   1.000  H
  C217     1.0000 0.24035  0.86643  0.00000  Biso   1.000  C
  C218     1.0000 0.24035  0.86638  0.00000  Biso   1.000  C
  O41      1.0000 0.18896  0.91853  0.27734  Biso   1.000  O
  N119     1.0000 0.20790  0.86310  0.11055  Biso   1.000  N
  O42      1.0000 0.18896  0.91848  0.27734  Biso   1.000  O
  N120     1.0000 0.20794  0.86310  0.11055  Biso   1.000  N
  C219     1.0000 0.20927  0.91142  0.82472  Biso   1.000  C
  C220     1.0000 0.20927  0.91138  0.82472  Biso   1.000  C
  C221     1.0000 0.20931  0.91142  0.82472  Biso   1.000  C
  C222     1.0000 0.20931  0.91138  0.82472  Biso   1.000  C
  C223     1.0000 0.86643  0.24039  0.00000  Biso   1.000  C
  H233     1.0000 0.92941  0.30280  0.00000  Biso   1.000  H
  C224     1.0000 0.86643  0.24035  0.00000  Biso   1.000  C
  C225     1.0000 0.86638  0.24039  0.00000  Biso   1.000  C
  H234     1.0000 0.92937  0.30280  0.00000  Biso   1.000  H
  C226     1.0000 0.86638  0.24035  0.00000  Biso   1.000  C
  O43      1.0000 0.91853  0.18896  0.27734  Biso   1.000  O
  N121     1.0000 0.86310  0.20790  0.11055  Biso   1.000  N
  N122     1.0000 0.86310  0.20794  0.11055  Biso   1.000  N
  O44      1.0000 0.91848  0.18896  0.27734  Biso   1.000  O
  C227     1.0000 0.91142  0.20927  0.82472  Biso   1.000  C
  C228     1.0000 0.91142  0.20931  0.82472  Biso   1.000  C
  C229     1.0000 0.91138  0.20927  0.82472  Biso   1.000  C
  C230     1.0000 0.91138  0.20931  0.82472  Biso   1.000  C
  N123     1.0000 0.20790  0.86310  0.88945  Biso   1.000  N
  H235     1.0000 0.27180  0.83921  0.00000  Biso   1.000  H
  H236     1.0000 0.27180  0.83917  0.00000  Biso   1.000  H
  N124     1.0000 0.20794  0.86310  0.88945  Biso   1.000  N
  C231     1.0000 0.18829  0.81171  0.16268  Biso   1.000  C
  O45      1.0000 0.18896  0.91853  0.72266  Biso   1.000  O
  O46      1.0000 0.18896  0.91848  0.72266  Biso   1.000  O
  N125     1.0000 0.86310  0.20790  0.88945  Biso   1.000  N
  H237     1.0000 0.83921  0.27180  0.00000  Biso   1.000  H
  N126     1.0000 0.86310  0.20794  0.88945  Biso   1.000  N
  H238     1.0000 0.83917  0.27180  0.00000  Biso   1.000  H
  C232     1.0000 0.81171  0.18829  0.16268  Biso   1.000  C
  O47      1.0000 0.91853  0.18896  0.72266  Biso   1.000  O
  O48      1.0000 0.91848  0.18896  0.72266  Biso   1.000  O
  C233     1.0000 0.18829  0.81171  0.83732  Biso   1.000  C
  N127     1.0000 0.13686  0.79210  0.11055  Biso   1.000  N
  H239     1.0000 0.21708  0.78292  0.15127  Biso   1.000  H
  H240     1.0000 0.18302  0.81698  0.25160  Biso   1.000  H
  H241     1.0000 0.21708  0.78292  0.15136  Biso   1.000  H
  N128     1.0000 0.13686  0.79206  0.11055  Biso   1.000  N
  H242     1.0000 0.21708  0.78287  0.15127  Biso   1.000  H
  H243     1.0000 0.21708  0.78287  0.15136  Biso   1.000  H
  N129     1.0000 0.13690  0.79210  0.11055  Biso   1.000  N
  H244     1.0000 0.21713  0.78292  0.15127  Biso   1.000  H
  H245     1.0000 0.21713  0.78292  0.15136  Biso   1.000  H
  N130     1.0000 0.13690  0.79206  0.11055  Biso   1.000  N
  H246     1.0000 0.21713  0.78287  0.15127  Biso   1.000  H
  H247     1.0000 0.21713  0.78287  0.15136  Biso   1.000  H
  C234     1.0000 0.81171  0.18829  0.83732  Biso   1.000  C
  N131     1.0000 0.79210  0.13686  0.11055  Biso   1.000  N
  H248     1.0000 0.78292  0.21708  0.15127  Biso   1.000  H
  H249     1.0000 0.81698  0.18302  0.25160  Biso   1.000  H
  H250     1.0000 0.78292  0.21708  0.15136  Biso   1.000  H
  N132     1.0000 0.79210  0.13690  0.11055  Biso   1.000  N
  H251     1.0000 0.78292  0.21713  0.15127  Biso   1.000  H
  H252     1.0000 0.78292  0.21713  0.15136  Biso   1.000  H
  N133     1.0000 0.79206  0.13686  0.11055  Biso   1.000  N
  H253     1.0000 0.78287  0.21708  0.15127  Biso   1.000  H
  H254     1.0000 0.78287  0.21708  0.15136  Biso   1.000  H
  N134     1.0000 0.79206  0.13690  0.11055  Biso   1.000  N
  H255     1.0000 0.78287  0.21713  0.15127  Biso   1.000  H
  H256     1.0000 0.78287  0.21713  0.15136  Biso   1.000  H
  N135     1.0000 0.13686  0.79210  0.88945  Biso   1.000  N
  H257     1.0000 0.21708  0.78292  0.84873  Biso   1.000  H
  H258     1.0000 0.18302  0.81698  0.74840  Biso   1.000  H
  N136     1.0000 0.13686  0.79206  0.88945  Biso   1.000  N
  H259     1.0000 0.21708  0.78287  0.84873  Biso   1.000  H
  N137     1.0000 0.13690  0.79210  0.88945  Biso   1.000  N
  H260     1.0000 0.21713  0.78292  0.84873  Biso   1.000  H
  N138     1.0000 0.13690  0.79206  0.88945  Biso   1.000  N
  H261     1.0000 0.21713  0.78287  0.84873  Biso   1.000  H
  C235     1.0000 0.13357  0.75961  0.00000  Biso   1.000  C
  C236     1.0000 0.13362  0.75961  0.00000  Biso   1.000  C
  C237     1.0000 0.08858  0.79073  0.17528  Biso   1.000  C
  C238     1.0000 0.08858  0.79069  0.17528  Biso   1.000  C
  C239     1.0000 0.08862  0.79073  0.17528  Biso   1.000  C
  C240     1.0000 0.08862  0.79069  0.17528  Biso   1.000  C
  N139     1.0000 0.79210  0.13686  0.88945  Biso   1.000  N
  H262     1.0000 0.78292  0.21708  0.84873  Biso   1.000  H
  H263     1.0000 0.81698  0.18302  0.74840  Biso   1.000  H
  N140     1.0000 0.79210  0.13690  0.88945  Biso   1.000  N
  H264     1.0000 0.78292  0.21713  0.84873  Biso   1.000  H
  N141     1.0000 0.79206  0.13686  0.88945  Biso   1.000  N
  H265     1.0000 0.78287  0.21708  0.84873  Biso   1.000  H
  N142     1.0000 0.79206  0.13690  0.88945  Biso   1.000  N
  H266     1.0000 0.78287  0.21713  0.84873  Biso   1.000  H
  C241     1.0000 0.75961  0.13357  0.00000  Biso   1.000  C
  C242     1.0000 0.75961  0.13362  0.00000  Biso   1.000  C
  C243     1.0000 0.79073  0.08858  0.17528  Biso   1.000  C
  C244     1.0000 0.79073  0.08862  0.17528  Biso   1.000  C
  C245     1.0000 0.79069  0.08858  0.17528  Biso   1.000  C
  C246     1.0000 0.79069  0.08862  0.17528  Biso   1.000  C
  C247     1.0000 0.08858  0.79073  0.82472  Biso   1.000  C
  C248     1.0000 0.08858  0.79069  0.82472  Biso   1.000  C
  C249     1.0000 0.08862  0.79073  0.82472  Biso   1.000  C
  C250     1.0000 0.08862  0.79069  0.82472  Biso   1.000  C
  H267     1.0000 0.16079  0.72816  0.00000  Biso   1.000  H
  C251     1.0000 0.07271  0.73867  0.00000  Biso   1.000  C
  H268     1.0000 0.16079  0.72820  0.00000  Biso   1.000  H
  H269     1.0000 0.16083  0.72816  0.00000  Biso   1.000  H
  H270     1.0000 0.16083  0.72820  0.00000  Biso   1.000  H
  O49      1.0000 0.08147  0.81104  0.27734  Biso   1.000  O
  N143     1.0000 0.05023  0.76202  0.11055  Biso   1.000  N
  N144     1.0000 0.05023  0.76202  0.11064  Biso   1.000  N
  O50      1.0000 0.08152  0.81104  0.27734  Biso   1.000  O
  C252     1.0000 0.79073  0.08858  0.82472  Biso   1.000  C
  C253     1.0000 0.79073  0.08862  0.82472  Biso   1.000  C
  C254     1.0000 0.79069  0.08858  0.82472  Biso   1.000  C
  C255     1.0000 0.79069  0.08862  0.82472  Biso   1.000  C
  H271     1.0000 0.72816  0.16079  0.00000  Biso   1.000  H
  C256     1.0000 0.73867  0.07271  0.00000  Biso   1.000  C
  H272     1.0000 0.72816  0.16083  0.00000  Biso   1.000  H
  H273     1.0000 0.72820  0.16079  0.00000  Biso   1.000  H
  H274     1.0000 0.72820  0.16083  0.00000  Biso   1.000  H
  O51      1.0000 0.81104  0.08147  0.27734  Biso   1.000  O
  N145     1.0000 0.76202  0.05023  0.11055  Biso   1.000  N
  N146     1.0000 0.76202  0.05023  0.11064  Biso   1.000  N
  O52      1.0000 0.81104  0.08152  0.27734  Biso   1.000  O
  O53      1.0000 0.08147  0.81104  0.72266  Biso   1.000  O
  N147     1.0000 0.05023  0.76202  0.88945  Biso   1.000  N
  O54      1.0000 0.08152  0.81104  0.72266  Biso   1.000  O
  H275     1.0000 0.07059  0.69716  0.00000  Biso   1.000  H
  H276     1.0000 0.07059  0.69720  0.00000  Biso   1.000  H
  H277     1.0000 0.07063  0.69716  0.00000  Biso   1.000  H
  H278     1.0000 0.07063  0.69720  0.00000  Biso   1.000  H
  C257     1.0000 0.00000  0.74054  0.16606  Biso   1.000  C
  C258     1.0000 0.00000  0.74054  0.16615  Biso   1.000  C
  C259     1.0000 0.00000  0.74050  0.16606  Biso   1.000  C
  C260     1.0000 0.00000  0.74050  0.16615  Biso   1.000  C
  C261     1.0000 0.00004  0.74054  0.16606  Biso   1.000  C
  C262     1.0000 0.00004  0.74054  0.16615  Biso   1.000  C
  C263     1.0000 0.00004  0.74050  0.16606  Biso   1.000  C
  C264     1.0000 0.00004  0.74050  0.16615  Biso   1.000  C
  O55      1.0000 0.81104  0.08147  0.72266  Biso   1.000  O
  N148     1.0000 0.76202  0.05023  0.88945  Biso   1.000  N
  O56      1.0000 0.81104  0.08152  0.72266  Biso   1.000  O
  H279     1.0000 0.69716  0.07059  0.00000  Biso   1.000  H
  H280     1.0000 0.69716  0.07063  0.00000  Biso   1.000  H
  H281     1.0000 0.69720  0.07059  0.00000  Biso   1.000  H
  H282     1.0000 0.69720  0.07063  0.00000  Biso   1.000  H
  C265     1.0000 0.74054  0.00000  0.16606  Biso   1.000  C
  C266     1.0000 0.74054  0.00000  0.16615  Biso   1.000  C
  C267     1.0000 0.74054  0.00004  0.16606  Biso   1.000  C
  C268     1.0000 0.74054  0.00004  0.16615  Biso   1.000  C
  C269     1.0000 0.74050  0.00000  0.16606  Biso   1.000  C
  C270     1.0000 0.74050  0.00000  0.16615  Biso   1.000  C
  C271     1.0000 0.74050  0.00004  0.16606  Biso   1.000  C
  C272     1.0000 0.74050  0.00004  0.16615  Biso   1.000  C
  C273     1.0000 0.00000  0.74054  0.83394  Biso   1.000  C
  C274     1.0000 0.00000  0.74050  0.83394  Biso   1.000  C
  C275     1.0000 0.00004  0.74054  0.83394  Biso   1.000  C
  C276     1.0000 0.00004  0.74050  0.83394  Biso   1.000  C
  N149     1.0000 0.94977  0.76202  0.11055  Biso   1.000  N
  N150     1.0000 0.94977  0.76202  0.11064  Biso   1.000  N
  N151     1.0000 0.94973  0.76202  0.11055  Biso   1.000  N
  N152     1.0000 0.94973  0.76202  0.11064  Biso   1.000  N
  H283     1.0000 0.00000  0.75005  0.25397  Biso   1.000  H
  H284     1.0000 0.00000  0.69945  0.15930  Biso   1.000  H
  H285     1.0000 0.00000  0.75005  0.25406  Biso   1.000  H
  H286     1.0000 0.00000  0.75009  0.25397  Biso   1.000  H
  H287     1.0000 0.00000  0.69949  0.15930  Biso   1.000  H
  H288     1.0000 0.00000  0.75009  0.25406  Biso   1.000  H
  H289     1.0000 0.00004  0.75005  0.25397  Biso   1.000  H
  H290     1.0000 0.00004  0.69945  0.15930  Biso   1.000  H
  H291     1.0000 0.00004  0.75005  0.25406  Biso   1.000  H
  H292     1.0000 0.00004  0.75009  0.25397  Biso   1.000  H
  H293     1.0000 0.00004  0.69949  0.15930  Biso   1.000  H
  H294     1.0000 0.00004  0.75009  0.25406  Biso   1.000  H
  C277     1.0000 0.74054  0.00000  0.83394  Biso   1.000  C
  C278     1.0000 0.74054  0.00004  0.83394  Biso   1.000  C
  C279     1.0000 0.74050  0.00000  0.83394  Biso   1.000  C
  C280     1.0000 0.74050  0.00004  0.83394  Biso   1.000  C
  N153     1.0000 0.76202  0.94977  0.11055  Biso   1.000  N
  N154     1.0000 0.76202  0.94977  0.11064  Biso   1.000  N
  N155     1.0000 0.76202  0.94973  0.11055  Biso   1.000  N
  N156     1.0000 0.76202  0.94973  0.11064  Biso   1.000  N
  H295     1.0000 0.75005  0.00000  0.25397  Biso   1.000  H
  H296     1.0000 0.69945  0.00000  0.15930  Biso   1.000  H
  H297     1.0000 0.75005  0.00000  0.25406  Biso   1.000  H
  H298     1.0000 0.75005  0.00004  0.25397  Biso   1.000  H
  H299     1.0000 0.69945  0.00004  0.15930  Biso   1.000  H
  H300     1.0000 0.75005  0.00004  0.25406  Biso   1.000  H
  H301     1.0000 0.75009  0.00000  0.25397  Biso   1.000  H
  H302     1.0000 0.69949  0.00000  0.15930  Biso   1.000  H
  H303     1.0000 0.75009  0.00000  0.25406  Biso   1.000  H
  H304     1.0000 0.75009  0.00004  0.25397  Biso   1.000  H
  H305     1.0000 0.69949  0.00004  0.15930  Biso   1.000  H
  H306     1.0000 0.75009  0.00004  0.25406  Biso   1.000  H
  N157     1.0000 0.94977  0.76202  0.88945  Biso   1.000  N
  N158     1.0000 0.94973  0.76202  0.88945  Biso   1.000  N
  H307     1.0000 0.00000  0.75005  0.74603  Biso   1.000  H
  H308     1.0000 0.00000  0.69945  0.84070  Biso   1.000  H
  H309     1.0000 0.00000  0.75009  0.74603  Biso   1.000  H
  H310     1.0000 0.00000  0.69949  0.84070  Biso   1.000  H
  H311     1.0000 0.00004  0.75005  0.74603  Biso   1.000  H
  H312     1.0000 0.00004  0.69945  0.84070  Biso   1.000  H
  H313     1.0000 0.00004  0.75009  0.74603  Biso   1.000  H
  H314     1.0000 0.00004  0.69949  0.84070  Biso   1.000  H
  C281     1.0000 0.92729  0.73867  0.00000  Biso   1.000  C
  C282     1.0000 0.91142  0.79073  0.17528  Biso   1.000  C
  C283     1.0000 0.91142  0.79069  0.17528  Biso   1.000  C
  C284     1.0000 0.91138  0.79073  0.17528  Biso   1.000  C
  C285     1.0000 0.91138  0.79069  0.17528  Biso   1.000  C
  N159     1.0000 0.76202  0.94977  0.88945  Biso   1.000  N
  N160     1.0000 0.76202  0.94973  0.88945  Biso   1.000  N
  H315     1.0000 0.75005  0.00000  0.74603  Biso   1.000  H
  H316     1.0000 0.69945  0.00000  0.84070  Biso   1.000  H
  H317     1.0000 0.75005  0.00004  0.74603  Biso   1.000  H
  H318     1.0000 0.69945  0.00004  0.84070  Biso   1.000  H
  H319     1.0000 0.75009  0.00000  0.74603  Biso   1.000  H
  H320     1.0000 0.69949  0.00000  0.84070  Biso   1.000  H
  H321     1.0000 0.75009  0.00004  0.74603  Biso   1.000  H
  H322     1.0000 0.69949  0.00004  0.84070  Biso   1.000  H
  C286     1.0000 0.73867  0.92729  0.00000  Biso   1.000  C
  C287     1.0000 0.79073  0.91142  0.17528  Biso   1.000  C
  C288     1.0000 0.79073  0.91138  0.17528  Biso   1.000  C
  C289     1.0000 0.79069  0.91142  0.17528  Biso   1.000  C
  C290     1.0000 0.79069  0.91138  0.17528  Biso   1.000  C
  C291     1.0000 0.91142  0.79073  0.82472  Biso   1.000  C
  C292     1.0000 0.91142  0.79069  0.82472  Biso   1.000  C
  C293     1.0000 0.91138  0.79073  0.82472  Biso   1.000  C
  C294     1.0000 0.91138  0.79069  0.82472  Biso   1.000  C
  C295     1.0000 0.86643  0.75961  0.00000  Biso   1.000  C
  H323     1.0000 0.92941  0.69716  0.00000  Biso   1.000  H
  H324     1.0000 0.92941  0.69720  0.00000  Biso   1.000  H
  C296     1.0000 0.86638  0.75961  0.00000  Biso   1.000  C
  H325     1.0000 0.92937  0.69716  0.00000  Biso   1.000  H
  H326     1.0000 0.92937  0.69720  0.00000  Biso   1.000  H
  O57      1.0000 0.91853  0.81104  0.27734  Biso   1.000  O
  N161     1.0000 0.86310  0.79210  0.11055  Biso   1.000  N
  N162     1.0000 0.86310  0.79206  0.11055  Biso   1.000  N
  O58      1.0000 0.91848  0.81104  0.27734  Biso   1.000  O
  C297     1.0000 0.79073  0.91142  0.82472  Biso   1.000  C
  C298     1.0000 0.79073  0.91138  0.82472  Biso   1.000  C
  C299     1.0000 0.79069  0.91142  0.82472  Biso   1.000  C
  C300     1.0000 0.79069  0.91138  0.82472  Biso   1.000  C
  C301     1.0000 0.75961  0.86643  0.00000  Biso   1.000  C
  H327     1.0000 0.69716  0.92941  0.00000  Biso   1.000  H
  C302     1.0000 0.75961  0.86638  0.00000  Biso   1.000  C
  H328     1.0000 0.69716  0.92937  0.00000  Biso   1.000  H
  H329     1.0000 0.69720  0.92941  0.00000  Biso   1.000  H
  H330     1.0000 0.69720  0.92937  0.00000  Biso   1.000  H
  O59      1.0000 0.81104  0.91853  0.27734  Biso   1.000  O
  N163     1.0000 0.79210  0.86310  0.11055  Biso   1.000  N
  O60      1.0000 0.81104  0.91848  0.27734  Biso   1.000  O
  N164     1.0000 0.79206  0.86310  0.11055  Biso   1.000  N
  O61      1.0000 0.91853  0.81104  0.72266  Biso   1.000  O
  N165     1.0000 0.86310  0.79210  0.88945  Biso   1.000  N
  N166     1.0000 0.86310  0.79206  0.88945  Biso   1.000  N
  O62      1.0000 0.91848  0.81104  0.72266  Biso   1.000  O
  H331     1.0000 0.83921  0.72816  0.00000  Biso   1.000  H
  H332     1.0000 0.83921  0.72820  0.00000  Biso   1.000  H
  H333     1.0000 0.83917  0.72816  0.00000  Biso   1.000  H
  H334     1.0000 0.83917  0.72820  0.00000  Biso   1.000  H
  C303     1.0000 0.81171  0.81171  0.16268  Biso   1.000  C
  O63      1.0000 0.81104  0.91853  0.72266  Biso   1.000  O
  N167     1.0000 0.79210  0.86310  0.88945  Biso   1.000  N
  O64      1.0000 0.81104  0.91848  0.72266  Biso   1.000  O
  N168     1.0000 0.79206  0.86310  0.88945  Biso   1.000  N
  H335     1.0000 0.72816  0.83921  0.00000  Biso   1.000  H
  H336     1.0000 0.72816  0.83917  0.00000  Biso   1.000  H
  H337     1.0000 0.72820  0.83921  0.00000  Biso   1.000  H
  H338     1.0000 0.72820  0.83917  0.00000  Biso   1.000  H
  C304     1.0000 0.81171  0.81171  0.83732  Biso   1.000  C
  H339     1.0000 0.78292  0.78292  0.15127  Biso   1.000  H
  H340     1.0000 0.81698  0.81698  0.25160  Biso   1.000  H
  H341     1.0000 0.78292  0.78292  0.15136  Biso   1.000  H
  H342     1.0000 0.78292  0.78287  0.15127  Biso   1.000  H
  H343     1.0000 0.78292  0.78287  0.15136  Biso   1.000  H
  H344     1.0000 0.78287  0.78292  0.15127  Biso   1.000  H
  H345     1.0000 0.78287  0.78292  0.15136  Biso   1.000  H
  H346     1.0000 0.78287  0.78287  0.15127  Biso   1.000  H
  H347     1.0000 0.78287  0.78287  0.15136  Biso   1.000  H
  H348     1.0000 0.78292  0.78292  0.84873  Biso   1.000  H
  H349     1.0000 0.81698  0.81698  0.74840  Biso   1.000  H
  H350     1.0000 0.78292  0.78287  0.84873  Biso   1.000  H
  H351     1.0000 0.78287  0.78292  0.84873  Biso   1.000  H
  H352     1.0000 0.78287  0.78287  0.84873  Biso   1.000  H
  C305     1.0000 0.18829  0.18829  0.16268  Biso   1.000  C
  H353     1.0000 0.18302  0.18302  0.25160  Biso   1.000  H
  N169     1.0000 0.20790  0.13686  0.11055  Biso   1.000  N
  N170     1.0000 0.13686  0.20790  0.11055  Biso   1.000  N
  H354     1.0000 0.21708  0.21708  0.15127  Biso   1.000  H
  H355     1.0000 0.21708  0.21708  0.15136  Biso   1.000  H
  N171     1.0000 0.20790  0.13690  0.11055  Biso   1.000  N
  N172     1.0000 0.13686  0.20794  0.11055  Biso   1.000  N
  H356     1.0000 0.21708  0.21713  0.15127  Biso   1.000  H
  H357     1.0000 0.21708  0.21713  0.15136  Biso   1.000  H
  N173     1.0000 0.20794  0.13686  0.11055  Biso   1.000  N
  N174     1.0000 0.13690  0.20790  0.11055  Biso   1.000  N
  H358     1.0000 0.21713  0.21708  0.15127  Biso   1.000  H
  H359     1.0000 0.21713  0.21708  0.15136  Biso   1.000  H
  N175     1.0000 0.20794  0.13690  0.11055  Biso   1.000  N
  N176     1.0000 0.13690  0.20794  0.11055  Biso   1.000  N
  H360     1.0000 0.21713  0.21713  0.15127  Biso   1.000  H
  H361     1.0000 0.21713  0.21713  0.15136  Biso   1.000  H
  C306     1.0000 0.24039  0.13357  0.00000  Biso   1.000  C
  C307     1.0000 0.24039  0.13362  0.00000  Biso   1.000  C
  C308     1.0000 0.24035  0.13357  0.00000  Biso   1.000  C
  C309     1.0000 0.24035  0.13362  0.00000  Biso   1.000  C
  C310     1.0000 0.20927  0.08858  0.17528  Biso   1.000  C
  C311     1.0000 0.20927  0.08862  0.17528  Biso   1.000  C
  C312     1.0000 0.20931  0.08858  0.17528  Biso   1.000  C
  C313     1.0000 0.20931  0.08862  0.17528  Biso   1.000  C
  C314     1.0000 0.13357  0.24039  0.00000  Biso   1.000  C
  C315     1.0000 0.13357  0.24035  0.00000  Biso   1.000  C
  C316     1.0000 0.13362  0.24039  0.00000  Biso   1.000  C
  C317     1.0000 0.13362  0.24035  0.00000  Biso   1.000  C
  C318     1.0000 0.08858  0.20927  0.17528  Biso   1.000  C
  C319     1.0000 0.08858  0.20931  0.17528  Biso   1.000  C
  C320     1.0000 0.08862  0.20927  0.17528  Biso   1.000  C
  C321     1.0000 0.08862  0.20931  0.17528  Biso   1.000  C
  C322     1.0000 0.26133  0.07271  0.00000  Biso   1.000  C
  N177     1.0000 0.20790  0.13686  0.88945  Biso   1.000  N
  H362     1.0000 0.27180  0.16079  0.00000  Biso   1.000  H
  N178     1.0000 0.20790  0.13690  0.88945  Biso   1.000  N
  H363     1.0000 0.27180  0.16083  0.00000  Biso   1.000  H
  N179     1.0000 0.20794  0.13686  0.88945  Biso   1.000  N
  N180     1.0000 0.20794  0.13690  0.88945  Biso   1.000  N
  O65      1.0000 0.18896  0.08147  0.27734  Biso   1.000  O
  N181     1.0000 0.23798  0.05023  0.11055  Biso   1.000  N
  N182     1.0000 0.23798  0.05023  0.11064  Biso   1.000  N
  O66      1.0000 0.18896  0.08152  0.27734  Biso   1.000  O
  C323     1.0000 0.07271  0.26133  0.00000  Biso   1.000  C
  N183     1.0000 0.13686  0.20790  0.88945  Biso   1.000  N
  H364     1.0000 0.16079  0.27180  0.00000  Biso   1.000  H
  N184     1.0000 0.13686  0.20794  0.88945  Biso   1.000  N
  N185     1.0000 0.13690  0.20790  0.88945  Biso   1.000  N
  H365     1.0000 0.16083  0.27180  0.00000  Biso   1.000  H
  N186     1.0000 0.13690  0.20794  0.88945  Biso   1.000  N
  O67      1.0000 0.08147  0.18896  0.27734  Biso   1.000  O
  N187     1.0000 0.05023  0.23798  0.11055  Biso   1.000  N
  N188     1.0000 0.05023  0.23798  0.11064  Biso   1.000  N
  O68      1.0000 0.08152  0.18896  0.27734  Biso   1.000  O
  N189     1.0000 0.23798  0.05023  0.88945  Biso   1.000  N
  H366     1.0000 0.30280  0.07059  0.00000  Biso   1.000  H
  H367     1.0000 0.30280  0.07063  0.00000  Biso   1.000  H
  C324     1.0000 0.20927  0.08858  0.82472  Biso   1.000  C
  C325     1.0000 0.18829  0.18829  0.83732  Biso   1.000  C
  C326     1.0000 0.20927  0.08862  0.82472  Biso   1.000  C
  C327     1.0000 0.20931  0.08858  0.82472  Biso   1.000  C
  C328     1.0000 0.20931  0.08862  0.82472  Biso   1.000  C
  C329     1.0000 0.25946  0.00000  0.16606  Biso   1.000  C
  C330     1.0000 0.25946  0.00000  0.16615  Biso   1.000  C
  C331     1.0000 0.25946  0.00004  0.16606  Biso   1.000  C
  C332     1.0000 0.25946  0.00004  0.16615  Biso   1.000  C
  C333     1.0000 0.25950  0.00000  0.16606  Biso   1.000  C
  C334     1.0000 0.25950  0.00000  0.16615  Biso   1.000  C
  C335     1.0000 0.25950  0.00004  0.16606  Biso   1.000  C
  C336     1.0000 0.25950  0.00004  0.16615  Biso   1.000  C
  N190     1.0000 0.05023  0.23798  0.88945  Biso   1.000  N
  H368     1.0000 0.07059  0.30280  0.00000  Biso   1.000  H
  H369     1.0000 0.07063  0.30280  0.00000  Biso   1.000  H
  C337     1.0000 0.08858  0.20927  0.82472  Biso   1.000  C
  C338     1.0000 0.08858  0.20931  0.82472  Biso   1.000  C
  C339     1.0000 0.08862  0.20927  0.82472  Biso   1.000  C
  C340     1.0000 0.08862  0.20931  0.82472  Biso   1.000  C
  C341     1.0000 0.00000  0.25946  0.16606  Biso   1.000  C
  C342     1.0000 0.00000  0.25946  0.16615  Biso   1.000  C
  C343     1.0000 0.00000  0.25950  0.16606  Biso   1.000  C
  C344     1.0000 0.00000  0.25950  0.16615  Biso   1.000  C
  C345     1.0000 0.00004  0.25946  0.16606  Biso   1.000  C
  C346     1.0000 0.00004  0.25946  0.16615  Biso   1.000  C
  C347     1.0000 0.00004  0.25950  0.16606  Biso   1.000  C
  C348     1.0000 0.00004  0.25950  0.16615  Biso   1.000  C
  C349     1.0000 0.25946  0.00000  0.83394  Biso   1.000  C
  C350     1.0000 0.25946  0.00004  0.83394  Biso   1.000  C
  C351     1.0000 0.25950  0.00000  0.83394  Biso   1.000  C
  C352     1.0000 0.25950  0.00004  0.83394  Biso   1.000  C
  O69      1.0000 0.18896  0.08147  0.72266  Biso   1.000  O
  O70      1.0000 0.18896  0.08152  0.72266  Biso   1.000  O
  H370     1.0000 0.21708  0.21708  0.84873  Biso   1.000  H
  H371     1.0000 0.18302  0.18302  0.74840  Biso   1.000  H
  H372     1.0000 0.21708  0.21713  0.84873  Biso   1.000  H
  H373     1.0000 0.21713  0.21708  0.84873  Biso   1.000  H
  H374     1.0000 0.21713  0.21713  0.84873  Biso   1.000  H
  H375     1.0000 0.30051  0.00000  0.15930  Biso   1.000  H
  H376     1.0000 0.30051  0.00004  0.15930  Biso   1.000  H
  N191     1.0000 0.23798  0.94977  0.11055  Biso   1.000  N
  N192     1.0000 0.23798  0.94977  0.11064  Biso   1.000  N
  N193     1.0000 0.23798  0.94973  0.11055  Biso   1.000  N
  N194     1.0000 0.23798  0.94973  0.11064  Biso   1.000  N
  H377     1.0000 0.24991  0.00000  0.25397  Biso   1.000  H
  H378     1.0000 0.24991  0.00000  0.25406  Biso   1.000  H
  H379     1.0000 0.24991  0.00004  0.25397  Biso   1.000  H
  H380     1.0000 0.24991  0.00004  0.25406  Biso   1.000  H
  H381     1.0000 0.24986  0.00000  0.25397  Biso   1.000  H
  H382     1.0000 0.24986  0.00000  0.25406  Biso   1.000  H
  H383     1.0000 0.24986  0.00004  0.25397  Biso   1.000  H
  H384     1.0000 0.24986  0.00004  0.25406  Biso   1.000  H
  C353     1.0000 0.00000  0.25946  0.83394  Biso   1.000  C
  C354     1.0000 0.00000  0.25950  0.83394  Biso   1.000  C
  C355     1.0000 0.00004  0.25946  0.83394  Biso   1.000  C
  C356     1.0000 0.00004  0.25950  0.83394  Biso   1.000  C
  O71      1.0000 0.08147  0.18896  0.72266  Biso   1.000  O
  O72      1.0000 0.08152  0.18896  0.72266  Biso   1.000  O
  H385     1.0000 0.00000  0.30051  0.15930  Biso   1.000  H
  H386     1.0000 0.00004  0.30051  0.15930  Biso   1.000  H
  N195     1.0000 0.94977  0.23798  0.11055  Biso   1.000  N
  N196     1.0000 0.94977  0.23798  0.11064  Biso   1.000  N
  N197     1.0000 0.94973  0.23798  0.11055  Biso   1.000  N
  N198     1.0000 0.94973  0.23798  0.11064  Biso   1.000  N
  H387     1.0000 0.00000  0.24991  0.25397  Biso   1.000  H
  H388     1.0000 0.00000  0.24991  0.25406  Biso   1.000  H
  H389     1.0000 0.00000  0.24986  0.25397  Biso   1.000  H
  H390     1.0000 0.00000  0.24986  0.25406  Biso   1.000  H
  H391     1.0000 0.00004  0.24991  0.25397  Biso   1.000  H
  H392     1.0000 0.00004  0.24991  0.25406  Biso   1.000  H
  H393     1.0000 0.00004  0.24986  0.25397  Biso   1.000  H
  H394     1.0000 0.00004  0.24986  0.25406  Biso   1.000  H
  N199     1.0000 0.23798  0.94977  0.88945  Biso   1.000  N
  N200     1.0000 0.23798  0.94973  0.88945  Biso   1.000  N
  H395     1.0000 0.24991  0.00000  0.74603  Biso   1.000  H
  H396     1.0000 0.30051  0.00000  0.84070  Biso   1.000  H
  H397     1.0000 0.24991  0.00004  0.74603  Biso   1.000  H
  H398     1.0000 0.30051  0.00004  0.84070  Biso   1.000  H
  H399     1.0000 0.24986  0.00000  0.74603  Biso   1.000  H
  H400     1.0000 0.24986  0.00004  0.74603  Biso   1.000  H
  C357     1.0000 0.26133  0.92729  0.00000  Biso   1.000  C
  C358     1.0000 0.20927  0.91142  0.17528  Biso   1.000  C
  C359     1.0000 0.20927  0.91138  0.17528  Biso   1.000  C
  C360     1.0000 0.20931  0.91142  0.17528  Biso   1.000  C
  C361     1.0000 0.20931  0.91138  0.17528  Biso   1.000  C
  N201     1.0000 0.94977  0.23798  0.88945  Biso   1.000  N
  N202     1.0000 0.94973  0.23798  0.88945  Biso   1.000  N
  H401     1.0000 0.00000  0.24991  0.74603  Biso   1.000  H
  H402     1.0000 0.00000  0.30051  0.84070  Biso   1.000  H
  H403     1.0000 0.00000  0.24986  0.74603  Biso   1.000  H
  H404     1.0000 0.00004  0.24991  0.74603  Biso   1.000  H
  H405     1.0000 0.00004  0.30051  0.84070  Biso   1.000  H
  H406     1.0000 0.00004  0.24986  0.74603  Biso   1.000  H
  C362     1.0000 0.92729  0.26133  0.00000  Biso   1.000  C
  C363     1.0000 0.91142  0.20927  0.17528  Biso   1.000  C
  C364     1.0000 0.91142  0.20931  0.17528  Biso   1.000  C
  C365     1.0000 0.91138  0.20927  0.17528  Biso   1.000  C
  C366     1.0000 0.91138  0.20931  0.17528  Biso   1.000  C
  C367     1.0000 0.20927  0.91142  0.82472  Biso   1.000  C
  C368     1.0000 0.20927  0.91138  0.82472  Biso   1.000  C
  C369     1.0000 0.20931  0.91142  0.82472  Biso   1.000  C
  C370     1.0000 0.20931  0.91138  0.82472  Biso   1.000  C
  C371     1.0000 0.24039  0.86643  0.00000  Biso   1.000  C
  H407     1.0000 0.30280  0.92941  0.00000  Biso   1.000  H
  C372     1.0000 0.24039  0.86638  0.00000  Biso   1.000  C
  H408     1.0000 0.30280  0.92937  0.00000  Biso   1.000  H
  C373     1.0000 0.24035  0.86643  0.00000  Biso   1.000  C
  C374     1.0000 0.24035  0.86638  0.00000  Biso   1.000  C
  O73      1.0000 0.18896  0.91853  0.27734  Biso   1.000  O
  N203     1.0000 0.20790  0.86310  0.11055  Biso   1.000  N
  O74      1.0000 0.18896  0.91848  0.27734  Biso   1.000  O
  N204     1.0000 0.20794  0.86310  0.11055  Biso   1.000  N
  C375     1.0000 0.91142  0.20927  0.82472  Biso   1.000  C
  C376     1.0000 0.91142  0.20931  0.82472  Biso   1.000  C
  C377     1.0000 0.91138  0.20927  0.82472  Biso   1.000  C
  C378     1.0000 0.91138  0.20931  0.82472  Biso   1.000  C
  C379     1.0000 0.86643  0.24039  0.00000  Biso   1.000  C
  H409     1.0000 0.92941  0.30280  0.00000  Biso   1.000  H
  C380     1.0000 0.86643  0.24035  0.00000  Biso   1.000  C
  C381     1.0000 0.86638  0.24039  0.00000  Biso   1.000  C
  H410     1.0000 0.92937  0.30280  0.00000  Biso   1.000  H
  C382     1.0000 0.86638  0.24035  0.00000  Biso   1.000  C
  O75      1.0000 0.91853  0.18896  0.27734  Biso   1.000  O
  N205     1.0000 0.86310  0.20790  0.11055  Biso   1.000  N
  N206     1.0000 0.86310  0.20794  0.11055  Biso   1.000  N
  O76      1.0000 0.91848  0.18896  0.27734  Biso   1.000  O
  O77      1.0000 0.18896  0.91853  0.72266  Biso   1.000  O
  N207     1.0000 0.20790  0.86310  0.88945  Biso   1.000  N
  O78      1.0000 0.18896  0.91848  0.72266  Biso   1.000  O
  N208     1.0000 0.20794  0.86310  0.88945  Biso   1.000  N
  H411     1.0000 0.27180  0.83921  0.00000  Biso   1.000  H
  H412     1.0000 0.27180  0.83917  0.00000  Biso   1.000  H
  C383     1.0000 0.18829  0.81171  0.16268  Biso   1.000  C
  O79      1.0000 0.91853  0.18896  0.72266  Biso   1.000  O
  N209     1.0000 0.86310  0.20790  0.88945  Biso   1.000  N
  N210     1.0000 0.86310  0.20794  0.88945  Biso   1.000  N
  O80      1.0000 0.91848  0.18896  0.72266  Biso   1.000  O
  H413     1.0000 0.83921  0.27180  0.00000  Biso   1.000  H
  H414     1.0000 0.83917  0.27180  0.00000  Biso   1.000  H
  C384     1.0000 0.81171  0.18829  0.16268  Biso   1.000  C
  C385     1.0000 0.18829  0.81171  0.83732  Biso   1.000  C
  N211     1.0000 0.13686  0.79210  0.11055  Biso   1.000  N
  H415     1.0000 0.21708  0.78292  0.15127  Biso   1.000  H
  H416     1.0000 0.18302  0.81698  0.25160  Biso   1.000  H
  H417     1.0000 0.21708  0.78292  0.15136  Biso   1.000  H
  N212     1.0000 0.13686  0.79206  0.11055  Biso   1.000  N
  H418     1.0000 0.21708  0.78287  0.15127  Biso   1.000  H
  H419     1.0000 0.21708  0.78287  0.15136  Biso   1.000  H
  N213     1.0000 0.13690  0.79210  0.11055  Biso   1.000  N
  H420     1.0000 0.21713  0.78292  0.15127  Biso   1.000  H
  H421     1.0000 0.21713  0.78292  0.15136  Biso   1.000  H
  N214     1.0000 0.13690  0.79206  0.11055  Biso   1.000  N
  H422     1.0000 0.21713  0.78287  0.15127  Biso   1.000  H
  H423     1.0000 0.21713  0.78287  0.15136  Biso   1.000  H
  C386     1.0000 0.81171  0.18829  0.83732  Biso   1.000  C
  N215     1.0000 0.79210  0.13686  0.11055  Biso   1.000  N
  H424     1.0000 0.78292  0.21708  0.15127  Biso   1.000  H
  H425     1.0000 0.81698  0.18302  0.25160  Biso   1.000  H
  H426     1.0000 0.78292  0.21708  0.15136  Biso   1.000  H
  N216     1.0000 0.79210  0.13690  0.11055  Biso   1.000  N
  H427     1.0000 0.78292  0.21713  0.15127  Biso   1.000  H
  H428     1.0000 0.78292  0.21713  0.15136  Biso   1.000  H
  N217     1.0000 0.79206  0.13686  0.11055  Biso   1.000  N
  H429     1.0000 0.78287  0.21708  0.15127  Biso   1.000  H
  H430     1.0000 0.78287  0.21708  0.15136  Biso   1.000  H
  N218     1.0000 0.79206  0.13690  0.11055  Biso   1.000  N
  H431     1.0000 0.78287  0.21713  0.15127  Biso   1.000  H
  H432     1.0000 0.78287  0.21713  0.15136  Biso   1.000  H
  N219     1.0000 0.13686  0.79210  0.88945  Biso   1.000  N
  H433     1.0000 0.21708  0.78292  0.84873  Biso   1.000  H
  H434     1.0000 0.18302  0.81698  0.74840  Biso   1.000  H
  N220     1.0000 0.13686  0.79206  0.88945  Biso   1.000  N
  H435     1.0000 0.21708  0.78287  0.84873  Biso   1.000  H
  N221     1.0000 0.13690  0.79210  0.88945  Biso   1.000  N
  H436     1.0000 0.21713  0.78292  0.84873  Biso   1.000  H
  N222     1.0000 0.13690  0.79206  0.88945  Biso   1.000  N
  H437     1.0000 0.21713  0.78287  0.84873  Biso   1.000  H
  C387     1.0000 0.13357  0.75961  0.00000  Biso   1.000  C
  C388     1.0000 0.13362  0.75961  0.00000  Biso   1.000  C
  C389     1.0000 0.08858  0.79073  0.17528  Biso   1.000  C
  C390     1.0000 0.08858  0.79069  0.17528  Biso   1.000  C
  C391     1.0000 0.08862  0.79073  0.17528  Biso   1.000  C
  C392     1.0000 0.08862  0.79069  0.17528  Biso   1.000  C
  N223     1.0000 0.79210  0.13686  0.88945  Biso   1.000  N
  H438     1.0000 0.78292  0.21708  0.84873  Biso   1.000  H
  H439     1.0000 0.81698  0.18302  0.74840  Biso   1.000  H
  N224     1.0000 0.79210  0.13690  0.88945  Biso   1.000  N
  H440     1.0000 0.78292  0.21713  0.84873  Biso   1.000  H
  N225     1.0000 0.79206  0.13686  0.88945  Biso   1.000  N
  H441     1.0000 0.78287  0.21708  0.84873  Biso   1.000  H
  N226     1.0000 0.79206  0.13690  0.88945  Biso   1.000  N
  H442     1.0000 0.78287  0.21713  0.84873  Biso   1.000  H
  C393     1.0000 0.75961  0.13357  0.00000  Biso   1.000  C
  C394     1.0000 0.75961  0.13362  0.00000  Biso   1.000  C
  C395     1.0000 0.79073  0.08858  0.17528  Biso   1.000  C
  C396     1.0000 0.79073  0.08862  0.17528  Biso   1.000  C
  C397     1.0000 0.79069  0.08858  0.17528  Biso   1.000  C
  C398     1.0000 0.79069  0.08862  0.17528  Biso   1.000  C
  C399     1.0000 0.08858  0.79073  0.82472  Biso   1.000  C
  C400     1.0000 0.08858  0.79069  0.82472  Biso   1.000  C
  C401     1.0000 0.08862  0.79073  0.82472  Biso   1.000  C
  C402     1.0000 0.08862  0.79069  0.82472  Biso   1.000  C
  H443     1.0000 0.16079  0.72816  0.00000  Biso   1.000  H
  C403     1.0000 0.07271  0.73867  0.00000  Biso   1.000  C
  H444     1.0000 0.16079  0.72820  0.00000  Biso   1.000  H
  H445     1.0000 0.16083  0.72816  0.00000  Biso   1.000  H
  H446     1.0000 0.16083  0.72820  0.00000  Biso   1.000  H
  O81      1.0000 0.08147  0.81104  0.27734  Biso   1.000  O
  N227     1.0000 0.05023  0.76202  0.11055  Biso   1.000  N
  N228     1.0000 0.05023  0.76202  0.11064  Biso   1.000  N
  O82      1.0000 0.08152  0.81104  0.27734  Biso   1.000  O
  C404     1.0000 0.79073  0.08858  0.82472  Biso   1.000  C
  C405     1.0000 0.79073  0.08862  0.82472  Biso   1.000  C
  C406     1.0000 0.79069  0.08858  0.82472  Biso   1.000  C
  C407     1.0000 0.79069  0.08862  0.82472  Biso   1.000  C
  H447     1.0000 0.72816  0.16079  0.00000  Biso   1.000  H
  C408     1.0000 0.73867  0.07271  0.00000  Biso   1.000  C
  H448     1.0000 0.72816  0.16083  0.00000  Biso   1.000  H
  H449     1.0000 0.72820  0.16079  0.00000  Biso   1.000  H
  H450     1.0000 0.72820  0.16083  0.00000  Biso   1.000  H
  O83      1.0000 0.81104  0.08147  0.27734  Biso   1.000  O
  N229     1.0000 0.76202  0.05023  0.11055  Biso   1.000  N
  N230     1.0000 0.76202  0.05023  0.11064  Biso   1.000  N
  O84      1.0000 0.81104  0.08152  0.27734  Biso   1.000  O
  O85      1.0000 0.08147  0.81104  0.72266  Biso   1.000  O
  N231     1.0000 0.05023  0.76202  0.88945  Biso   1.000  N
  O86      1.0000 0.08152  0.81104  0.72266  Biso   1.000  O
  H451     1.0000 0.07059  0.69716  0.00000  Biso   1.000  H
  H452     1.0000 0.07059  0.69720  0.00000  Biso   1.000  H
  H453     1.0000 0.07063  0.69716  0.00000  Biso   1.000  H
  H454     1.0000 0.07063  0.69720  0.00000  Biso   1.000  H
  C409     1.0000 0.00000  0.74054  0.16606  Biso   1.000  C
  C410     1.0000 0.00000  0.74054  0.16615  Biso   1.000  C
  C411     1.0000 0.00000  0.74050  0.16606  Biso   1.000  C
  C412     1.0000 0.00000  0.74050  0.16615  Biso   1.000  C
  C413     1.0000 0.00004  0.74054  0.16606  Biso   1.000  C
  C414     1.0000 0.00004  0.74054  0.16615  Biso   1.000  C
  C415     1.0000 0.00004  0.74050  0.16606  Biso   1.000  C
  C416     1.0000 0.00004  0.74050  0.16615  Biso   1.000  C
  O87      1.0000 0.81104  0.08147  0.72266  Biso   1.000  O
  N232     1.0000 0.76202  0.05023  0.88945  Biso   1.000  N
  O88      1.0000 0.81104  0.08152  0.72266  Biso   1.000  O
  H455     1.0000 0.69716  0.07059  0.00000  Biso   1.000  H
  H456     1.0000 0.69716  0.07063  0.00000  Biso   1.000  H
  H457     1.0000 0.69720  0.07059  0.00000  Biso   1.000  H
  H458     1.0000 0.69720  0.07063  0.00000  Biso   1.000  H
  C417     1.0000 0.74054  0.00000  0.16606  Biso   1.000  C
  C418     1.0000 0.74054  0.00000  0.16615  Biso   1.000  C
  C419     1.0000 0.74054  0.00004  0.16606  Biso   1.000  C
  C420     1.0000 0.74054  0.00004  0.16615  Biso   1.000  C
  C421     1.0000 0.74050  0.00000  0.16606  Biso   1.000  C
  C422     1.0000 0.74050  0.00000  0.16615  Biso   1.000  C
  C423     1.0000 0.74050  0.00004  0.16606  Biso   1.000  C
  C424     1.0000 0.74050  0.00004  0.16615  Biso   1.000  C
  C425     1.0000 0.00000  0.74054  0.83394  Biso   1.000  C
  C426     1.0000 0.00000  0.74050  0.83394  Biso   1.000  C
  C427     1.0000 0.00004  0.74054  0.83394  Biso   1.000  C
  C428     1.0000 0.00004  0.74050  0.83394  Biso   1.000  C
  N233     1.0000 0.94977  0.76202  0.11055  Biso   1.000  N
  N234     1.0000 0.94977  0.76202  0.11064  Biso   1.000  N
  N235     1.0000 0.94973  0.76202  0.11055  Biso   1.000  N
  N236     1.0000 0.94973  0.76202  0.11064  Biso   1.000  N
  H459     1.0000 0.00000  0.75005  0.25397  Biso   1.000  H
  H460     1.0000 0.00000  0.69945  0.15930  Biso   1.000  H
  H461     1.0000 0.00000  0.75005  0.25406  Biso   1.000  H
  H462     1.0000 0.00000  0.75009  0.25397  Biso   1.000  H
  H463     1.0000 0.00000  0.69949  0.15930  Biso   1.000  H
  H464     1.0000 0.00000  0.75009  0.25406  Biso   1.000  H
  H465     1.0000 0.00004  0.75005  0.25397  Biso   1.000  H
  H466     1.0000 0.00004  0.69945  0.15930  Biso   1.000  H
  H467     1.0000 0.00004  0.75005  0.25406  Biso   1.000  H
  H468     1.0000 0.00004  0.75009  0.25397  Biso   1.000  H
  H469     1.0000 0.00004  0.69949  0.15930  Biso   1.000  H
  H470     1.0000 0.00004  0.75009  0.25406  Biso   1.000  H
  C429     1.0000 0.74054  0.00000  0.83394  Biso   1.000  C
  C430     1.0000 0.74054  0.00004  0.83394  Biso   1.000  C
  C431     1.0000 0.74050  0.00000  0.83394  Biso   1.000  C
  C432     1.0000 0.74050  0.00004  0.83394  Biso   1.000  C
  N237     1.0000 0.76202  0.94977  0.11055  Biso   1.000  N
  N238     1.0000 0.76202  0.94977  0.11064  Biso   1.000  N
  N239     1.0000 0.76202  0.94973  0.11055  Biso   1.000  N
  N240     1.0000 0.76202  0.94973  0.11064  Biso   1.000  N
  H471     1.0000 0.75005  0.00000  0.25397  Biso   1.000  H
  H472     1.0000 0.69945  0.00000  0.15930  Biso   1.000  H
  H473     1.0000 0.75005  0.00000  0.25406  Biso   1.000  H
  H474     1.0000 0.75005  0.00004  0.25397  Biso   1.000  H
  H475     1.0000 0.69945  0.00004  0.15930  Biso   1.000  H
  H476     1.0000 0.75005  0.00004  0.25406  Biso   1.000  H
  H477     1.0000 0.75009  0.00000  0.25397  Biso   1.000  H
  H478     1.0000 0.69949  0.00000  0.15930  Biso   1.000  H
  H479     1.0000 0.75009  0.00000  0.25406  Biso   1.000  H
  H480     1.0000 0.75009  0.00004  0.25397  Biso   1.000  H
  H481     1.0000 0.69949  0.00004  0.15930  Biso   1.000  H
  H482     1.0000 0.75009  0.00004  0.25406  Biso   1.000  H
  N241     1.0000 0.94977  0.76202  0.88945  Biso   1.000  N
  N242     1.0000 0.94973  0.76202  0.88945  Biso   1.000  N
  H483     1.0000 0.00000  0.75005  0.74603  Biso   1.000  H
  H484     1.0000 0.00000  0.69945  0.84070  Biso   1.000  H
  H485     1.0000 0.00000  0.75009  0.74603  Biso   1.000  H
  H486     1.0000 0.00000  0.69949  0.84070  Biso   1.000  H
  H487     1.0000 0.00004  0.75005  0.74603  Biso   1.000  H
  H488     1.0000 0.00004  0.69945  0.84070  Biso   1.000  H
  H489     1.0000 0.00004  0.75009  0.74603  Biso   1.000  H
  H490     1.0000 0.00004  0.69949  0.84070  Biso   1.000  H
  C433     1.0000 0.92729  0.73867  0.00000  Biso   1.000  C
  C434     1.0000 0.91142  0.79073  0.17528  Biso   1.000  C
  C435     1.0000 0.91142  0.79069  0.17528  Biso   1.000  C
  C436     1.0000 0.91138  0.79073  0.17528  Biso   1.000  C
  C437     1.0000 0.91138  0.79069  0.17528  Biso   1.000  C
  N243     1.0000 0.76202  0.94977  0.88945  Biso   1.000  N
  N244     1.0000 0.76202  0.94973  0.88945  Biso   1.000  N
  H491     1.0000 0.75005  0.00000  0.74603  Biso   1.000  H
  H492     1.0000 0.69945  0.00000  0.84070  Biso   1.000  H
  H493     1.0000 0.75005  0.00004  0.74603  Biso   1.000  H
  H494     1.0000 0.69945  0.00004  0.84070  Biso   1.000  H
  H495     1.0000 0.75009  0.00000  0.74603  Biso   1.000  H
  H496     1.0000 0.69949  0.00000  0.84070  Biso   1.000  H
  H497     1.0000 0.75009  0.00004  0.74603  Biso   1.000  H
  H498     1.0000 0.69949  0.00004  0.84070  Biso   1.000  H
  C438     1.0000 0.73867  0.92729  0.00000  Biso   1.000  C
  C439     1.0000 0.79073  0.91142  0.17528  Biso   1.000  C
  C440     1.0000 0.79073  0.91138  0.17528  Biso   1.000  C
  C441     1.0000 0.79069  0.91142  0.17528  Biso   1.000  C
  C442     1.0000 0.79069  0.91138  0.17528  Biso   1.000  C
  C443     1.0000 0.91142  0.79073  0.82472  Biso   1.000  C
  C444     1.0000 0.91142  0.79069  0.82472  Biso   1.000  C
  C445     1.0000 0.91138  0.79073  0.82472  Biso   1.000  C
  C446     1.0000 0.91138  0.79069  0.82472  Biso   1.000  C
  C447     1.0000 0.86643  0.75961  0.00000  Biso   1.000  C
  H499     1.0000 0.92941  0.69716  0.00000  Biso   1.000  H
  H500     1.0000 0.92941  0.69720  0.00000  Biso   1.000  H
  C448     1.0000 0.86638  0.75961  0.00000  Biso   1.000  C
  H501     1.0000 0.92937  0.69716  0.00000  Biso   1.000  H
  H502     1.0000 0.92937  0.69720  0.00000  Biso   1.000  H
  O89      1.0000 0.91853  0.81104  0.27734  Biso   1.000  O
  N245     1.0000 0.86310  0.79210  0.11055  Biso   1.000  N
  N246     1.0000 0.86310  0.79206  0.11055  Biso   1.000  N
  O90      1.0000 0.91848  0.81104  0.27734  Biso   1.000  O
  C449     1.0000 0.79073  0.91142  0.82472  Biso   1.000  C
  C450     1.0000 0.79073  0.91138  0.82472  Biso   1.000  C
  C451     1.0000 0.79069  0.91142  0.82472  Biso   1.000  C
  C452     1.0000 0.79069  0.91138  0.82472  Biso   1.000  C
  C453     1.0000 0.75961  0.86643  0.00000  Biso   1.000  C
  H503     1.0000 0.69716  0.92941  0.00000  Biso   1.000  H
  C454     1.0000 0.75961  0.86638  0.00000  Biso   1.000  C
  H504     1.0000 0.69716  0.92937  0.00000  Biso   1.000  H
  H505     1.0000 0.69720  0.92941  0.00000  Biso   1.000  H
  H506     1.0000 0.69720  0.92937  0.00000  Biso   1.000  H
  O91      1.0000 0.81104  0.91853  0.27734  Biso   1.000  O
  N247     1.0000 0.79210  0.86310  0.11055  Biso   1.000  N
  O92      1.0000 0.81104  0.91848  0.27734  Biso   1.000  O
  N248     1.0000 0.79206  0.86310  0.11055  Biso   1.000  N
  O93      1.0000 0.91853  0.81104  0.72266  Biso   1.000  O
  N249     1.0000 0.86310  0.79210  0.88945  Biso   1.000  N
  N250     1.0000 0.86310  0.79206  0.88945  Biso   1.000  N
  O94      1.0000 0.91848  0.81104  0.72266  Biso   1.000  O
  H507     1.0000 0.83921  0.72816  0.00000  Biso   1.000  H
  H508     1.0000 0.83921  0.72820  0.00000  Biso   1.000  H
  H509     1.0000 0.83917  0.72816  0.00000  Biso   1.000  H
  H510     1.0000 0.83917  0.72820  0.00000  Biso   1.000  H
  C455     1.0000 0.81171  0.81171  0.16268  Biso   1.000  C
  O95      1.0000 0.81104  0.91853  0.72266  Biso   1.000  O
  N251     1.0000 0.79210  0.86310  0.88945  Biso   1.000  N
  O96      1.0000 0.81104  0.91848  0.72266  Biso   1.000  O
  N252     1.0000 0.79206  0.86310  0.88945  Biso   1.000  N
  H511     1.0000 0.72816  0.83921  0.00000  Biso   1.000  H
  H512     1.0000 0.72816  0.83917  0.00000  Biso   1.000  H
  H513     1.0000 0.72820  0.83921  0.00000  Biso   1.000  H
  H514     1.0000 0.72820  0.83917  0.00000  Biso   1.000  H
  C456     1.0000 0.81171  0.81171  0.83732  Biso   1.000  C
  H515     1.0000 0.78292  0.78292  0.15127  Biso   1.000  H
  H516     1.0000 0.81698  0.81698  0.25160  Biso   1.000  H
  H517     1.0000 0.78292  0.78292  0.15136  Biso   1.000  H
  H518     1.0000 0.78292  0.78287  0.15127  Biso   1.000  H
  H519     1.0000 0.78292  0.78287  0.15136  Biso   1.000  H
  H520     1.0000 0.78287  0.78292  0.15127  Biso   1.000  H
  H521     1.0000 0.78287  0.78292  0.15136  Biso   1.000  H
  H522     1.0000 0.78287  0.78287  0.15127  Biso   1.000  H
  H523     1.0000 0.78287  0.78287  0.15136  Biso   1.000  H
  H524     1.0000 0.78292  0.78292  0.84873  Biso   1.000  H
  H525     1.0000 0.81698  0.81698  0.74840  Biso   1.000  H
  H526     1.0000 0.78292  0.78287  0.84873  Biso   1.000  H
  H527     1.0000 0.78287  0.78292  0.84873  Biso   1.000  H
  H528     1.0000 0.78287  0.78287  0.84873  Biso   1.000  H
  C457     1.0000 0.18829  0.18829  0.16268  Biso   1.000  C
  H529     1.0000 0.18302  0.18302  0.25160  Biso   1.000  H
  N253     1.0000 0.20790  0.13686  0.11055  Biso   1.000  N
  N254     1.0000 0.13686  0.20790  0.11055  Biso   1.000  N
  H530     1.0000 0.21708  0.21708  0.15127  Biso   1.000  H
  H531     1.0000 0.21708  0.21708  0.15136  Biso   1.000  H
  N255     1.0000 0.20790  0.13690  0.11055  Biso   1.000  N
  N256     1.0000 0.13686  0.20794  0.11055  Biso   1.000  N
  H532     1.0000 0.21708  0.21713  0.15127  Biso   1.000  H
  H533     1.0000 0.21708  0.21713  0.15136  Biso   1.000  H
  N257     1.0000 0.20794  0.13686  0.11055  Biso   1.000  N
  N258     1.0000 0.13690  0.20790  0.11055  Biso   1.000  N
  H534     1.0000 0.21713  0.21708  0.15127  Biso   1.000  H
  H535     1.0000 0.21713  0.21708  0.15136  Biso   1.000  H
  N259     1.0000 0.20794  0.13690  0.11055  Biso   1.000  N
  N260     1.0000 0.13690  0.20794  0.11055  Biso   1.000  N
  H536     1.0000 0.21713  0.21713  0.15127  Biso   1.000  H
  H537     1.0000 0.21713  0.21713  0.15136  Biso   1.000  H
  C458     1.0000 0.24039  0.13357  0.00000  Biso   1.000  C
  C459     1.0000 0.24039  0.13362  0.00000  Biso   1.000  C
  C460     1.0000 0.24035  0.13357  0.00000  Biso   1.000  C
  C461     1.0000 0.24035  0.13362  0.00000  Biso   1.000  C
  C462     1.0000 0.20927  0.08858  0.17528  Biso   1.000  C
  C463     1.0000 0.20927  0.08862  0.17528  Biso   1.000  C
  C464     1.0000 0.20931  0.08858  0.17528  Biso   1.000  C
  C465     1.0000 0.20931  0.08862  0.17528  Biso   1.000  C
  C466     1.0000 0.13357  0.24039  0.00000  Biso   1.000  C
  C467     1.0000 0.13357  0.24035  0.00000  Biso   1.000  C
  C468     1.0000 0.13362  0.24039  0.00000  Biso   1.000  C
  C469     1.0000 0.13362  0.24035  0.00000  Biso   1.000  C
  C470     1.0000 0.08858  0.20927  0.17528  Biso   1.000  C
  C471     1.0000 0.08858  0.20931  0.17528  Biso   1.000  C
  C472     1.0000 0.08862  0.20927  0.17528  Biso   1.000  C
  C473     1.0000 0.08862  0.20931  0.17528  Biso   1.000  C
  C474     1.0000 0.26133  0.07271  0.00000  Biso   1.000  C
  N261     1.0000 0.20790  0.13686  0.88945  Biso   1.000  N
  H538     1.0000 0.27180  0.16079  0.00000  Biso   1.000  H
  N262     1.0000 0.20790  0.13690  0.88945  Biso   1.000  N
  H539     1.0000 0.27180  0.16083  0.00000  Biso   1.000  H
  N263     1.0000 0.20794  0.13686  0.88945  Biso   1.000  N
  N264     1.0000 0.20794  0.13690  0.88945  Biso   1.000  N
  O97      1.0000 0.18896  0.08147  0.27734  Biso   1.000  O
  N265     1.0000 0.23798  0.05023  0.11055  Biso   1.000  N
  O98      1.0000 0.18896  0.08152  0.27734  Biso   1.000  O
  N266     1.0000 0.23798  0.05023  0.11064  Biso   1.000  N
  C475     1.0000 0.07271  0.26133  0.00000  Biso   1.000  C
  N267     1.0000 0.13686  0.20790  0.88945  Biso   1.000  N
  H540     1.0000 0.16079  0.27180  0.00000  Biso   1.000  H
  N268     1.0000 0.13686  0.20794  0.88945  Biso   1.000  N
  N269     1.0000 0.13690  0.20790  0.88945  Biso   1.000  N
  H541     1.0000 0.16083  0.27180  0.00000  Biso   1.000  H
  N270     1.0000 0.13690  0.20794  0.88945  Biso   1.000  N
  O99      1.0000 0.08147  0.18896  0.27734  Biso   1.000  O
  N271     1.0000 0.05023  0.23798  0.11055  Biso   1.000  N
  O100     1.0000 0.08152  0.18896  0.27734  Biso   1.000  O
  N272     1.0000 0.05023  0.23798  0.11064  Biso   1.000  N
  N273     1.0000 0.23798  0.05023  0.88945  Biso   1.000  N
  H542     1.0000 0.30280  0.07059  0.00000  Biso   1.000  H
  H543     1.0000 0.30280  0.07063  0.00000  Biso   1.000  H
  C476     1.0000 0.20927  0.08858  0.82472  Biso   1.000  C
  C477     1.0000 0.18829  0.18829  0.83732  Biso   1.000  C
  C478     1.0000 0.20927  0.08862  0.82472  Biso   1.000  C
  C479     1.0000 0.20931  0.08858  0.82472  Biso   1.000  C
  C480     1.0000 0.20931  0.08862  0.82472  Biso   1.000  C
  C481     1.0000 0.25946  0.00000  0.16606  Biso   1.000  C
  C482     1.0000 0.25946  0.00000  0.16615  Biso   1.000  C
  C483     1.0000 0.25946  0.00004  0.16606  Biso   1.000  C
  C484     1.0000 0.25946  0.00004  0.16615  Biso   1.000  C
  C485     1.0000 0.25950  0.00000  0.16606  Biso   1.000  C
  C486     1.0000 0.25950  0.00000  0.16615  Biso   1.000  C
  C487     1.0000 0.25950  0.00004  0.16606  Biso   1.000  C
  C488     1.0000 0.25950  0.00004  0.16615  Biso   1.000  C
  N274     1.0000 0.05023  0.23798  0.88945  Biso   1.000  N
  H544     1.0000 0.07059  0.30280  0.00000  Biso   1.000  H
  H545     1.0000 0.07063  0.30280  0.00000  Biso   1.000  H
  C489     1.0000 0.08858  0.20927  0.82472  Biso   1.000  C
  C490     1.0000 0.08858  0.20931  0.82472  Biso   1.000  C
  C491     1.0000 0.08862  0.20927  0.82472  Biso   1.000  C
  C492     1.0000 0.08862  0.20931  0.82472  Biso   1.000  C
  C493     1.0000 0.00000  0.25946  0.16606  Biso   1.000  C
  C494     1.0000 0.00000  0.25946  0.16615  Biso   1.000  C
  C495     1.0000 0.00000  0.25950  0.16606  Biso   1.000  C
  C496     1.0000 0.00000  0.25950  0.16615  Biso   1.000  C
  C497     1.0000 0.00004  0.25946  0.16606  Biso   1.000  C
  C498     1.0000 0.00004  0.25946  0.16615  Biso   1.000  C
  C499     1.0000 0.00004  0.25950  0.16606  Biso   1.000  C
  C500     1.0000 0.00004  0.25950  0.16615  Biso   1.000  C
  C501     1.0000 0.25946  0.00000  0.83394  Biso   1.000  C
  C502     1.0000 0.25946  0.00004  0.83394  Biso   1.000  C
  C503     1.0000 0.25950  0.00000  0.83394  Biso   1.000  C
  C504     1.0000 0.25950  0.00004  0.83394  Biso   1.000  C
  O101     1.0000 0.18896  0.08147  0.72266  Biso   1.000  O
  O102     1.0000 0.18896  0.08152  0.72266  Biso   1.000  O
  H546     1.0000 0.21708  0.21708  0.84873  Biso   1.000  H
  H547     1.0000 0.18302  0.18302  0.74840  Biso   1.000  H
  H548     1.0000 0.21708  0.21713  0.84873  Biso   1.000  H
  H549     1.0000 0.21713  0.21708  0.84873  Biso   1.000  H
  H550     1.0000 0.21713  0.21713  0.84873  Biso   1.000  H
  H551     1.0000 0.30051  0.00000  0.15930  Biso   1.000  H
  H552     1.0000 0.30051  0.00004  0.15930  Biso   1.000  H
  N275     1.0000 0.23798  0.94977  0.11055  Biso   1.000  N
  N276     1.0000 0.23798  0.94977  0.11064  Biso   1.000  N
  N277     1.0000 0.23798  0.94973  0.11055  Biso   1.000  N
  N278     1.0000 0.23798  0.94973  0.11064  Biso   1.000  N
  H553     1.0000 0.24991  0.00000  0.25397  Biso   1.000  H
  H554     1.0000 0.24991  0.00000  0.25406  Biso   1.000  H
  H555     1.0000 0.24991  0.00004  0.25397  Biso   1.000  H
  H556     1.0000 0.24991  0.00004  0.25406  Biso   1.000  H
  H557     1.0000 0.24986  0.00000  0.25397  Biso   1.000  H
  H558     1.0000 0.24986  0.00000  0.25406  Biso   1.000  H
  H559     1.0000 0.24986  0.00004  0.25397  Biso   1.000  H
  H560     1.0000 0.24986  0.00004  0.25406  Biso   1.000  H
  C505     1.0000 0.00000  0.25946  0.83394  Biso   1.000  C
  C506     1.0000 0.00000  0.25950  0.83394  Biso   1.000  C
  C507     1.0000 0.00004  0.25946  0.83394  Biso   1.000  C
  C508     1.0000 0.00004  0.25950  0.83394  Biso   1.000  C
  O103     1.0000 0.08147  0.18896  0.72266  Biso   1.000  O
  O104     1.0000 0.08152  0.18896  0.72266  Biso   1.000  O
  H561     1.0000 0.00000  0.30051  0.15930  Biso   1.000  H
  H562     1.0000 0.00004  0.30051  0.15930  Biso   1.000  H
  N279     1.0000 0.94977  0.23798  0.11055  Biso   1.000  N
  N280     1.0000 0.94977  0.23798  0.11064  Biso   1.000  N
  N281     1.0000 0.94973  0.23798  0.11055  Biso   1.000  N
  N282     1.0000 0.94973  0.23798  0.11064  Biso   1.000  N
  H563     1.0000 0.00000  0.24991  0.25397  Biso   1.000  H
  H564     1.0000 0.00000  0.24991  0.25406  Biso   1.000  H
  H565     1.0000 0.00000  0.24986  0.25397  Biso   1.000  H
  H566     1.0000 0.00000  0.24986  0.25406  Biso   1.000  H
  H567     1.0000 0.00004  0.24991  0.25397  Biso   1.000  H
  H568     1.0000 0.00004  0.24991  0.25406  Biso   1.000  H
  H569     1.0000 0.00004  0.24986  0.25397  Biso   1.000  H
  H570     1.0000 0.00004  0.24986  0.25406  Biso   1.000  H
  N283     1.0000 0.23798  0.94977  0.88945  Biso   1.000  N
  N284     1.0000 0.23798  0.94973  0.88945  Biso   1.000  N
  H571     1.0000 0.24991  0.00000  0.74603  Biso   1.000  H
  H572     1.0000 0.30051  0.00000  0.84070  Biso   1.000  H
  H573     1.0000 0.24991  0.00004  0.74603  Biso   1.000  H
  H574     1.0000 0.30051  0.00004  0.84070  Biso   1.000  H
  H575     1.0000 0.24986  0.00000  0.74603  Biso   1.000  H
  H576     1.0000 0.24986  0.00004  0.74603  Biso   1.000  H
  C509     1.0000 0.26133  0.92729  0.00000  Biso   1.000  C
  C510     1.0000 0.20927  0.91142  0.17528  Biso   1.000  C
  C511     1.0000 0.20927  0.91138  0.17528  Biso   1.000  C
  C512     1.0000 0.20931  0.91142  0.17528  Biso   1.000  C
  C513     1.0000 0.20931  0.91138  0.17528  Biso   1.000  C
  N285     1.0000 0.94977  0.23798  0.88945  Biso   1.000  N
  N286     1.0000 0.94973  0.23798  0.88945  Biso   1.000  N
  H577     1.0000 0.00000  0.24991  0.74603  Biso   1.000  H
  H578     1.0000 0.00000  0.30051  0.84070  Biso   1.000  H
  H579     1.0000 0.00000  0.24986  0.74603  Biso   1.000  H
  H580     1.0000 0.00004  0.24991  0.74603  Biso   1.000  H
  H581     1.0000 0.00004  0.30051  0.84070  Biso   1.000  H
  H582     1.0000 0.00004  0.24986  0.74603  Biso   1.000  H
  C514     1.0000 0.92729  0.26133  0.00000  Biso   1.000  C
  C515     1.0000 0.91142  0.20927  0.17528  Biso   1.000  C
  C516     1.0000 0.91142  0.20931  0.17528  Biso   1.000  C
  C517     1.0000 0.91138  0.20927  0.17528  Biso   1.000  C
  C518     1.0000 0.91138  0.20931  0.17528  Biso   1.000  C
  C519     1.0000 0.20927  0.91142  0.82472  Biso   1.000  C
  C520     1.0000 0.20927  0.91138  0.82472  Biso   1.000  C
  C521     1.0000 0.20931  0.91142  0.82472  Biso   1.000  C
  C522     1.0000 0.20931  0.91138  0.82472  Biso   1.000  C
  C523     1.0000 0.24039  0.86643  0.00000  Biso   1.000  C
  H583     1.0000 0.30280  0.92941  0.00000  Biso   1.000  H
  C524     1.0000 0.24039  0.86638  0.00000  Biso   1.000  C
  H584     1.0000 0.30280  0.92937  0.00000  Biso   1.000  H
  C525     1.0000 0.24035  0.86643  0.00000  Biso   1.000  C
  C526     1.0000 0.24035  0.86638  0.00000  Biso   1.000  C
  O105     1.0000 0.18896  0.91853  0.27734  Biso   1.000  O
  N287     1.0000 0.20790  0.86310  0.11055  Biso   1.000  N
  O106     1.0000 0.18896  0.91848  0.27734  Biso   1.000  O
  N288     1.0000 0.20794  0.86310  0.11055  Biso   1.000  N
  C527     1.0000 0.91142  0.20927  0.82472  Biso   1.000  C
  C528     1.0000 0.91142  0.20931  0.82472  Biso   1.000  C
  C529     1.0000 0.91138  0.20927  0.82472  Biso   1.000  C
  C530     1.0000 0.91138  0.20931  0.82472  Biso   1.000  C
  C531     1.0000 0.86643  0.24039  0.00000  Biso   1.000  C
  H585     1.0000 0.92941  0.30280  0.00000  Biso   1.000  H
  C532     1.0000 0.86643  0.24035  0.00000  Biso   1.000  C
  C533     1.0000 0.86638  0.24039  0.00000  Biso   1.000  C
  H586     1.0000 0.92937  0.30280  0.00000  Biso   1.000  H
  C534     1.0000 0.86638  0.24035  0.00000  Biso   1.000  C
  O107     1.0000 0.91853  0.18896  0.27734  Biso   1.000  O
  N289     1.0000 0.86310  0.20790  0.11055  Biso   1.000  N
  N290     1.0000 0.86310  0.20794  0.11055  Biso   1.000  N
  O108     1.0000 0.91848  0.18896  0.27734  Biso   1.000  O
  O109     1.0000 0.18896  0.91853  0.72266  Biso   1.000  O
  N291     1.0000 0.20790  0.86310  0.88945  Biso   1.000  N
  O110     1.0000 0.18896  0.91848  0.72266  Biso   1.000  O
  N292     1.0000 0.20794  0.86310  0.88945  Biso   1.000  N
  H587     1.0000 0.27180  0.83921  0.00000  Biso   1.000  H
  H588     1.0000 0.27180  0.83917  0.00000  Biso   1.000  H
  C535     1.0000 0.18829  0.81171  0.16268  Biso   1.000  C
  O111     1.0000 0.91853  0.18896  0.72266  Biso   1.000  O
  N293     1.0000 0.86310  0.20790  0.88945  Biso   1.000  N
  N294     1.0000 0.86310  0.20794  0.88945  Biso   1.000  N
  O112     1.0000 0.91848  0.18896  0.72266  Biso   1.000  O
  H589     1.0000 0.83921  0.27180  0.00000  Biso   1.000  H
  H590     1.0000 0.83917  0.27180  0.00000  Biso   1.000  H
  C536     1.0000 0.81171  0.18829  0.16268  Biso   1.000  C
  C537     1.0000 0.18829  0.81171  0.83732  Biso   1.000  C
  N295     1.0000 0.13686  0.79210  0.11055  Biso   1.000  N
  H591     1.0000 0.21708  0.78292  0.15127  Biso   1.000  H
  H592     1.0000 0.18302  0.81698  0.25160  Biso   1.000  H
  H593     1.0000 0.21708  0.78292  0.15136  Biso   1.000  H
  N296     1.0000 0.13686  0.79206  0.11055  Biso   1.000  N
  H594     1.0000 0.21708  0.78287  0.15127  Biso   1.000  H
  H595     1.0000 0.21708  0.78287  0.15136  Biso   1.000  H
  N297     1.0000 0.13690  0.79210  0.11055  Biso   1.000  N
  H596     1.0000 0.21713  0.78292  0.15127  Biso   1.000  H
  H597     1.0000 0.21713  0.78292  0.15136  Biso   1.000  H
  N298     1.0000 0.13690  0.79206  0.11055  Biso   1.000  N
  H598     1.0000 0.21713  0.78287  0.15127  Biso   1.000  H
  H599     1.0000 0.21713  0.78287  0.15136  Biso   1.000  H
  C538     1.0000 0.81171  0.18829  0.83732  Biso   1.000  C
  N299     1.0000 0.79210  0.13686  0.11055  Biso   1.000  N
  H600     1.0000 0.78292  0.21708  0.15127  Biso   1.000  H
  H601     1.0000 0.81698  0.18302  0.25160  Biso   1.000  H
  H602     1.0000 0.78292  0.21708  0.15136  Biso   1.000  H
  N300     1.0000 0.79210  0.13690  0.11055  Biso   1.000  N
  H603     1.0000 0.78292  0.21713  0.15127  Biso   1.000  H
  H604     1.0000 0.78292  0.21713  0.15136  Biso   1.000  H
  N301     1.0000 0.79206  0.13686  0.11055  Biso   1.000  N
  H605     1.0000 0.78287  0.21708  0.15127  Biso   1.000  H
  H606     1.0000 0.78287  0.21708  0.15136  Biso   1.000  H
  N302     1.0000 0.79206  0.13690  0.11055  Biso   1.000  N
  H607     1.0000 0.78287  0.21713  0.15127  Biso   1.000  H
  H608     1.0000 0.78287  0.21713  0.15136  Biso   1.000  H
  N303     1.0000 0.13686  0.79210  0.88945  Biso   1.000  N
  H609     1.0000 0.21708  0.78292  0.84873  Biso   1.000  H
  H610     1.0000 0.18302  0.81698  0.74840  Biso   1.000  H
  N304     1.0000 0.13686  0.79206  0.88945  Biso   1.000  N
  H611     1.0000 0.21708  0.78287  0.84873  Biso   1.000  H
  N305     1.0000 0.13690  0.79210  0.88945  Biso   1.000  N
  H612     1.0000 0.21713  0.78292  0.84873  Biso   1.000  H
  N306     1.0000 0.13690  0.79206  0.88945  Biso   1.000  N
  H613     1.0000 0.21713  0.78287  0.84873  Biso   1.000  H
  C539     1.0000 0.13357  0.75961  0.00000  Biso   1.000  C
  C540     1.0000 0.13362  0.75961  0.00000  Biso   1.000  C
  C541     1.0000 0.08858  0.79073  0.17528  Biso   1.000  C
  C542     1.0000 0.08858  0.79069  0.17528  Biso   1.000  C
  C543     1.0000 0.08862  0.79073  0.17528  Biso   1.000  C
  C544     1.0000 0.08862  0.79069  0.17528  Biso   1.000  C
  N307     1.0000 0.79210  0.13686  0.88945  Biso   1.000  N
  H614     1.0000 0.78292  0.21708  0.84873  Biso   1.000  H
  H615     1.0000 0.81698  0.18302  0.74840  Biso   1.000  H
  N308     1.0000 0.79210  0.13690  0.88945  Biso   1.000  N
  H616     1.0000 0.78292  0.21713  0.84873  Biso   1.000  H
  N309     1.0000 0.79206  0.13686  0.88945  Biso   1.000  N
  H617     1.0000 0.78287  0.21708  0.84873  Biso   1.000  H
  N310     1.0000 0.79206  0.13690  0.88945  Biso   1.000  N
  H618     1.0000 0.78287  0.21713  0.84873  Biso   1.000  H
  C545     1.0000 0.75961  0.13357  0.00000  Biso   1.000  C
  C546     1.0000 0.75961  0.13362  0.00000  Biso   1.000  C
  C547     1.0000 0.79073  0.08858  0.17528  Biso   1.000  C
  C548     1.0000 0.79073  0.08862  0.17528  Biso   1.000  C
  C549     1.0000 0.79069  0.08858  0.17528  Biso   1.000  C
  C550     1.0000 0.79069  0.08862  0.17528  Biso   1.000  C
  C551     1.0000 0.08858  0.79073  0.82472  Biso   1.000  C
  C552     1.0000 0.08858  0.79069  0.82472  Biso   1.000  C
  C553     1.0000 0.08862  0.79073  0.82472  Biso   1.000  C
  C554     1.0000 0.08862  0.79069  0.82472  Biso   1.000  C
  H619     1.0000 0.16079  0.72816  0.00000  Biso   1.000  H
  C555     1.0000 0.07271  0.73867  0.00000  Biso   1.000  C
  H620     1.0000 0.16079  0.72820  0.00000  Biso   1.000  H
  H621     1.0000 0.16083  0.72816  0.00000  Biso   1.000  H
  H622     1.0000 0.16083  0.72820  0.00000  Biso   1.000  H
  O113     1.0000 0.08147  0.81104  0.27734  Biso   1.000  O
  N311     1.0000 0.05023  0.76202  0.11055  Biso   1.000  N
  N312     1.0000 0.05023  0.76202  0.11064  Biso   1.000  N
  O114     1.0000 0.08152  0.81104  0.27734  Biso   1.000  O
  C556     1.0000 0.79073  0.08858  0.82472  Biso   1.000  C
  C557     1.0000 0.79073  0.08862  0.82472  Biso   1.000  C
  C558     1.0000 0.79069  0.08858  0.82472  Biso   1.000  C
  C559     1.0000 0.79069  0.08862  0.82472  Biso   1.000  C
  H623     1.0000 0.72816  0.16079  0.00000  Biso   1.000  H
  C560     1.0000 0.73867  0.07271  0.00000  Biso   1.000  C
  H624     1.0000 0.72816  0.16083  0.00000  Biso   1.000  H
  H625     1.0000 0.72820  0.16079  0.00000  Biso   1.000  H
  H626     1.0000 0.72820  0.16083  0.00000  Biso   1.000  H
  O115     1.0000 0.81104  0.08147  0.27734  Biso   1.000  O
  N313     1.0000 0.76202  0.05023  0.11055  Biso   1.000  N
  N314     1.0000 0.76202  0.05023  0.11064  Biso   1.000  N
  O116     1.0000 0.81104  0.08152  0.27734  Biso   1.000  O
  O117     1.0000 0.08147  0.81104  0.72266  Biso   1.000  O
  N315     1.0000 0.05023  0.76202  0.88945  Biso   1.000  N
  O118     1.0000 0.08152  0.81104  0.72266  Biso   1.000  O
  H627     1.0000 0.07059  0.69716  0.00000  Biso   1.000  H
  H628     1.0000 0.07059  0.69720  0.00000  Biso   1.000  H
  H629     1.0000 0.07063  0.69716  0.00000  Biso   1.000  H
  H630     1.0000 0.07063  0.69720  0.00000  Biso   1.000  H
  C561     1.0000 0.00000  0.74054  0.16606  Biso   1.000  C
  C562     1.0000 0.00000  0.74054  0.16615  Biso   1.000  C
  C563     1.0000 0.00000  0.74050  0.16606  Biso   1.000  C
  C564     1.0000 0.00000  0.74050  0.16615  Biso   1.000  C
  C565     1.0000 0.00004  0.74054  0.16606  Biso   1.000  C
  C566     1.0000 0.00004  0.74054  0.16615  Biso   1.000  C
  C567     1.0000 0.00004  0.74050  0.16606  Biso   1.000  C
  C568     1.0000 0.00004  0.74050  0.16615  Biso   1.000  C
  O119     1.0000 0.81104  0.08147  0.72266  Biso   1.000  O
  N316     1.0000 0.76202  0.05023  0.88945  Biso   1.000  N
  O120     1.0000 0.81104  0.08152  0.72266  Biso   1.000  O
  H631     1.0000 0.69716  0.07059  0.00000  Biso   1.000  H
  H632     1.0000 0.69716  0.07063  0.00000  Biso   1.000  H
  H633     1.0000 0.69720  0.07059  0.00000  Biso   1.000  H
  H634     1.0000 0.69720  0.07063  0.00000  Biso   1.000  H
  C569     1.0000 0.74054  0.00000  0.16606  Biso   1.000  C
  C570     1.0000 0.74054  0.00000  0.16615  Biso   1.000  C
  C571     1.0000 0.74054  0.00004  0.16606  Biso   1.000  C
  C572     1.0000 0.74054  0.00004  0.16615  Biso   1.000  C
  C573     1.0000 0.74050  0.00000  0.16606  Biso   1.000  C
  C574     1.0000 0.74050  0.00000  0.16615  Biso   1.000  C
  C575     1.0000 0.74050  0.00004  0.16606  Biso   1.000  C
  C576     1.0000 0.74050  0.00004  0.16615  Biso   1.000  C
  C577     1.0000 0.00000  0.74054  0.83394  Biso   1.000  C
  C578     1.0000 0.00000  0.74050  0.83394  Biso   1.000  C
  C579     1.0000 0.00004  0.74054  0.83394  Biso   1.000  C
  C580     1.0000 0.00004  0.74050  0.83394  Biso   1.000  C
  N317     1.0000 0.94977  0.76202  0.11055  Biso   1.000  N
  N318     1.0000 0.94977  0.76202  0.11064  Biso   1.000  N
  N319     1.0000 0.94973  0.76202  0.11055  Biso   1.000  N
  N320     1.0000 0.94973  0.76202  0.11064  Biso   1.000  N
  H635     1.0000 0.00000  0.75005  0.25397  Biso   1.000  H
  H636     1.0000 0.00000  0.69945  0.15930  Biso   1.000  H
  H637     1.0000 0.00000  0.75005  0.25406  Biso   1.000  H
  H638     1.0000 0.00000  0.75009  0.25397  Biso   1.000  H
  H639     1.0000 0.00000  0.69949  0.15930  Biso   1.000  H
  H640     1.0000 0.00000  0.75009  0.25406  Biso   1.000  H
  H641     1.0000 0.00004  0.75005  0.25397  Biso   1.000  H
  H642     1.0000 0.00004  0.69945  0.15930  Biso   1.000  H
  H643     1.0000 0.00004  0.75005  0.25406  Biso   1.000  H
  H644     1.0000 0.00004  0.75009  0.25397  Biso   1.000  H
  H645     1.0000 0.00004  0.69949  0.15930  Biso   1.000  H
  H646     1.0000 0.00004  0.75009  0.25406  Biso   1.000  H
  C581     1.0000 0.74054  0.00000  0.83394  Biso   1.000  C
  C582     1.0000 0.74054  0.00004  0.83394  Biso   1.000  C
  C583     1.0000 0.74050  0.00000  0.83394  Biso   1.000  C
  C584     1.0000 0.74050  0.00004  0.83394  Biso   1.000  C
  N321     1.0000 0.76202  0.94977  0.11055  Biso   1.000  N
  N322     1.0000 0.76202  0.94977  0.11064  Biso   1.000  N
  N323     1.0000 0.76202  0.94973  0.11055  Biso   1.000  N
  N324     1.0000 0.76202  0.94973  0.11064  Biso   1.000  N
  H647     1.0000 0.75005  0.00000  0.25397  Biso   1.000  H
  H648     1.0000 0.69945  0.00000  0.15930  Biso   1.000  H
  H649     1.0000 0.75005  0.00000  0.25406  Biso   1.000  H
  H650     1.0000 0.75005  0.00004  0.25397  Biso   1.000  H
  H651     1.0000 0.69945  0.00004  0.15930  Biso   1.000  H
  H652     1.0000 0.75005  0.00004  0.25406  Biso   1.000  H
  H653     1.0000 0.75009  0.00000  0.25397  Biso   1.000  H
  H654     1.0000 0.69949  0.00000  0.15930  Biso   1.000  H
  H655     1.0000 0.75009  0.00000  0.25406  Biso   1.000  H
  H656     1.0000 0.75009  0.00004  0.25397  Biso   1.000  H
  H657     1.0000 0.69949  0.00004  0.15930  Biso   1.000  H
  H658     1.0000 0.75009  0.00004  0.25406  Biso   1.000  H
  N325     1.0000 0.94977  0.76202  0.88945  Biso   1.000  N
  N326     1.0000 0.94973  0.76202  0.88945  Biso   1.000  N
  H659     1.0000 0.00000  0.75005  0.74603  Biso   1.000  H
  H660     1.0000 0.00000  0.69945  0.84070  Biso   1.000  H
  H661     1.0000 0.00000  0.75009  0.74603  Biso   1.000  H
  H662     1.0000 0.00000  0.69949  0.84070  Biso   1.000  H
  H663     1.0000 0.00004  0.75005  0.74603  Biso   1.000  H
  H664     1.0000 0.00004  0.69945  0.84070  Biso   1.000  H
  H665     1.0000 0.00004  0.75009  0.74603  Biso   1.000  H
  H666     1.0000 0.00004  0.69949  0.84070  Biso   1.000  H
  C585     1.0000 0.92729  0.73867  0.00000  Biso   1.000  C
  C586     1.0000 0.91142  0.79073  0.17528  Biso   1.000  C
  C587     1.0000 0.91142  0.79069  0.17528  Biso   1.000  C
  C588     1.0000 0.91138  0.79073  0.17528  Biso   1.000  C
  C589     1.0000 0.91138  0.79069  0.17528  Biso   1.000  C
  N327     1.0000 0.76202  0.94977  0.88945  Biso   1.000  N
  N328     1.0000 0.76202  0.94973  0.88945  Biso   1.000  N
  H667     1.0000 0.75005  0.00000  0.74603  Biso   1.000  H
  H668     1.0000 0.69945  0.00000  0.84070  Biso   1.000  H
  H669     1.0000 0.75005  0.00004  0.74603  Biso   1.000  H
  H670     1.0000 0.69945  0.00004  0.84070  Biso   1.000  H
  H671     1.0000 0.75009  0.00000  0.74603  Biso   1.000  H
  H672     1.0000 0.69949  0.00000  0.84070  Biso   1.000  H
  H673     1.0000 0.75009  0.00004  0.74603  Biso   1.000  H
  H674     1.0000 0.69949  0.00004  0.84070  Biso   1.000  H
  C590     1.0000 0.73867  0.92729  0.00000  Biso   1.000  C
  C591     1.0000 0.79073  0.91142  0.17528  Biso   1.000  C
  C592     1.0000 0.79073  0.91138  0.17528  Biso   1.000  C
  C593     1.0000 0.79069  0.91142  0.17528  Biso   1.000  C
  C594     1.0000 0.79069  0.91138  0.17528  Biso   1.000  C
  C595     1.0000 0.91142  0.79073  0.82472  Biso   1.000  C
  C596     1.0000 0.91142  0.79069  0.82472  Biso   1.000  C
  C597     1.0000 0.91138  0.79073  0.82472  Biso   1.000  C
  C598     1.0000 0.91138  0.79069  0.82472  Biso   1.000  C
  C599     1.0000 0.86643  0.75961  0.00000  Biso   1.000  C
  H675     1.0000 0.92941  0.69716  0.00000  Biso   1.000  H
  H676     1.0000 0.92941  0.69720  0.00000  Biso   1.000  H
  C600     1.0000 0.86638  0.75961  0.00000  Biso   1.000  C
  H677     1.0000 0.92937  0.69716  0.00000  Biso   1.000  H
  H678     1.0000 0.92937  0.69720  0.00000  Biso   1.000  H
  O121     1.0000 0.91853  0.81104  0.27734  Biso   1.000  O
  N329     1.0000 0.86310  0.79210  0.11055  Biso   1.000  N
  N330     1.0000 0.86310  0.79206  0.11055  Biso   1.000  N
  O122     1.0000 0.91848  0.81104  0.27734  Biso   1.000  O
  C601     1.0000 0.79073  0.91142  0.82472  Biso   1.000  C
  C602     1.0000 0.79073  0.91138  0.82472  Biso   1.000  C
  C603     1.0000 0.79069  0.91142  0.82472  Biso   1.000  C
  C604     1.0000 0.79069  0.91138  0.82472  Biso   1.000  C
  C605     1.0000 0.75961  0.86643  0.00000  Biso   1.000  C
  H679     1.0000 0.69716  0.92941  0.00000  Biso   1.000  H
  C606     1.0000 0.75961  0.86638  0.00000  Biso   1.000  C
  H680     1.0000 0.69716  0.92937  0.00000  Biso   1.000  H
  H681     1.0000 0.69720  0.92941  0.00000  Biso   1.000  H
  H682     1.0000 0.69720  0.92937  0.00000  Biso   1.000  H
  O123     1.0000 0.81104  0.91853  0.27734  Biso   1.000  O
  N331     1.0000 0.79210  0.86310  0.11055  Biso   1.000  N
  O124     1.0000 0.81104  0.91848  0.27734  Biso   1.000  O
  N332     1.0000 0.79206  0.86310  0.11055  Biso   1.000  N
  O125     1.0000 0.91853  0.81104  0.72266  Biso   1.000  O
  N333     1.0000 0.86310  0.79210  0.88945  Biso   1.000  N
  N334     1.0000 0.86310  0.79206  0.88945  Biso   1.000  N
  O126     1.0000 0.91848  0.81104  0.72266  Biso   1.000  O
  H683     1.0000 0.83921  0.72816  0.00000  Biso   1.000  H
  H684     1.0000 0.83921  0.72820  0.00000  Biso   1.000  H
  H685     1.0000 0.83917  0.72816  0.00000  Biso   1.000  H
  H686     1.0000 0.83917  0.72820  0.00000  Biso   1.000  H
  C607     1.0000 0.81171  0.81171  0.16268  Biso   1.000  C
  O127     1.0000 0.81104  0.91853  0.72266  Biso   1.000  O
  N335     1.0000 0.79210  0.86310  0.88945  Biso   1.000  N
  O128     1.0000 0.81104  0.91848  0.72266  Biso   1.000  O
  N336     1.0000 0.79206  0.86310  0.88945  Biso   1.000  N
  H687     1.0000 0.72816  0.83921  0.00000  Biso   1.000  H
  H688     1.0000 0.72816  0.83917  0.00000  Biso   1.000  H
  H689     1.0000 0.72820  0.83921  0.00000  Biso   1.000  H
  H690     1.0000 0.72820  0.83917  0.00000  Biso   1.000  H
  C608     1.0000 0.81171  0.81171  0.83732  Biso   1.000  C
  H691     1.0000 0.78292  0.78292  0.15127  Biso   1.000  H
  H692     1.0000 0.81698  0.81698  0.25160  Biso   1.000  H
  H693     1.0000 0.78292  0.78292  0.15136  Biso   1.000  H
  H694     1.0000 0.78292  0.78287  0.15127  Biso   1.000  H
  H695     1.0000 0.78292  0.78287  0.15136  Biso   1.000  H
  H696     1.0000 0.78287  0.78292  0.15127  Biso   1.000  H
  H697     1.0000 0.78287  0.78292  0.15136  Biso   1.000  H
  H698     1.0000 0.78287  0.78287  0.15127  Biso   1.000  H
  H699     1.0000 0.78287  0.78287  0.15136  Biso   1.000  H
  H700     1.0000 0.78292  0.78292  0.84873  Biso   1.000  H
  H701     1.0000 0.81698  0.81698  0.74840  Biso   1.000  H
  H702     1.0000 0.78292  0.78287  0.84873  Biso   1.000  H
  H703     1.0000 0.78287  0.78292  0.84873  Biso   1.000  H
  H704     1.0000 0.78287  0.78287  0.84873  Biso   1.000  H
  C609     1.0000 0.18829  0.18829  0.16268  Biso   1.000  C
  H705     1.0000 0.18302  0.18302  0.25160  Biso   1.000  H
  N337     1.0000 0.20790  0.13686  0.11055  Biso   1.000  N
  N338     1.0000 0.13686  0.20790  0.11055  Biso   1.000  N
  H706     1.0000 0.21708  0.21708  0.15127  Biso   1.000  H
  H707     1.0000 0.21708  0.21708  0.15136  Biso   1.000  H
  N339     1.0000 0.20790  0.13690  0.11055  Biso   1.000  N
  N340     1.0000 0.13686  0.20794  0.11055  Biso   1.000  N
  H708     1.0000 0.21708  0.21713  0.15127  Biso   1.000  H
  H709     1.0000 0.21708  0.21713  0.15136  Biso   1.000  H
  N341     1.0000 0.20794  0.13686  0.11055  Biso   1.000  N
  N342     1.0000 0.13690  0.20790  0.11055  Biso   1.000  N
  H710     1.0000 0.21713  0.21708  0.15127  Biso   1.000  H
  H711     1.0000 0.21713  0.21708  0.15136  Biso   1.000  H
  N343     1.0000 0.20794  0.13690  0.11055  Biso   1.000  N
  N344     1.0000 0.13690  0.20794  0.11055  Biso   1.000  N
  H712     1.0000 0.21713  0.21713  0.15127  Biso   1.000  H
  H713     1.0000 0.21713  0.21713  0.15136  Biso   1.000  H
  C610     1.0000 0.24039  0.13357  0.00000  Biso   1.000  C
  C611     1.0000 0.24039  0.13362  0.00000  Biso   1.000  C
  C612     1.0000 0.24035  0.13357  0.00000  Biso   1.000  C
  C613     1.0000 0.24035  0.13362  0.00000  Biso   1.000  C
  C614     1.0000 0.20927  0.08858  0.17528  Biso   1.000  C
  C615     1.0000 0.20927  0.08862  0.17528  Biso   1.000  C
  C616     1.0000 0.20931  0.08858  0.17528  Biso   1.000  C
  C617     1.0000 0.20931  0.08862  0.17528  Biso   1.000  C
  C618     1.0000 0.13357  0.24039  0.00000  Biso   1.000  C
  C619     1.0000 0.13357  0.24035  0.00000  Biso   1.000  C
  C620     1.0000 0.13362  0.24039  0.00000  Biso   1.000  C
  C621     1.0000 0.13362  0.24035  0.00000  Biso   1.000  C
  C622     1.0000 0.08858  0.20927  0.17528  Biso   1.000  C
  C623     1.0000 0.08858  0.20931  0.17528  Biso   1.000  C
  C624     1.0000 0.08862  0.20927  0.17528  Biso   1.000  C
  C625     1.0000 0.08862  0.20931  0.17528  Biso   1.000  C
  N345     1.0000 0.20790  0.13686  0.88945  Biso   1.000  N
  H714     1.0000 0.27180  0.16079  0.00000  Biso   1.000  H
  C626     1.0000 0.26133  0.07271  0.00000  Biso   1.000  C
  N346     1.0000 0.20790  0.13690  0.88945  Biso   1.000  N
  H715     1.0000 0.27180  0.16083  0.00000  Biso   1.000  H
  N347     1.0000 0.20794  0.13686  0.88945  Biso   1.000  N
  N348     1.0000 0.20794  0.13690  0.88945  Biso   1.000  N
  O129     1.0000 0.18896  0.08147  0.27734  Biso   1.000  O
  N349     1.0000 0.23798  0.05023  0.11055  Biso   1.000  N
  N350     1.0000 0.23798  0.05023  0.11064  Biso   1.000  N
  O130     1.0000 0.18896  0.08152  0.27734  Biso   1.000  O
  N351     1.0000 0.13686  0.20790  0.88945  Biso   1.000  N
  H716     1.0000 0.16079  0.27180  0.00000  Biso   1.000  H
  C627     1.0000 0.07271  0.26133  0.00000  Biso   1.000  C
  N352     1.0000 0.13686  0.20794  0.88945  Biso   1.000  N
  N353     1.0000 0.13690  0.20790  0.88945  Biso   1.000  N
  H717     1.0000 0.16083  0.27180  0.00000  Biso   1.000  H
  N354     1.0000 0.13690  0.20794  0.88945  Biso   1.000  N
  O131     1.0000 0.08147  0.18896  0.27734  Biso   1.000  O
  N355     1.0000 0.05023  0.23798  0.11055  Biso   1.000  N
  N356     1.0000 0.05023  0.23798  0.11064  Biso   1.000  N
  O132     1.0000 0.08152  0.18896  0.27734  Biso   1.000  O
  C628     1.0000 0.20927  0.08858  0.82472  Biso   1.000  C
  C629     1.0000 0.18829  0.18829  0.83732  Biso   1.000  C
  C630     1.0000 0.20927  0.08862  0.82472  Biso   1.000  C
  C631     1.0000 0.20931  0.08858  0.82472  Biso   1.000  C
  C632     1.0000 0.20931  0.08862  0.82472  Biso   1.000  C
  N357     1.0000 0.23798  0.05023  0.88945  Biso   1.000  N
  H718     1.0000 0.30280  0.07059  0.00000  Biso   1.000  H
  H719     1.0000 0.30280  0.07063  0.00000  Biso   1.000  H
  C633     1.0000 0.25946  0.00000  0.16606  Biso   1.000  C
  C634     1.0000 0.25946  0.00000  0.16615  Biso   1.000  C
  C635     1.0000 0.25946  0.00004  0.16606  Biso   1.000  C
  C636     1.0000 0.25946  0.00004  0.16615  Biso   1.000  C
  C637     1.0000 0.25950  0.00000  0.16606  Biso   1.000  C
  C638     1.0000 0.25950  0.00000  0.16615  Biso   1.000  C
  C639     1.0000 0.25950  0.00004  0.16606  Biso   1.000  C
  C640     1.0000 0.25950  0.00004  0.16615  Biso   1.000  C
  C641     1.0000 0.08858  0.20927  0.82472  Biso   1.000  C
  C642     1.0000 0.08858  0.20931  0.82472  Biso   1.000  C
  C643     1.0000 0.08862  0.20927  0.82472  Biso   1.000  C
  C644     1.0000 0.08862  0.20931  0.82472  Biso   1.000  C
  N358     1.0000 0.05023  0.23798  0.88945  Biso   1.000  N
  H720     1.0000 0.07059  0.30280  0.00000  Biso   1.000  H
  H721     1.0000 0.07063  0.30280  0.00000  Biso   1.000  H
  C645     1.0000 0.00000  0.25946  0.16606  Biso   1.000  C
  C646     1.0000 0.00000  0.25946  0.16615  Biso   1.000  C
  C647     1.0000 0.00000  0.25950  0.16606  Biso   1.000  C
  C648     1.0000 0.00000  0.25950  0.16615  Biso   1.000  C
  C649     1.0000 0.00004  0.25946  0.16606  Biso   1.000  C
  C650     1.0000 0.00004  0.25946  0.16615  Biso   1.000  C
  C651     1.0000 0.00004  0.25950  0.16606  Biso   1.000  C
  C652     1.0000 0.00004  0.25950  0.16615  Biso   1.000  C
  O133     1.0000 0.18896  0.08147  0.72266  Biso   1.000  O
  O134     1.0000 0.18896  0.08152  0.72266  Biso   1.000  O
  H722     1.0000 0.21708  0.21708  0.84873  Biso   1.000  H
  H723     1.0000 0.18302  0.18302  0.74840  Biso   1.000  H
  H724     1.0000 0.21708  0.21713  0.84873  Biso   1.000  H
  H725     1.0000 0.21713  0.21708  0.84873  Biso   1.000  H
  H726     1.0000 0.21713  0.21713  0.84873  Biso   1.000  H
  C653     1.0000 0.25946  0.00000  0.83394  Biso   1.000  C
  C654     1.0000 0.25946  0.00004  0.83394  Biso   1.000  C
  C655     1.0000 0.25950  0.00000  0.83394  Biso   1.000  C
  C656     1.0000 0.25950  0.00004  0.83394  Biso   1.000  C
  N359     1.0000 0.23798  0.94977  0.11055  Biso   1.000  N
  N360     1.0000 0.23798  0.94977  0.11064  Biso   1.000  N
  N361     1.0000 0.23798  0.94973  0.11055  Biso   1.000  N
  N362     1.0000 0.23798  0.94973  0.11064  Biso   1.000  N
  H727     1.0000 0.24991  0.00000  0.25397  Biso   1.000  H
  H728     1.0000 0.30051  0.00000  0.15930  Biso   1.000  H
  H729     1.0000 0.24991  0.00000  0.25406  Biso   1.000  H
  H730     1.0000 0.24991  0.00004  0.25397  Biso   1.000  H
  H731     1.0000 0.30051  0.00004  0.15930  Biso   1.000  H
  H732     1.0000 0.24991  0.00004  0.25406  Biso   1.000  H
  H733     1.0000 0.24986  0.00000  0.25397  Biso   1.000  H
  H734     1.0000 0.24986  0.00000  0.25406  Biso   1.000  H
  H735     1.0000 0.24986  0.00004  0.25397  Biso   1.000  H
  H736     1.0000 0.24986  0.00004  0.25406  Biso   1.000  H
  O135     1.0000 0.08147  0.18896  0.72266  Biso   1.000  O
  O136     1.0000 0.08152  0.18896  0.72266  Biso   1.000  O
  C657     1.0000 0.00000  0.25946  0.83394  Biso   1.000  C
  C658     1.0000 0.00000  0.25950  0.83394  Biso   1.000  C
  C659     1.0000 0.00004  0.25946  0.83394  Biso   1.000  C
  C660     1.0000 0.00004  0.25950  0.83394  Biso   1.000  C
  N363     1.0000 0.94977  0.23798  0.11055  Biso   1.000  N
  N364     1.0000 0.94977  0.23798  0.11064  Biso   1.000  N
  N365     1.0000 0.94973  0.23798  0.11055  Biso   1.000  N
  N366     1.0000 0.94973  0.23798  0.11064  Biso   1.000  N
  H737     1.0000 0.00000  0.24991  0.25397  Biso   1.000  H
  H738     1.0000 0.00000  0.30051  0.15930  Biso   1.000  H
  H739     1.0000 0.00000  0.24991  0.25406  Biso   1.000  H
  H740     1.0000 0.00000  0.24986  0.25397  Biso   1.000  H
  H741     1.0000 0.00000  0.24986  0.25406  Biso   1.000  H
  H742     1.0000 0.00004  0.24991  0.25397  Biso   1.000  H
  H743     1.0000 0.00004  0.30051  0.15930  Biso   1.000  H
  H744     1.0000 0.00004  0.24991  0.25406  Biso   1.000  H
  H745     1.0000 0.00004  0.24986  0.25397  Biso   1.000  H
  H746     1.0000 0.00004  0.24986  0.25406  Biso   1.000  H
  N367     1.0000 0.23798  0.94977  0.88945  Biso   1.000  N
  N368     1.0000 0.23798  0.94973  0.88945  Biso   1.000  N
  H747     1.0000 0.24991  0.00000  0.74603  Biso   1.000  H
  H748     1.0000 0.30051  0.00000  0.84070  Biso   1.000  H
  H749     1.0000 0.24991  0.00004  0.74603  Biso   1.000  H
  H750     1.0000 0.30051  0.00004  0.84070  Biso   1.000  H
  H751     1.0000 0.24986  0.00000  0.74603  Biso   1.000  H
  H752     1.0000 0.24986  0.00004  0.74603  Biso   1.000  H
  C661     1.0000 0.26133  0.92729  0.00000  Biso   1.000  C
  C662     1.0000 0.20927  0.91142  0.17528  Biso   1.000  C
  C663     1.0000 0.20927  0.91138  0.17528  Biso   1.000  C
  C664     1.0000 0.20931  0.91142  0.17528  Biso   1.000  C
  C665     1.0000 0.20931  0.91138  0.17528  Biso   1.000  C
  N369     1.0000 0.94977  0.23798  0.88945  Biso   1.000  N
  N370     1.0000 0.94973  0.23798  0.88945  Biso   1.000  N
  H753     1.0000 0.00000  0.24991  0.74603  Biso   1.000  H
  H754     1.0000 0.00000  0.30051  0.84070  Biso   1.000  H
  H755     1.0000 0.00000  0.24986  0.74603  Biso   1.000  H
  H756     1.0000 0.00004  0.24991  0.74603  Biso   1.000  H
  H757     1.0000 0.00004  0.30051  0.84070  Biso   1.000  H
  H758     1.0000 0.00004  0.24986  0.74603  Biso   1.000  H
  C666     1.0000 0.92729  0.26133  0.00000  Biso   1.000  C
  C667     1.0000 0.91142  0.20927  0.17528  Biso   1.000  C
  C668     1.0000 0.91142  0.20931  0.17528  Biso   1.000  C
  C669     1.0000 0.91138  0.20927  0.17528  Biso   1.000  C
  C670     1.0000 0.91138  0.20931  0.17528  Biso   1.000  C
  C671     1.0000 0.20927  0.91142  0.82472  Biso   1.000  C
  C672     1.0000 0.20927  0.91138  0.82472  Biso   1.000  C
  C673     1.0000 0.20931  0.91142  0.82472  Biso   1.000  C
  C674     1.0000 0.20931  0.91138  0.82472  Biso   1.000  C
  C675     1.0000 0.24039  0.86643  0.00000  Biso   1.000  C
  H759     1.0000 0.30280  0.92941  0.00000  Biso   1.000  H
  C676     1.0000 0.24039  0.86638  0.00000  Biso   1.000  C
  H760     1.0000 0.30280  0.92937  0.00000  Biso   1.000  H
  C677     1.0000 0.24035  0.86643  0.00000  Biso   1.000  C
  C678     1.0000 0.24035  0.86638  0.00000  Biso   1.000  C
  O137     1.0000 0.18896  0.91853  0.27734  Biso   1.000  O
  N371     1.0000 0.20790  0.86310  0.11055  Biso   1.000  N
  O138     1.0000 0.18896  0.91848  0.27734  Biso   1.000  O
  N372     1.0000 0.20794  0.86310  0.11055  Biso   1.000  N
  C679     1.0000 0.91142  0.20927  0.82472  Biso   1.000  C
  C680     1.0000 0.91142  0.20931  0.82472  Biso   1.000  C
  C681     1.0000 0.91138  0.20927  0.82472  Biso   1.000  C
  C682     1.0000 0.91138  0.20931  0.82472  Biso   1.000  C
  C683     1.0000 0.86643  0.24039  0.00000  Biso   1.000  C
  H761     1.0000 0.92941  0.30280  0.00000  Biso   1.000  H
  C684     1.0000 0.86643  0.24035  0.00000  Biso   1.000  C
  C685     1.0000 0.86638  0.24039  0.00000  Biso   1.000  C
  H762     1.0000 0.92937  0.30280  0.00000  Biso   1.000  H
  C686     1.0000 0.86638  0.24035  0.00000  Biso   1.000  C
  O139     1.0000 0.91853  0.18896  0.27734  Biso   1.000  O
  N373     1.0000 0.86310  0.20790  0.11055  Biso   1.000  N
  N374     1.0000 0.86310  0.20794  0.11055  Biso   1.000  N
  O140     1.0000 0.91848  0.18896  0.27734  Biso   1.000  O
  O141     1.0000 0.18896  0.91853  0.72266  Biso   1.000  O
  N375     1.0000 0.20790  0.86310  0.88945  Biso   1.000  N
  O142     1.0000 0.18896  0.91848  0.72266  Biso   1.000  O
  N376     1.0000 0.20794  0.86310  0.88945  Biso   1.000  N
  H763     1.0000 0.27180  0.83921  0.00000  Biso   1.000  H
  H764     1.0000 0.27180  0.83917  0.00000  Biso   1.000  H
  C687     1.0000 0.18829  0.81171  0.16268  Biso   1.000  C
  O143     1.0000 0.91853  0.18896  0.72266  Biso   1.000  O
  N377     1.0000 0.86310  0.20790  0.88945  Biso   1.000  N
  N378     1.0000 0.86310  0.20794  0.88945  Biso   1.000  N
  O144     1.0000 0.91848  0.18896  0.72266  Biso   1.000  O
  H765     1.0000 0.83921  0.27180  0.00000  Biso   1.000  H
  H766     1.0000 0.83917  0.27180  0.00000  Biso   1.000  H
  C688     1.0000 0.81171  0.18829  0.16268  Biso   1.000  C
  C689     1.0000 0.18829  0.81171  0.83732  Biso   1.000  C
  N379     1.0000 0.13686  0.79210  0.11055  Biso   1.000  N
  H767     1.0000 0.21708  0.78292  0.15127  Biso   1.000  H
  H768     1.0000 0.18302  0.81698  0.25160  Biso   1.000  H
  H769     1.0000 0.21708  0.78292  0.15136  Biso   1.000  H
  N380     1.0000 0.13686  0.79206  0.11055  Biso   1.000  N
  H770     1.0000 0.21708  0.78287  0.15127  Biso   1.000  H
  H771     1.0000 0.21708  0.78287  0.15136  Biso   1.000  H
  N381     1.0000 0.13690  0.79210  0.11055  Biso   1.000  N
  H772     1.0000 0.21713  0.78292  0.15127  Biso   1.000  H
  H773     1.0000 0.21713  0.78292  0.15136  Biso   1.000  H
  N382     1.0000 0.13690  0.79206  0.11055  Biso   1.000  N
  H774     1.0000 0.21713  0.78287  0.15127  Biso   1.000  H
  H775     1.0000 0.21713  0.78287  0.15136  Biso   1.000  H
  C690     1.0000 0.81171  0.18829  0.83732  Biso   1.000  C
  N383     1.0000 0.79210  0.13686  0.11055  Biso   1.000  N
  H776     1.0000 0.78292  0.21708  0.15127  Biso   1.000  H
  H777     1.0000 0.81698  0.18302  0.25160  Biso   1.000  H
  H778     1.0000 0.78292  0.21708  0.15136  Biso   1.000  H
  N384     1.0000 0.79210  0.13690  0.11055  Biso   1.000  N
  H779     1.0000 0.78292  0.21713  0.15127  Biso   1.000  H
  H780     1.0000 0.78292  0.21713  0.15136  Biso   1.000  H
  N385     1.0000 0.79206  0.13686  0.11055  Biso   1.000  N
  H781     1.0000 0.78287  0.21708  0.15127  Biso   1.000  H
  H782     1.0000 0.78287  0.21708  0.15136  Biso   1.000  H
  N386     1.0000 0.79206  0.13690  0.11055  Biso   1.000  N
  H783     1.0000 0.78287  0.21713  0.15127  Biso   1.000  H
  H784     1.0000 0.78287  0.21713  0.15136  Biso   1.000  H
  N387     1.0000 0.13686  0.79210  0.88945  Biso   1.000  N
  H785     1.0000 0.21708  0.78292  0.84873  Biso   1.000  H
  H786     1.0000 0.18302  0.81698  0.74840  Biso   1.000  H
  N388     1.0000 0.13686  0.79206  0.88945  Biso   1.000  N
  H787     1.0000 0.21708  0.78287  0.84873  Biso   1.000  H
  N389     1.0000 0.13690  0.79210  0.88945  Biso   1.000  N
  H788     1.0000 0.21713  0.78292  0.84873  Biso   1.000  H
  N390     1.0000 0.13690  0.79206  0.88945  Biso   1.000  N
  H789     1.0000 0.21713  0.78287  0.84873  Biso   1.000  H
  C691     1.0000 0.13357  0.75961  0.00000  Biso   1.000  C
  C692     1.0000 0.13362  0.75961  0.00000  Biso   1.000  C
  C693     1.0000 0.08858  0.79073  0.17528  Biso   1.000  C
  C694     1.0000 0.08858  0.79069  0.17528  Biso   1.000  C
  C695     1.0000 0.08862  0.79073  0.17528  Biso   1.000  C
  C696     1.0000 0.08862  0.79069  0.17528  Biso   1.000  C
  N391     1.0000 0.79210  0.13686  0.88945  Biso   1.000  N
  H790     1.0000 0.78292  0.21708  0.84873  Biso   1.000  H
  H791     1.0000 0.81698  0.18302  0.74840  Biso   1.000  H
  N392     1.0000 0.79210  0.13690  0.88945  Biso   1.000  N
  H792     1.0000 0.78292  0.21713  0.84873  Biso   1.000  H
  N393     1.0000 0.79206  0.13686  0.88945  Biso   1.000  N
  H793     1.0000 0.78287  0.21708  0.84873  Biso   1.000  H
  N394     1.0000 0.79206  0.13690  0.88945  Biso   1.000  N
  H794     1.0000 0.78287  0.21713  0.84873  Biso   1.000  H
  C697     1.0000 0.75961  0.13357  0.00000  Biso   1.000  C
  C698     1.0000 0.75961  0.13362  0.00000  Biso   1.000  C
  C699     1.0000 0.79073  0.08858  0.17528  Biso   1.000  C
  C700     1.0000 0.79073  0.08862  0.17528  Biso   1.000  C
  C701     1.0000 0.79069  0.08858  0.17528  Biso   1.000  C
  C702     1.0000 0.79069  0.08862  0.17528  Biso   1.000  C
  C703     1.0000 0.08858  0.79073  0.82472  Biso   1.000  C
  C704     1.0000 0.08858  0.79069  0.82472  Biso   1.000  C
  C705     1.0000 0.08862  0.79073  0.82472  Biso   1.000  C
  C706     1.0000 0.08862  0.79069  0.82472  Biso   1.000  C
  H795     1.0000 0.16079  0.72816  0.00000  Biso   1.000  H
  C707     1.0000 0.07271  0.73867  0.00000  Biso   1.000  C
  H796     1.0000 0.16079  0.72820  0.00000  Biso   1.000  H
  H797     1.0000 0.16083  0.72816  0.00000  Biso   1.000  H
  H798     1.0000 0.16083  0.72820  0.00000  Biso   1.000  H
  O145     1.0000 0.08147  0.81104  0.27734  Biso   1.000  O
  N395     1.0000 0.05023  0.76202  0.11055  Biso   1.000  N
  N396     1.0000 0.05023  0.76202  0.11064  Biso   1.000  N
  O146     1.0000 0.08152  0.81104  0.27734  Biso   1.000  O
  C708     1.0000 0.79073  0.08858  0.82472  Biso   1.000  C
  C709     1.0000 0.79073  0.08862  0.82472  Biso   1.000  C
  C710     1.0000 0.79069  0.08858  0.82472  Biso   1.000  C
  C711     1.0000 0.79069  0.08862  0.82472  Biso   1.000  C
  H799     1.0000 0.72816  0.16079  0.00000  Biso   1.000  H
  C712     1.0000 0.73867  0.07271  0.00000  Biso   1.000  C
  H800     1.0000 0.72816  0.16083  0.00000  Biso   1.000  H
  H801     1.0000 0.72820  0.16079  0.00000  Biso   1.000  H
  H802     1.0000 0.72820  0.16083  0.00000  Biso   1.000  H
  O147     1.0000 0.81104  0.08147  0.27734  Biso   1.000  O
  N397     1.0000 0.76202  0.05023  0.11055  Biso   1.000  N
  N398     1.0000 0.76202  0.05023  0.11064  Biso   1.000  N
  O148     1.0000 0.81104  0.08152  0.27734  Biso   1.000  O
  O149     1.0000 0.08147  0.81104  0.72266  Biso   1.000  O
  N399     1.0000 0.05023  0.76202  0.88945  Biso   1.000  N
  O150     1.0000 0.08152  0.81104  0.72266  Biso   1.000  O
  H803     1.0000 0.07059  0.69716  0.00000  Biso   1.000  H
  H804     1.0000 0.07059  0.69720  0.00000  Biso   1.000  H
  H805     1.0000 0.07063  0.69716  0.00000  Biso   1.000  H
  H806     1.0000 0.07063  0.69720  0.00000  Biso   1.000  H
  C713     1.0000 0.00000  0.74054  0.16606  Biso   1.000  C
  C714     1.0000 0.00000  0.74054  0.16615  Biso   1.000  C
  C715     1.0000 0.00000  0.74050  0.16606  Biso   1.000  C
  C716     1.0000 0.00000  0.74050  0.16615  Biso   1.000  C
  C717     1.0000 0.00004  0.74054  0.16606  Biso   1.000  C
  C718     1.0000 0.00004  0.74054  0.16615  Biso   1.000  C
  C719     1.0000 0.00004  0.74050  0.16606  Biso   1.000  C
  C720     1.0000 0.00004  0.74050  0.16615  Biso   1.000  C
  O151     1.0000 0.81104  0.08147  0.72266  Biso   1.000  O
  N400     1.0000 0.76202  0.05023  0.88945  Biso   1.000  N
  O152     1.0000 0.81104  0.08152  0.72266  Biso   1.000  O
  H807     1.0000 0.69716  0.07059  0.00000  Biso   1.000  H
  H808     1.0000 0.69716  0.07063  0.00000  Biso   1.000  H
  H809     1.0000 0.69720  0.07059  0.00000  Biso   1.000  H
  H810     1.0000 0.69720  0.07063  0.00000  Biso   1.000  H
  C721     1.0000 0.74054  0.00000  0.16606  Biso   1.000  C
  C722     1.0000 0.74054  0.00000  0.16615  Biso   1.000  C
  C723     1.0000 0.74054  0.00004  0.16606  Biso   1.000  C
  C724     1.0000 0.74054  0.00004  0.16615  Biso   1.000  C
  C725     1.0000 0.74050  0.00000  0.16606  Biso   1.000  C
  C726     1.0000 0.74050  0.00000  0.16615  Biso   1.000  C
  C727     1.0000 0.74050  0.00004  0.16606  Biso   1.000  C
  C728     1.0000 0.74050  0.00004  0.16615  Biso   1.000  C
  C729     1.0000 0.00000  0.74054  0.83394  Biso   1.000  C
  C730     1.0000 0.00000  0.74050  0.83394  Biso   1.000  C
  C731     1.0000 0.00004  0.74054  0.83394  Biso   1.000  C
  C732     1.0000 0.00004  0.74050  0.83394  Biso   1.000  C
  N401     1.0000 0.94977  0.76202  0.11055  Biso   1.000  N
  N402     1.0000 0.94977  0.76202  0.11064  Biso   1.000  N
  N403     1.0000 0.94973  0.76202  0.11055  Biso   1.000  N
  N404     1.0000 0.94973  0.76202  0.11064  Biso   1.000  N
  H811     1.0000 0.00000  0.75005  0.25397  Biso   1.000  H
  H812     1.0000 0.00000  0.69945  0.15930  Biso   1.000  H
  H813     1.0000 0.00000  0.75005  0.25406  Biso   1.000  H
  H814     1.0000 0.00000  0.75009  0.25397  Biso   1.000  H
  H815     1.0000 0.00000  0.69949  0.15930  Biso   1.000  H
  H816     1.0000 0.00000  0.75009  0.25406  Biso   1.000  H
  H817     1.0000 0.00004  0.75005  0.25397  Biso   1.000  H
  H818     1.0000 0.00004  0.69945  0.15930  Biso   1.000  H
  H819     1.0000 0.00004  0.75005  0.25406  Biso   1.000  H
  H820     1.0000 0.00004  0.75009  0.25397  Biso   1.000  H
  H821     1.0000 0.00004  0.69949  0.15930  Biso   1.000  H
  H822     1.0000 0.00004  0.75009  0.25406  Biso   1.000  H
  C733     1.0000 0.74054  0.00000  0.83394  Biso   1.000  C
  C734     1.0000 0.74054  0.00004  0.83394  Biso   1.000  C
  C735     1.0000 0.74050  0.00000  0.83394  Biso   1.000  C
  C736     1.0000 0.74050  0.00004  0.83394  Biso   1.000  C
  N405     1.0000 0.76202  0.94977  0.11055  Biso   1.000  N
  N406     1.0000 0.76202  0.94977  0.11064  Biso   1.000  N
  N407     1.0000 0.76202  0.94973  0.11055  Biso   1.000  N
  N408     1.0000 0.76202  0.94973  0.11064  Biso   1.000  N
  H823     1.0000 0.75005  0.00000  0.25397  Biso   1.000  H
  H824     1.0000 0.69945  0.00000  0.15930  Biso   1.000  H
  H825     1.0000 0.75005  0.00000  0.25406  Biso   1.000  H
  H826     1.0000 0.75005  0.00004  0.25397  Biso   1.000  H
  H827     1.0000 0.69945  0.00004  0.15930  Biso   1.000  H
  H828     1.0000 0.75005  0.00004  0.25406  Biso   1.000  H
  H829     1.0000 0.75009  0.00000  0.25397  Biso   1.000  H
  H830     1.0000 0.69949  0.00000  0.15930  Biso   1.000  H
  H831     1.0000 0.75009  0.00000  0.25406  Biso   1.000  H
  H832     1.0000 0.75009  0.00004  0.25397  Biso   1.000  H
  H833     1.0000 0.69949  0.00004  0.15930  Biso   1.000  H
  H834     1.0000 0.75009  0.00004  0.25406  Biso   1.000  H
  N409     1.0000 0.94977  0.76202  0.88945  Biso   1.000  N
  N410     1.0000 0.94973  0.76202  0.88945  Biso   1.000  N
  H835     1.0000 0.00000  0.75005  0.74603  Biso   1.000  H
  H836     1.0000 0.00000  0.69945  0.84070  Biso   1.000  H
  H837     1.0000 0.00000  0.75009  0.74603  Biso   1.000  H
  H838     1.0000 0.00000  0.69949  0.84070  Biso   1.000  H
  H839     1.0000 0.00004  0.75005  0.74603  Biso   1.000  H
  H840     1.0000 0.00004  0.69945  0.84070  Biso   1.000  H
  H841     1.0000 0.00004  0.75009  0.74603  Biso   1.000  H
  H842     1.0000 0.00004  0.69949  0.84070  Biso   1.000  H
  C737     1.0000 0.92729  0.73867  0.00000  Biso   1.000  C
  C738     1.0000 0.91142  0.79073  0.17528  Biso   1.000  C
  C739     1.0000 0.91142  0.79069  0.17528  Biso   1.000  C
  C740     1.0000 0.91138  0.79073  0.17528  Biso   1.000  C
  C741     1.0000 0.91138  0.79069  0.17528  Biso   1.000  C
  N411     1.0000 0.76202  0.94977  0.88945  Biso   1.000  N
  N412     1.0000 0.76202  0.94973  0.88945  Biso   1.000  N
  H843     1.0000 0.75005  0.00000  0.74603  Biso   1.000  H
  H844     1.0000 0.69945  0.00000  0.84070  Biso   1.000  H
  H845     1.0000 0.75005  0.00004  0.74603  Biso   1.000  H
  H846     1.0000 0.69945  0.00004  0.84070  Biso   1.000  H
  H847     1.0000 0.75009  0.00000  0.74603  Biso   1.000  H
  H848     1.0000 0.69949  0.00000  0.84070  Biso   1.000  H
  H849     1.0000 0.75009  0.00004  0.74603  Biso   1.000  H
  H850     1.0000 0.69949  0.00004  0.84070  Biso   1.000  H
  C742     1.0000 0.73867  0.92729  0.00000  Biso   1.000  C
  C743     1.0000 0.79073  0.91142  0.17528  Biso   1.000  C
  C744     1.0000 0.79073  0.91138  0.17528  Biso   1.000  C
  C745     1.0000 0.79069  0.91142  0.17528  Biso   1.000  C
  C746     1.0000 0.79069  0.91138  0.17528  Biso   1.000  C
  C747     1.0000 0.91142  0.79073  0.82472  Biso   1.000  C
  C748     1.0000 0.91142  0.79069  0.82472  Biso   1.000  C
  C749     1.0000 0.91138  0.79073  0.82472  Biso   1.000  C
  C750     1.0000 0.91138  0.79069  0.82472  Biso   1.000  C
  C751     1.0000 0.86643  0.75961  0.00000  Biso   1.000  C
  H851     1.0000 0.92941  0.69716  0.00000  Biso   1.000  H
  H852     1.0000 0.92941  0.69720  0.00000  Biso   1.000  H
  C752     1.0000 0.86638  0.75961  0.00000  Biso   1.000  C
  H853     1.0000 0.92937  0.69716  0.00000  Biso   1.000  H
  H854     1.0000 0.92937  0.69720  0.00000  Biso   1.000  H
  O153     1.0000 0.91853  0.81104  0.27734  Biso   1.000  O
  N413     1.0000 0.86310  0.79210  0.11055  Biso   1.000  N
  N414     1.0000 0.86310  0.79206  0.11055  Biso   1.000  N
  O154     1.0000 0.91848  0.81104  0.27734  Biso   1.000  O
  C753     1.0000 0.79073  0.91142  0.82472  Biso   1.000  C
  C754     1.0000 0.79073  0.91138  0.82472  Biso   1.000  C
  C755     1.0000 0.79069  0.91142  0.82472  Biso   1.000  C
  C756     1.0000 0.79069  0.91138  0.82472  Biso   1.000  C
  C757     1.0000 0.75961  0.86643  0.00000  Biso   1.000  C
  H855     1.0000 0.69716  0.92941  0.00000  Biso   1.000  H
  C758     1.0000 0.75961  0.86638  0.00000  Biso   1.000  C
  H856     1.0000 0.69716  0.92937  0.00000  Biso   1.000  H
  H857     1.0000 0.69720  0.92941  0.00000  Biso   1.000  H
  H858     1.0000 0.69720  0.92937  0.00000  Biso   1.000  H
  O155     1.0000 0.81104  0.91853  0.27734  Biso   1.000  O
  N415     1.0000 0.79210  0.86310  0.11055  Biso   1.000  N
  O156     1.0000 0.81104  0.91848  0.27734  Biso   1.000  O
  N416     1.0000 0.79206  0.86310  0.11055  Biso   1.000  N
  O157     1.0000 0.91853  0.81104  0.72266  Biso   1.000  O
  N417     1.0000 0.86310  0.79210  0.88945  Biso   1.000  N
  N418     1.0000 0.86310  0.79206  0.88945  Biso   1.000  N
  O158     1.0000 0.91848  0.81104  0.72266  Biso   1.000  O
  H859     1.0000 0.83921  0.72816  0.00000  Biso   1.000  H
  H860     1.0000 0.83921  0.72820  0.00000  Biso   1.000  H
  H861     1.0000 0.83917  0.72816  0.00000  Biso   1.000  H
  H862     1.0000 0.83917  0.72820  0.00000  Biso   1.000  H
  C759     1.0000 0.81171  0.81171  0.16268  Biso   1.000  C
  O159     1.0000 0.81104  0.91853  0.72266  Biso   1.000  O
  N419     1.0000 0.79210  0.86310  0.88945  Biso   1.000  N
  O160     1.0000 0.81104  0.91848  0.72266  Biso   1.000  O
  N420     1.0000 0.79206  0.86310  0.88945  Biso   1.000  N
  H863     1.0000 0.72816  0.83921  0.00000  Biso   1.000  H
  H864     1.0000 0.72816  0.83917  0.00000  Biso   1.000  H
  H865     1.0000 0.72820  0.83921  0.00000  Biso   1.000  H
  H866     1.0000 0.72820  0.83917  0.00000  Biso   1.000  H
  C760     1.0000 0.81171  0.81171  0.83732  Biso   1.000  C
  H867     1.0000 0.78292  0.78292  0.15127  Biso   1.000  H
  H868     1.0000 0.81698  0.81698  0.25160  Biso   1.000  H
  H869     1.0000 0.78292  0.78292  0.15136  Biso   1.000  H
  H870     1.0000 0.78292  0.78287  0.15127  Biso   1.000  H
  H871     1.0000 0.78292  0.78287  0.15136  Biso   1.000  H
  H872     1.0000 0.78287  0.78292  0.15127  Biso   1.000  H
  H873     1.0000 0.78287  0.78292  0.15136  Biso   1.000  H
  H874     1.0000 0.78287  0.78287  0.15127  Biso   1.000  H
  H875     1.0000 0.78287  0.78287  0.15136  Biso   1.000  H
  H876     1.0000 0.78292  0.78292  0.84873  Biso   1.000  H
  H877     1.0000 0.81698  0.81698  0.74840  Biso   1.000  H
  H878     1.0000 0.78292  0.78287  0.84873  Biso   1.000  H
  H879     1.0000 0.78287  0.78292  0.84873  Biso   1.000  H
  H880     1.0000 0.78287  0.78287  0.84873  Biso   1.000  H
  C761     1.0000 0.18829  0.18829  0.16268  Biso   1.000  C
  H881     1.0000 0.18302  0.18302  0.25160  Biso   1.000  H
  N421     1.0000 0.20790  0.13686  0.11055  Biso   1.000  N
  N422     1.0000 0.13686  0.20790  0.11055  Biso   1.000  N
  H882     1.0000 0.21708  0.21708  0.15127  Biso   1.000  H
  H883     1.0000 0.21708  0.21708  0.15136  Biso   1.000  H
  N423     1.0000 0.20790  0.13690  0.11055  Biso   1.000  N
  N424     1.0000 0.13686  0.20794  0.11055  Biso   1.000  N
  H884     1.0000 0.21708  0.21713  0.15127  Biso   1.000  H
  H885     1.0000 0.21708  0.21713  0.15136  Biso   1.000  H
  N425     1.0000 0.20794  0.13686  0.11055  Biso   1.000  N
  N426     1.0000 0.13690  0.20790  0.11055  Biso   1.000  N
  H886     1.0000 0.21713  0.21708  0.15127  Biso   1.000  H
  H887     1.0000 0.21713  0.21708  0.15136  Biso   1.000  H
  N427     1.0000 0.20794  0.13690  0.11055  Biso   1.000  N
  N428     1.0000 0.13690  0.20794  0.11055  Biso   1.000  N
  H888     1.0000 0.21713  0.21713  0.15127  Biso   1.000  H
  H889     1.0000 0.21713  0.21713  0.15136  Biso   1.000  H
  C762     1.0000 0.24039  0.13357  0.00000  Biso   1.000  C
  C763     1.0000 0.24039  0.13362  0.00000  Biso   1.000  C
  C764     1.0000 0.24035  0.13357  0.00000  Biso   1.000  C
  C765     1.0000 0.24035  0.13362  0.00000  Biso   1.000  C
  C766     1.0000 0.20927  0.08858  0.17528  Biso   1.000  C
  C767     1.0000 0.20927  0.08862  0.17528  Biso   1.000  C
  C768     1.0000 0.20931  0.08858  0.17528  Biso   1.000  C
  C769     1.0000 0.20931  0.08862  0.17528  Biso   1.000  C
  C770     1.0000 0.13357  0.24039  0.00000  Biso   1.000  C
  C771     1.0000 0.13357  0.24035  0.00000  Biso   1.000  C
  C772     1.0000 0.13362  0.24039  0.00000  Biso   1.000  C
  C773     1.0000 0.13362  0.24035  0.00000  Biso   1.000  C
  C774     1.0000 0.08858  0.20927  0.17528  Biso   1.000  C
  C775     1.0000 0.08858  0.20931  0.17528  Biso   1.000  C
  C776     1.0000 0.08862  0.20927  0.17528  Biso   1.000  C
  C777     1.0000 0.08862  0.20931  0.17528  Biso   1.000  C
  N429     1.0000 0.20790  0.13686  0.88945  Biso   1.000  N
  H890     1.0000 0.27180  0.16079  0.00000  Biso   1.000  H
  C778     1.0000 0.26133  0.07271  0.00000  Biso   1.000  C
  N430     1.0000 0.20790  0.13690  0.88945  Biso   1.000  N
  H891     1.0000 0.27180  0.16083  0.00000  Biso   1.000  H
  N431     1.0000 0.20794  0.13686  0.88945  Biso   1.000  N
  N432     1.0000 0.20794  0.13690  0.88945  Biso   1.000  N
  O161     1.0000 0.18896  0.08147  0.27734  Biso   1.000  O
  N433     1.0000 0.23798  0.05023  0.11055  Biso   1.000  N
  N434     1.0000 0.23798  0.05023  0.11064  Biso   1.000  N
  O162     1.0000 0.18896  0.08152  0.27734  Biso   1.000  O
  N435     1.0000 0.13686  0.20790  0.88945  Biso   1.000  N
  H892     1.0000 0.16079  0.27180  0.00000  Biso   1.000  H
  C779     1.0000 0.07271  0.26133  0.00000  Biso   1.000  C
  N436     1.0000 0.13686  0.20794  0.88945  Biso   1.000  N
  N437     1.0000 0.13690  0.20790  0.88945  Biso   1.000  N
  H893     1.0000 0.16083  0.27180  0.00000  Biso   1.000  H
  N438     1.0000 0.13690  0.20794  0.88945  Biso   1.000  N
  O163     1.0000 0.08147  0.18896  0.27734  Biso   1.000  O
  N439     1.0000 0.05023  0.23798  0.11055  Biso   1.000  N
  N440     1.0000 0.05023  0.23798  0.11064  Biso   1.000  N
  O164     1.0000 0.08152  0.18896  0.27734  Biso   1.000  O
  C780     1.0000 0.20927  0.08858  0.82472  Biso   1.000  C
  C781     1.0000 0.18829  0.18829  0.83732  Biso   1.000  C
  C782     1.0000 0.20927  0.08862  0.82472  Biso   1.000  C
  C783     1.0000 0.20931  0.08858  0.82472  Biso   1.000  C
  C784     1.0000 0.20931  0.08862  0.82472  Biso   1.000  C
  N441     1.0000 0.23798  0.05023  0.88945  Biso   1.000  N
  H894     1.0000 0.30280  0.07059  0.00000  Biso   1.000  H
  H895     1.0000 0.30280  0.07063  0.00000  Biso   1.000  H
  C785     1.0000 0.25946  0.00000  0.16606  Biso   1.000  C
  C786     1.0000 0.25946  0.00000  0.16615  Biso   1.000  C
  C787     1.0000 0.25946  0.00004  0.16606  Biso   1.000  C
  C788     1.0000 0.25946  0.00004  0.16615  Biso   1.000  C
  C789     1.0000 0.25950  0.00000  0.16606  Biso   1.000  C
  C790     1.0000 0.25950  0.00000  0.16615  Biso   1.000  C
  C791     1.0000 0.25950  0.00004  0.16606  Biso   1.000  C
  C792     1.0000 0.25950  0.00004  0.16615  Biso   1.000  C
  C793     1.0000 0.08858  0.20927  0.82472  Biso   1.000  C
  C794     1.0000 0.08858  0.20931  0.82472  Biso   1.000  C
  C795     1.0000 0.08862  0.20927  0.82472  Biso   1.000  C
  C796     1.0000 0.08862  0.20931  0.82472  Biso   1.000  C
  N442     1.0000 0.05023  0.23798  0.88945  Biso   1.000  N
  H896     1.0000 0.07059  0.30280  0.00000  Biso   1.000  H
  H897     1.0000 0.07063  0.30280  0.00000  Biso   1.000  H
  C797     1.0000 0.00000  0.25946  0.16606  Biso   1.000  C
  C798     1.0000 0.00000  0.25946  0.16615  Biso   1.000  C
  C799     1.0000 0.00000  0.25950  0.16606  Biso   1.000  C
  C800     1.0000 0.00000  0.25950  0.16615  Biso   1.000  C
  C801     1.0000 0.00004  0.25946  0.16606  Biso   1.000  C
  C802     1.0000 0.00004  0.25946  0.16615  Biso   1.000  C
  C803     1.0000 0.00004  0.25950  0.16606  Biso   1.000  C
  C804     1.0000 0.00004  0.25950  0.16615  Biso   1.000  C
  O165     1.0000 0.18896  0.08147  0.72266  Biso   1.000  O
  O166     1.0000 0.18896  0.08152  0.72266  Biso   1.000  O
  H898     1.0000 0.21708  0.21708  0.84873  Biso   1.000  H
  H899     1.0000 0.18302  0.18302  0.74840  Biso   1.000  H
  H900     1.0000 0.21708  0.21713  0.84873  Biso   1.000  H
  H901     1.0000 0.21713  0.21708  0.84873  Biso   1.000  H
  H902     1.0000 0.21713  0.21713  0.84873  Biso   1.000  H
  C805     1.0000 0.25946  0.00000  0.83394  Biso   1.000  C
  C806     1.0000 0.25946  0.00004  0.83394  Biso   1.000  C
  C807     1.0000 0.25950  0.00000  0.83394  Biso   1.000  C
  C808     1.0000 0.25950  0.00004  0.83394  Biso   1.000  C
  N443     1.0000 0.23798  0.94977  0.11055  Biso   1.000  N
  N444     1.0000 0.23798  0.94977  0.11064  Biso   1.000  N
  N445     1.0000 0.23798  0.94973  0.11055  Biso   1.000  N
  N446     1.0000 0.23798  0.94973  0.11064  Biso   1.000  N
  H903     1.0000 0.24991  0.00000  0.25397  Biso   1.000  H
  H904     1.0000 0.30051  0.00000  0.15930  Biso   1.000  H
  H905     1.0000 0.24991  0.00000  0.25406  Biso   1.000  H
  H906     1.0000 0.24991  0.00004  0.25397  Biso   1.000  H
  H907     1.0000 0.30051  0.00004  0.15930  Biso   1.000  H
  H908     1.0000 0.24991  0.00004  0.25406  Biso   1.000  H
  H909     1.0000 0.24986  0.00000  0.25397  Biso   1.000  H
  H910     1.0000 0.24986  0.00000  0.25406  Biso   1.000  H
  H911     1.0000 0.24986  0.00004  0.25397  Biso   1.000  H
  H912     1.0000 0.24986  0.00004  0.25406  Biso   1.000  H
  O167     1.0000 0.08147  0.18896  0.72266  Biso   1.000  O
  O168     1.0000 0.08152  0.18896  0.72266  Biso   1.000  O
  C809     1.0000 0.00000  0.25946  0.83394  Biso   1.000  C
  C810     1.0000 0.00000  0.25950  0.83394  Biso   1.000  C
  C811     1.0000 0.00004  0.25946  0.83394  Biso   1.000  C
  C812     1.0000 0.00004  0.25950  0.83394  Biso   1.000  C
  N447     1.0000 0.94977  0.23798  0.11055  Biso   1.000  N
  N448     1.0000 0.94977  0.23798  0.11064  Biso   1.000  N
  N449     1.0000 0.94973  0.23798  0.11055  Biso   1.000  N
  N450     1.0000 0.94973  0.23798  0.11064  Biso   1.000  N
  H913     1.0000 0.00000  0.24991  0.25397  Biso   1.000  H
  H914     1.0000 0.00000  0.30051  0.15930  Biso   1.000  H
  H915     1.0000 0.00000  0.24991  0.25406  Biso   1.000  H
  H916     1.0000 0.00000  0.24986  0.25397  Biso   1.000  H
  H917     1.0000 0.00000  0.24986  0.25406  Biso   1.000  H
  H918     1.0000 0.00004  0.24991  0.25397  Biso   1.000  H
  H919     1.0000 0.00004  0.30051  0.15930  Biso   1.000  H
  H920     1.0000 0.00004  0.24991  0.25406  Biso   1.000  H
  H921     1.0000 0.00004  0.24986  0.25397  Biso   1.000  H
  H922     1.0000 0.00004  0.24986  0.25406  Biso   1.000  H
  N451     1.0000 0.23798  0.94977  0.88945  Biso   1.000  N
  N452     1.0000 0.23798  0.94973  0.88945  Biso   1.000  N
  H923     1.0000 0.24991  0.00000  0.74603  Biso   1.000  H
  H924     1.0000 0.30051  0.00000  0.84070  Biso   1.000  H
  H925     1.0000 0.24991  0.00004  0.74603  Biso   1.000  H
  H926     1.0000 0.30051  0.00004  0.84070  Biso   1.000  H
  H927     1.0000 0.24986  0.00000  0.74603  Biso   1.000  H
  H928     1.0000 0.24986  0.00004  0.74603  Biso   1.000  H
  C813     1.0000 0.26133  0.92729  0.00000  Biso   1.000  C
  C814     1.0000 0.20927  0.91142  0.17528  Biso   1.000  C
  C815     1.0000 0.20927  0.91138  0.17528  Biso   1.000  C
  C816     1.0000 0.20931  0.91142  0.17528  Biso   1.000  C
  C817     1.0000 0.20931  0.91138  0.17528  Biso   1.000  C
  N453     1.0000 0.94977  0.23798  0.88945  Biso   1.000  N
  N454     1.0000 0.94973  0.23798  0.88945  Biso   1.000  N
  H929     1.0000 0.00000  0.24991  0.74603  Biso   1.000  H
  H930     1.0000 0.00000  0.30051  0.84070  Biso   1.000  H
  H931     1.0000 0.00000  0.24986  0.74603  Biso   1.000  H
  H932     1.0000 0.00004  0.24991  0.74603  Biso   1.000  H
  H933     1.0000 0.00004  0.30051  0.84070  Biso   1.000  H
  H934     1.0000 0.00004  0.24986  0.74603  Biso   1.000  H
  C818     1.0000 0.92729  0.26133  0.00000  Biso   1.000  C
  C819     1.0000 0.91142  0.20927  0.17528  Biso   1.000  C
  C820     1.0000 0.91142  0.20931  0.17528  Biso   1.000  C
  C821     1.0000 0.91138  0.20927  0.17528  Biso   1.000  C
  C822     1.0000 0.91138  0.20931  0.17528  Biso   1.000  C
  C823     1.0000 0.20927  0.91142  0.82472  Biso   1.000  C
  C824     1.0000 0.20927  0.91138  0.82472  Biso   1.000  C
  C825     1.0000 0.20931  0.91142  0.82472  Biso   1.000  C
  C826     1.0000 0.20931  0.91138  0.82472  Biso   1.000  C
  C827     1.0000 0.24039  0.86643  0.00000  Biso   1.000  C
  H935     1.0000 0.30280  0.92941  0.00000  Biso   1.000  H
  C828     1.0000 0.24039  0.86638  0.00000  Biso   1.000  C
  H936     1.0000 0.30280  0.92937  0.00000  Biso   1.000  H
  C829     1.0000 0.24035  0.86643  0.00000  Biso   1.000  C
  C830     1.0000 0.24035  0.86638  0.00000  Biso   1.000  C
  O169     1.0000 0.18896  0.91853  0.27734  Biso   1.000  O
  N455     1.0000 0.20790  0.86310  0.11055  Biso   1.000  N
  O170     1.0000 0.18896  0.91848  0.27734  Biso   1.000  O
  N456     1.0000 0.20794  0.86310  0.11055  Biso   1.000  N
  C831     1.0000 0.91142  0.20927  0.82472  Biso   1.000  C
  C832     1.0000 0.91142  0.20931  0.82472  Biso   1.000  C
  C833     1.0000 0.91138  0.20927  0.82472  Biso   1.000  C
  C834     1.0000 0.91138  0.20931  0.82472  Biso   1.000  C
  C835     1.0000 0.86643  0.24039  0.00000  Biso   1.000  C
  H937     1.0000 0.92941  0.30280  0.00000  Biso   1.000  H
  C836     1.0000 0.86643  0.24035  0.00000  Biso   1.000  C
  C837     1.0000 0.86638  0.24039  0.00000  Biso   1.000  C
  H938     1.0000 0.92937  0.30280  0.00000  Biso   1.000  H
  C838     1.0000 0.86638  0.24035  0.00000  Biso   1.000  C
  O171     1.0000 0.91853  0.18896  0.27734  Biso   1.000  O
  N457     1.0000 0.86310  0.20790  0.11055  Biso   1.000  N
  N458     1.0000 0.86310  0.20794  0.11055  Biso   1.000  N
  O172     1.0000 0.91848  0.18896  0.27734  Biso   1.000  O
  O173     1.0000 0.18896  0.91853  0.72266  Biso   1.000  O
  N459     1.0000 0.20790  0.86310  0.88945  Biso   1.000  N
  O174     1.0000 0.18896  0.91848  0.72266  Biso   1.000  O
  N460     1.0000 0.20794  0.86310  0.88945  Biso   1.000  N
  H939     1.0000 0.27180  0.83921  0.00000  Biso   1.000  H
  H940     1.0000 0.27180  0.83917  0.00000  Biso   1.000  H
  C839     1.0000 0.18829  0.81171  0.16268  Biso   1.000  C
  O175     1.0000 0.91853  0.18896  0.72266  Biso   1.000  O
  N461     1.0000 0.86310  0.20790  0.88945  Biso   1.000  N
  N462     1.0000 0.86310  0.20794  0.88945  Biso   1.000  N
  O176     1.0000 0.91848  0.18896  0.72266  Biso   1.000  O
  H941     1.0000 0.83921  0.27180  0.00000  Biso   1.000  H
  H942     1.0000 0.83917  0.27180  0.00000  Biso   1.000  H
  C840     1.0000 0.81171  0.18829  0.16268  Biso   1.000  C
  C841     1.0000 0.18829  0.81171  0.83732  Biso   1.000  C
  N463     1.0000 0.13686  0.79210  0.11055  Biso   1.000  N
  H943     1.0000 0.21708  0.78292  0.15127  Biso   1.000  H
  H944     1.0000 0.18302  0.81698  0.25160  Biso   1.000  H
  H945     1.0000 0.21708  0.78292  0.15136  Biso   1.000  H
  N464     1.0000 0.13686  0.79206  0.11055  Biso   1.000  N
  H946     1.0000 0.21708  0.78287  0.15127  Biso   1.000  H
  H947     1.0000 0.21708  0.78287  0.15136  Biso   1.000  H
  N465     1.0000 0.13690  0.79210  0.11055  Biso   1.000  N
  H948     1.0000 0.21713  0.78292  0.15127  Biso   1.000  H
  H949     1.0000 0.21713  0.78292  0.15136  Biso   1.000  H
  N466     1.0000 0.13690  0.79206  0.11055  Biso   1.000  N
  H950     1.0000 0.21713  0.78287  0.15127  Biso   1.000  H
  H951     1.0000 0.21713  0.78287  0.15136  Biso   1.000  H
  C842     1.0000 0.81171  0.18829  0.83732  Biso   1.000  C
  N467     1.0000 0.79210  0.13686  0.11055  Biso   1.000  N
  H952     1.0000 0.78292  0.21708  0.15127  Biso   1.000  H
  H953     1.0000 0.81698  0.18302  0.25160  Biso   1.000  H
  H954     1.0000 0.78292  0.21708  0.15136  Biso   1.000  H
  N468     1.0000 0.79210  0.13690  0.11055  Biso   1.000  N
  H955     1.0000 0.78292  0.21713  0.15127  Biso   1.000  H
  H956     1.0000 0.78292  0.21713  0.15136  Biso   1.000  H
  N469     1.0000 0.79206  0.13686  0.11055  Biso   1.000  N
  H957     1.0000 0.78287  0.21708  0.15127  Biso   1.000  H
  H958     1.0000 0.78287  0.21708  0.15136  Biso   1.000  H
  N470     1.0000 0.79206  0.13690  0.11055  Biso   1.000  N
  H959     1.0000 0.78287  0.21713  0.15127  Biso   1.000  H
  H960     1.0000 0.78287  0.21713  0.15136  Biso   1.000  H
  N471     1.0000 0.13686  0.79210  0.88945  Biso   1.000  N
  H961     1.0000 0.21708  0.78292  0.84873  Biso   1.000  H
  H962     1.0000 0.18302  0.81698  0.74840  Biso   1.000  H
  N472     1.0000 0.13686  0.79206  0.88945  Biso   1.000  N
  H963     1.0000 0.21708  0.78287  0.84873  Biso   1.000  H
  N473     1.0000 0.13690  0.79210  0.88945  Biso   1.000  N
  H964     1.0000 0.21713  0.78292  0.84873  Biso   1.000  H
  N474     1.0000 0.13690  0.79206  0.88945  Biso   1.000  N
  H965     1.0000 0.21713  0.78287  0.84873  Biso   1.000  H
  C843     1.0000 0.13357  0.75961  0.00000  Biso   1.000  C
  C844     1.0000 0.13362  0.75961  0.00000  Biso   1.000  C
  C845     1.0000 0.08858  0.79073  0.17528  Biso   1.000  C
  C846     1.0000 0.08858  0.79069  0.17528  Biso   1.000  C
  C847     1.0000 0.08862  0.79073  0.17528  Biso   1.000  C
  C848     1.0000 0.08862  0.79069  0.17528  Biso   1.000  C
  N475     1.0000 0.79210  0.13686  0.88945  Biso   1.000  N
  H966     1.0000 0.78292  0.21708  0.84873  Biso   1.000  H
  H967     1.0000 0.81698  0.18302  0.74840  Biso   1.000  H
  N476     1.0000 0.79210  0.13690  0.88945  Biso   1.000  N
  H968     1.0000 0.78292  0.21713  0.84873  Biso   1.000  H
  N477     1.0000 0.79206  0.13686  0.88945  Biso   1.000  N
  H969     1.0000 0.78287  0.21708  0.84873  Biso   1.000  H
  N478     1.0000 0.79206  0.13690  0.88945  Biso   1.000  N
  H970     1.0000 0.78287  0.21713  0.84873  Biso   1.000  H
  C849     1.0000 0.75961  0.13357  0.00000  Biso   1.000  C
  C850     1.0000 0.75961  0.13362  0.00000  Biso   1.000  C
  C851     1.0000 0.79073  0.08858  0.17528  Biso   1.000  C
  C852     1.0000 0.79073  0.08862  0.17528  Biso   1.000  C
  C853     1.0000 0.79069  0.08858  0.17528  Biso   1.000  C
  C854     1.0000 0.79069  0.08862  0.17528  Biso   1.000  C
  C855     1.0000 0.08858  0.79073  0.82472  Biso   1.000  C
  C856     1.0000 0.08858  0.79069  0.82472  Biso   1.000  C
  C857     1.0000 0.08862  0.79073  0.82472  Biso   1.000  C
  C858     1.0000 0.08862  0.79069  0.82472  Biso   1.000  C
  H971     1.0000 0.16079  0.72816  0.00000  Biso   1.000  H
  C859     1.0000 0.07271  0.73867  0.00000  Biso   1.000  C
  H972     1.0000 0.16079  0.72820  0.00000  Biso   1.000  H
  H973     1.0000 0.16083  0.72816  0.00000  Biso   1.000  H
  H974     1.0000 0.16083  0.72820  0.00000  Biso   1.000  H
  O177     1.0000 0.08147  0.81104  0.27734  Biso   1.000  O
  N479     1.0000 0.05023  0.76202  0.11055  Biso   1.000  N
  N480     1.0000 0.05023  0.76202  0.11064  Biso   1.000  N
  O178     1.0000 0.08152  0.81104  0.27734  Biso   1.000  O
  C860     1.0000 0.79073  0.08858  0.82472  Biso   1.000  C
  C861     1.0000 0.79073  0.08862  0.82472  Biso   1.000  C
  C862     1.0000 0.79069  0.08858  0.82472  Biso   1.000  C
  C863     1.0000 0.79069  0.08862  0.82472  Biso   1.000  C
  H975     1.0000 0.72816  0.16079  0.00000  Biso   1.000  H
  C864     1.0000 0.73867  0.07271  0.00000  Biso   1.000  C
  H976     1.0000 0.72816  0.16083  0.00000  Biso   1.000  H
  H977     1.0000 0.72820  0.16079  0.00000  Biso   1.000  H
  H978     1.0000 0.72820  0.16083  0.00000  Biso   1.000  H
  O179     1.0000 0.81104  0.08147  0.27734  Biso   1.000  O
  N481     1.0000 0.76202  0.05023  0.11055  Biso   1.000  N
  N482     1.0000 0.76202  0.05023  0.11064  Biso   1.000  N
  O180     1.0000 0.81104  0.08152  0.27734  Biso   1.000  O
  O181     1.0000 0.08147  0.81104  0.72266  Biso   1.000  O
  N483     1.0000 0.05023  0.76202  0.88945  Biso   1.000  N
  O182     1.0000 0.08152  0.81104  0.72266  Biso   1.000  O
  H979     1.0000 0.07059  0.69716  0.00000  Biso   1.000  H
  H980     1.0000 0.07059  0.69720  0.00000  Biso   1.000  H
  H981     1.0000 0.07063  0.69716  0.00000  Biso   1.000  H
  H982     1.0000 0.07063  0.69720  0.00000  Biso   1.000  H
  C865     1.0000 0.00000  0.74054  0.16606  Biso   1.000  C
  C866     1.0000 0.00000  0.74054  0.16615  Biso   1.000  C
  C867     1.0000 0.00000  0.74050  0.16606  Biso   1.000  C
  C868     1.0000 0.00000  0.74050  0.16615  Biso   1.000  C
  C869     1.0000 0.00004  0.74054  0.16606  Biso   1.000  C
  C870     1.0000 0.00004  0.74054  0.16615  Biso   1.000  C
  C871     1.0000 0.00004  0.74050  0.16606  Biso   1.000  C
  C872     1.0000 0.00004  0.74050  0.16615  Biso   1.000  C
  O183     1.0000 0.81104  0.08147  0.72266  Biso   1.000  O
  N484     1.0000 0.76202  0.05023  0.88945  Biso   1.000  N
  O184     1.0000 0.81104  0.08152  0.72266  Biso   1.000  O
  H983     1.0000 0.69716  0.07059  0.00000  Biso   1.000  H
  H984     1.0000 0.69716  0.07063  0.00000  Biso   1.000  H
  H985     1.0000 0.69720  0.07059  0.00000  Biso   1.000  H
  H986     1.0000 0.69720  0.07063  0.00000  Biso   1.000  H
  C873     1.0000 0.74054  0.00000  0.16606  Biso   1.000  C
  C874     1.0000 0.74054  0.00000  0.16615  Biso   1.000  C
  C875     1.0000 0.74054  0.00004  0.16606  Biso   1.000  C
  C876     1.0000 0.74054  0.00004  0.16615  Biso   1.000  C
  C877     1.0000 0.74050  0.00000  0.16606  Biso   1.000  C
  C878     1.0000 0.74050  0.00000  0.16615  Biso   1.000  C
  C879     1.0000 0.74050  0.00004  0.16606  Biso   1.000  C
  C880     1.0000 0.74050  0.00004  0.16615  Biso   1.000  C
  C881     1.0000 0.00000  0.74054  0.83394  Biso   1.000  C
  C882     1.0000 0.00000  0.74050  0.83394  Biso   1.000  C
  C883     1.0000 0.00004  0.74054  0.83394  Biso   1.000  C
  C884     1.0000 0.00004  0.74050  0.83394  Biso   1.000  C
  N485     1.0000 0.94977  0.76202  0.11055  Biso   1.000  N
  N486     1.0000 0.94977  0.76202  0.11064  Biso   1.000  N
  N487     1.0000 0.94973  0.76202  0.11055  Biso   1.000  N
  N488     1.0000 0.94973  0.76202  0.11064  Biso   1.000  N
  H987     1.0000 0.00000  0.75005  0.25397  Biso   1.000  H
  H988     1.0000 0.00000  0.69945  0.15930  Biso   1.000  H
  H989     1.0000 0.00000  0.75005  0.25406  Biso   1.000  H
  H990     1.0000 0.00000  0.75009  0.25397  Biso   1.000  H
  H991     1.0000 0.00000  0.69949  0.15930  Biso   1.000  H
  H992     1.0000 0.00000  0.75009  0.25406  Biso   1.000  H
  H993     1.0000 0.00004  0.75005  0.25397  Biso   1.000  H
  H994     1.0000 0.00004  0.69945  0.15930  Biso   1.000  H
  H995     1.0000 0.00004  0.75005  0.25406  Biso   1.000  H
  H996     1.0000 0.00004  0.75009  0.25397  Biso   1.000  H
  H997     1.0000 0.00004  0.69949  0.15930  Biso   1.000  H
  H998     1.0000 0.00004  0.75009  0.25406  Biso   1.000  H
  C885     1.0000 0.74054  0.00000  0.83394  Biso   1.000  C
  C886     1.0000 0.74054  0.00004  0.83394  Biso   1.000  C
  C887     1.0000 0.74050  0.00000  0.83394  Biso   1.000  C
  C888     1.0000 0.74050  0.00004  0.83394  Biso   1.000  C
  N489     1.0000 0.76202  0.94977  0.11055  Biso   1.000  N
  N490     1.0000 0.76202  0.94977  0.11064  Biso   1.000  N
  N491     1.0000 0.76202  0.94973  0.11055  Biso   1.000  N
  N492     1.0000 0.76202  0.94973  0.11064  Biso   1.000  N
  H999     1.0000 0.75005  0.00000  0.25397  Biso   1.000  H
  H1000    1.0000 0.69945  0.00000  0.15930  Biso   1.000  H
  H1001    1.0000 0.75005  0.00000  0.25406  Biso   1.000  H
  H1002    1.0000 0.75005  0.00004  0.25397  Biso   1.000  H
  H1003    1.0000 0.69945  0.00004  0.15930  Biso   1.000  H
  H1004    1.0000 0.75005  0.00004  0.25406  Biso   1.000  H
  H1005    1.0000 0.75009  0.00000  0.25397  Biso   1.000  H
  H1006    1.0000 0.69949  0.00000  0.15930  Biso   1.000  H
  H1007    1.0000 0.75009  0.00000  0.25406  Biso   1.000  H
  H1008    1.0000 0.75009  0.00004  0.25397  Biso   1.000  H
  H1009    1.0000 0.69949  0.00004  0.15930  Biso   1.000  H
  H1010    1.0000 0.75009  0.00004  0.25406  Biso   1.000  H
  N493     1.0000 0.94977  0.76202  0.88945  Biso   1.000  N
  N494     1.0000 0.94973  0.76202  0.88945  Biso   1.000  N
  H1011    1.0000 0.00000  0.75005  0.74603  Biso   1.000  H
  H1012    1.0000 0.00000  0.69945  0.84070  Biso   1.000  H
  H1013    1.0000 0.00000  0.75009  0.74603  Biso   1.000  H
  H1014    1.0000 0.00000  0.69949  0.84070  Biso   1.000  H
  H1015    1.0000 0.00004  0.75005  0.74603  Biso   1.000  H
  H1016    1.0000 0.00004  0.69945  0.84070  Biso   1.000  H
  H1017    1.0000 0.00004  0.75009  0.74603  Biso   1.000  H
  H1018    1.0000 0.00004  0.69949  0.84070  Biso   1.000  H
  C889     1.0000 0.92729  0.73867  0.00000  Biso   1.000  C
  C890     1.0000 0.91142  0.79073  0.17528  Biso   1.000  C
  C891     1.0000 0.91142  0.79069  0.17528  Biso   1.000  C
  C892     1.0000 0.91138  0.79073  0.17528  Biso   1.000  C
  C893     1.0000 0.91138  0.79069  0.17528  Biso   1.000  C
  N495     1.0000 0.76202  0.94977  0.88945  Biso   1.000  N
  N496     1.0000 0.76202  0.94973  0.88945  Biso   1.000  N
  H1019    1.0000 0.75005  0.00000  0.74603  Biso   1.000  H
  H1020    1.0000 0.69945  0.00000  0.84070  Biso   1.000  H
  H1021    1.0000 0.75005  0.00004  0.74603  Biso   1.000  H
  H1022    1.0000 0.69945  0.00004  0.84070  Biso   1.000  H
  H1023    1.0000 0.75009  0.00000  0.74603  Biso   1.000  H
  H1024    1.0000 0.69949  0.00000  0.84070  Biso   1.000  H
  H1025    1.0000 0.75009  0.00004  0.74603  Biso   1.000  H
  H1026    1.0000 0.69949  0.00004  0.84070  Biso   1.000  H
  C894     1.0000 0.73867  0.92729  0.00000  Biso   1.000  C
  C895     1.0000 0.79073  0.91142  0.17528  Biso   1.000  C
  C896     1.0000 0.79073  0.91138  0.17528  Biso   1.000  C
  C897     1.0000 0.79069  0.91142  0.17528  Biso   1.000  C
  C898     1.0000 0.79069  0.91138  0.17528  Biso   1.000  C
  C899     1.0000 0.91142  0.79073  0.82472  Biso   1.000  C
  C900     1.0000 0.91142  0.79069  0.82472  Biso   1.000  C
  C901     1.0000 0.91138  0.79073  0.82472  Biso   1.000  C
  C902     1.0000 0.91138  0.79069  0.82472  Biso   1.000  C
  C903     1.0000 0.86643  0.75961  0.00000  Biso   1.000  C
  H1027    1.0000 0.92941  0.69716  0.00000  Biso   1.000  H
  H1028    1.0000 0.92941  0.69720  0.00000  Biso   1.000  H
  C904     1.0000 0.86638  0.75961  0.00000  Biso   1.000  C
  H1029    1.0000 0.92937  0.69716  0.00000  Biso   1.000  H
  H1030    1.0000 0.92937  0.69720  0.00000  Biso   1.000  H
  O185     1.0000 0.91853  0.81104  0.27734  Biso   1.000  O
  N497     1.0000 0.86310  0.79210  0.11055  Biso   1.000  N
  N498     1.0000 0.86310  0.79206  0.11055  Biso   1.000  N
  O186     1.0000 0.91848  0.81104  0.27734  Biso   1.000  O
  C905     1.0000 0.79073  0.91142  0.82472  Biso   1.000  C
  C906     1.0000 0.79073  0.91138  0.82472  Biso   1.000  C
  C907     1.0000 0.79069  0.91142  0.82472  Biso   1.000  C
  C908     1.0000 0.79069  0.91138  0.82472  Biso   1.000  C
  C909     1.0000 0.75961  0.86643  0.00000  Biso   1.000  C
  H1031    1.0000 0.69716  0.92941  0.00000  Biso   1.000  H
  C910     1.0000 0.75961  0.86638  0.00000  Biso   1.000  C
  H1032    1.0000 0.69716  0.92937  0.00000  Biso   1.000  H
  H1033    1.0000 0.69720  0.92941  0.00000  Biso   1.000  H
  H1034    1.0000 0.69720  0.92937  0.00000  Biso   1.000  H
  O187     1.0000 0.81104  0.91853  0.27734  Biso   1.000  O
  N499     1.0000 0.79210  0.86310  0.11055  Biso   1.000  N
  O188     1.0000 0.81104  0.91848  0.27734  Biso   1.000  O
  N500     1.0000 0.79206  0.86310  0.11055  Biso   1.000  N
  O189     1.0000 0.91853  0.81104  0.72266  Biso   1.000  O
  N501     1.0000 0.86310  0.79210  0.88945  Biso   1.000  N
  N502     1.0000 0.86310  0.79206  0.88945  Biso   1.000  N
  O190     1.0000 0.91848  0.81104  0.72266  Biso   1.000  O
  H1035    1.0000 0.83921  0.72816  0.00000  Biso   1.000  H
  H1036    1.0000 0.83921  0.72820  0.00000  Biso   1.000  H
  H1037    1.0000 0.83917  0.72816  0.00000  Biso   1.000  H
  H1038    1.0000 0.83917  0.72820  0.00000  Biso   1.000  H
  C911     1.0000 0.81171  0.81171  0.16268  Biso   1.000  C
  O191     1.0000 0.81104  0.91853  0.72266  Biso   1.000  O
  N503     1.0000 0.79210  0.86310  0.88945  Biso   1.000  N
  O192     1.0000 0.81104  0.91848  0.72266  Biso   1.000  O
  N504     1.0000 0.79206  0.86310  0.88945  Biso   1.000  N
  H1039    1.0000 0.72816  0.83921  0.00000  Biso   1.000  H
  H1040    1.0000 0.72816  0.83917  0.00000  Biso   1.000  H
  H1041    1.0000 0.72820  0.83921  0.00000  Biso   1.000  H
  H1042    1.0000 0.72820  0.83917  0.00000  Biso   1.000  H
  C912     1.0000 0.81171  0.81171  0.83732  Biso   1.000  C
  H1043    1.0000 0.78292  0.78292  0.15127  Biso   1.000  H
  H1044    1.0000 0.81698  0.81698  0.25160  Biso   1.000  H
  H1045    1.0000 0.78292  0.78292  0.15136  Biso   1.000  H
  H1046    1.0000 0.78292  0.78287  0.15127  Biso   1.000  H
  H1047    1.0000 0.78292  0.78287  0.15136  Biso   1.000  H
  H1048    1.0000 0.78287  0.78292  0.15127  Biso   1.000  H
  H1049    1.0000 0.78287  0.78292  0.15136  Biso   1.000  H
  H1050    1.0000 0.78287  0.78287  0.15127  Biso   1.000  H
  H1051    1.0000 0.78287  0.78287  0.15136  Biso   1.000  H
  H1052    1.0000 0.78292  0.78292  0.84873  Biso   1.000  H
  H1053    1.0000 0.81698  0.81698  0.74840  Biso   1.000  H
  H1054    1.0000 0.78292  0.78287  0.84873  Biso   1.000  H
  H1055    1.0000 0.78287  0.78292  0.84873  Biso   1.000  H
  H1056    1.0000 0.78287  0.78287  0.84873  Biso   1.000  H
  C913     1.0000 0.18829  0.18829  0.16268  Biso   1.000  C
  H1057    1.0000 0.18302  0.18302  0.25160  Biso   1.000  H
  N505     1.0000 0.20790  0.13686  0.11055  Biso   1.000  N
  N506     1.0000 0.13686  0.20790  0.11055  Biso   1.000  N
  H1058    1.0000 0.21708  0.21708  0.15127  Biso   1.000  H
  H1059    1.0000 0.21708  0.21708  0.15136  Biso   1.000  H
  N507     1.0000 0.20790  0.13690  0.11055  Biso   1.000  N
  N508     1.0000 0.13686  0.20794  0.11055  Biso   1.000  N
  H1060    1.0000 0.21708  0.21713  0.15127  Biso   1.000  H
  H1061    1.0000 0.21708  0.21713  0.15136  Biso   1.000  H
  N509     1.0000 0.20794  0.13686  0.11055  Biso   1.000  N
  N510     1.0000 0.13690  0.20790  0.11055  Biso   1.000  N
  H1062    1.0000 0.21713  0.21708  0.15127  Biso   1.000  H
  H1063    1.0000 0.21713  0.21708  0.15136  Biso   1.000  H
  N511     1.0000 0.20794  0.13690  0.11055  Biso   1.000  N
  N512     1.0000 0.13690  0.20794  0.11055  Biso   1.000  N
  H1064    1.0000 0.21713  0.21713  0.15127  Biso   1.000  H
  H1065    1.0000 0.21713  0.21713  0.15136  Biso   1.000  H
  C914     1.0000 0.24039  0.13357  0.00000  Biso   1.000  C
  C915     1.0000 0.24039  0.13362  0.00000  Biso   1.000  C
  C916     1.0000 0.24035  0.13357  0.00000  Biso   1.000  C
  C917     1.0000 0.24035  0.13362  0.00000  Biso   1.000  C
  C918     1.0000 0.20927  0.08858  0.17528  Biso   1.000  C
  C919     1.0000 0.20927  0.08862  0.17528  Biso   1.000  C
  C920     1.0000 0.20931  0.08858  0.17528  Biso   1.000  C
  C921     1.0000 0.20931  0.08862  0.17528  Biso   1.000  C
  C922     1.0000 0.13357  0.24039  0.00000  Biso   1.000  C
  C923     1.0000 0.13357  0.24035  0.00000  Biso   1.000  C
  C924     1.0000 0.13362  0.24039  0.00000  Biso   1.000  C
  C925     1.0000 0.13362  0.24035  0.00000  Biso   1.000  C
  C926     1.0000 0.08858  0.20927  0.17528  Biso   1.000  C
  C927     1.0000 0.08858  0.20931  0.17528  Biso   1.000  C
  C928     1.0000 0.08862  0.20927  0.17528  Biso   1.000  C
  C929     1.0000 0.08862  0.20931  0.17528  Biso   1.000  C
  N513     1.0000 0.20790  0.13686  0.88945  Biso   1.000  N
  H1066    1.0000 0.27180  0.16079  0.00000  Biso   1.000  H
  C930     1.0000 0.26133  0.07271  0.00000  Biso   1.000  C
  N514     1.0000 0.20790  0.13690  0.88945  Biso   1.000  N
  H1067    1.0000 0.27180  0.16083  0.00000  Biso   1.000  H
  N515     1.0000 0.20794  0.13686  0.88945  Biso   1.000  N
  N516     1.0000 0.20794  0.13690  0.88945  Biso   1.000  N
  O193     1.0000 0.18896  0.08147  0.27734  Biso   1.000  O
  N517     1.0000 0.23798  0.05023  0.11055  Biso   1.000  N
  N518     1.0000 0.23798  0.05023  0.11064  Biso   1.000  N
  O194     1.0000 0.18896  0.08152  0.27734  Biso   1.000  O
  N519     1.0000 0.13686  0.20790  0.88945  Biso   1.000  N
  H1068    1.0000 0.16079  0.27180  0.00000  Biso   1.000  H
  C931     1.0000 0.07271  0.26133  0.00000  Biso   1.000  C
  N520     1.0000 0.13686  0.20794  0.88945  Biso   1.000  N
  N521     1.0000 0.13690  0.20790  0.88945  Biso   1.000  N
  H1069    1.0000 0.16083  0.27180  0.00000  Biso   1.000  H
  N522     1.0000 0.13690  0.20794  0.88945  Biso   1.000  N
  O195     1.0000 0.08147  0.18896  0.27734  Biso   1.000  O
  N523     1.0000 0.05023  0.23798  0.11055  Biso   1.000  N
  N524     1.0000 0.05023  0.23798  0.11064  Biso   1.000  N
  O196     1.0000 0.08152  0.18896  0.27734  Biso   1.000  O
  C932     1.0000 0.20927  0.08858  0.82472  Biso   1.000  C
  C933     1.0000 0.18829  0.18829  0.83732  Biso   1.000  C
  C934     1.0000 0.20927  0.08862  0.82472  Biso   1.000  C
  C935     1.0000 0.20931  0.08858  0.82472  Biso   1.000  C
  C936     1.0000 0.20931  0.08862  0.82472  Biso   1.000  C
  N525     1.0000 0.23798  0.05023  0.88945  Biso   1.000  N
  H1070    1.0000 0.30280  0.07059  0.00000  Biso   1.000  H
  H1071    1.0000 0.30280  0.07063  0.00000  Biso   1.000  H
  C937     1.0000 0.25946  0.00000  0.16606  Biso   1.000  C
  C938     1.0000 0.25946  0.00000  0.16615  Biso   1.000  C
  C939     1.0000 0.25946  0.00004  0.16606  Biso   1.000  C
  C940     1.0000 0.25946  0.00004  0.16615  Biso   1.000  C
  C941     1.0000 0.25950  0.00000  0.16606  Biso   1.000  C
  C942     1.0000 0.25950  0.00000  0.16615  Biso   1.000  C
  C943     1.0000 0.25950  0.00004  0.16606  Biso   1.000  C
  C944     1.0000 0.25950  0.00004  0.16615  Biso   1.000  C
  C945     1.0000 0.08858  0.20927  0.82472  Biso   1.000  C
  C946     1.0000 0.08858  0.20931  0.82472  Biso   1.000  C
  C947     1.0000 0.08862  0.20927  0.82472  Biso   1.000  C
  C948     1.0000 0.08862  0.20931  0.82472  Biso   1.000  C
  N526     1.0000 0.05023  0.23798  0.88945  Biso   1.000  N
  H1072    1.0000 0.07059  0.30280  0.00000  Biso   1.000  H
  H1073    1.0000 0.07063  0.30280  0.00000  Biso   1.000  H
  C949     1.0000 0.00000  0.25946  0.16606  Biso   1.000  C
  C950     1.0000 0.00000  0.25946  0.16615  Biso   1.000  C
  C951     1.0000 0.00000  0.25950  0.16606  Biso   1.000  C
  C952     1.0000 0.00000  0.25950  0.16615  Biso   1.000  C
  C953     1.0000 0.00004  0.25946  0.16606  Biso   1.000  C
  C954     1.0000 0.00004  0.25946  0.16615  Biso   1.000  C
  C955     1.0000 0.00004  0.25950  0.16606  Biso   1.000  C
  C956     1.0000 0.00004  0.25950  0.16615  Biso   1.000  C
  O197     1.0000 0.18896  0.08147  0.72266  Biso   1.000  O
  O198     1.0000 0.18896  0.08152  0.72266  Biso   1.000  O
  H1074    1.0000 0.21708  0.21708  0.84873  Biso   1.000  H
  H1075    1.0000 0.18302  0.18302  0.74840  Biso   1.000  H
  H1076    1.0000 0.21708  0.21713  0.84873  Biso   1.000  H
  H1077    1.0000 0.21713  0.21708  0.84873  Biso   1.000  H
  H1078    1.0000 0.21713  0.21713  0.84873  Biso   1.000  H
  C957     1.0000 0.25946  0.00000  0.83394  Biso   1.000  C
  C958     1.0000 0.25946  0.00004  0.83394  Biso   1.000  C
  C959     1.0000 0.25950  0.00000  0.83394  Biso   1.000  C
  C960     1.0000 0.25950  0.00004  0.83394  Biso   1.000  C
  N527     1.0000 0.23798  0.94977  0.11055  Biso   1.000  N
  N528     1.0000 0.23798  0.94977  0.11064  Biso   1.000  N
  N529     1.0000 0.23798  0.94973  0.11055  Biso   1.000  N
  N530     1.0000 0.23798  0.94973  0.11064  Biso   1.000  N
  H1079    1.0000 0.24991  0.00000  0.25397  Biso   1.000  H
  H1080    1.0000 0.30051  0.00000  0.15930  Biso   1.000  H
  H1081    1.0000 0.24991  0.00000  0.25406  Biso   1.000  H
  H1082    1.0000 0.24991  0.00004  0.25397  Biso   1.000  H
  H1083    1.0000 0.30051  0.00004  0.15930  Biso   1.000  H
  H1084    1.0000 0.24991  0.00004  0.25406  Biso   1.000  H
  H1085    1.0000 0.24986  0.00000  0.25397  Biso   1.000  H
  H1086    1.0000 0.24986  0.00000  0.25406  Biso   1.000  H
  H1087    1.0000 0.24986  0.00004  0.25397  Biso   1.000  H
  H1088    1.0000 0.24986  0.00004  0.25406  Biso   1.000  H
  O199     1.0000 0.08147  0.18896  0.72266  Biso   1.000  O
  O200     1.0000 0.08152  0.18896  0.72266  Biso   1.000  O
  C961     1.0000 0.00000  0.25946  0.83394  Biso   1.000  C
  C962     1.0000 0.00000  0.25950  0.83394  Biso   1.000  C
  C963     1.0000 0.00004  0.25946  0.83394  Biso   1.000  C
  C964     1.0000 0.00004  0.25950  0.83394  Biso   1.000  C
  N531     1.0000 0.94977  0.23798  0.11055  Biso   1.000  N
  N532     1.0000 0.94977  0.23798  0.11064  Biso   1.000  N
  N533     1.0000 0.94973  0.23798  0.11055  Biso   1.000  N
  N534     1.0000 0.94973  0.23798  0.11064  Biso   1.000  N
  H1089    1.0000 0.00000  0.24991  0.25397  Biso   1.000  H
  H1090    1.0000 0.00000  0.30051  0.15930  Biso   1.000  H
  H1091    1.0000 0.00000  0.24991  0.25406  Biso   1.000  H
  H1092    1.0000 0.00000  0.24986  0.25397  Biso   1.000  H
  H1093    1.0000 0.00000  0.24986  0.25406  Biso   1.000  H
  H1094    1.0000 0.00004  0.24991  0.25397  Biso   1.000  H
  H1095    1.0000 0.00004  0.30051  0.15930  Biso   1.000  H
  H1096    1.0000 0.00004  0.24991  0.25406  Biso   1.000  H
  H1097    1.0000 0.00004  0.24986  0.25397  Biso   1.000  H
  H1098    1.0000 0.00004  0.24986  0.25406  Biso   1.000  H
  N535     1.0000 0.23798  0.94977  0.88945  Biso   1.000  N
  N536     1.0000 0.23798  0.94973  0.88945  Biso   1.000  N
  H1099    1.0000 0.24991  0.00000  0.74603  Biso   1.000  H
  H1100    1.0000 0.30051  0.00000  0.84070  Biso   1.000  H
  H1101    1.0000 0.24991  0.00004  0.74603  Biso   1.000  H
  H1102    1.0000 0.30051  0.00004  0.84070  Biso   1.000  H
  H1103    1.0000 0.24986  0.00000  0.74603  Biso   1.000  H
  H1104    1.0000 0.24986  0.00004  0.74603  Biso   1.000  H
  C965     1.0000 0.26133  0.92729  0.00000  Biso   1.000  C
  C966     1.0000 0.20927  0.91142  0.17528  Biso   1.000  C
  C967     1.0000 0.20927  0.91138  0.17528  Biso   1.000  C
  C968     1.0000 0.20931  0.91142  0.17528  Biso   1.000  C
  C969     1.0000 0.20931  0.91138  0.17528  Biso   1.000  C
  N537     1.0000 0.94977  0.23798  0.88945  Biso   1.000  N
  N538     1.0000 0.94973  0.23798  0.88945  Biso   1.000  N
  H1105    1.0000 0.00000  0.24991  0.74603  Biso   1.000  H
  H1106    1.0000 0.00000  0.30051  0.84070  Biso   1.000  H
  H1107    1.0000 0.00000  0.24986  0.74603  Biso   1.000  H
  H1108    1.0000 0.00004  0.24991  0.74603  Biso   1.000  H
  H1109    1.0000 0.00004  0.30051  0.84070  Biso   1.000  H
  H1110    1.0000 0.00004  0.24986  0.74603  Biso   1.000  H
  C970     1.0000 0.92729  0.26133  0.00000  Biso   1.000  C
  C971     1.0000 0.91142  0.20927  0.17528  Biso   1.000  C
  C972     1.0000 0.91142  0.20931  0.17528  Biso   1.000  C
  C973     1.0000 0.91138  0.20927  0.17528  Biso   1.000  C
  C974     1.0000 0.91138  0.20931  0.17528  Biso   1.000  C
  C975     1.0000 0.20927  0.91142  0.82472  Biso   1.000  C
  C976     1.0000 0.20927  0.91138  0.82472  Biso   1.000  C
  C977     1.0000 0.20931  0.91142  0.82472  Biso   1.000  C
  C978     1.0000 0.20931  0.91138  0.82472  Biso   1.000  C
  C979     1.0000 0.24039  0.86643  0.00000  Biso   1.000  C
  H1111    1.0000 0.30280  0.92941  0.00000  Biso   1.000  H
  C980     1.0000 0.24039  0.86638  0.00000  Biso   1.000  C
  H1112    1.0000 0.30280  0.92937  0.00000  Biso   1.000  H
  C981     1.0000 0.24035  0.86643  0.00000  Biso   1.000  C
  C982     1.0000 0.24035  0.86638  0.00000  Biso   1.000  C
  O201     1.0000 0.18896  0.91853  0.27734  Biso   1.000  O
  N539     1.0000 0.20790  0.86310  0.11055  Biso   1.000  N
  O202     1.0000 0.18896  0.91848  0.27734  Biso   1.000  O
  N540     1.0000 0.20794  0.86310  0.11055  Biso   1.000  N
  C983     1.0000 0.91142  0.20927  0.82472  Biso   1.000  C
  C984     1.0000 0.91142  0.20931  0.82472  Biso   1.000  C
  C985     1.0000 0.91138  0.20927  0.82472  Biso   1.000  C
  C986     1.0000 0.91138  0.20931  0.82472  Biso   1.000  C
  C987     1.0000 0.86643  0.24039  0.00000  Biso   1.000  C
  H1113    1.0000 0.92941  0.30280  0.00000  Biso   1.000  H
  C988     1.0000 0.86643  0.24035  0.00000  Biso   1.000  C
  C989     1.0000 0.86638  0.24039  0.00000  Biso   1.000  C
  H1114    1.0000 0.92937  0.30280  0.00000  Biso   1.000  H
  C990     1.0000 0.86638  0.24035  0.00000  Biso   1.000  C
  O203     1.0000 0.91853  0.18896  0.27734  Biso   1.000  O
  N541     1.0000 0.86310  0.20790  0.11055  Biso   1.000  N
  N542     1.0000 0.86310  0.20794  0.11055  Biso   1.000  N
  O204     1.0000 0.91848  0.18896  0.27734  Biso   1.000  O
  O205     1.0000 0.18896  0.91853  0.72266  Biso   1.000  O
  N543     1.0000 0.20790  0.86310  0.88945  Biso   1.000  N
  O206     1.0000 0.18896  0.91848  0.72266  Biso   1.000  O
  N544     1.0000 0.20794  0.86310  0.88945  Biso   1.000  N
  H1115    1.0000 0.27180  0.83921  0.00000  Biso   1.000  H
  H1116    1.0000 0.27180  0.83917  0.00000  Biso   1.000  H
  C991     1.0000 0.18829  0.81171  0.16268  Biso   1.000  C
  O207     1.0000 0.91853  0.18896  0.72266  Biso   1.000  O
  N545     1.0000 0.86310  0.20790  0.88945  Biso   1.000  N
  N546     1.0000 0.86310  0.20794  0.88945  Biso   1.000  N
  O208     1.0000 0.91848  0.18896  0.72266  Biso   1.000  O
  H1117    1.0000 0.83921  0.27180  0.00000  Biso   1.000  H
  H1118    1.0000 0.83917  0.27180  0.00000  Biso   1.000  H
  C992     1.0000 0.81171  0.18829  0.16268  Biso   1.000  C
  C993     1.0000 0.18829  0.81171  0.83732  Biso   1.000  C
  N547     1.0000 0.13686  0.79210  0.11055  Biso   1.000  N
  H1119    1.0000 0.21708  0.78292  0.15127  Biso   1.000  H
  H1120    1.0000 0.18302  0.81698  0.25160  Biso   1.000  H
  H1121    1.0000 0.21708  0.78292  0.15136  Biso   1.000  H
  N548     1.0000 0.13686  0.79206  0.11055  Biso   1.000  N
  H1122    1.0000 0.21708  0.78287  0.15127  Biso   1.000  H
  H1123    1.0000 0.21708  0.78287  0.15136  Biso   1.000  H
  N549     1.0000 0.13690  0.79210  0.11055  Biso   1.000  N
  H1124    1.0000 0.21713  0.78292  0.15127  Biso   1.000  H
  H1125    1.0000 0.21713  0.78292  0.15136  Biso   1.000  H
  N550     1.0000 0.13690  0.79206  0.11055  Biso   1.000  N
  H1126    1.0000 0.21713  0.78287  0.15127  Biso   1.000  H
  H1127    1.0000 0.21713  0.78287  0.15136  Biso   1.000  H
  C994     1.0000 0.81171  0.18829  0.83732  Biso   1.000  C
  N551     1.0000 0.79210  0.13686  0.11055  Biso   1.000  N
  H1128    1.0000 0.78292  0.21708  0.15127  Biso   1.000  H
  H1129    1.0000 0.81698  0.18302  0.25160  Biso   1.000  H
  H1130    1.0000 0.78292  0.21708  0.15136  Biso   1.000  H
  N552     1.0000 0.79210  0.13690  0.11055  Biso   1.000  N
  H1131    1.0000 0.78292  0.21713  0.15127  Biso   1.000  H
  H1132    1.0000 0.78292  0.21713  0.15136  Biso   1.000  H
  N553     1.0000 0.79206  0.13686  0.11055  Biso   1.000  N
  H1133    1.0000 0.78287  0.21708  0.15127  Biso   1.000  H
  H1134    1.0000 0.78287  0.21708  0.15136  Biso   1.000  H
  N554     1.0000 0.79206  0.13690  0.11055  Biso   1.000  N
  H1135    1.0000 0.78287  0.21713  0.15127  Biso   1.000  H
  H1136    1.0000 0.78287  0.21713  0.15136  Biso   1.000  H
  N555     1.0000 0.13686  0.79210  0.88945  Biso   1.000  N
  H1137    1.0000 0.21708  0.78292  0.84873  Biso   1.000  H
  H1138    1.0000 0.18302  0.81698  0.74840  Biso   1.000  H
  N556     1.0000 0.13686  0.79206  0.88945  Biso   1.000  N
  H1139    1.0000 0.21708  0.78287  0.84873  Biso   1.000  H
  N557     1.0000 0.13690  0.79210  0.88945  Biso   1.000  N
  H1140    1.0000 0.21713  0.78292  0.84873  Biso   1.000  H
  N558     1.0000 0.13690  0.79206  0.88945  Biso   1.000  N
  H1141    1.0000 0.21713  0.78287  0.84873  Biso   1.000  H
  C995     1.0000 0.13357  0.75961  0.00000  Biso   1.000  C
  C996     1.0000 0.13362  0.75961  0.00000  Biso   1.000  C
  C997     1.0000 0.08858  0.79073  0.17528  Biso   1.000  C
  C998     1.0000 0.08858  0.79069  0.17528  Biso   1.000  C
  C999     1.0000 0.08862  0.79073  0.17528  Biso   1.000  C
  C1000    1.0000 0.08862  0.79069  0.17528  Biso   1.000  C
  N559     1.0000 0.79210  0.13686  0.88945  Biso   1.000  N
  H1142    1.0000 0.78292  0.21708  0.84873  Biso   1.000  H
  H1143    1.0000 0.81698  0.18302  0.74840  Biso   1.000  H
  N560     1.0000 0.79210  0.13690  0.88945  Biso   1.000  N
  H1144    1.0000 0.78292  0.21713  0.84873  Biso   1.000  H
  N561     1.0000 0.79206  0.13686  0.88945  Biso   1.000  N
  H1145    1.0000 0.78287  0.21708  0.84873  Biso   1.000  H
  N562     1.0000 0.79206  0.13690  0.88945  Biso   1.000  N
  H1146    1.0000 0.78287  0.21713  0.84873  Biso   1.000  H
  C1001    1.0000 0.75961  0.13357  0.00000  Biso   1.000  C
  C1002    1.0000 0.75961  0.13362  0.00000  Biso   1.000  C
  C1003    1.0000 0.79073  0.08858  0.17528  Biso   1.000  C
  C1004    1.0000 0.79073  0.08862  0.17528  Biso   1.000  C
  C1005    1.0000 0.79069  0.08858  0.17528  Biso   1.000  C
  C1006    1.0000 0.79069  0.08862  0.17528  Biso   1.000  C
  C1007    1.0000 0.08858  0.79073  0.82472  Biso   1.000  C
  C1008    1.0000 0.08858  0.79069  0.82472  Biso   1.000  C
  C1009    1.0000 0.08862  0.79073  0.82472  Biso   1.000  C
  C1010    1.0000 0.08862  0.79069  0.82472  Biso   1.000  C
  H1147    1.0000 0.16079  0.72816  0.00000  Biso   1.000  H
  C1011    1.0000 0.07271  0.73867  0.00000  Biso   1.000  C
  H1148    1.0000 0.16079  0.72820  0.00000  Biso   1.000  H
  H1149    1.0000 0.16083  0.72816  0.00000  Biso   1.000  H
  H1150    1.0000 0.16083  0.72820  0.00000  Biso   1.000  H
  O209     1.0000 0.08147  0.81104  0.27734  Biso   1.000  O
  N563     1.0000 0.05023  0.76202  0.11055  Biso   1.000  N
  N564     1.0000 0.05023  0.76202  0.11064  Biso   1.000  N
  O210     1.0000 0.08152  0.81104  0.27734  Biso   1.000  O
  C1012    1.0000 0.79073  0.08858  0.82472  Biso   1.000  C
  C1013    1.0000 0.79073  0.08862  0.82472  Biso   1.000  C
  C1014    1.0000 0.79069  0.08858  0.82472  Biso   1.000  C
  C1015    1.0000 0.79069  0.08862  0.82472  Biso   1.000  C
  H1151    1.0000 0.72816  0.16079  0.00000  Biso   1.000  H
  C1016    1.0000 0.73867  0.07271  0.00000  Biso   1.000  C
  H1152    1.0000 0.72816  0.16083  0.00000  Biso   1.000  H
  H1153    1.0000 0.72820  0.16079  0.00000  Biso   1.000  H
  H1154    1.0000 0.72820  0.16083  0.00000  Biso   1.000  H
  O211     1.0000 0.81104  0.08147  0.27734  Biso   1.000  O
  N565     1.0000 0.76202  0.05023  0.11055  Biso   1.000  N
  N566     1.0000 0.76202  0.05023  0.11064  Biso   1.000  N
  O212     1.0000 0.81104  0.08152  0.27734  Biso   1.000  O
  O213     1.0000 0.08147  0.81104  0.72266  Biso   1.000  O
  N567     1.0000 0.05023  0.76202  0.88945  Biso   1.000  N
  O214     1.0000 0.08152  0.81104  0.72266  Biso   1.000  O
  H1155    1.0000 0.07059  0.69716  0.00000  Biso   1.000  H
  H1156    1.0000 0.07059  0.69720  0.00000  Biso   1.000  H
  H1157    1.0000 0.07063  0.69716  0.00000  Biso   1.000  H
  H1158    1.0000 0.07063  0.69720  0.00000  Biso   1.000  H
  C1017    1.0000 0.00000  0.74054  0.16606  Biso   1.000  C
  C1018    1.0000 0.00000  0.74054  0.16615  Biso   1.000  C
  C1019    1.0000 0.00000  0.74050  0.16606  Biso   1.000  C
  C1020    1.0000 0.00000  0.74050  0.16615  Biso   1.000  C
  C1021    1.0000 0.00004  0.74054  0.16606  Biso   1.000  C
  C1022    1.0000 0.00004  0.74054  0.16615  Biso   1.000  C
  C1023    1.0000 0.00004  0.74050  0.16606  Biso   1.000  C
  C1024    1.0000 0.00004  0.74050  0.16615  Biso   1.000  C
  O215     1.0000 0.81104  0.08147  0.72266  Biso   1.000  O
  N568     1.0000 0.76202  0.05023  0.88945  Biso   1.000  N
  O216     1.0000 0.81104  0.08152  0.72266  Biso   1.000  O
  H1159    1.0000 0.69716  0.07059  0.00000  Biso   1.000  H
  H1160    1.0000 0.69716  0.07063  0.00000  Biso   1.000  H
  H1161    1.0000 0.69720  0.07059  0.00000  Biso   1.000  H
  H1162    1.0000 0.69720  0.07063  0.00000  Biso   1.000  H
  C1025    1.0000 0.74054  0.00000  0.16606  Biso   1.000  C
  C1026    1.0000 0.74054  0.00000  0.16615  Biso   1.000  C
  C1027    1.0000 0.74054  0.00004  0.16606  Biso   1.000  C
  C1028    1.0000 0.74054  0.00004  0.16615  Biso   1.000  C
  C1029    1.0000 0.74050  0.00000  0.16606  Biso   1.000  C
  C1030    1.0000 0.74050  0.00000  0.16615  Biso   1.000  C
  C1031    1.0000 0.74050  0.00004  0.16606  Biso   1.000  C
  C1032    1.0000 0.74050  0.00004  0.16615  Biso   1.000  C
  C1033    1.0000 0.00000  0.74054  0.83394  Biso   1.000  C
  C1034    1.0000 0.00000  0.74050  0.83394  Biso   1.000  C
  C1035    1.0000 0.00004  0.74054  0.83394  Biso   1.000  C
  C1036    1.0000 0.00004  0.74050  0.83394  Biso   1.000  C
  N569     1.0000 0.94977  0.76202  0.11055  Biso   1.000  N
  N570     1.0000 0.94977  0.76202  0.11064  Biso   1.000  N
  N571     1.0000 0.94973  0.76202  0.11055  Biso   1.000  N
  N572     1.0000 0.94973  0.76202  0.11064  Biso   1.000  N
  H1163    1.0000 0.00000  0.75005  0.25397  Biso   1.000  H
  H1164    1.0000 0.00000  0.69945  0.15930  Biso   1.000  H
  H1165    1.0000 0.00000  0.75005  0.25406  Biso   1.000  H
  H1166    1.0000 0.00000  0.75009  0.25397  Biso   1.000  H
  H1167    1.0000 0.00000  0.69949  0.15930  Biso   1.000  H
  H1168    1.0000 0.00000  0.75009  0.25406  Biso   1.000  H
  H1169    1.0000 0.00004  0.75005  0.25397  Biso   1.000  H
  H1170    1.0000 0.00004  0.69945  0.15930  Biso   1.000  H
  H1171    1.0000 0.00004  0.75005  0.25406  Biso   1.000  H
  H1172    1.0000 0.00004  0.75009  0.25397  Biso   1.000  H
  H1173    1.0000 0.00004  0.69949  0.15930  Biso   1.000  H
  H1174    1.0000 0.00004  0.75009  0.25406  Biso   1.000  H
  C1037    1.0000 0.74054  0.00000  0.83394  Biso   1.000  C
  C1038    1.0000 0.74054  0.00004  0.83394  Biso   1.000  C
  C1039    1.0000 0.74050  0.00000  0.83394  Biso   1.000  C
  C1040    1.0000 0.74050  0.00004  0.83394  Biso   1.000  C
  N573     1.0000 0.76202  0.94977  0.11055  Biso   1.000  N
  N574     1.0000 0.76202  0.94977  0.11064  Biso   1.000  N
  N575     1.0000 0.76202  0.94973  0.11055  Biso   1.000  N
  N576     1.0000 0.76202  0.94973  0.11064  Biso   1.000  N
  H1175    1.0000 0.75005  0.00000  0.25397  Biso   1.000  H
  H1176    1.0000 0.69945  0.00000  0.15930  Biso   1.000  H
  H1177    1.0000 0.75005  0.00000  0.25406  Biso   1.000  H
  H1178    1.0000 0.75005  0.00004  0.25397  Biso   1.000  H
  H1179    1.0000 0.69945  0.00004  0.15930  Biso   1.000  H
  H1180    1.0000 0.75005  0.00004  0.25406  Biso   1.000  H
  H1181    1.0000 0.75009  0.00000  0.25397  Biso   1.000  H
  H1182    1.0000 0.69949  0.00000  0.15930  Biso   1.000  H
  H1183    1.0000 0.75009  0.00000  0.25406  Biso   1.000  H
  H1184    1.0000 0.75009  0.00004  0.25397  Biso   1.000  H
  H1185    1.0000 0.69949  0.00004  0.15930  Biso   1.000  H
  H1186    1.0000 0.75009  0.00004  0.25406  Biso   1.000  H
  N577     1.0000 0.94977  0.76202  0.88945  Biso   1.000  N
  N578     1.0000 0.94973  0.76202  0.88945  Biso   1.000  N
  H1187    1.0000 0.00000  0.75005  0.74603  Biso   1.000  H
  H1188    1.0000 0.00000  0.69945  0.84070  Biso   1.000  H
  H1189    1.0000 0.00000  0.75009  0.74603  Biso   1.000  H
  H1190    1.0000 0.00000  0.69949  0.84070  Biso   1.000  H
  H1191    1.0000 0.00004  0.75005  0.74603  Biso   1.000  H
  H1192    1.0000 0.00004  0.69945  0.84070  Biso   1.000  H
  H1193    1.0000 0.00004  0.75009  0.74603  Biso   1.000  H
  H1194    1.0000 0.00004  0.69949  0.84070  Biso   1.000  H
  C1041    1.0000 0.92729  0.73867  0.00000  Biso   1.000  C
  C1042    1.0000 0.91142  0.79073  0.17528  Biso   1.000  C
  C1043    1.0000 0.91142  0.79069  0.17528  Biso   1.000  C
  C1044    1.0000 0.91138  0.79073  0.17528  Biso   1.000  C
  C1045    1.0000 0.91138  0.79069  0.17528  Biso   1.000  C
  N579     1.0000 0.76202  0.94977  0.88945  Biso   1.000  N
  N580     1.0000 0.76202  0.94973  0.88945  Biso   1.000  N
  H1195    1.0000 0.75005  0.00000  0.74603  Biso   1.000  H
  H1196    1.0000 0.69945  0.00000  0.84070  Biso   1.000  H
  H1197    1.0000 0.75005  0.00004  0.74603  Biso   1.000  H
  H1198    1.0000 0.69945  0.00004  0.84070  Biso   1.000  H
  H1199    1.0000 0.75009  0.00000  0.74603  Biso   1.000  H
  H1200    1.0000 0.69949  0.00000  0.84070  Biso   1.000  H
  H1201    1.0000 0.75009  0.00004  0.74603  Biso   1.000  H
  H1202    1.0000 0.69949  0.00004  0.84070  Biso   1.000  H
  C1046    1.0000 0.73867  0.92729  0.00000  Biso   1.000  C
  C1047    1.0000 0.79073  0.91142  0.17528  Biso   1.000  C
  C1048    1.0000 0.79073  0.91138  0.17528  Biso   1.000  C
  C1049    1.0000 0.79069  0.91142  0.17528  Biso   1.000  C
  C1050    1.0000 0.79069  0.91138  0.17528  Biso   1.000  C
  C1051    1.0000 0.91142  0.79073  0.82472  Biso   1.000  C
  C1052    1.0000 0.91142  0.79069  0.82472  Biso   1.000  C
  C1053    1.0000 0.91138  0.79073  0.82472  Biso   1.000  C
  C1054    1.0000 0.91138  0.79069  0.82472  Biso   1.000  C
  C1055    1.0000 0.86643  0.75961  0.00000  Biso   1.000  C
  H1203    1.0000 0.92941  0.69716  0.00000  Biso   1.000  H
  H1204    1.0000 0.92941  0.69720  0.00000  Biso   1.000  H
  C1056    1.0000 0.86638  0.75961  0.00000  Biso   1.000  C
  H1205    1.0000 0.92937  0.69716  0.00000  Biso   1.000  H
  H1206    1.0000 0.92937  0.69720  0.00000  Biso   1.000  H
  O217     1.0000 0.91853  0.81104  0.27734  Biso   1.000  O
  N581     1.0000 0.86310  0.79210  0.11055  Biso   1.000  N
  N582     1.0000 0.86310  0.79206  0.11055  Biso   1.000  N
  O218     1.0000 0.91848  0.81104  0.27734  Biso   1.000  O
  C1057    1.0000 0.79073  0.91142  0.82472  Biso   1.000  C
  C1058    1.0000 0.79073  0.91138  0.82472  Biso   1.000  C
  C1059    1.0000 0.79069  0.91142  0.82472  Biso   1.000  C
  C1060    1.0000 0.79069  0.91138  0.82472  Biso   1.000  C
  C1061    1.0000 0.75961  0.86643  0.00000  Biso   1.000  C
  H1207    1.0000 0.69716  0.92941  0.00000  Biso   1.000  H
  C1062    1.0000 0.75961  0.86638  0.00000  Biso   1.000  C
  H1208    1.0000 0.69716  0.92937  0.00000  Biso   1.000  H
  H1209    1.0000 0.69720  0.92941  0.00000  Biso   1.000  H
  H1210    1.0000 0.69720  0.92937  0.00000  Biso   1.000  H
  O219     1.0000 0.81104  0.91853  0.27734  Biso   1.000  O
  N583     1.0000 0.79210  0.86310  0.11055  Biso   1.000  N
  O220     1.0000 0.81104  0.91848  0.27734  Biso   1.000  O
  N584     1.0000 0.79206  0.86310  0.11055  Biso   1.000  N
  O221     1.0000 0.91853  0.81104  0.72266  Biso   1.000  O
  N585     1.0000 0.86310  0.79210  0.88945  Biso   1.000  N
  N586     1.0000 0.86310  0.79206  0.88945  Biso   1.000  N
  O222     1.0000 0.91848  0.81104  0.72266  Biso   1.000  O
  H1211    1.0000 0.83921  0.72816  0.00000  Biso   1.000  H
  H1212    1.0000 0.83921  0.72820  0.00000  Biso   1.000  H
  H1213    1.0000 0.83917  0.72816  0.00000  Biso   1.000  H
  H1214    1.0000 0.83917  0.72820  0.00000  Biso   1.000  H
  C1063    1.0000 0.81171  0.81171  0.16268  Biso   1.000  C
  O223     1.0000 0.81104  0.91853  0.72266  Biso   1.000  O
  N587     1.0000 0.79210  0.86310  0.88945  Biso   1.000  N
  O224     1.0000 0.81104  0.91848  0.72266  Biso   1.000  O
  N588     1.0000 0.79206  0.86310  0.88945  Biso   1.000  N
  H1215    1.0000 0.72816  0.83921  0.00000  Biso   1.000  H
  H1216    1.0000 0.72816  0.83917  0.00000  Biso   1.000  H
  H1217    1.0000 0.72820  0.83921  0.00000  Biso   1.000  H
  H1218    1.0000 0.72820  0.83917  0.00000  Biso   1.000  H
  C1064    1.0000 0.81171  0.81171  0.83732  Biso   1.000  C
  H1219    1.0000 0.78292  0.78292  0.15127  Biso   1.000  H
  H1220    1.0000 0.81698  0.81698  0.25160  Biso   1.000  H
  H1221    1.0000 0.78292  0.78292  0.15136  Biso   1.000  H
  H1222    1.0000 0.78292  0.78287  0.15127  Biso   1.000  H
  H1223    1.0000 0.78292  0.78287  0.15136  Biso   1.000  H
  H1224    1.0000 0.78287  0.78292  0.15127  Biso   1.000  H
  H1225    1.0000 0.78287  0.78292  0.15136  Biso   1.000  H
  H1226    1.0000 0.78287  0.78287  0.15127  Biso   1.000  H
  H1227    1.0000 0.78287  0.78287  0.15136  Biso   1.000  H
  H1228    1.0000 0.78292  0.78292  0.84873  Biso   1.000  H
  H1229    1.0000 0.81698  0.81698  0.74840  Biso   1.000  H
  H1230    1.0000 0.78292  0.78287  0.84873  Biso   1.000  H
  H1231    1.0000 0.78287  0.78292  0.84873  Biso   1.000  H
  H1232    1.0000 0.78287  0.78287  0.84873  Biso   1.000  H
  C1065    1.0000 0.18829  0.18829  0.16268  Biso   1.000  C
  H1233    1.0000 0.18302  0.18302  0.25160  Biso   1.000  H
  N589     1.0000 0.20790  0.13686  0.11055  Biso   1.000  N
  N590     1.0000 0.13686  0.20790  0.11055  Biso   1.000  N
  H1234    1.0000 0.21708  0.21708  0.15127  Biso   1.000  H
  H1235    1.0000 0.21708  0.21708  0.15136  Biso   1.000  H
  N591     1.0000 0.20790  0.13690  0.11055  Biso   1.000  N
  N592     1.0000 0.13686  0.20794  0.11055  Biso   1.000  N
  H1236    1.0000 0.21708  0.21713  0.15127  Biso   1.000  H
  H1237    1.0000 0.21708  0.21713  0.15136  Biso   1.000  H
  N593     1.0000 0.20794  0.13686  0.11055  Biso   1.000  N
  N594     1.0000 0.13690  0.20790  0.11055  Biso   1.000  N
  H1238    1.0000 0.21713  0.21708  0.15127  Biso   1.000  H
  H1239    1.0000 0.21713  0.21708  0.15136  Biso   1.000  H
  N595     1.0000 0.20794  0.13690  0.11055  Biso   1.000  N
  N596     1.0000 0.13690  0.20794  0.11055  Biso   1.000  N
  H1240    1.0000 0.21713  0.21713  0.15127  Biso   1.000  H
  H1241    1.0000 0.21713  0.21713  0.15136  Biso   1.000  H
  C1066    1.0000 0.24039  0.13357  0.00000  Biso   1.000  C
  C1067    1.0000 0.24039  0.13362  0.00000  Biso   1.000  C
  C1068    1.0000 0.24035  0.13357  0.00000  Biso   1.000  C
  C1069    1.0000 0.24035  0.13362  0.00000  Biso   1.000  C
  C1070    1.0000 0.20927  0.08858  0.17528  Biso   1.000  C
  C1071    1.0000 0.20927  0.08862  0.17528  Biso   1.000  C
  C1072    1.0000 0.20931  0.08858  0.17528  Biso   1.000  C
  C1073    1.0000 0.20931  0.08862  0.17528  Biso   1.000  C
  C1074    1.0000 0.13357  0.24039  0.00000  Biso   1.000  C
  C1075    1.0000 0.13357  0.24035  0.00000  Biso   1.000  C
  C1076    1.0000 0.13362  0.24039  0.00000  Biso   1.000  C
  C1077    1.0000 0.13362  0.24035  0.00000  Biso   1.000  C
  C1078    1.0000 0.08858  0.20927  0.17528  Biso   1.000  C
  C1079    1.0000 0.08858  0.20931  0.17528  Biso   1.000  C
  C1080    1.0000 0.08862  0.20927  0.17528  Biso   1.000  C
  C1081    1.0000 0.08862  0.20931  0.17528  Biso   1.000  C
  N597     1.0000 0.20790  0.13686  0.88945  Biso   1.000  N
  H1242    1.0000 0.27180  0.16079  0.00000  Biso   1.000  H
  C1082    1.0000 0.26133  0.07271  0.00000  Biso   1.000  C
  N598     1.0000 0.20790  0.13690  0.88945  Biso   1.000  N
  H1243    1.0000 0.27180  0.16083  0.00000  Biso   1.000  H
  N599     1.0000 0.20794  0.13686  0.88945  Biso   1.000  N
  N600     1.0000 0.20794  0.13690  0.88945  Biso   1.000  N
  O225     1.0000 0.18896  0.08147  0.27734  Biso   1.000  O
  N601     1.0000 0.23798  0.05023  0.11055  Biso   1.000  N
  N602     1.0000 0.23798  0.05023  0.11064  Biso   1.000  N
  O226     1.0000 0.18896  0.08152  0.27734  Biso   1.000  O
  N603     1.0000 0.13686  0.20790  0.88945  Biso   1.000  N
  H1244    1.0000 0.16079  0.27180  0.00000  Biso   1.000  H
  C1083    1.0000 0.07271  0.26133  0.00000  Biso   1.000  C
  N604     1.0000 0.13686  0.20794  0.88945  Biso   1.000  N
  N605     1.0000 0.13690  0.20790  0.88945  Biso   1.000  N
  H1245    1.0000 0.16083  0.27180  0.00000  Biso   1.000  H
  N606     1.0000 0.13690  0.20794  0.88945  Biso   1.000  N
  O227     1.0000 0.08147  0.18896  0.27734  Biso   1.000  O
  N607     1.0000 0.05023  0.23798  0.11055  Biso   1.000  N
  N608     1.0000 0.05023  0.23798  0.11064  Biso   1.000  N
  O228     1.0000 0.08152  0.18896  0.27734  Biso   1.000  O
  C1084    1.0000 0.20927  0.08858  0.82472  Biso   1.000  C
  C1085    1.0000 0.18829  0.18829  0.83732  Biso   1.000  C
  C1086    1.0000 0.20927  0.08862  0.82472  Biso   1.000  C
  C1087    1.0000 0.20931  0.08858  0.82472  Biso   1.000  C
  C1088    1.0000 0.20931  0.08862  0.82472  Biso   1.000  C
  N609     1.0000 0.23798  0.05023  0.88945  Biso   1.000  N
  H1246    1.0000 0.30280  0.07059  0.00000  Biso   1.000  H
  H1247    1.0000 0.30280  0.07063  0.00000  Biso   1.000  H
  C1089    1.0000 0.25946  0.00000  0.16606  Biso   1.000  C
  C1090    1.0000 0.25946  0.00000  0.16615  Biso   1.000  C
  C1091    1.0000 0.25946  0.00004  0.16606  Biso   1.000  C
  C1092    1.0000 0.25946  0.00004  0.16615  Biso   1.000  C
  C1093    1.0000 0.25950  0.00000  0.16606  Biso   1.000  C
  C1094    1.0000 0.25950  0.00000  0.16615  Biso   1.000  C
  C1095    1.0000 0.25950  0.00004  0.16606  Biso   1.000  C
  C1096    1.0000 0.25950  0.00004  0.16615  Biso   1.000  C
  C1097    1.0000 0.08858  0.20927  0.82472  Biso   1.000  C
  C1098    1.0000 0.08858  0.20931  0.82472  Biso   1.000  C
  C1099    1.0000 0.08862  0.20927  0.82472  Biso   1.000  C
  C1100    1.0000 0.08862  0.20931  0.82472  Biso   1.000  C
  N610     1.0000 0.05023  0.23798  0.88945  Biso   1.000  N
  H1248    1.0000 0.07059  0.30280  0.00000  Biso   1.000  H
  H1249    1.0000 0.07063  0.30280  0.00000  Biso   1.000  H
  C1101    1.0000 0.00000  0.25946  0.16606  Biso   1.000  C
  C1102    1.0000 0.00000  0.25946  0.16615  Biso   1.000  C
  C1103    1.0000 0.00000  0.25950  0.16606  Biso   1.000  C
  C1104    1.0000 0.00000  0.25950  0.16615  Biso   1.000  C
  C1105    1.0000 0.00004  0.25946  0.16606  Biso   1.000  C
  C1106    1.0000 0.00004  0.25946  0.16615  Biso   1.000  C
  C1107    1.0000 0.00004  0.25950  0.16606  Biso   1.000  C
  C1108    1.0000 0.00004  0.25950  0.16615  Biso   1.000  C
  O229     1.0000 0.18896  0.08147  0.72266  Biso   1.000  O
  O230     1.0000 0.18896  0.08152  0.72266  Biso   1.000  O
  H1250    1.0000 0.21708  0.21708  0.84873  Biso   1.000  H
  H1251    1.0000 0.18302  0.18302  0.74840  Biso   1.000  H
  H1252    1.0000 0.21708  0.21713  0.84873  Biso   1.000  H
  H1253    1.0000 0.21713  0.21708  0.84873  Biso   1.000  H
  H1254    1.0000 0.21713  0.21713  0.84873  Biso   1.000  H
  C1109    1.0000 0.25946  0.00000  0.83394  Biso   1.000  C
  C1110    1.0000 0.25946  0.00004  0.83394  Biso   1.000  C
  C1111    1.0000 0.25950  0.00000  0.83394  Biso   1.000  C
  C1112    1.0000 0.25950  0.00004  0.83394  Biso   1.000  C
  N611     1.0000 0.23798  0.94977  0.11055  Biso   1.000  N
  N612     1.0000 0.23798  0.94977  0.11064  Biso   1.000  N
  N613     1.0000 0.23798  0.94973  0.11055  Biso   1.000  N
  N614     1.0000 0.23798  0.94973  0.11064  Biso   1.000  N
  H1255    1.0000 0.24991  0.00000  0.25397  Biso   1.000  H
  H1256    1.0000 0.30051  0.00000  0.15930  Biso   1.000  H
  H1257    1.0000 0.24991  0.00000  0.25406  Biso   1.000  H
  H1258    1.0000 0.24991  0.00004  0.25397  Biso   1.000  H
  H1259    1.0000 0.30051  0.00004  0.15930  Biso   1.000  H
  H1260    1.0000 0.24991  0.00004  0.25406  Biso   1.000  H
  H1261    1.0000 0.24986  0.00000  0.25397  Biso   1.000  H
  H1262    1.0000 0.24986  0.00000  0.25406  Biso   1.000  H
  H1263    1.0000 0.24986  0.00004  0.25397  Biso   1.000  H
  H1264    1.0000 0.24986  0.00004  0.25406  Biso   1.000  H
  O231     1.0000 0.08147  0.18896  0.72266  Biso   1.000  O
  O232     1.0000 0.08152  0.18896  0.72266  Biso   1.000  O
  C1113    1.0000 0.00000  0.25946  0.83394  Biso   1.000  C
  C1114    1.0000 0.00000  0.25950  0.83394  Biso   1.000  C
  C1115    1.0000 0.00004  0.25946  0.83394  Biso   1.000  C
  C1116    1.0000 0.00004  0.25950  0.83394  Biso   1.000  C
  N615     1.0000 0.94977  0.23798  0.11055  Biso   1.000  N
  N616     1.0000 0.94977  0.23798  0.11064  Biso   1.000  N
  N617     1.0000 0.94973  0.23798  0.11055  Biso   1.000  N
  N618     1.0000 0.94973  0.23798  0.11064  Biso   1.000  N
  H1265    1.0000 0.00000  0.24991  0.25397  Biso   1.000  H
  H1266    1.0000 0.00000  0.30051  0.15930  Biso   1.000  H
  H1267    1.0000 0.00000  0.24991  0.25406  Biso   1.000  H
  H1268    1.0000 0.00000  0.24986  0.25397  Biso   1.000  H
  H1269    1.0000 0.00000  0.24986  0.25406  Biso   1.000  H
  H1270    1.0000 0.00004  0.24991  0.25397  Biso   1.000  H
  H1271    1.0000 0.00004  0.30051  0.15930  Biso   1.000  H
  H1272    1.0000 0.00004  0.24991  0.25406  Biso   1.000  H
  H1273    1.0000 0.00004  0.24986  0.25397  Biso   1.000  H
  H1274    1.0000 0.00004  0.24986  0.25406  Biso   1.000  H
  N619     1.0000 0.23798  0.94977  0.88945  Biso   1.000  N
  N620     1.0000 0.23798  0.94973  0.88945  Biso   1.000  N
  H1275    1.0000 0.24991  0.00000  0.74603  Biso   1.000  H
  H1276    1.0000 0.30051  0.00000  0.84070  Biso   1.000  H
  H1277    1.0000 0.24991  0.00004  0.74603  Biso   1.000  H
  H1278    1.0000 0.30051  0.00004  0.84070  Biso   1.000  H
  H1279    1.0000 0.24986  0.00000  0.74603  Biso   1.000  H
  H1280    1.0000 0.24986  0.00004  0.74603  Biso   1.000  H
  C1117    1.0000 0.26133  0.92729  0.00000  Biso   1.000  C
  C1118    1.0000 0.20927  0.91142  0.17528  Biso   1.000  C
  C1119    1.0000 0.20927  0.91138  0.17528  Biso   1.000  C
  C1120    1.0000 0.20931  0.91142  0.17528  Biso   1.000  C
  C1121    1.0000 0.20931  0.91138  0.17528  Biso   1.000  C
  N621     1.0000 0.94977  0.23798  0.88945  Biso   1.000  N
  N622     1.0000 0.94973  0.23798  0.88945  Biso   1.000  N
  H1281    1.0000 0.00000  0.24991  0.74603  Biso   1.000  H
  H1282    1.0000 0.00000  0.30051  0.84070  Biso   1.000  H
  H1283    1.0000 0.00000  0.24986  0.74603  Biso   1.000  H
  H1284    1.0000 0.00004  0.24991  0.74603  Biso   1.000  H
  H1285    1.0000 0.00004  0.30051  0.84070  Biso   1.000  H
  H1286    1.0000 0.00004  0.24986  0.74603  Biso   1.000  H
  C1122    1.0000 0.92729  0.26133  0.00000  Biso   1.000  C
  C1123    1.0000 0.91142  0.20927  0.17528  Biso   1.000  C
  C1124    1.0000 0.91142  0.20931  0.17528  Biso   1.000  C
  C1125    1.0000 0.91138  0.20927  0.17528  Biso   1.000  C
  C1126    1.0000 0.91138  0.20931  0.17528  Biso   1.000  C
  C1127    1.0000 0.20927  0.91142  0.82472  Biso   1.000  C
  C1128    1.0000 0.20927  0.91138  0.82472  Biso   1.000  C
  C1129    1.0000 0.20931  0.91142  0.82472  Biso   1.000  C
  C1130    1.0000 0.20931  0.91138  0.82472  Biso   1.000  C
  C1131    1.0000 0.24039  0.86643  0.00000  Biso   1.000  C
  H1287    1.0000 0.30280  0.92941  0.00000  Biso   1.000  H
  C1132    1.0000 0.24039  0.86638  0.00000  Biso   1.000  C
  H1288    1.0000 0.30280  0.92937  0.00000  Biso   1.000  H
  C1133    1.0000 0.24035  0.86643  0.00000  Biso   1.000  C
  C1134    1.0000 0.24035  0.86638  0.00000  Biso   1.000  C
  O233     1.0000 0.18896  0.91853  0.27734  Biso   1.000  O
  N623     1.0000 0.20790  0.86310  0.11055  Biso   1.000  N
  O234     1.0000 0.18896  0.91848  0.27734  Biso   1.000  O
  N624     1.0000 0.20794  0.86310  0.11055  Biso   1.000  N
  C1135    1.0000 0.91142  0.20927  0.82472  Biso   1.000  C
  C1136    1.0000 0.91142  0.20931  0.82472  Biso   1.000  C
  C1137    1.0000 0.91138  0.20927  0.82472  Biso   1.000  C
  C1138    1.0000 0.91138  0.20931  0.82472  Biso   1.000  C
  C1139    1.0000 0.86643  0.24039  0.00000  Biso   1.000  C
  H1289    1.0000 0.92941  0.30280  0.00000  Biso   1.000  H
  C1140    1.0000 0.86643  0.24035  0.00000  Biso   1.000  C
  C1141    1.0000 0.86638  0.24039  0.00000  Biso   1.000  C
  H1290    1.0000 0.92937  0.30280  0.00000  Biso   1.000  H
  C1142    1.0000 0.86638  0.24035  0.00000  Biso   1.000  C
  O235     1.0000 0.91853  0.18896  0.27734  Biso   1.000  O
  N625     1.0000 0.86310  0.20790  0.11055  Biso   1.000  N
  N626     1.0000 0.86310  0.20794  0.11055  Biso   1.000  N
  O236     1.0000 0.91848  0.18896  0.27734  Biso   1.000  O
  O237     1.0000 0.18896  0.91853  0.72266  Biso   1.000  O
  N627     1.0000 0.20790  0.86310  0.88945  Biso   1.000  N
  O238     1.0000 0.18896  0.91848  0.72266  Biso   1.000  O
  N628     1.0000 0.20794  0.86310  0.88945  Biso   1.000  N
  H1291    1.0000 0.27180  0.83921  0.00000  Biso   1.000  H
  H1292    1.0000 0.27180  0.83917  0.00000  Biso   1.000  H
  C1143    1.0000 0.18829  0.81171  0.16268  Biso   1.000  C
  O239     1.0000 0.91853  0.18896  0.72266  Biso   1.000  O
  N629     1.0000 0.86310  0.20790  0.88945  Biso   1.000  N
  N630     1.0000 0.86310  0.20794  0.88945  Biso   1.000  N
  O240     1.0000 0.91848  0.18896  0.72266  Biso   1.000  O
  H1293    1.0000 0.83921  0.27180  0.00000  Biso   1.000  H
  H1294    1.0000 0.83917  0.27180  0.00000  Biso   1.000  H
  C1144    1.0000 0.81171  0.18829  0.16268  Biso   1.000  C
  C1145    1.0000 0.18829  0.81171  0.83732  Biso   1.000  C
  N631     1.0000 0.13686  0.79210  0.11055  Biso   1.000  N
  H1295    1.0000 0.21708  0.78292  0.15127  Biso   1.000  H
  H1296    1.0000 0.18302  0.81698  0.25160  Biso   1.000  H
  H1297    1.0000 0.21708  0.78292  0.15136  Biso   1.000  H
  N632     1.0000 0.13686  0.79206  0.11055  Biso   1.000  N
  H1298    1.0000 0.21708  0.78287  0.15127  Biso   1.000  H
  H1299    1.0000 0.21708  0.78287  0.15136  Biso   1.000  H
  N633     1.0000 0.13690  0.79210  0.11055  Biso   1.000  N
  H1300    1.0000 0.21713  0.78292  0.15127  Biso   1.000  H
  H1301    1.0000 0.21713  0.78292  0.15136  Biso   1.000  H
  N634     1.0000 0.13690  0.79206  0.11055  Biso   1.000  N
  H1302    1.0000 0.21713  0.78287  0.15127  Biso   1.000  H
  H1303    1.0000 0.21713  0.78287  0.15136  Biso   1.000  H
  C1146    1.0000 0.81171  0.18829  0.83732  Biso   1.000  C
  N635     1.0000 0.79210  0.13686  0.11055  Biso   1.000  N
  H1304    1.0000 0.78292  0.21708  0.15127  Biso   1.000  H
  H1305    1.0000 0.81698  0.18302  0.25160  Biso   1.000  H
  H1306    1.0000 0.78292  0.21708  0.15136  Biso   1.000  H
  N636     1.0000 0.79210  0.13690  0.11055  Biso   1.000  N
  H1307    1.0000 0.78292  0.21713  0.15127  Biso   1.000  H
  H1308    1.0000 0.78292  0.21713  0.15136  Biso   1.000  H
  N637     1.0000 0.79206  0.13686  0.11055  Biso   1.000  N
  H1309    1.0000 0.78287  0.21708  0.15127  Biso   1.000  H
  H1310    1.0000 0.78287  0.21708  0.15136  Biso   1.000  H
  N638     1.0000 0.79206  0.13690  0.11055  Biso   1.000  N
  H1311    1.0000 0.78287  0.21713  0.15127  Biso   1.000  H
  H1312    1.0000 0.78287  0.21713  0.15136  Biso   1.000  H
  N639     1.0000 0.13686  0.79210  0.88945  Biso   1.000  N
  H1313    1.0000 0.21708  0.78292  0.84873  Biso   1.000  H
  H1314    1.0000 0.18302  0.81698  0.74840  Biso   1.000  H
  N640     1.0000 0.13686  0.79206  0.88945  Biso   1.000  N
  H1315    1.0000 0.21708  0.78287  0.84873  Biso   1.000  H
  N641     1.0000 0.13690  0.79210  0.88945  Biso   1.000  N
  H1316    1.0000 0.21713  0.78292  0.84873  Biso   1.000  H
  N642     1.0000 0.13690  0.79206  0.88945  Biso   1.000  N
  H1317    1.0000 0.21713  0.78287  0.84873  Biso   1.000  H
  C1147    1.0000 0.13357  0.75961  0.00000  Biso   1.000  C
  C1148    1.0000 0.13362  0.75961  0.00000  Biso   1.000  C
  C1149    1.0000 0.08858  0.79073  0.17528  Biso   1.000  C
  C1150    1.0000 0.08858  0.79069  0.17528  Biso   1.000  C
  C1151    1.0000 0.08862  0.79073  0.17528  Biso   1.000  C
  C1152    1.0000 0.08862  0.79069  0.17528  Biso   1.000  C
  N643     1.0000 0.79210  0.13686  0.88945  Biso   1.000  N
  H1318    1.0000 0.78292  0.21708  0.84873  Biso   1.000  H
  H1319    1.0000 0.81698  0.18302  0.74840  Biso   1.000  H
  N644     1.0000 0.79210  0.13690  0.88945  Biso   1.000  N
  H1320    1.0000 0.78292  0.21713  0.84873  Biso   1.000  H
  N645     1.0000 0.79206  0.13686  0.88945  Biso   1.000  N
  H1321    1.0000 0.78287  0.21708  0.84873  Biso   1.000  H
  N646     1.0000 0.79206  0.13690  0.88945  Biso   1.000  N
  H1322    1.0000 0.78287  0.21713  0.84873  Biso   1.000  H
  C1153    1.0000 0.75961  0.13357  0.00000  Biso   1.000  C
  C1154    1.0000 0.75961  0.13362  0.00000  Biso   1.000  C
  C1155    1.0000 0.79073  0.08858  0.17528  Biso   1.000  C
  C1156    1.0000 0.79073  0.08862  0.17528  Biso   1.000  C
  C1157    1.0000 0.79069  0.08858  0.17528  Biso   1.000  C
  C1158    1.0000 0.79069  0.08862  0.17528  Biso   1.000  C
  C1159    1.0000 0.08858  0.79073  0.82472  Biso   1.000  C
  C1160    1.0000 0.08858  0.79069  0.82472  Biso   1.000  C
  C1161    1.0000 0.08862  0.79073  0.82472  Biso   1.000  C
  C1162    1.0000 0.08862  0.79069  0.82472  Biso   1.000  C
  H1323    1.0000 0.16079  0.72816  0.00000  Biso   1.000  H
  C1163    1.0000 0.07271  0.73867  0.00000  Biso   1.000  C
  H1324    1.0000 0.16079  0.72820  0.00000  Biso   1.000  H
  H1325    1.0000 0.16083  0.72816  0.00000  Biso   1.000  H
  H1326    1.0000 0.16083  0.72820  0.00000  Biso   1.000  H
  O241     1.0000 0.08147  0.81104  0.27734  Biso   1.000  O
  N647     1.0000 0.05023  0.76202  0.11055  Biso   1.000  N
  N648     1.0000 0.05023  0.76202  0.11064  Biso   1.000  N
  O242     1.0000 0.08152  0.81104  0.27734  Biso   1.000  O
  C1164    1.0000 0.79073  0.08858  0.82472  Biso   1.000  C
  C1165    1.0000 0.79073  0.08862  0.82472  Biso   1.000  C
  C1166    1.0000 0.79069  0.08858  0.82472  Biso   1.000  C
  C1167    1.0000 0.79069  0.08862  0.82472  Biso   1.000  C
  H1327    1.0000 0.72816  0.16079  0.00000  Biso   1.000  H
  C1168    1.0000 0.73867  0.07271  0.00000  Biso   1.000  C
  H1328    1.0000 0.72816  0.16083  0.00000  Biso   1.000  H
  H1329    1.0000 0.72820  0.16079  0.00000  Biso   1.000  H
  H1330    1.0000 0.72820  0.16083  0.00000  Biso   1.000  H
  O243     1.0000 0.81104  0.08147  0.27734  Biso   1.000  O
  N649     1.0000 0.76202  0.05023  0.11055  Biso   1.000  N
  N650     1.0000 0.76202  0.05023  0.11064  Biso   1.000  N
  O244     1.0000 0.81104  0.08152  0.27734  Biso   1.000  O
  O245     1.0000 0.08147  0.81104  0.72266  Biso   1.000  O
  N651     1.0000 0.05023  0.76202  0.88945  Biso   1.000  N
  O246     1.0000 0.08152  0.81104  0.72266  Biso   1.000  O
  H1331    1.0000 0.07059  0.69716  0.00000  Biso   1.000  H
  H1332    1.0000 0.07059  0.69720  0.00000  Biso   1.000  H
  H1333    1.0000 0.07063  0.69716  0.00000  Biso   1.000  H
  H1334    1.0000 0.07063  0.69720  0.00000  Biso   1.000  H
  C1169    1.0000 0.00000  0.74054  0.16606  Biso   1.000  C
  C1170    1.0000 0.00000  0.74054  0.16615  Biso   1.000  C
  C1171    1.0000 0.00000  0.74050  0.16606  Biso   1.000  C
  C1172    1.0000 0.00000  0.74050  0.16615  Biso   1.000  C
  C1173    1.0000 0.00004  0.74054  0.16606  Biso   1.000  C
  C1174    1.0000 0.00004  0.74054  0.16615  Biso   1.000  C
  C1175    1.0000 0.00004  0.74050  0.16606  Biso   1.000  C
  C1176    1.0000 0.00004  0.74050  0.16615  Biso   1.000  C
  O247     1.0000 0.81104  0.08147  0.72266  Biso   1.000  O
  N652     1.0000 0.76202  0.05023  0.88945  Biso   1.000  N
  O248     1.0000 0.81104  0.08152  0.72266  Biso   1.000  O
  H1335    1.0000 0.69716  0.07059  0.00000  Biso   1.000  H
  H1336    1.0000 0.69716  0.07063  0.00000  Biso   1.000  H
  H1337    1.0000 0.69720  0.07059  0.00000  Biso   1.000  H
  H1338    1.0000 0.69720  0.07063  0.00000  Biso   1.000  H
  C1177    1.0000 0.74054  0.00000  0.16606  Biso   1.000  C
  C1178    1.0000 0.74054  0.00000  0.16615  Biso   1.000  C
  C1179    1.0000 0.74054  0.00004  0.16606  Biso   1.000  C
  C1180    1.0000 0.74054  0.00004  0.16615  Biso   1.000  C
  C1181    1.0000 0.74050  0.00000  0.16606  Biso   1.000  C
  C1182    1.0000 0.74050  0.00000  0.16615  Biso   1.000  C
  C1183    1.0000 0.74050  0.00004  0.16606  Biso   1.000  C
  C1184    1.0000 0.74050  0.00004  0.16615  Biso   1.000  C
  C1185    1.0000 0.00000  0.74054  0.83394  Biso   1.000  C
  C1186    1.0000 0.00000  0.74050  0.83394  Biso   1.000  C
  C1187    1.0000 0.00004  0.74054  0.83394  Biso   1.000  C
  C1188    1.0000 0.00004  0.74050  0.83394  Biso   1.000  C
  N653     1.0000 0.94977  0.76202  0.11055  Biso   1.000  N
  N654     1.0000 0.94977  0.76202  0.11064  Biso   1.000  N
  N655     1.0000 0.94973  0.76202  0.11055  Biso   1.000  N
  N656     1.0000 0.94973  0.76202  0.11064  Biso   1.000  N
  H1339    1.0000 0.00000  0.75005  0.25397  Biso   1.000  H
  H1340    1.0000 0.00000  0.69945  0.15930  Biso   1.000  H
  H1341    1.0000 0.00000  0.75005  0.25406  Biso   1.000  H
  H1342    1.0000 0.00000  0.75009  0.25397  Biso   1.000  H
  H1343    1.0000 0.00000  0.69949  0.15930  Biso   1.000  H
  H1344    1.0000 0.00000  0.75009  0.25406  Biso   1.000  H
  H1345    1.0000 0.00004  0.75005  0.25397  Biso   1.000  H
  H1346    1.0000 0.00004  0.69945  0.15930  Biso   1.000  H
  H1347    1.0000 0.00004  0.75005  0.25406  Biso   1.000  H
  H1348    1.0000 0.00004  0.75009  0.25397  Biso   1.000  H
  H1349    1.0000 0.00004  0.69949  0.15930  Biso   1.000  H
  H1350    1.0000 0.00004  0.75009  0.25406  Biso   1.000  H
  C1189    1.0000 0.74054  0.00000  0.83394  Biso   1.000  C
  C1190    1.0000 0.74054  0.00004  0.83394  Biso   1.000  C
  C1191    1.0000 0.74050  0.00000  0.83394  Biso   1.000  C
  C1192    1.0000 0.74050  0.00004  0.83394  Biso   1.000  C
  N657     1.0000 0.76202  0.94977  0.11055  Biso   1.000  N
  N658     1.0000 0.76202  0.94977  0.11064  Biso   1.000  N
  N659     1.0000 0.76202  0.94973  0.11055  Biso   1.000  N
  N660     1.0000 0.76202  0.94973  0.11064  Biso   1.000  N
  H1351    1.0000 0.75005  0.00000  0.25397  Biso   1.000  H
  H1352    1.0000 0.69945  0.00000  0.15930  Biso   1.000  H
  H1353    1.0000 0.75005  0.00000  0.25406  Biso   1.000  H
  H1354    1.0000 0.75005  0.00004  0.25397  Biso   1.000  H
  H1355    1.0000 0.69945  0.00004  0.15930  Biso   1.000  H
  H1356    1.0000 0.75005  0.00004  0.25406  Biso   1.000  H
  H1357    1.0000 0.75009  0.00000  0.25397  Biso   1.000  H
  H1358    1.0000 0.69949  0.00000  0.15930  Biso   1.000  H
  H1359    1.0000 0.75009  0.00000  0.25406  Biso   1.000  H
  H1360    1.0000 0.75009  0.00004  0.25397  Biso   1.000  H
  H1361    1.0000 0.69949  0.00004  0.15930  Biso   1.000  H
  H1362    1.0000 0.75009  0.00004  0.25406  Biso   1.000  H
  N661     1.0000 0.94977  0.76202  0.88945  Biso   1.000  N
  N662     1.0000 0.94973  0.76202  0.88945  Biso   1.000  N
  H1363    1.0000 0.00000  0.75005  0.74603  Biso   1.000  H
  H1364    1.0000 0.00000  0.69945  0.84070  Biso   1.000  H
  H1365    1.0000 0.00000  0.75009  0.74603  Biso   1.000  H
  H1366    1.0000 0.00000  0.69949  0.84070  Biso   1.000  H
  H1367    1.0000 0.00004  0.75005  0.74603  Biso   1.000  H
  H1368    1.0000 0.00004  0.69945  0.84070  Biso   1.000  H
  H1369    1.0000 0.00004  0.75009  0.74603  Biso   1.000  H
  H1370    1.0000 0.00004  0.69949  0.84070  Biso   1.000  H
  C1193    1.0000 0.92729  0.73867  0.00000  Biso   1.000  C
  C1194    1.0000 0.91142  0.79073  0.17528  Biso   1.000  C
  C1195    1.0000 0.91142  0.79069  0.17528  Biso   1.000  C
  C1196    1.0000 0.91138  0.79073  0.17528  Biso   1.000  C
  C1197    1.0000 0.91138  0.79069  0.17528  Biso   1.000  C
  N663     1.0000 0.76202  0.94977  0.88945  Biso   1.000  N
  N664     1.0000 0.76202  0.94973  0.88945  Biso   1.000  N
  H1371    1.0000 0.75005  0.00000  0.74603  Biso   1.000  H
  H1372    1.0000 0.69945  0.00000  0.84070  Biso   1.000  H
  H1373    1.0000 0.75005  0.00004  0.74603  Biso   1.000  H
  H1374    1.0000 0.69945  0.00004  0.84070  Biso   1.000  H
  H1375    1.0000 0.75009  0.00000  0.74603  Biso   1.000  H
  H1376    1.0000 0.69949  0.00000  0.84070  Biso   1.000  H
  H1377    1.0000 0.75009  0.00004  0.74603  Biso   1.000  H
  H1378    1.0000 0.69949  0.00004  0.84070  Biso   1.000  H
  C1198    1.0000 0.73867  0.92729  0.00000  Biso   1.000  C
  C1199    1.0000 0.79073  0.91142  0.17528  Biso   1.000  C
  C1200    1.0000 0.79073  0.91138  0.17528  Biso   1.000  C
  C1201    1.0000 0.79069  0.91142  0.17528  Biso   1.000  C
  C1202    1.0000 0.79069  0.91138  0.17528  Biso   1.000  C
  C1203    1.0000 0.91142  0.79073  0.82472  Biso   1.000  C
  C1204    1.0000 0.91142  0.79069  0.82472  Biso   1.000  C
  C1205    1.0000 0.91138  0.79073  0.82472  Biso   1.000  C
  C1206    1.0000 0.91138  0.79069  0.82472  Biso   1.000  C
  C1207    1.0000 0.86643  0.75961  0.00000  Biso   1.000  C
  H1379    1.0000 0.92941  0.69716  0.00000  Biso   1.000  H
  H1380    1.0000 0.92941  0.69720  0.00000  Biso   1.000  H
  C1208    1.0000 0.86638  0.75961  0.00000  Biso   1.000  C
  H1381    1.0000 0.92937  0.69716  0.00000  Biso   1.000  H
  H1382    1.0000 0.92937  0.69720  0.00000  Biso   1.000  H
  O249     1.0000 0.91853  0.81104  0.27734  Biso   1.000  O
  N665     1.0000 0.86310  0.79210  0.11055  Biso   1.000  N
  N666     1.0000 0.86310  0.79206  0.11055  Biso   1.000  N
  O250     1.0000 0.91848  0.81104  0.27734  Biso   1.000  O
  C1209    1.0000 0.79073  0.91142  0.82472  Biso   1.000  C
  C1210    1.0000 0.79073  0.91138  0.82472  Biso   1.000  C
  C1211    1.0000 0.79069  0.91142  0.82472  Biso   1.000  C
  C1212    1.0000 0.79069  0.91138  0.82472  Biso   1.000  C
  C1213    1.0000 0.75961  0.86643  0.00000  Biso   1.000  C
  H1383    1.0000 0.69716  0.92941  0.00000  Biso   1.000  H
  C1214    1.0000 0.75961  0.86638  0.00000  Biso   1.000  C
  H1384    1.0000 0.69716  0.92937  0.00000  Biso   1.000  H
  H1385    1.0000 0.69720  0.92941  0.00000  Biso   1.000  H
  H1386    1.0000 0.69720  0.92937  0.00000  Biso   1.000  H
  O251     1.0000 0.81104  0.91853  0.27734  Biso   1.000  O
  N667     1.0000 0.79210  0.86310  0.11055  Biso   1.000  N
  O252     1.0000 0.81104  0.91848  0.27734  Biso   1.000  O
  N668     1.0000 0.79206  0.86310  0.11055  Biso   1.000  N
  O253     1.0000 0.91853  0.81104  0.72266  Biso   1.000  O
  N669     1.0000 0.86310  0.79210  0.88945  Biso   1.000  N
  N670     1.0000 0.86310  0.79206  0.88945  Biso   1.000  N
  O254     1.0000 0.91848  0.81104  0.72266  Biso   1.000  O
  H1387    1.0000 0.83921  0.72816  0.00000  Biso   1.000  H
  H1388    1.0000 0.83921  0.72820  0.00000  Biso   1.000  H
  H1389    1.0000 0.83917  0.72816  0.00000  Biso   1.000  H
  H1390    1.0000 0.83917  0.72820  0.00000  Biso   1.000  H
  C1215    1.0000 0.81171  0.81171  0.16268  Biso   1.000  C
  O255     1.0000 0.81104  0.91853  0.72266  Biso   1.000  O
  N671     1.0000 0.79210  0.86310  0.88945  Biso   1.000  N
  O256     1.0000 0.81104  0.91848  0.72266  Biso   1.000  O
  N672     1.0000 0.79206  0.86310  0.88945  Biso   1.000  N
  H1391    1.0000 0.72816  0.83921  0.00000  Biso   1.000  H
  H1392    1.0000 0.72816  0.83917  0.00000  Biso   1.000  H
  H1393    1.0000 0.72820  0.83921  0.00000  Biso   1.000  H
  H1394    1.0000 0.72820  0.83917  0.00000  Biso   1.000  H
  C1216    1.0000 0.81171  0.81171  0.83732  Biso   1.000  C
  H1395    1.0000 0.78292  0.78292  0.15127  Biso   1.000  H
  H1396    1.0000 0.81698  0.81698  0.25160  Biso   1.000  H
  H1397    1.0000 0.78292  0.78292  0.15136  Biso   1.000  H
  H1398    1.0000 0.78292  0.78287  0.15127  Biso   1.000  H
  H1399    1.0000 0.78292  0.78287  0.15136  Biso   1.000  H
  H1400    1.0000 0.78287  0.78292  0.15127  Biso   1.000  H
  H1401    1.0000 0.78287  0.78292  0.15136  Biso   1.000  H
  H1402    1.0000 0.78287  0.78287  0.15127  Biso   1.000  H
  H1403    1.0000 0.78287  0.78287  0.15136  Biso   1.000  H
  H1404    1.0000 0.78292  0.78292  0.84873  Biso   1.000  H
  H1405    1.0000 0.81698  0.81698  0.74840  Biso   1.000  H
  H1406    1.0000 0.78292  0.78287  0.84873  Biso   1.000  H
  H1407    1.0000 0.78287  0.78292  0.84873  Biso   1.000  H
  H1408    1.0000 0.78287  0.78287  0.84873  Biso   1.000  H
  C1217    1.0000 0.31173  0.31173  0.33732  Biso   1.000  C
  N673     1.0000 0.36312  0.29208  0.38945  Biso   1.000  N
  H1409    1.0000 0.28290  0.28290  0.34873  Biso   1.000  H
  H1410    1.0000 0.31701  0.31701  0.24840  Biso   1.000  H
  N674     1.0000 0.29208  0.36312  0.38945  Biso   1.000  N
  C1218    1.0000 0.36640  0.25959  0.50000  Biso   1.000  C
  C1219    1.0000 0.41140  0.29071  0.32472  Biso   1.000  C
  C1220    1.0000 0.25959  0.36640  0.50000  Biso   1.000  C
  C1221    1.0000 0.29071  0.41140  0.32472  Biso   1.000  C
  H1411    1.0000 0.33919  0.22818  0.50000  Biso   1.000  H
  C1222    1.0000 0.42731  0.23865  0.50000  Biso   1.000  C
  N675     1.0000 0.36312  0.29208  0.61055  Biso   1.000  N
  O257     1.0000 0.41851  0.31106  0.22266  Biso   1.000  O
  N676     1.0000 0.44975  0.26204  0.38945  Biso   1.000  N
  N677     1.0000 0.29208  0.36312  0.61055  Biso   1.000  N
  H1412    1.0000 0.22818  0.33919  0.50000  Biso   1.000  H
  C1223    1.0000 0.23865  0.42731  0.50000  Biso   1.000  C
  O258     1.0000 0.31106  0.41851  0.22266  Biso   1.000  O
  N678     1.0000 0.26204  0.44975  0.38945  Biso   1.000  N
  H1413    1.0000 0.42939  0.19718  0.50000  Biso   1.000  H
  N679     1.0000 0.44975  0.26204  0.61064  Biso   1.000  N
  C1224    1.0000 0.41140  0.29071  0.67528  Biso   1.000  C
  C1225    1.0000 0.31173  0.31173  0.66268  Biso   1.000  C
  C1226    1.0000 0.49998  0.24052  0.33394  Biso   1.000  C
  C1227    1.0000 0.29071  0.41140  0.67528  Biso   1.000  C
  N680     1.0000 0.26204  0.44975  0.61064  Biso   1.000  N
  H1414    1.0000 0.19718  0.42939  0.50000  Biso   1.000  H
  C1228    1.0000 0.24052  0.49998  0.33394  Biso   1.000  C
  C1229    1.0000 0.49998  0.24052  0.66615  Biso   1.000  C
  O259     1.0000 0.41851  0.31106  0.77734  Biso   1.000  O
  H1415    1.0000 0.28290  0.28290  0.65127  Biso   1.000  H
  H1416    1.0000 0.31701  0.31701  0.75160  Biso   1.000  H
  H1417    1.0000 0.49998  0.25011  0.24603  Biso   1.000  H
  H1418    1.0000 0.49998  0.19951  0.34070  Biso   1.000  H
  N681     1.0000 0.55025  0.26204  0.38945  Biso   1.000  N
  O260     1.0000 0.31106  0.41851  0.77734  Biso   1.000  O
  C1230    1.0000 0.24052  0.49998  0.66615  Biso   1.000  C
  N682     1.0000 0.26204  0.55025  0.38945  Biso   1.000  N
  H1419    1.0000 0.25011  0.49998  0.24603  Biso   1.000  H
  H1420    1.0000 0.19951  0.49998  0.34070  Biso   1.000  H
  N683     1.0000 0.55025  0.26204  0.61064  Biso   1.000  N
  H1421    1.0000 0.49998  0.25011  0.75397  Biso   1.000  H
  H1422    1.0000 0.49998  0.19951  0.65930  Biso   1.000  H
  C1231    1.0000 0.57269  0.23865  0.50000  Biso   1.000  C
  C1232    1.0000 0.58860  0.29071  0.32472  Biso   1.000  C
  N684     1.0000 0.26204  0.55025  0.61064  Biso   1.000  N
  H1423    1.0000 0.25011  0.49998  0.75397  Biso   1.000  H
  H1424    1.0000 0.19951  0.49998  0.65930  Biso   1.000  H
  C1233    1.0000 0.23865  0.57269  0.50000  Biso   1.000  C
  C1234    1.0000 0.29071  0.58860  0.32472  Biso   1.000  C
  C1235    1.0000 0.58860  0.29071  0.67528  Biso   1.000  C
  C1236    1.0000 0.63355  0.25959  0.50000  Biso   1.000  C
  H1425    1.0000 0.57057  0.19718  0.50000  Biso   1.000  H
  O261     1.0000 0.58149  0.31106  0.22266  Biso   1.000  O
  N685     1.0000 0.63688  0.29208  0.38945  Biso   1.000  N
  C1237    1.0000 0.29071  0.58860  0.67528  Biso   1.000  C
  C1238    1.0000 0.25959  0.63355  0.50000  Biso   1.000  C
  H1426    1.0000 0.19718  0.57057  0.50000  Biso   1.000  H
  O262     1.0000 0.31106  0.58149  0.22266  Biso   1.000  O
  N686     1.0000 0.29208  0.63688  0.38945  Biso   1.000  N
  O263     1.0000 0.58149  0.31106  0.77734  Biso   1.000  O
  N687     1.0000 0.63688  0.29208  0.61055  Biso   1.000  N
  H1427    1.0000 0.66077  0.22818  0.50000  Biso   1.000  H
  C1239    1.0000 0.68827  0.31173  0.33732  Biso   1.000  C
  O264     1.0000 0.31106  0.58149  0.77734  Biso   1.000  O
  N688     1.0000 0.29208  0.63688  0.61055  Biso   1.000  N
  H1428    1.0000 0.22818  0.66077  0.50000  Biso   1.000  H
  C1240    1.0000 0.31173  0.68827  0.33732  Biso   1.000  C
  C1241    1.0000 0.68827  0.31173  0.66268  Biso   1.000  C
  N689     1.0000 0.70788  0.36312  0.38945  Biso   1.000  N
  H1429    1.0000 0.71710  0.28290  0.34873  Biso   1.000  H
  H1430    1.0000 0.68299  0.31701  0.24840  Biso   1.000  H
  C1242    1.0000 0.31173  0.68827  0.66268  Biso   1.000  C
  N690     1.0000 0.36312  0.70788  0.38945  Biso   1.000  N
  H1431    1.0000 0.28290  0.71710  0.34873  Biso   1.000  H
  H1432    1.0000 0.31701  0.68299  0.24840  Biso   1.000  H
  N691     1.0000 0.70788  0.36312  0.61055  Biso   1.000  N
  H1433    1.0000 0.71710  0.28290  0.65127  Biso   1.000  H
  H1434    1.0000 0.68299  0.31701  0.75160  Biso   1.000  H
  C1243    1.0000 0.74037  0.36640  0.50000  Biso   1.000  C
  C1244    1.0000 0.70929  0.41140  0.32472  Biso   1.000  C
  N692     1.0000 0.36312  0.70788  0.61055  Biso   1.000  N
  H1435    1.0000 0.28290  0.71710  0.65127  Biso   1.000  H
  H1436    1.0000 0.31701  0.68299  0.75160  Biso   1.000  H
  C1245    1.0000 0.36640  0.74037  0.50000  Biso   1.000  C
  C1246    1.0000 0.41140  0.70929  0.32472  Biso   1.000  C
  C1247    1.0000 0.70929  0.41140  0.67528  Biso   1.000  C
  H1437    1.0000 0.77178  0.33919  0.50000  Biso   1.000  H
  C1248    1.0000 0.76131  0.42731  0.50000  Biso   1.000  C
  O265     1.0000 0.68894  0.41851  0.22266  Biso   1.000  O
  N693     1.0000 0.73796  0.44975  0.38945  Biso   1.000  N
  C1249    1.0000 0.41140  0.70929  0.67528  Biso   1.000  C
  H1438    1.0000 0.33919  0.77178  0.50000  Biso   1.000  H
  C1250    1.0000 0.42731  0.76131  0.50000  Biso   1.000  C
  O266     1.0000 0.41851  0.68894  0.22266  Biso   1.000  O
  N694     1.0000 0.44975  0.73796  0.38945  Biso   1.000  N
  O267     1.0000 0.68894  0.41851  0.77734  Biso   1.000  O
  N695     1.0000 0.73796  0.44975  0.61064  Biso   1.000  N
  H1439    1.0000 0.80278  0.42939  0.50000  Biso   1.000  H
  C1251    1.0000 0.75944  0.49998  0.33394  Biso   1.000  C
  O268     1.0000 0.41851  0.68894  0.77734  Biso   1.000  O
  N696     1.0000 0.44975  0.73796  0.61064  Biso   1.000  N
  H1440    1.0000 0.42939  0.80278  0.50000  Biso   1.000  H
  C1252    1.0000 0.49998  0.75944  0.33394  Biso   1.000  C
  C1253    1.0000 0.75944  0.49998  0.66615  Biso   1.000  C
  N697     1.0000 0.73796  0.55025  0.38945  Biso   1.000  N
  H1441    1.0000 0.74989  0.49998  0.24603  Biso   1.000  H
  H1442    1.0000 0.80049  0.49998  0.34070  Biso   1.000  H
  C1254    1.0000 0.49998  0.75944  0.66615  Biso   1.000  C
  N698     1.0000 0.55025  0.73796  0.38945  Biso   1.000  N
  H1443    1.0000 0.49998  0.74989  0.24603  Biso   1.000  H
  H1444    1.0000 0.49998  0.80049  0.34070  Biso   1.000  H
  N699     1.0000 0.73796  0.55025  0.61064  Biso   1.000  N
  H1445    1.0000 0.74989  0.49998  0.75397  Biso   1.000  H
  H1446    1.0000 0.80049  0.49998  0.65930  Biso   1.000  H
  C1255    1.0000 0.76131  0.57269  0.50000  Biso   1.000  C
  C1256    1.0000 0.70929  0.58860  0.32472  Biso   1.000  C
  N700     1.0000 0.55025  0.73796  0.61064  Biso   1.000  N
  H1447    1.0000 0.49998  0.74989  0.75397  Biso   1.000  H
  H1448    1.0000 0.49998  0.80049  0.65930  Biso   1.000  H
  C1257    1.0000 0.57269  0.76131  0.50000  Biso   1.000  C
  C1258    1.0000 0.58860  0.70929  0.32472  Biso   1.000  C
  C1259    1.0000 0.70929  0.58860  0.67528  Biso   1.000  C
  C1260    1.0000 0.74037  0.63355  0.50000  Biso   1.000  C
  H1449    1.0000 0.80278  0.57057  0.50000  Biso   1.000  H
  O269     1.0000 0.68894  0.58149  0.22266  Biso   1.000  O
  N701     1.0000 0.70788  0.63688  0.38945  Biso   1.000  N
  C1261    1.0000 0.58860  0.70929  0.67528  Biso   1.000  C
  C1262    1.0000 0.63355  0.74037  0.50000  Biso   1.000  C
  H1450    1.0000 0.57057  0.80278  0.50000  Biso   1.000  H
  O270     1.0000 0.58149  0.68894  0.22266  Biso   1.000  O
  N702     1.0000 0.63688  0.70788  0.38945  Biso   1.000  N
  O271     1.0000 0.68894  0.58149  0.77734  Biso   1.000  O
  N703     1.0000 0.70788  0.63688  0.61055  Biso   1.000  N
  H1451    1.0000 0.77178  0.66077  0.50000  Biso   1.000  H
  C1263    1.0000 0.68827  0.68827  0.33732  Biso   1.000  C
  O272     1.0000 0.58149  0.68894  0.77734  Biso   1.000  O
  N704     1.0000 0.63688  0.70788  0.61055  Biso   1.000  N
  H1452    1.0000 0.66077  0.77178  0.50000  Biso   1.000  H
  C1264    1.0000 0.68827  0.68827  0.66268  Biso   1.000  C
  H1453    1.0000 0.71710  0.71710  0.34873  Biso   1.000  H
  H1454    1.0000 0.68299  0.68299  0.24840  Biso   1.000  H
  H1455    1.0000 0.71710  0.71710  0.65127  Biso   1.000  H
  H1456    1.0000 0.68299  0.68299  0.75160  Biso   1.000  H
  O273     1.0000 0.94458  0.90199  0.02903  Biso   1.000  O
  O274     1.0000 0.90199  0.94458  0.02903  Biso   1.000  O
  O275     1.0000 0.90199  0.94458  0.97106  Biso   1.000  O
  O276     1.0000 0.00004  0.89297  0.00000  Biso   1.000  O
  O277     1.0000 0.00000  0.89597  0.94997  Biso   1.000  O
  O278     1.0000 0.00004  0.89597  0.94997  Biso   1.000  O
  O279     1.0000 0.00000  0.89297  0.00000  Biso   1.000  O
  O280     1.0000 0.00004  0.89597  0.05003  Biso   1.000  O
  O281     1.0000 0.00000  0.89597  0.05003  Biso   1.000  O
  O282     1.0000 0.94458  0.90199  0.97106  Biso   1.000  O
  O283     1.0000 0.89297  0.00000  0.00000  Biso   1.000  O
  O284     1.0000 0.89597  0.00004  0.94997  Biso   1.000  O
  O285     1.0000 0.89597  0.00000  0.94997  Biso   1.000  O
  O286     1.0000 0.89297  0.00004  0.00000  Biso   1.000  O
  O287     1.0000 0.89597  0.00000  0.05003  Biso   1.000  O
  O288     1.0000 0.89597  0.00004  0.05003  Biso   1.000  O
  O289     1.0000 0.05538  0.90199  0.97106  Biso   1.000  O
  O290     1.0000 0.05538  0.90199  0.02903  Biso   1.000  O
  O291     1.0000 0.90199  0.05538  0.97106  Biso   1.000  O
  O292     1.0000 0.90199  0.05538  0.02903  Biso   1.000  O
  O293     1.0000 0.09801  0.94458  0.97106  Biso   1.000  O
  O294     1.0000 0.09801  0.94458  0.02903  Biso   1.000  O
  O295     1.0000 0.94458  0.09801  0.97106  Biso   1.000  O
  O296     1.0000 0.94458  0.09801  0.02903  Biso   1.000  O
  O297     1.0000 0.10698  0.00004  0.00000  Biso   1.000  O
  O298     1.0000 0.10399  0.00000  0.94997  Biso   1.000  O
  O299     1.0000 0.10399  0.00004  0.94997  Biso   1.000  O
  O300     1.0000 0.10698  0.00000  0.00000  Biso   1.000  O
  O301     1.0000 0.10399  0.00004  0.05003  Biso   1.000  O
  O302     1.0000 0.10399  0.00000  0.05003  Biso   1.000  O
  O303     1.0000 0.00000  0.10698  0.00000  Biso   1.000  O
  O304     1.0000 0.00004  0.10399  0.94997  Biso   1.000  O
  O305     1.0000 0.00000  0.10399  0.94997  Biso   1.000  O
  O306     1.0000 0.00004  0.10698  0.00000  Biso   1.000  O
  O307     1.0000 0.00000  0.10399  0.05003  Biso   1.000  O
  O308     1.0000 0.00004  0.10399  0.05003  Biso   1.000  O
  O309     1.0000 0.09801  0.05538  0.97106  Biso   1.000  O
  O310     1.0000 0.09801  0.05538  0.02903  Biso   1.000  O
  O311     1.0000 0.05538  0.09801  0.97106  Biso   1.000  O
  O312     1.0000 0.05538  0.09801  0.02903  Biso   1.000  O
  Ne1      1.0000 0.49999  0.49999  0.50001  Biso   1.000  Ne
  He1      1.0000 0.50000  0.50000  0.79889  Biso   1.000  He
  He2      1.0000 0.50000  0.50000  0.19929  Biso   1.000  He
  Ar1      1.0000 0.50000  0.50000  0.50000  Biso   1.000  Ar
  Ne2      1.0000 0.00518  0.00518  0.01546  Biso   1.000  Ne
  He3      1.0000 1.00000  0.00000  0.29889  Biso   1.000  He
  He4      1.0000 0.00000  0.00000  0.69928  Biso   1.000  He
  Ar2      1.0000 1.00000  1.00000  1.00000  Biso   1.000  Ar
  Ne3      1.0000 0.00518  0.00518  0.01546  Biso   1.000  Ne
  He5      1.0000 1.00000  0.00000  0.29889  Biso   1.000  He
  He6      1.0000 0.00000  0.00000  0.69928  Biso   1.000  He
  Ar3      1.0000 1.00000  1.00000  1.00000  Biso   1.000  Ar
  Ne4      1.0000 0.00518  0.00518  0.01546  Biso   1.000  Ne
  He7      1.0000 1.00000  0.00000  0.29889  Biso   1.000  He
  He8      1.0000 0.00000  0.00000  0.69928  Biso   1.000  He
  Ar4      1.0000 1.00000  1.00000  1.00000  Biso   1.000  Ar
  Ne5      1.0000 0.00518  0.00518  0.01546  Biso   1.000  Ne
  He9      1.0000 1.00000  0.00000  0.29889  Biso   1.000  He
  He10     1.0000 0.00000  0.00000  0.69928  Biso   1.000  He
  Ar5      1.0000 1.00000  1.00000  1.00000  Biso   1.000  Ar
  Ne6      1.0000 0.00518  0.00518  0.01546  Biso   1.000  Ne
  He11     1.0000 1.00000  0.00000  0.29889  Biso   1.000  He
  He12     1.0000 0.00000  0.00000  0.69928  Biso   1.000  He
  Ar6      1.0000 1.00000  1.00000  1.00000  Biso   1.000  Ar
  Ne7      1.0000 0.00518  0.00518  0.01546  Biso   1.000  Ne
  He13     1.0000 1.00000  0.00000  0.29889  Biso   1.000  He
  He14     1.0000 0.00000  0.00000  0.69928  Biso   1.000  He
  Ar7      1.0000 1.00000  1.00000  1.00000  Biso   1.000  Ar
  Ne8      1.0000 0.00518  0.00518  0.01546  Biso   1.000  Ne
  He15     1.0000 1.00000  0.00000  0.29889  Biso   1.000  He
  He16     1.0000 0.00000  0.00000  0.69928  Biso   1.000  He
  Ar8      1.0000 1.00000  1.00000  1.00000  Biso   1.000  Ar
  Ne9      1.0000 0.00518  0.00518  0.01546  Biso   1.000  Ne
  He17     1.0000 1.00000  0.00000  0.29889  Biso   1.000  He
  He18     1.0000 0.00000  0.00000  0.69928  Biso   1.000  He
  Ar9      1.0000 1.00000  1.00000  1.00000  Biso   1.000  Ar
  Ne10     1.0000 1.00000  1.00000  0.00002  Biso   1.000  Ne
  He19     1.0000 0.99998  0.99998  0.06337  Biso   1.000  He
  He20     1.0000 0.99998  0.99998  0.93696  Biso   1.000  He
  Ar10     1.0000 0.99997  0.99997  0.00000  Biso   1.000  Ar
