data_image0
_cell_length_a       19.585
_cell_length_b       15.434
_cell_length_c       21.197
_cell_angle_alpha    90
_cell_angle_beta     102.27
_cell_angle_gamma    90

_symmetry_space_group_name_H-M    "P 1"
_symmetry_int_tables_number       1

loop_
  _symmetry_equiv_pos_as_xyz
  'x, y, z'

loop_
  _atom_site_label
  _atom_site_occupancy
  _atom_site_fract_x
  _atom_site_fract_y
  _atom_site_fract_z
  _atom_site_thermal_displace_type
  _atom_site_B_iso_or_equiv
  _atom_site_type_symbol
  C1       1.0000 0.92737  0.52540  0.55352  Biso   1.000  C
  O1       1.0000 0.95041  0.54425  0.61995  Biso   1.000  O
  O2       1.0000 0.95036  0.54425  0.61995  Biso   1.000  O
  H1       1.0000 0.93400  0.46352  0.54618  Biso   1.000  H
  H2       1.0000 0.87780  0.54011  0.53981  Biso   1.000  H
  H3       1.0000 0.95460  0.55948  0.52851  Biso   1.000  H
  H4       1.0000 0.93395  0.46352  0.54618  Biso   1.000  H
  C2       1.0000 0.91347  0.50706  0.66225  Biso   1.000  C
  C3       1.0000 0.92742  0.52540  0.55352  Biso   1.000  C
  C4       1.0000 0.85829  0.44920  0.64303  Biso   1.000  C
  C5       1.0000 0.85824  0.44920  0.64303  Biso   1.000  C
  C6       1.0000 0.93593  0.52961  0.72685  Biso   1.000  C
  C7       1.0000 0.82405  0.41311  0.68793  Biso   1.000  C
  H5       1.0000 0.84378  0.43424  0.59881  Biso   1.000  H
  C8       1.0000 0.90123  0.49404  0.77155  Biso   1.000  C
  C9       1.0000 0.99997  0.58566  0.74997  Biso   1.000  C
  C10      1.0000 0.99992  0.58566  0.74997  Biso   1.000  C
  C11      1.0000 0.76412  0.34988  0.66737  Biso   1.000  C
  C12      1.0000 0.84643  0.43663  0.75282  Biso   1.000  C
  C13      1.0000 0.84638  0.43663  0.75282  Biso   1.000  C
  H6       1.0000 0.91549  0.50952  0.81578  Biso   1.000  H
  H7       1.0000 0.91544  0.50952  0.81578  Biso   1.000  H
  H8       1.0000 0.99246  0.62330  0.78570  Biso   1.000  H
  H9       1.0000 0.00744  0.62330  0.71429  Biso   1.000  H
  C14      1.0000 0.06397  0.52961  0.77315  Biso   1.000  C
  C15      1.0000 0.06392  0.52961  0.77315  Biso   1.000  C
  C16      1.0000 0.78669  0.25593  0.67557  Biso   1.000  C
  H10      1.0000 0.74216  0.36031  0.62140  Biso   1.000  H
  H11      1.0000 0.72838  0.36089  0.69310  Biso   1.000  H
  O3       1.0000 0.81155  0.39737  0.79521  Biso   1.000  O
  O4       1.0000 0.81150  0.39737  0.79521  Biso   1.000  O
  C17      1.0000 0.09867  0.49404  0.72844  Biso   1.000  C
  C18      1.0000 0.08644  0.50706  0.83774  Biso   1.000  C
  C19      1.0000 0.81075  0.21187  0.62725  Biso   1.000  C
  C20      1.0000 0.81070  0.21187  0.62725  Biso   1.000  C
  C21      1.0000 0.78388  0.21057  0.73196  Biso   1.000  C
  C22      1.0000 0.78383  0.21057  0.73196  Biso   1.000  C
  C23      1.0000 0.82772  0.42504  0.86019  Biso   1.000  C
  C24      1.0000 0.82767  0.42504  0.86019  Biso   1.000  C
  H12      1.0000 0.08446  0.50952  0.68421  Biso   1.000  H
  C25      1.0000 0.15353  0.43663  0.74717  Biso   1.000  C
  O5       1.0000 0.04949  0.54425  0.88004  Biso   1.000  O
  C26      1.0000 0.14165  0.44920  0.85691  Biso   1.000  C
  C27      1.0000 0.14160  0.44920  0.85691  Biso   1.000  C
  O6       1.0000 0.81301  0.26020  0.57245  Biso   1.000  O
  O7       1.0000 0.81296  0.26020  0.57245  Biso   1.000  O
  C28      1.0000 0.82951  0.12511  0.63400  Biso   1.000  C
  H13      1.0000 0.76747  0.23908  0.76561  Biso   1.000  H
  C29      1.0000 0.80470  0.12434  0.73969  Biso   1.000  C
  C30      1.0000 0.80465  0.12434  0.73969  Biso   1.000  C
  H14      1.0000 0.80089  0.39063  0.88539  Biso   1.000  H
  H15      1.0000 0.87778  0.41713  0.87781  Biso   1.000  H
  H16      1.0000 0.81559  0.48633  0.86251  Biso   1.000  H
  H17      1.0000 0.80094  0.39063  0.88539  Biso   1.000  H
  H18      1.0000 0.87773  0.41713  0.87781  Biso   1.000  H
  H19      1.0000 0.81554  0.48633  0.86251  Biso   1.000  H
  O8       1.0000 0.18835  0.39737  0.70478  Biso   1.000  O
  C31      1.0000 0.17586  0.41311  0.81206  Biso   1.000  C
  O9       1.0000 0.18840  0.39737  0.70478  Biso   1.000  O
  C32      1.0000 0.07248  0.52540  0.94647  Biso   1.000  C
  H20      1.0000 0.15612  0.43424  0.90118  Biso   1.000  H
  C33      1.0000 0.84292  0.22016  0.52513  Biso   1.000  C
  C34      1.0000 0.82698  0.08002  0.69049  Biso   1.000  C
  H21      1.0000 0.84429  0.09602  0.59968  Biso   1.000  H
  C35      1.0000 0.82693  0.08002  0.69049  Biso   1.000  C
  O10      1.0000 0.80756  0.07723  0.79560  Biso   1.000  O
  C36      1.0000 0.17223  0.42504  0.63980  Biso   1.000  C
  C37      1.0000 0.23578  0.34988  0.83263  Biso   1.000  C
  H22      1.0000 0.06590  0.46352  0.95381  Biso   1.000  H
  H23      1.0000 0.12210  0.54011  0.96018  Biso   1.000  H
  H24      1.0000 0.04530  0.55948  0.97148  Biso   1.000  H
  H25      1.0000 0.06595  0.46352  0.95381  Biso   1.000  H
  H26      1.0000 0.12215  0.54011  0.96018  Biso   1.000  H
  H27      1.0000 0.04535  0.55948  0.97148  Biso   1.000  H
  C38      1.0000 0.85069  0.28839  0.47613  Biso   1.000  C
  C39      1.0000 0.85064  0.28839  0.47613  Biso   1.000  C
  H28      1.0000 0.88907  0.19561  0.54507  Biso   1.000  H
  H29      1.0000 0.81248  0.17261  0.50399  Biso   1.000  H
  C40      1.0000 0.84960  0.98646  0.69846  Biso   1.000  C
  C41      1.0000 0.84955  0.98646  0.69846  Biso   1.000  C
  C42      1.0000 0.77774  0.11319  0.84421  Biso   1.000  C
  C43      1.0000 0.77769  0.11319  0.84421  Biso   1.000  C
  H30      1.0000 0.19896  0.39063  0.61460  Biso   1.000  H
  H31      1.0000 0.12212  0.41713  0.62218  Biso   1.000  H
  H32      1.0000 0.18436  0.48633  0.63748  Biso   1.000  H
  H33      1.0000 0.19891  0.39063  0.61460  Biso   1.000  H
  H34      1.0000 0.12217  0.41713  0.62218  Biso   1.000  H
  C44      1.0000 0.21321  0.25593  0.82442  Biso   1.000  C
  H35      1.0000 0.25774  0.36031  0.87859  Biso   1.000  H
  H36      1.0000 0.27153  0.36089  0.80689  Biso   1.000  H
  O11      1.0000 0.83389  0.36329  0.47700  Biso   1.000  O
  O12      1.0000 0.83394  0.36329  0.47700  Biso   1.000  O
  O13      1.0000 0.87944  0.25301  0.43060  Biso   1.000  O
  O14      1.0000 0.87939  0.25301  0.43060  Biso   1.000  O
  H37      1.0000 0.82407  0.95717  0.72800  Biso   1.000  H
  H38      1.0000 0.83746  0.95691  0.65612  Biso   1.000  H
  C45      1.0000 0.92721  0.97894  0.72511  Biso   1.000  C
  H39      1.0000 0.79508  0.17299  0.85392  Biso   1.000  H
  H40      1.0000 0.72627  0.11533  0.82978  Biso   1.000  H
  C46      1.0000 0.79773  0.05741  0.90340  Biso   1.000  C
  H41      1.0000 0.79503  0.17299  0.85392  Biso   1.000  H
  H42      1.0000 0.72622  0.11533  0.82978  Biso   1.000  H
  C47      1.0000 0.21607  0.21057  0.76803  Biso   1.000  C
  C48      1.0000 0.18915  0.21187  0.87275  Biso   1.000  C
  C49      1.0000 0.18920  0.21187  0.87275  Biso   1.000  C
  C50      1.0000 0.89085  0.30932  0.38010  Biso   1.000  C
  C51      1.0000 0.97436  0.97713  0.68393  Biso   1.000  C
  C52      1.0000 0.95424  0.97745  0.79154  Biso   1.000  C
  O15      1.0000 0.76275  0.08371  0.94734  Biso   1.000  O
  O16      1.0000 0.76270  0.08371  0.94734  Biso   1.000  O
  O17      1.0000 0.83900  0.99935  0.91098  Biso   1.000  O
  O18      1.0000 0.83895  0.99935  0.91098  Biso   1.000  O
  C53      1.0000 0.19520  0.12434  0.76030  Biso   1.000  C
  C54      1.0000 0.19525  0.12434  0.76030  Biso   1.000  C
  H43      1.0000 0.23243  0.23908  0.73438  Biso   1.000  H
  C55      1.0000 0.17039  0.12511  0.86599  Biso   1.000  C
  O19      1.0000 0.18690  0.26020  0.92754  Biso   1.000  O
  O20      1.0000 0.18695  0.26020  0.92754  Biso   1.000  O
  H44      1.0000 0.92491  0.35402  0.39830  Biso   1.000  H
  H45      1.0000 0.90874  0.27563  0.34800  Biso   1.000  H
  H46      1.0000 0.84664  0.33692  0.35949  Biso   1.000  H
  H47      1.0000 0.90869  0.27563  0.34800  Biso   1.000  H
  H48      1.0000 0.84669  0.33692  0.35949  Biso   1.000  H
  O21      1.0000 0.94457  0.97609  0.61875  Biso   1.000  O
  C56      1.0000 0.04567  0.97745  0.70845  Biso   1.000  C
  C57      1.0000 0.04562  0.97745  0.70845  Biso   1.000  C
  H49      1.0000 0.92319  0.97661  0.82041  Biso   1.000  H
  H50      1.0000 0.92314  0.97661  0.82041  Biso   1.000  H
  C58      1.0000 0.02554  0.97713  0.81607  Biso   1.000  C
  C59      1.0000 0.02559  0.97713  0.81607  Biso   1.000  C
  C60      1.0000 0.77722  0.03544  0.00711  Biso   1.000  C
  C61      1.0000 0.17297  0.08002  0.80950  Biso   1.000  C
  O22      1.0000 0.19235  0.07723  0.70440  Biso   1.000  O
  O23      1.0000 0.19230  0.07723  0.70440  Biso   1.000  O
  H51      1.0000 0.15561  0.09602  0.90031  Biso   1.000  H
  C62      1.0000 0.15698  0.22016  0.97486  Biso   1.000  C
  C63      1.0000 0.98998  0.96981  0.57534  Biso   1.000  C
  C64      1.0000 0.99003  0.96981  0.57534  Biso   1.000  C
  H52      1.0000 0.07676  0.97661  0.67958  Biso   1.000  H
  C65      1.0000 0.07269  0.97894  0.77488  Biso   1.000  C
  O24      1.0000 0.05534  0.97609  0.88124  Biso   1.000  O
  H53      1.0000 0.75852  0.97648  0.99929  Biso   1.000  H
  H54      1.0000 0.75499  0.06421  0.03878  Biso   1.000  H
  H55      1.0000 0.82783  0.03272  0.02381  Biso   1.000  H
  H56      1.0000 0.82778  0.03272  0.02381  Biso   1.000  H
  C66      1.0000 0.15036  0.98646  0.80153  Biso   1.000  C
  C67      1.0000 0.15030  0.98646  0.80153  Biso   1.000  C
  C68      1.0000 0.22217  0.11319  0.65578  Biso   1.000  C
  C69      1.0000 0.22222  0.11319  0.65578  Biso   1.000  C
  H57      1.0000 0.11082  0.19561  0.95487  Biso   1.000  H
  H58      1.0000 0.18743  0.17261  0.99600  Biso   1.000  H
  H59      1.0000 0.18738  0.17261  0.99600  Biso   1.000  H
  C70      1.0000 0.14926  0.28839  0.02386  Biso   1.000  C
  C71      1.0000 0.14931  0.28839  0.02386  Biso   1.000  C
  H60      1.0000 0.96270  0.97033  0.53088  Biso   1.000  H
  H61      1.0000 0.96265  0.97033  0.53088  Biso   1.000  H
  H62      1.0000 0.01656  0.91558  0.58321  Biso   1.000  H
  H63      1.0000 0.02236  0.01898  0.58181  Biso   1.000  H
  C72      1.0000 0.00987  0.96981  0.92465  Biso   1.000  C
  C73      1.0000 0.00982  0.96981  0.92465  Biso   1.000  C
  H64      1.0000 0.17583  0.95717  0.77199  Biso   1.000  H
  H65      1.0000 0.16244  0.95691  0.84387  Biso   1.000  H
  H66      1.0000 0.20482  0.17299  0.64607  Biso   1.000  H
  H67      1.0000 0.27364  0.11533  0.67021  Biso   1.000  H
  C74      1.0000 0.20217  0.05741  0.59659  Biso   1.000  C
  H68      1.0000 0.20487  0.17299  0.64607  Biso   1.000  H
  C75      1.0000 0.20222  0.05741  0.59659  Biso   1.000  C
  O25      1.0000 0.16606  0.36329  0.02299  Biso   1.000  O
  O26      1.0000 0.12051  0.25301  0.06934  Biso   1.000  O
  O27      1.0000 0.12056  0.25301  0.06934  Biso   1.000  O
  H69      1.0000 0.97749  0.01898  0.91818  Biso   1.000  H
  H70      1.0000 0.97754  0.01898  0.91818  Biso   1.000  H
  H71      1.0000 0.98335  0.91558  0.91678  Biso   1.000  H
  H72      1.0000 0.03720  0.97033  0.96911  Biso   1.000  H
  H73      1.0000 0.03725  0.97033  0.96911  Biso   1.000  H
  O28      1.0000 0.16091  0.99935  0.58901  Biso   1.000  O
  O29      1.0000 0.16096  0.99935  0.58901  Biso   1.000  O
  O30      1.0000 0.23715  0.08371  0.55265  Biso   1.000  O
  O31      1.0000 0.23720  0.08371  0.55265  Biso   1.000  O
  C76      1.0000 0.10911  0.30932  0.11989  Biso   1.000  C
  C77      1.0000 0.10916  0.30932  0.11989  Biso   1.000  C
  C78      1.0000 0.22274  0.03544  0.49288  Biso   1.000  C
  H74      1.0000 0.07505  0.35402  0.10169  Biso   1.000  H
  H75      1.0000 0.09127  0.27563  0.15199  Biso   1.000  H
  H76      1.0000 0.15326  0.33692  0.14050  Biso   1.000  H
  H77      1.0000 0.07510  0.35402  0.10169  Biso   1.000  H
  H78      1.0000 0.24139  0.97648  0.50070  Biso   1.000  H
  H79      1.0000 0.24134  0.97648  0.50070  Biso   1.000  H
  H80      1.0000 0.24497  0.06421  0.46121  Biso   1.000  H
  H81      1.0000 0.17218  0.03272  0.47618  Biso   1.000  H
  H82      1.0000 0.17213  0.03272  0.47618  Biso   1.000  H
  C79      1.0000 0.92737  0.52540  0.55352  Biso   1.000  C
  O32      1.0000 0.95041  0.54425  0.61995  Biso   1.000  O
  O33      1.0000 0.95036  0.54425  0.61995  Biso   1.000  O
  H83      1.0000 0.87780  0.54011  0.53981  Biso   1.000  H
  H84      1.0000 0.95460  0.55948  0.52851  Biso   1.000  H
  H85      1.0000 0.93400  0.46352  0.54618  Biso   1.000  H
  H86      1.0000 0.93395  0.46352  0.54618  Biso   1.000  H
  C80      1.0000 0.91347  0.50706  0.66225  Biso   1.000  C
  C81      1.0000 0.92742  0.52540  0.55352  Biso   1.000  C
  C82      1.0000 0.85829  0.44920  0.64303  Biso   1.000  C
  C83      1.0000 0.85824  0.44920  0.64303  Biso   1.000  C
  C84      1.0000 0.93593  0.52961  0.72685  Biso   1.000  C
  C85      1.0000 0.82405  0.41311  0.68793  Biso   1.000  C
  H87      1.0000 0.84378  0.43424  0.59881  Biso   1.000  H
  C86      1.0000 0.90123  0.49404  0.77155  Biso   1.000  C
  C87      1.0000 0.99997  0.58566  0.74997  Biso   1.000  C
  C88      1.0000 0.99992  0.58566  0.74997  Biso   1.000  C
  C89      1.0000 0.76412  0.34988  0.66737  Biso   1.000  C
  C90      1.0000 0.84643  0.43663  0.75282  Biso   1.000  C
  C91      1.0000 0.84638  0.43663  0.75282  Biso   1.000  C
  H88      1.0000 0.91549  0.50952  0.81578  Biso   1.000  H
  H89      1.0000 0.91544  0.50952  0.81578  Biso   1.000  H
  H90      1.0000 0.99246  0.62330  0.78570  Biso   1.000  H
  H91      1.0000 0.00744  0.62330  0.71429  Biso   1.000  H
  C92      1.0000 0.06397  0.52961  0.77315  Biso   1.000  C
  C93      1.0000 0.06392  0.52961  0.77315  Biso   1.000  C
  C94      1.0000 0.78669  0.25593  0.67557  Biso   1.000  C
  H92      1.0000 0.74216  0.36031  0.62140  Biso   1.000  H
  H93      1.0000 0.72838  0.36089  0.69310  Biso   1.000  H
  O34      1.0000 0.81155  0.39737  0.79521  Biso   1.000  O
  O35      1.0000 0.81150  0.39737  0.79521  Biso   1.000  O
  C95      1.0000 0.09867  0.49404  0.72844  Biso   1.000  C
  C96      1.0000 0.08644  0.50706  0.83774  Biso   1.000  C
  C97      1.0000 0.81075  0.21187  0.62725  Biso   1.000  C
  C98      1.0000 0.81070  0.21187  0.62725  Biso   1.000  C
  C99      1.0000 0.78388  0.21057  0.73196  Biso   1.000  C
  C100     1.0000 0.78383  0.21057  0.73196  Biso   1.000  C
  C101     1.0000 0.82772  0.42504  0.86019  Biso   1.000  C
  C102     1.0000 0.82767  0.42504  0.86019  Biso   1.000  C
  H94      1.0000 0.08446  0.50952  0.68421  Biso   1.000  H
  C103     1.0000 0.15353  0.43663  0.74717  Biso   1.000  C
  O36      1.0000 0.04949  0.54425  0.88004  Biso   1.000  O
  C104     1.0000 0.14165  0.44920  0.85691  Biso   1.000  C
  C105     1.0000 0.14160  0.44920  0.85691  Biso   1.000  C
  O37      1.0000 0.81301  0.26020  0.57245  Biso   1.000  O
  O38      1.0000 0.81296  0.26020  0.57245  Biso   1.000  O
  C106     1.0000 0.82951  0.12511  0.63400  Biso   1.000  C
  H95      1.0000 0.76747  0.23908  0.76561  Biso   1.000  H
  C107     1.0000 0.80470  0.12434  0.73969  Biso   1.000  C
  C108     1.0000 0.80465  0.12434  0.73969  Biso   1.000  C
  H96      1.0000 0.80089  0.39063  0.88539  Biso   1.000  H
  H97      1.0000 0.87778  0.41713  0.87781  Biso   1.000  H
  H98      1.0000 0.81559  0.48633  0.86251  Biso   1.000  H
  H99      1.0000 0.80094  0.39063  0.88539  Biso   1.000  H
  H100     1.0000 0.87773  0.41713  0.87781  Biso   1.000  H
  H101     1.0000 0.81554  0.48633  0.86251  Biso   1.000  H
  O39      1.0000 0.18835  0.39737  0.70478  Biso   1.000  O
  C109     1.0000 0.17586  0.41311  0.81206  Biso   1.000  C
  O40      1.0000 0.18840  0.39737  0.70478  Biso   1.000  O
  C110     1.0000 0.07248  0.52540  0.94647  Biso   1.000  C
  H102     1.0000 0.15612  0.43424  0.90118  Biso   1.000  H
  C111     1.0000 0.84292  0.22016  0.52513  Biso   1.000  C
  H103     1.0000 0.84429  0.09602  0.59968  Biso   1.000  H
  C112     1.0000 0.82698  0.08002  0.69049  Biso   1.000  C
  C113     1.0000 0.82693  0.08002  0.69049  Biso   1.000  C
  O41      1.0000 0.80756  0.07723  0.79560  Biso   1.000  O
  C114     1.0000 0.17223  0.42504  0.63980  Biso   1.000  C
  C115     1.0000 0.23578  0.34988  0.83263  Biso   1.000  C
  H104     1.0000 0.06590  0.46352  0.95381  Biso   1.000  H
  H105     1.0000 0.12210  0.54011  0.96018  Biso   1.000  H
  H106     1.0000 0.04530  0.55948  0.97148  Biso   1.000  H
  H107     1.0000 0.06595  0.46352  0.95381  Biso   1.000  H
  H108     1.0000 0.12215  0.54011  0.96018  Biso   1.000  H
  H109     1.0000 0.04535  0.55948  0.97148  Biso   1.000  H
  H110     1.0000 0.88907  0.19561  0.54507  Biso   1.000  H
  H111     1.0000 0.81248  0.17261  0.50399  Biso   1.000  H
  C116     1.0000 0.85069  0.28839  0.47613  Biso   1.000  C
  C117     1.0000 0.85064  0.28839  0.47613  Biso   1.000  C
  C118     1.0000 0.84960  0.98646  0.69846  Biso   1.000  C
  C119     1.0000 0.84955  0.98646  0.69846  Biso   1.000  C
  C120     1.0000 0.77774  0.11319  0.84421  Biso   1.000  C
  C121     1.0000 0.77769  0.11319  0.84421  Biso   1.000  C
  H112     1.0000 0.19896  0.39063  0.61460  Biso   1.000  H
  H113     1.0000 0.12212  0.41713  0.62218  Biso   1.000  H
  H114     1.0000 0.18436  0.48633  0.63748  Biso   1.000  H
  H115     1.0000 0.19891  0.39063  0.61460  Biso   1.000  H
  H116     1.0000 0.12217  0.41713  0.62218  Biso   1.000  H
  C122     1.0000 0.21321  0.25593  0.82442  Biso   1.000  C
  H117     1.0000 0.25774  0.36031  0.87859  Biso   1.000  H
  H118     1.0000 0.27153  0.36089  0.80689  Biso   1.000  H
  O42      1.0000 0.83394  0.36329  0.47700  Biso   1.000  O
  O43      1.0000 0.87944  0.25301  0.43060  Biso   1.000  O
  O44      1.0000 0.83389  0.36329  0.47700  Biso   1.000  O
  O45      1.0000 0.87939  0.25301  0.43060  Biso   1.000  O
  H119     1.0000 0.82407  0.95717  0.72800  Biso   1.000  H
  H120     1.0000 0.83746  0.95691  0.65612  Biso   1.000  H
  C123     1.0000 0.92721  0.97894  0.72511  Biso   1.000  C
  C124     1.0000 0.79773  0.05741  0.90340  Biso   1.000  C
  H121     1.0000 0.79508  0.17299  0.85392  Biso   1.000  H
  H122     1.0000 0.72627  0.11533  0.82978  Biso   1.000  H
  H123     1.0000 0.79503  0.17299  0.85392  Biso   1.000  H
  H124     1.0000 0.72622  0.11533  0.82978  Biso   1.000  H
  C125     1.0000 0.21607  0.21057  0.76803  Biso   1.000  C
  C126     1.0000 0.18915  0.21187  0.87275  Biso   1.000  C
  C127     1.0000 0.18920  0.21187  0.87275  Biso   1.000  C
  C128     1.0000 0.89085  0.30932  0.38010  Biso   1.000  C
  C129     1.0000 0.97436  0.97713  0.68393  Biso   1.000  C
  C130     1.0000 0.95424  0.97745  0.79154  Biso   1.000  C
  O46      1.0000 0.83900  0.99935  0.91098  Biso   1.000  O
  O47      1.0000 0.83895  0.99935  0.91098  Biso   1.000  O
  O48      1.0000 0.76275  0.08371  0.94734  Biso   1.000  O
  O49      1.0000 0.76270  0.08371  0.94734  Biso   1.000  O
  C131     1.0000 0.19520  0.12434  0.76030  Biso   1.000  C
  C132     1.0000 0.19525  0.12434  0.76030  Biso   1.000  C
  H125     1.0000 0.23243  0.23908  0.73438  Biso   1.000  H
  C133     1.0000 0.17039  0.12511  0.86599  Biso   1.000  C
  O50      1.0000 0.18690  0.26020  0.92754  Biso   1.000  O
  O51      1.0000 0.18695  0.26020  0.92754  Biso   1.000  O
  H126     1.0000 0.92491  0.35402  0.39830  Biso   1.000  H
  H127     1.0000 0.90874  0.27563  0.34800  Biso   1.000  H
  H128     1.0000 0.84664  0.33692  0.35949  Biso   1.000  H
  H129     1.0000 0.90869  0.27563  0.34800  Biso   1.000  H
  H130     1.0000 0.84669  0.33692  0.35949  Biso   1.000  H
  O52      1.0000 0.94457  0.97609  0.61875  Biso   1.000  O
  C134     1.0000 0.04567  0.97745  0.70845  Biso   1.000  C
  C135     1.0000 0.04562  0.97745  0.70845  Biso   1.000  C
  H131     1.0000 0.92319  0.97661  0.82041  Biso   1.000  H
  H132     1.0000 0.92314  0.97661  0.82041  Biso   1.000  H
  C136     1.0000 0.02554  0.97713  0.81607  Biso   1.000  C
  C137     1.0000 0.02559  0.97713  0.81607  Biso   1.000  C
  C138     1.0000 0.77722  0.03544  0.00711  Biso   1.000  C
  C139     1.0000 0.17297  0.08002  0.80950  Biso   1.000  C
  O53      1.0000 0.19235  0.07723  0.70440  Biso   1.000  O
  O54      1.0000 0.19230  0.07723  0.70440  Biso   1.000  O
  H133     1.0000 0.15561  0.09602  0.90031  Biso   1.000  H
  C140     1.0000 0.15698  0.22016  0.97486  Biso   1.000  C
  C141     1.0000 0.98998  0.96981  0.57534  Biso   1.000  C
  C142     1.0000 0.99003  0.96981  0.57534  Biso   1.000  C
  H134     1.0000 0.07676  0.97661  0.67958  Biso   1.000  H
  C143     1.0000 0.07269  0.97894  0.77488  Biso   1.000  C
  O55      1.0000 0.05534  0.97609  0.88124  Biso   1.000  O
  H135     1.0000 0.75852  0.97648  0.99929  Biso   1.000  H
  H136     1.0000 0.75499  0.06421  0.03878  Biso   1.000  H
  H137     1.0000 0.82783  0.03272  0.02381  Biso   1.000  H
  H138     1.0000 0.82778  0.03272  0.02381  Biso   1.000  H
  C144     1.0000 0.15036  0.98646  0.80153  Biso   1.000  C
  C145     1.0000 0.15030  0.98646  0.80153  Biso   1.000  C
  C146     1.0000 0.22217  0.11319  0.65578  Biso   1.000  C
  C147     1.0000 0.22222  0.11319  0.65578  Biso   1.000  C
  H139     1.0000 0.11082  0.19561  0.95487  Biso   1.000  H
  H140     1.0000 0.18743  0.17261  0.99600  Biso   1.000  H
  H141     1.0000 0.18738  0.17261  0.99600  Biso   1.000  H
  C148     1.0000 0.14926  0.28839  0.02386  Biso   1.000  C
  C149     1.0000 0.14931  0.28839  0.02386  Biso   1.000  C
  H142     1.0000 0.96270  0.97033  0.53088  Biso   1.000  H
  H143     1.0000 0.96265  0.97033  0.53088  Biso   1.000  H
  H144     1.0000 0.01656  0.91558  0.58321  Biso   1.000  H
  H145     1.0000 0.02236  0.01898  0.58181  Biso   1.000  H
  C150     1.0000 0.00987  0.96981  0.92465  Biso   1.000  C
  C151     1.0000 0.00982  0.96981  0.92465  Biso   1.000  C
  H146     1.0000 0.17583  0.95717  0.77199  Biso   1.000  H
  H147     1.0000 0.16244  0.95691  0.84387  Biso   1.000  H
  H148     1.0000 0.20482  0.17299  0.64607  Biso   1.000  H
  H149     1.0000 0.27364  0.11533  0.67021  Biso   1.000  H
  C152     1.0000 0.20217  0.05741  0.59659  Biso   1.000  C
  H150     1.0000 0.20487  0.17299  0.64607  Biso   1.000  H
  C153     1.0000 0.20222  0.05741  0.59659  Biso   1.000  C
  O56      1.0000 0.16606  0.36329  0.02299  Biso   1.000  O
  O57      1.0000 0.12051  0.25301  0.06934  Biso   1.000  O
  O58      1.0000 0.12056  0.25301  0.06934  Biso   1.000  O
  H151     1.0000 0.98335  0.91558  0.91678  Biso   1.000  H
  H152     1.0000 0.97749  0.01898  0.91818  Biso   1.000  H
  H153     1.0000 0.97754  0.01898  0.91818  Biso   1.000  H
  H154     1.0000 0.03720  0.97033  0.96911  Biso   1.000  H
  H155     1.0000 0.03725  0.97033  0.96911  Biso   1.000  H
  O59      1.0000 0.16091  0.99935  0.58901  Biso   1.000  O
  O60      1.0000 0.16096  0.99935  0.58901  Biso   1.000  O
  O61      1.0000 0.23715  0.08371  0.55265  Biso   1.000  O
  O62      1.0000 0.23720  0.08371  0.55265  Biso   1.000  O
  C154     1.0000 0.10911  0.30932  0.11989  Biso   1.000  C
  C155     1.0000 0.10916  0.30932  0.11989  Biso   1.000  C
  C156     1.0000 0.22274  0.03544  0.49288  Biso   1.000  C
  H156     1.0000 0.07505  0.35402  0.10169  Biso   1.000  H
  H157     1.0000 0.09127  0.27563  0.15199  Biso   1.000  H
  H158     1.0000 0.15326  0.33692  0.14050  Biso   1.000  H
  H159     1.0000 0.07510  0.35402  0.10169  Biso   1.000  H
  H160     1.0000 0.24139  0.97648  0.50070  Biso   1.000  H
  H161     1.0000 0.24134  0.97648  0.50070  Biso   1.000  H
  H162     1.0000 0.24497  0.06421  0.46121  Biso   1.000  H
  H163     1.0000 0.17218  0.03272  0.47618  Biso   1.000  H
  H164     1.0000 0.17213  0.03272  0.47618  Biso   1.000  H
  C157     1.0000 0.72276  0.53544  0.49288  Biso   1.000  C
  O63      1.0000 0.73717  0.58371  0.55265  Biso   1.000  O
  H165     1.0000 0.74499  0.56421  0.46121  Biso   1.000  H
  H166     1.0000 0.74136  0.47648  0.50070  Biso   1.000  H
  H167     1.0000 0.67215  0.53272  0.47618  Biso   1.000  H
  C158     1.0000 0.70219  0.55747  0.59659  Biso   1.000  C
  C159     1.0000 0.72219  0.61319  0.65578  Biso   1.000  C
  O64      1.0000 0.66093  0.49935  0.58901  Biso   1.000  O
  O65      1.0000 0.69232  0.57723  0.70440  Biso   1.000  O
  H168     1.0000 0.70485  0.67299  0.64607  Biso   1.000  H
  H169     1.0000 0.77366  0.61533  0.67021  Biso   1.000  H
  C160     1.0000 0.69523  0.62434  0.76030  Biso   1.000  C
  C161     1.0000 0.67294  0.58002  0.80950  Biso   1.000  C
  C162     1.0000 0.71605  0.71057  0.76803  Biso   1.000  C
  C163     1.0000 0.65033  0.48646  0.80153  Biso   1.000  C
  C164     1.0000 0.67041  0.62511  0.86599  Biso   1.000  C
  C165     1.0000 0.71324  0.75593  0.82442  Biso   1.000  C
  H170     1.0000 0.73246  0.73908  0.73438  Biso   1.000  H
  C166     1.0000 0.57272  0.47894  0.77488  Biso   1.000  C
  H171     1.0000 0.67585  0.45724  0.77199  Biso   1.000  H
  H172     1.0000 0.66242  0.45691  0.84387  Biso   1.000  H
  H173     1.0000 0.65564  0.59602  0.90031  Biso   1.000  H
  C167     1.0000 0.68918  0.71187  0.87275  Biso   1.000  C
  C168     1.0000 0.73581  0.84988  0.83263  Biso   1.000  C
  C169     1.0000 0.54569  0.47745  0.70845  Biso   1.000  C
  C170     1.0000 0.52556  0.47713  0.81607  Biso   1.000  C
  O66      1.0000 0.68692  0.76020  0.92754  Biso   1.000  O
  C171     1.0000 0.67588  0.91311  0.81206  Biso   1.000  C
  H174     1.0000 0.75776  0.86031  0.87859  Biso   1.000  H
  H175     1.0000 0.77155  0.86089  0.80689  Biso   1.000  H
  C172     1.0000 0.47434  0.47713  0.68393  Biso   1.000  C
  H176     1.0000 0.57673  0.47661  0.67958  Biso   1.000  H
  C173     1.0000 0.45421  0.47745  0.79154  Biso   1.000  C
  O67      1.0000 0.55536  0.47616  0.88124  Biso   1.000  O
  C174     1.0000 0.65701  0.72016  0.97486  Biso   1.000  C
  C175     1.0000 0.65355  0.93663  0.74717  Biso   1.000  C
  C176     1.0000 0.64162  0.94920  0.85691  Biso   1.000  C
  O68      1.0000 0.44454  0.47616  0.61875  Biso   1.000  O
  C177     1.0000 0.42719  0.47894  0.72511  Biso   1.000  C
  H177     1.0000 0.42312  0.47661  0.82041  Biso   1.000  H
  C178     1.0000 0.50990  0.46981  0.92465  Biso   1.000  C
  H178     1.0000 0.61085  0.69561  0.95487  Biso   1.000  H
  H179     1.0000 0.68745  0.67261  0.99600  Biso   1.000  H
  C179     1.0000 0.64928  0.78839  0.02386  Biso   1.000  C
  O69      1.0000 0.68838  0.89737  0.70478  Biso   1.000  O
  C180     1.0000 0.59869  0.99404  0.72844  Biso   1.000  C
  H180     1.0000 0.65615  0.93424  0.90118  Biso   1.000  H
  C181     1.0000 0.58646  0.00713  0.83774  Biso   1.000  C
  C182     1.0000 0.49001  0.46981  0.57534  Biso   1.000  C
  C183     1.0000 0.34952  0.48646  0.69846  Biso   1.000  C
  H181     1.0000 0.47752  0.51898  0.91818  Biso   1.000  H
  H182     1.0000 0.48332  0.41558  0.91678  Biso   1.000  H
  H183     1.0000 0.53723  0.47033  0.96911  Biso   1.000  H
  O70      1.0000 0.66604  0.86329  0.02299  Biso   1.000  O
  O71      1.0000 0.62053  0.75301  0.06934  Biso   1.000  O
  C184     1.0000 0.67221  0.92504  0.63980  Biso   1.000  C
  C185     1.0000 0.56399  0.02967  0.77315  Biso   1.000  C
  H184     1.0000 0.58444  0.00952  0.68421  Biso   1.000  H
  O72      1.0000 0.54952  0.04425  0.88004  Biso   1.000  O
  H185     1.0000 0.52239  0.51898  0.58181  Biso   1.000  H
  H186     1.0000 0.51658  0.41558  0.58321  Biso   1.000  H
  H187     1.0000 0.46267  0.47033  0.53088  Biso   1.000  H
  C186     1.0000 0.32691  0.58002  0.69049  Biso   1.000  C
  H188     1.0000 0.32405  0.45724  0.72800  Biso   1.000  H
  H189     1.0000 0.33743  0.45691  0.65612  Biso   1.000  H
  C187     1.0000 0.60913  0.80932  0.11989  Biso   1.000  C
  H190     1.0000 0.69898  0.89063  0.61460  Biso   1.000  H
  H191     1.0000 0.62215  0.91713  0.62218  Biso   1.000  H
  H192     1.0000 0.68433  0.98633  0.63748  Biso   1.000  H
  C188     1.0000 0.49995  0.08572  0.74997  Biso   1.000  C
  C189     1.0000 0.57251  0.02540  0.94647  Biso   1.000  C
  C190     1.0000 0.30468  0.62434  0.73969  Biso   1.000  C
  C191     1.0000 0.32949  0.62511  0.63400  Biso   1.000  C
  H193     1.0000 0.57507  0.85402  0.10169  Biso   1.000  H
  H194     1.0000 0.59124  0.77563  0.15199  Biso   1.000  H
  H195     1.0000 0.65329  0.83692  0.14050  Biso   1.000  H
  C192     1.0000 0.43591  0.02967  0.72685  Biso   1.000  C
  H196     1.0000 0.50747  0.12330  0.71429  Biso   1.000  H
  H197     1.0000 0.49244  0.12330  0.78570  Biso   1.000  H
  H198     1.0000 0.56593  0.96352  0.95381  Biso   1.000  H
  H199     1.0000 0.62213  0.04011  0.96018  Biso   1.000  H
  H200     1.0000 0.54533  0.05954  0.97148  Biso   1.000  H
  O73      1.0000 0.30753  0.57723  0.79560  Biso   1.000  O
  C193     1.0000 0.28380  0.71057  0.73196  Biso   1.000  C
  H201     1.0000 0.34426  0.59602  0.59968  Biso   1.000  H
  C194     1.0000 0.31073  0.71187  0.62725  Biso   1.000  C
  C195     1.0000 0.40121  0.99404  0.77155  Biso   1.000  C
  C196     1.0000 0.41344  0.00713  0.66225  Biso   1.000  C
  C197     1.0000 0.27771  0.61319  0.84421  Biso   1.000  C
  C198     1.0000 0.28666  0.75593  0.67557  Biso   1.000  C
  H202     1.0000 0.26744  0.73908  0.76561  Biso   1.000  H
  O74      1.0000 0.31298  0.76020  0.57245  Biso   1.000  O
  C199     1.0000 0.34635  0.93663  0.75282  Biso   1.000  C
  H203     1.0000 0.41541  0.00952  0.81578  Biso   1.000  H
  C200     1.0000 0.35822  0.94920  0.64303  Biso   1.000  C
  O75      1.0000 0.45038  0.04425  0.61995  Biso   1.000  O
  H204     1.0000 0.29506  0.67299  0.85392  Biso   1.000  H
  H205     1.0000 0.22624  0.61533  0.82978  Biso   1.000  H
  C201     1.0000 0.29771  0.55747  0.90340  Biso   1.000  C
  C202     1.0000 0.26410  0.84988  0.66737  Biso   1.000  C
  C203     1.0000 0.34290  0.72016  0.52513  Biso   1.000  C
  C204     1.0000 0.32402  0.91311  0.68793  Biso   1.000  C
  O76      1.0000 0.31153  0.89737  0.79521  Biso   1.000  O
  H206     1.0000 0.34376  0.93424  0.59881  Biso   1.000  H
  C205     1.0000 0.42739  0.02540  0.55352  Biso   1.000  C
  O77      1.0000 0.33897  0.49935  0.91098  Biso   1.000  O
  O78      1.0000 0.26273  0.58371  0.94734  Biso   1.000  O
  H207     1.0000 0.24214  0.86031  0.62140  Biso   1.000  H
  H208     1.0000 0.22835  0.86089  0.69310  Biso   1.000  H
  H209     1.0000 0.38904  0.69561  0.54507  Biso   1.000  H
  H210     1.0000 0.31245  0.67261  0.50399  Biso   1.000  H
  C206     1.0000 0.35067  0.78839  0.47613  Biso   1.000  C
  C207     1.0000 0.32765  0.92504  0.86019  Biso   1.000  C
  H211     1.0000 0.43398  0.96352  0.54618  Biso   1.000  H
  H212     1.0000 0.37777  0.04011  0.53981  Biso   1.000  H
  H213     1.0000 0.45457  0.05954  0.52851  Biso   1.000  H
  C208     1.0000 0.27719  0.53544  0.00711  Biso   1.000  C
  O79      1.0000 0.33387  0.86329  0.47700  Biso   1.000  O
  O80      1.0000 0.37941  0.75301  0.43060  Biso   1.000  O
  H214     1.0000 0.30092  0.89063  0.88539  Biso   1.000  H
  H215     1.0000 0.37776  0.91713  0.87781  Biso   1.000  H
  H216     1.0000 0.31552  0.98633  0.86251  Biso   1.000  H
  H217     1.0000 0.25849  0.47648  0.99929  Biso   1.000  H
  H218     1.0000 0.25496  0.56421  0.03878  Biso   1.000  H
  H219     1.0000 0.32775  0.53272  0.02381  Biso   1.000  H
  C209     1.0000 0.39082  0.80932  0.38010  Biso   1.000  C
  H220     1.0000 0.42488  0.85402  0.39830  Biso   1.000  H
  H221     1.0000 0.40866  0.77563  0.34800  Biso   1.000  H
  H222     1.0000 0.34666  0.83692  0.35949  Biso   1.000  H
  C210     1.0000 0.82776  0.57503  0.36021  Biso   1.000  C
  O81      1.0000 0.81159  0.60270  0.29523  Biso   1.000  O
  H223     1.0000 0.80103  0.60943  0.38541  Biso   1.000  H
  H224     1.0000 0.87776  0.58293  0.37779  Biso   1.000  H
  H225     1.0000 0.81562  0.51374  0.36248  Biso   1.000  H
  H226     1.0000 0.80098  0.60943  0.38541  Biso   1.000  H
  H227     1.0000 0.87781  0.58293  0.37779  Biso   1.000  H
  H228     1.0000 0.81557  0.51374  0.36248  Biso   1.000  H
  C211     1.0000 0.84645  0.56337  0.25279  Biso   1.000  C
  C212     1.0000 0.84640  0.56337  0.25279  Biso   1.000  C
  C213     1.0000 0.82771  0.57503  0.36021  Biso   1.000  C
  C214     1.0000 0.90126  0.50596  0.27152  Biso   1.000  C
  C215     1.0000 0.82413  0.58695  0.18795  Biso   1.000  C
  C216     1.0000 0.82408  0.58695  0.18795  Biso   1.000  C
  C217     1.0000 0.93596  0.47039  0.22682  Biso   1.000  C
  H229     1.0000 0.91553  0.49054  0.31580  Biso   1.000  H
  H230     1.0000 0.91548  0.49054  0.31580  Biso   1.000  H
  C218     1.0000 0.85828  0.55080  0.14305  Biso   1.000  C
  C219     1.0000 0.76415  0.65019  0.16734  Biso   1.000  C
  C220     1.0000 0.00001  0.41434  0.24999  Biso   1.000  C
  C221     1.0000 0.91349  0.49294  0.16222  Biso   1.000  C
  H231     1.0000 0.84386  0.56583  0.09878  Biso   1.000  H
  H232     1.0000 0.84381  0.56583  0.09878  Biso   1.000  H
  H233     1.0000 0.74220  0.63969  0.12142  Biso   1.000  H
  H234     1.0000 0.72841  0.63911  0.19312  Biso   1.000  H
  C222     1.0000 0.78678  0.74407  0.17559  Biso   1.000  C
  C223     1.0000 0.78672  0.74407  0.17559  Biso   1.000  C
  H235     1.0000 0.99250  0.37670  0.28572  Biso   1.000  H
  C224     1.0000 0.06401  0.47039  0.27316  Biso   1.000  C
  H236     1.0000 0.00748  0.37670  0.21431  Biso   1.000  H
  C225     1.0000 0.06406  0.47039  0.27316  Biso   1.000  C
  H237     1.0000 0.00753  0.37670  0.21431  Biso   1.000  H
  O82      1.0000 0.95038  0.45575  0.11993  Biso   1.000  O
  O83      1.0000 0.95043  0.45575  0.11993  Biso   1.000  O
  C226     1.0000 0.78387  0.78943  0.23198  Biso   1.000  C
  C227     1.0000 0.81079  0.78813  0.12726  Biso   1.000  C
  C228     1.0000 0.09871  0.50596  0.22846  Biso   1.000  C
  C229     1.0000 0.08647  0.49294  0.33776  Biso   1.000  C
  C230     1.0000 0.92751  0.47460  0.05354  Biso   1.000  C
  C231     1.0000 0.92745  0.47460  0.05354  Biso   1.000  C
  H238     1.0000 0.76750  0.76092  0.26558  Biso   1.000  H
  C232     1.0000 0.80474  0.87566  0.23971  Biso   1.000  C
  O84      1.0000 0.81303  0.73980  0.07242  Biso   1.000  O
  C233     1.0000 0.82955  0.87495  0.13402  Biso   1.000  C
  H239     1.0000 0.08449  0.49054  0.18419  Biso   1.000  H
  C234     1.0000 0.15356  0.56337  0.24719  Biso   1.000  C
  H240     1.0000 0.08444  0.49054  0.18419  Biso   1.000  H
  C235     1.0000 0.15351  0.56337  0.24719  Biso   1.000  C
  O85      1.0000 0.04958  0.45575  0.38005  Biso   1.000  O
  C236     1.0000 0.14168  0.55080  0.35693  Biso   1.000  C
  H241     1.0000 0.93404  0.53654  0.04620  Biso   1.000  H
  H242     1.0000 0.87777  0.45989  0.03978  Biso   1.000  H
  H243     1.0000 0.95457  0.44052  0.02848  Biso   1.000  H
  H244     1.0000 0.87783  0.45989  0.03978  Biso   1.000  H
  H245     1.0000 0.95462  0.44052  0.02848  Biso   1.000  H
  O86      1.0000 0.80763  0.92277  0.29557  Biso   1.000  O
  C237     1.0000 0.82697  0.92005  0.19051  Biso   1.000  C
  O87      1.0000 0.80758  0.92277  0.29557  Biso   1.000  O
  C238     1.0000 0.84295  0.77984  0.02511  Biso   1.000  C
  H246     1.0000 0.84433  0.90404  0.09970  Biso   1.000  H
  O88      1.0000 0.18844  0.60270  0.20480  Biso   1.000  O
  C239     1.0000 0.17588  0.58695  0.31203  Biso   1.000  C
  C240     1.0000 0.07252  0.47460  0.44649  Biso   1.000  C
  C241     1.0000 0.07257  0.47460  0.44649  Biso   1.000  C
  H247     1.0000 0.15616  0.56583  0.40120  Biso   1.000  H
  H248     1.0000 0.15621  0.56583  0.40120  Biso   1.000  H
  C242     1.0000 0.77776  0.88681  0.34418  Biso   1.000  C
  C243     1.0000 0.84957  0.01354  0.19843  Biso   1.000  C
  H249     1.0000 0.88911  0.80439  0.04509  Biso   1.000  H
  H250     1.0000 0.81256  0.82739  0.00401  Biso   1.000  H
  H251     1.0000 0.81251  0.82739  0.00401  Biso   1.000  H
  C244     1.0000 0.85063  0.71161  0.97615  Biso   1.000  C
  C245     1.0000 0.85068  0.71161  0.97615  Biso   1.000  C
  C246     1.0000 0.17227  0.57503  0.13982  Biso   1.000  C
  C247     1.0000 0.23582  0.65019  0.33264  Biso   1.000  C
  C248     1.0000 0.23587  0.65019  0.33264  Biso   1.000  C
  H252     1.0000 0.06598  0.53654  0.45378  Biso   1.000  H
  H253     1.0000 0.12214  0.45989  0.46020  Biso   1.000  H
  H254     1.0000 0.04534  0.44052  0.47150  Biso   1.000  H
  H255     1.0000 0.06593  0.53654  0.45378  Biso   1.000  H
  H256     1.0000 0.04539  0.44052  0.47150  Biso   1.000  H
  H257     1.0000 0.79511  0.82701  0.35389  Biso   1.000  H
  H258     1.0000 0.72630  0.88474  0.32980  Biso   1.000  H
  C249     1.0000 0.79777  0.94259  0.40342  Biso   1.000  C
  H259     1.0000 0.82410  0.04283  0.22798  Biso   1.000  H
  H260     1.0000 0.83754  0.04315  0.15609  Biso   1.000  H
  C250     1.0000 0.92725  0.02112  0.22513  Biso   1.000  C
  H261     1.0000 0.83748  0.04315  0.15609  Biso   1.000  H
  O89      1.0000 0.83387  0.63678  0.97697  Biso   1.000  O
  O90      1.0000 0.87937  0.74699  0.93062  Biso   1.000  O
  O91      1.0000 0.87942  0.74699  0.93062  Biso   1.000  O
  H262     1.0000 0.19899  0.60943  0.11462  Biso   1.000  H
  H263     1.0000 0.12221  0.58293  0.12219  Biso   1.000  H
  H264     1.0000 0.18440  0.51374  0.13750  Biso   1.000  H
  H265     1.0000 0.25778  0.63969  0.37861  Biso   1.000  H
  H266     1.0000 0.27156  0.63911  0.30691  Biso   1.000  H
  C251     1.0000 0.21325  0.74407  0.32444  Biso   1.000  C
  O92      1.0000 0.76278  0.91629  0.44731  Biso   1.000  O
  O93      1.0000 0.83902  0.00065  0.41095  Biso   1.000  O
  C252     1.0000 0.95432  0.02255  0.29156  Biso   1.000  C
  C253     1.0000 0.97440  0.02287  0.18394  Biso   1.000  C
  C254     1.0000 0.95427  0.02255  0.29156  Biso   1.000  C
  C255     1.0000 0.89078  0.69068  0.88012  Biso   1.000  C
  C256     1.0000 0.89083  0.69068  0.88012  Biso   1.000  C
  C257     1.0000 0.21611  0.78943  0.26805  Biso   1.000  C
  C258     1.0000 0.18923  0.78813  0.37272  Biso   1.000  C
  C259     1.0000 0.18918  0.78813  0.37272  Biso   1.000  C
  C260     1.0000 0.77724  0.96462  0.50708  Biso   1.000  C
  C261     1.0000 0.77719  0.96462  0.50708  Biso   1.000  C
  H267     1.0000 0.92322  0.02339  0.32038  Biso   1.000  H
  H268     1.0000 0.92317  0.02339  0.32038  Biso   1.000  H
  C262     1.0000 0.02561  0.02287  0.31604  Biso   1.000  C
  O94      1.0000 0.94459  0.02391  0.11872  Biso   1.000  O
  C263     1.0000 0.04570  0.02255  0.20847  Biso   1.000  C
  C264     1.0000 0.04575  0.02255  0.20847  Biso   1.000  C
  H269     1.0000 0.92484  0.64604  0.89832  Biso   1.000  H
  H270     1.0000 0.90867  0.72444  0.84802  Biso   1.000  H
  H271     1.0000 0.84667  0.66308  0.85951  Biso   1.000  H
  H272     1.0000 0.92489  0.64604  0.89832  Biso   1.000  H
  H273     1.0000 0.23247  0.76092  0.23440  Biso   1.000  H
  C265     1.0000 0.19528  0.87566  0.26027  Biso   1.000  C
  O95      1.0000 0.18698  0.73980  0.42756  Biso   1.000  O
  C266     1.0000 0.17041  0.87495  0.36596  Biso   1.000  C
  H274     1.0000 0.75497  0.93579  0.53880  Biso   1.000  H
  H275     1.0000 0.82775  0.96734  0.52378  Biso   1.000  H
  H276     1.0000 0.75860  0.02352  0.49930  Biso   1.000  H
  H277     1.0000 0.75855  0.02352  0.49930  Biso   1.000  H
  O96      1.0000 0.05537  0.02391  0.38126  Biso   1.000  O
  C267     1.0000 0.07272  0.02112  0.27485  Biso   1.000  C
  C268     1.0000 0.99011  0.03019  0.07532  Biso   1.000  C
  C269     1.0000 0.99006  0.03019  0.07532  Biso   1.000  C
  H278     1.0000 0.07680  0.02339  0.17960  Biso   1.000  H
  O97      1.0000 0.19238  0.92277  0.20441  Biso   1.000  O
  C270     1.0000 0.17301  0.92005  0.30952  Biso   1.000  C
  C271     1.0000 0.17295  0.92005  0.30952  Biso   1.000  C
  C272     1.0000 0.15702  0.77984  0.47488  Biso   1.000  C
  C273     1.0000 0.15707  0.77984  0.47488  Biso   1.000  C
  H279     1.0000 0.15569  0.90404  0.40028  Biso   1.000  H
  C274     1.0000 0.00991  0.03019  0.42467  Biso   1.000  C
  C275     1.0000 0.00996  0.03019  0.42467  Biso   1.000  C
  C276     1.0000 0.15039  0.01354  0.30155  Biso   1.000  C
  H280     1.0000 0.96274  0.02974  0.03090  Biso   1.000  H
  H281     1.0000 0.02239  0.98102  0.08179  Biso   1.000  H
  H282     1.0000 0.02244  0.98102  0.08179  Biso   1.000  H
  H283     1.0000 0.01658  0.08442  0.08319  Biso   1.000  H
  H284     1.0000 0.01663  0.08442  0.08319  Biso   1.000  H
  C277     1.0000 0.22225  0.88681  0.15580  Biso   1.000  C
  H285     1.0000 0.11086  0.80439  0.45489  Biso   1.000  H
  H286     1.0000 0.18745  0.82739  0.49597  Biso   1.000  H
  C278     1.0000 0.14930  0.71161  0.52388  Biso   1.000  C
  H287     1.0000 0.11091  0.80439  0.45489  Biso   1.000  H
  H288     1.0000 0.97763  0.98102  0.41820  Biso   1.000  H
  H289     1.0000 0.97758  0.98102  0.41820  Biso   1.000  H
  H290     1.0000 0.98343  0.08442  0.41680  Biso   1.000  H
  H291     1.0000 0.98338  0.08442  0.41680  Biso   1.000  H
  H292     1.0000 0.03728  0.02974  0.46908  Biso   1.000  H
  H293     1.0000 0.17587  0.04283  0.27201  Biso   1.000  H
  H294     1.0000 0.16248  0.04315  0.34389  Biso   1.000  H
  H295     1.0000 0.17592  0.04283  0.27201  Biso   1.000  H
  H296     1.0000 0.20491  0.82701  0.14609  Biso   1.000  H
  H297     1.0000 0.27371  0.88474  0.17018  Biso   1.000  H
  C279     1.0000 0.20219  0.94259  0.09656  Biso   1.000  C
  H298     1.0000 0.27366  0.88474  0.17018  Biso   1.000  H
  C280     1.0000 0.20225  0.94259  0.09656  Biso   1.000  C
  O98      1.0000 0.16605  0.63678  0.52301  Biso   1.000  O
  O99      1.0000 0.12054  0.74699  0.56936  Biso   1.000  O
  O100     1.0000 0.23724  0.91629  0.05267  Biso   1.000  O
  O101     1.0000 0.16099  0.00065  0.08903  Biso   1.000  O
  O102     1.0000 0.16094  0.00065  0.08903  Biso   1.000  O
  C281     1.0000 0.10909  0.69068  0.61991  Biso   1.000  C
  C282     1.0000 0.22272  0.96462  0.99290  Biso   1.000  C
  H299     1.0000 0.07503  0.64604  0.60171  Biso   1.000  H
  H300     1.0000 0.09125  0.72444  0.65201  Biso   1.000  H
  H301     1.0000 0.15324  0.66308  0.64047  Biso   1.000  H
  H302     1.0000 0.07508  0.64604  0.60171  Biso   1.000  H
  H303     1.0000 0.09120  0.72444  0.65201  Biso   1.000  H
  H304     1.0000 0.15329  0.66308  0.64047  Biso   1.000  H
  H305     1.0000 0.24494  0.93579  0.96118  Biso   1.000  H
  H306     1.0000 0.17216  0.96734  0.97620  Biso   1.000  H
  H307     1.0000 0.17211  0.96734  0.97620  Biso   1.000  H
  H308     1.0000 0.24141  0.02352  0.00068  Biso   1.000  H
  C283     1.0000 0.82776  0.57503  0.36021  Biso   1.000  C
  O103     1.0000 0.81159  0.60270  0.29523  Biso   1.000  O
  H309     1.0000 0.80103  0.60943  0.38541  Biso   1.000  H
  H310     1.0000 0.87776  0.58293  0.37779  Biso   1.000  H
  H311     1.0000 0.81562  0.51374  0.36248  Biso   1.000  H
  H312     1.0000 0.80098  0.60943  0.38541  Biso   1.000  H
  H313     1.0000 0.87781  0.58293  0.37779  Biso   1.000  H
  H314     1.0000 0.81557  0.51374  0.36248  Biso   1.000  H
  C284     1.0000 0.84645  0.56337  0.25279  Biso   1.000  C
  C285     1.0000 0.84640  0.56337  0.25279  Biso   1.000  C
  C286     1.0000 0.82771  0.57503  0.36021  Biso   1.000  C
  C287     1.0000 0.90126  0.50596  0.27152  Biso   1.000  C
  C288     1.0000 0.82413  0.58695  0.18795  Biso   1.000  C
  C289     1.0000 0.82408  0.58695  0.18795  Biso   1.000  C
  C290     1.0000 0.93596  0.47039  0.22682  Biso   1.000  C
  H315     1.0000 0.91553  0.49054  0.31580  Biso   1.000  H
  H316     1.0000 0.91548  0.49054  0.31580  Biso   1.000  H
  C291     1.0000 0.85828  0.55080  0.14305  Biso   1.000  C
  C292     1.0000 0.76415  0.65019  0.16734  Biso   1.000  C
  C293     1.0000 0.91349  0.49294  0.16222  Biso   1.000  C
  C294     1.0000 0.00001  0.41434  0.24999  Biso   1.000  C
  H317     1.0000 0.84386  0.56583  0.09878  Biso   1.000  H
  H318     1.0000 0.84381  0.56583  0.09878  Biso   1.000  H
  H319     1.0000 0.74220  0.63969  0.12142  Biso   1.000  H
  H320     1.0000 0.72841  0.63911  0.19312  Biso   1.000  H
  C295     1.0000 0.78678  0.74407  0.17559  Biso   1.000  C
  C296     1.0000 0.78672  0.74407  0.17559  Biso   1.000  C
  O104     1.0000 0.95038  0.45575  0.11993  Biso   1.000  O
  O105     1.0000 0.95043  0.45575  0.11993  Biso   1.000  O
  H321     1.0000 0.99250  0.37670  0.28572  Biso   1.000  H
  C297     1.0000 0.06401  0.47039  0.27316  Biso   1.000  C
  H322     1.0000 0.00748  0.37670  0.21431  Biso   1.000  H
  C298     1.0000 0.06406  0.47039  0.27316  Biso   1.000  C
  H323     1.0000 0.00753  0.37670  0.21431  Biso   1.000  H
  C299     1.0000 0.78387  0.78943  0.23198  Biso   1.000  C
  C300     1.0000 0.81079  0.78813  0.12726  Biso   1.000  C
  C301     1.0000 0.92751  0.47460  0.05354  Biso   1.000  C
  C302     1.0000 0.92745  0.47460  0.05354  Biso   1.000  C
  C303     1.0000 0.09871  0.50596  0.22846  Biso   1.000  C
  C304     1.0000 0.08647  0.49294  0.33776  Biso   1.000  C
  H324     1.0000 0.76750  0.76092  0.26558  Biso   1.000  H
  C305     1.0000 0.80474  0.87566  0.23971  Biso   1.000  C
  O106     1.0000 0.81303  0.73980  0.07242  Biso   1.000  O
  C306     1.0000 0.82955  0.87495  0.13402  Biso   1.000  C
  H325     1.0000 0.93404  0.53654  0.04620  Biso   1.000  H
  H326     1.0000 0.87777  0.45989  0.03978  Biso   1.000  H
  H327     1.0000 0.95457  0.44052  0.02848  Biso   1.000  H
  H328     1.0000 0.87783  0.45989  0.03978  Biso   1.000  H
  H329     1.0000 0.95462  0.44052  0.02848  Biso   1.000  H
  H330     1.0000 0.08449  0.49054  0.18419  Biso   1.000  H
  C307     1.0000 0.15356  0.56337  0.24719  Biso   1.000  C
  H331     1.0000 0.08444  0.49054  0.18419  Biso   1.000  H
  C308     1.0000 0.15351  0.56337  0.24719  Biso   1.000  C
  O107     1.0000 0.04958  0.45575  0.38005  Biso   1.000  O
  C309     1.0000 0.14168  0.55080  0.35693  Biso   1.000  C
  C310     1.0000 0.82697  0.92005  0.19051  Biso   1.000  C
  O108     1.0000 0.80763  0.92277  0.29557  Biso   1.000  O
  O109     1.0000 0.80758  0.92277  0.29557  Biso   1.000  O
  C311     1.0000 0.84295  0.77984  0.02511  Biso   1.000  C
  H332     1.0000 0.84433  0.90404  0.09970  Biso   1.000  H
  O110     1.0000 0.18844  0.60270  0.20480  Biso   1.000  O
  C312     1.0000 0.17588  0.58695  0.31203  Biso   1.000  C
  C313     1.0000 0.07252  0.47460  0.44649  Biso   1.000  C
  C314     1.0000 0.07257  0.47460  0.44649  Biso   1.000  C
  H333     1.0000 0.15616  0.56583  0.40120  Biso   1.000  H
  H334     1.0000 0.15621  0.56583  0.40120  Biso   1.000  H
  C315     1.0000 0.84957  0.01354  0.19843  Biso   1.000  C
  C316     1.0000 0.77776  0.88681  0.34418  Biso   1.000  C
  H335     1.0000 0.88911  0.80439  0.04509  Biso   1.000  H
  C317     1.0000 0.85063  0.71161  0.97615  Biso   1.000  C
  C318     1.0000 0.85068  0.71161  0.97615  Biso   1.000  C
  H336     1.0000 0.81256  0.82739  0.00401  Biso   1.000  H
  H337     1.0000 0.81251  0.82739  0.00401  Biso   1.000  H
  C319     1.0000 0.17227  0.57503  0.13982  Biso   1.000  C
  C320     1.0000 0.23582  0.65019  0.33264  Biso   1.000  C
  C321     1.0000 0.23587  0.65019  0.33264  Biso   1.000  C
  H338     1.0000 0.06598  0.53654  0.45378  Biso   1.000  H
  H339     1.0000 0.12214  0.45989  0.46020  Biso   1.000  H
  H340     1.0000 0.04534  0.44052  0.47150  Biso   1.000  H
  H341     1.0000 0.06593  0.53654  0.45378  Biso   1.000  H
  H342     1.0000 0.04539  0.44052  0.47150  Biso   1.000  H
  H343     1.0000 0.82410  0.04283  0.22798  Biso   1.000  H
  H344     1.0000 0.83754  0.04315  0.15609  Biso   1.000  H
  C322     1.0000 0.92725  0.02112  0.22513  Biso   1.000  C
  H345     1.0000 0.83748  0.04315  0.15609  Biso   1.000  H
  H346     1.0000 0.79511  0.82701  0.35389  Biso   1.000  H
  H347     1.0000 0.72630  0.88474  0.32980  Biso   1.000  H
  C323     1.0000 0.79777  0.94259  0.40342  Biso   1.000  C
  O111     1.0000 0.83387  0.63678  0.97697  Biso   1.000  O
  O112     1.0000 0.87937  0.74699  0.93062  Biso   1.000  O
  O113     1.0000 0.87942  0.74699  0.93062  Biso   1.000  O
  H348     1.0000 0.19899  0.60943  0.11462  Biso   1.000  H
  H349     1.0000 0.12221  0.58293  0.12219  Biso   1.000  H
  H350     1.0000 0.18440  0.51374  0.13750  Biso   1.000  H
  H351     1.0000 0.25778  0.63969  0.37861  Biso   1.000  H
  H352     1.0000 0.27156  0.63911  0.30691  Biso   1.000  H
  C324     1.0000 0.21325  0.74407  0.32444  Biso   1.000  C
  C325     1.0000 0.95432  0.02255  0.29156  Biso   1.000  C
  C326     1.0000 0.97440  0.02287  0.18394  Biso   1.000  C
  C327     1.0000 0.95427  0.02255  0.29156  Biso   1.000  C
  O114     1.0000 0.76278  0.91629  0.44731  Biso   1.000  O
  O115     1.0000 0.83902  0.00065  0.41095  Biso   1.000  O
  C328     1.0000 0.89078  0.69068  0.88012  Biso   1.000  C
  C329     1.0000 0.89083  0.69068  0.88012  Biso   1.000  C
  C330     1.0000 0.21611  0.78943  0.26805  Biso   1.000  C
  C331     1.0000 0.18923  0.78813  0.37272  Biso   1.000  C
  C332     1.0000 0.18918  0.78813  0.37272  Biso   1.000  C
  H353     1.0000 0.92322  0.02339  0.32038  Biso   1.000  H
  H354     1.0000 0.92317  0.02339  0.32038  Biso   1.000  H
  C333     1.0000 0.02561  0.02287  0.31604  Biso   1.000  C
  O116     1.0000 0.94459  0.02391  0.11872  Biso   1.000  O
  C334     1.0000 0.04570  0.02255  0.20847  Biso   1.000  C
  C335     1.0000 0.04575  0.02255  0.20847  Biso   1.000  C
  C336     1.0000 0.77724  0.96462  0.50708  Biso   1.000  C
  C337     1.0000 0.77719  0.96462  0.50708  Biso   1.000  C
  H355     1.0000 0.92484  0.64604  0.89832  Biso   1.000  H
  H356     1.0000 0.90867  0.72444  0.84802  Biso   1.000  H
  H357     1.0000 0.84667  0.66308  0.85951  Biso   1.000  H
  H358     1.0000 0.92489  0.64604  0.89832  Biso   1.000  H
  H359     1.0000 0.23247  0.76092  0.23440  Biso   1.000  H
  C338     1.0000 0.19528  0.87566  0.26027  Biso   1.000  C
  O117     1.0000 0.18698  0.73980  0.42756  Biso   1.000  O
  C339     1.0000 0.17041  0.87495  0.36596  Biso   1.000  C
  O118     1.0000 0.05537  0.02391  0.38126  Biso   1.000  O
  C340     1.0000 0.07272  0.02112  0.27485  Biso   1.000  C
  C341     1.0000 0.99011  0.03019  0.07532  Biso   1.000  C
  C342     1.0000 0.99006  0.03019  0.07532  Biso   1.000  C
  H360     1.0000 0.07680  0.02339  0.17960  Biso   1.000  H
  H361     1.0000 0.75497  0.93579  0.53880  Biso   1.000  H
  H362     1.0000 0.82775  0.96734  0.52378  Biso   1.000  H
  H363     1.0000 0.75860  0.02352  0.49930  Biso   1.000  H
  H364     1.0000 0.75855  0.02352  0.49930  Biso   1.000  H
  O119     1.0000 0.19238  0.92277  0.20441  Biso   1.000  O
  C343     1.0000 0.17301  0.92005  0.30952  Biso   1.000  C
  C344     1.0000 0.17295  0.92005  0.30952  Biso   1.000  C
  C345     1.0000 0.15702  0.77984  0.47488  Biso   1.000  C
  C346     1.0000 0.15707  0.77984  0.47488  Biso   1.000  C
  H365     1.0000 0.15569  0.90404  0.40028  Biso   1.000  H
  C347     1.0000 0.00991  0.03019  0.42467  Biso   1.000  C
  C348     1.0000 0.00996  0.03019  0.42467  Biso   1.000  C
  C349     1.0000 0.15039  0.01354  0.30155  Biso   1.000  C
  H366     1.0000 0.96274  0.02974  0.03090  Biso   1.000  H
  H367     1.0000 0.02239  0.98102  0.08179  Biso   1.000  H
  H368     1.0000 0.02244  0.98102  0.08179  Biso   1.000  H
  H369     1.0000 0.01658  0.08442  0.08319  Biso   1.000  H
  H370     1.0000 0.01663  0.08442  0.08319  Biso   1.000  H
  C350     1.0000 0.22225  0.88681  0.15580  Biso   1.000  C
  H371     1.0000 0.11086  0.80439  0.45489  Biso   1.000  H
  H372     1.0000 0.18745  0.82739  0.49597  Biso   1.000  H
  C351     1.0000 0.14930  0.71161  0.52388  Biso   1.000  C
  H373     1.0000 0.11091  0.80439  0.45489  Biso   1.000  H
  H374     1.0000 0.97763  0.98102  0.41820  Biso   1.000  H
  H375     1.0000 0.97758  0.98102  0.41820  Biso   1.000  H
  H376     1.0000 0.98343  0.08442  0.41680  Biso   1.000  H
  H377     1.0000 0.98338  0.08442  0.41680  Biso   1.000  H
  H378     1.0000 0.03728  0.02974  0.46908  Biso   1.000  H
  H379     1.0000 0.17587  0.04283  0.27201  Biso   1.000  H
  H380     1.0000 0.16248  0.04315  0.34389  Biso   1.000  H
  H381     1.0000 0.17592  0.04283  0.27201  Biso   1.000  H
  H382     1.0000 0.20491  0.82701  0.14609  Biso   1.000  H
  H383     1.0000 0.27371  0.88474  0.17018  Biso   1.000  H
  C352     1.0000 0.20219  0.94259  0.09656  Biso   1.000  C
  H384     1.0000 0.27366  0.88474  0.17018  Biso   1.000  H
  C353     1.0000 0.20225  0.94259  0.09656  Biso   1.000  C
  O120     1.0000 0.16605  0.63678  0.52301  Biso   1.000  O
  O121     1.0000 0.12054  0.74699  0.56936  Biso   1.000  O
  O122     1.0000 0.23724  0.91629  0.05267  Biso   1.000  O
  O123     1.0000 0.16099  0.00065  0.08903  Biso   1.000  O
  O124     1.0000 0.16094  0.00065  0.08903  Biso   1.000  O
  C354     1.0000 0.10909  0.69068  0.61991  Biso   1.000  C
  C355     1.0000 0.22272  0.96462  0.99290  Biso   1.000  C
  H385     1.0000 0.07503  0.64604  0.60171  Biso   1.000  H
  H386     1.0000 0.09125  0.72444  0.65201  Biso   1.000  H
  H387     1.0000 0.15324  0.66308  0.64047  Biso   1.000  H
  H388     1.0000 0.07508  0.64604  0.60171  Biso   1.000  H
  H389     1.0000 0.09120  0.72444  0.65201  Biso   1.000  H
  H390     1.0000 0.15329  0.66308  0.64047  Biso   1.000  H
  H391     1.0000 0.24494  0.93579  0.96118  Biso   1.000  H
  H392     1.0000 0.17216  0.96734  0.97620  Biso   1.000  H
  H393     1.0000 0.17211  0.96734  0.97620  Biso   1.000  H
  H394     1.0000 0.24141  0.02352  0.00068  Biso   1.000  H
  C356     1.0000 0.67044  0.37495  0.36596  Biso   1.000  C
  C357     1.0000 0.67303  0.42005  0.30952  Biso   1.000  C
  H395     1.0000 0.65566  0.40398  0.40028  Biso   1.000  H
  C358     1.0000 0.68920  0.28813  0.37272  Biso   1.000  C
  C359     1.0000 0.65042  0.51354  0.30155  Biso   1.000  C
  C360     1.0000 0.69525  0.37566  0.26027  Biso   1.000  C
  C361     1.0000 0.71328  0.24407  0.32444  Biso   1.000  C
  O125     1.0000 0.68696  0.23980  0.42756  Biso   1.000  O
  C362     1.0000 0.57274  0.52106  0.27485  Biso   1.000  C
  H396     1.0000 0.67589  0.54283  0.27201  Biso   1.000  H
  H397     1.0000 0.66250  0.54309  0.34389  Biso   1.000  H
  O126     1.0000 0.69241  0.42277  0.20441  Biso   1.000  O
  C363     1.0000 0.71613  0.28943  0.26805  Biso   1.000  C
  C364     1.0000 0.73584  0.15019  0.33264  Biso   1.000  C
  C365     1.0000 0.65704  0.27984  0.47488  Biso   1.000  C
  C366     1.0000 0.52559  0.52287  0.31604  Biso   1.000  C
  C367     1.0000 0.54573  0.52255  0.20847  Biso   1.000  C
  C368     1.0000 0.72223  0.38681  0.15580  Biso   1.000  C
  H398     1.0000 0.73249  0.26092  0.23440  Biso   1.000  H
  C369     1.0000 0.67591  0.08695  0.31203  Biso   1.000  C
  H399     1.0000 0.75780  0.13969  0.37861  Biso   1.000  H
  H400     1.0000 0.77159  0.13911  0.30691  Biso   1.000  H
  H401     1.0000 0.61088  0.30439  0.45489  Biso   1.000  H
  H402     1.0000 0.68748  0.32739  0.49597  Biso   1.000  H
  C370     1.0000 0.64927  0.21161  0.52388  Biso   1.000  C
  C371     1.0000 0.45425  0.52255  0.29156  Biso   1.000  C
  O127     1.0000 0.55540  0.52391  0.38126  Biso   1.000  O
  C372     1.0000 0.47437  0.52287  0.18394  Biso   1.000  C
  H403     1.0000 0.57682  0.52339  0.17960  Biso   1.000  H
  H404     1.0000 0.70488  0.32701  0.14609  Biso   1.000  H
  H405     1.0000 0.77369  0.38474  0.17018  Biso   1.000  H
  C373     1.0000 0.70222  0.44259  0.09656  Biso   1.000  C
  C374     1.0000 0.65359  0.06337  0.24719  Biso   1.000  C
  C375     1.0000 0.64171  0.05080  0.35693  Biso   1.000  C
  O128     1.0000 0.66607  0.13671  0.52301  Biso   1.000  O
  O129     1.0000 0.62052  0.24699  0.56936  Biso   1.000  O
  C376     1.0000 0.42722  0.52106  0.22513  Biso   1.000  C
  H406     1.0000 0.42319  0.52339  0.32038  Biso   1.000  H
  C377     1.0000 0.50993  0.53019  0.42467  Biso   1.000  C
  O130     1.0000 0.44456  0.52391  0.11872  Biso   1.000  O
  O131     1.0000 0.66097  0.50065  0.08903  Biso   1.000  O
  O132     1.0000 0.73721  0.41629  0.05267  Biso   1.000  O
  C378     1.0000 0.59873  0.00596  0.22846  Biso   1.000  C
  O133     1.0000 0.68841  0.10270  0.20480  Biso   1.000  O
  C379     1.0000 0.58650  0.99294  0.33776  Biso   1.000  C
  H407     1.0000 0.65618  0.06583  0.40120  Biso   1.000  H
  C380     1.0000 0.60912  0.19068  0.61991  Biso   1.000  C
  C381     1.0000 0.34960  0.51354  0.19843  Biso   1.000  C
  H408     1.0000 0.47755  0.48102  0.41820  Biso   1.000  H
  H409     1.0000 0.48336  0.58442  0.41680  Biso   1.000  H
  H410     1.0000 0.53725  0.52974  0.46908  Biso   1.000  H
  C382     1.0000 0.49003  0.53019  0.07532  Biso   1.000  C
  C383     1.0000 0.72275  0.46462  0.99290  Biso   1.000  C
  C384     1.0000 0.56403  0.97039  0.27316  Biso   1.000  C
  H411     1.0000 0.58451  0.99048  0.18419  Biso   1.000  H
  C385     1.0000 0.67229  0.07503  0.13982  Biso   1.000  C
  O134     1.0000 0.54956  0.95575  0.38005  Biso   1.000  O
  H412     1.0000 0.57506  0.14598  0.60171  Biso   1.000  H
  H413     1.0000 0.59128  0.22437  0.65201  Biso   1.000  H
  H414     1.0000 0.65326  0.16308  0.64047  Biso   1.000  H
  C386     1.0000 0.32700  0.42005  0.19051  Biso   1.000  C
  H415     1.0000 0.32407  0.54283  0.22798  Biso   1.000  H
  H416     1.0000 0.33751  0.54309  0.15609  Biso   1.000  H
  H417     1.0000 0.52241  0.48102  0.08179  Biso   1.000  H
  H418     1.0000 0.51661  0.58442  0.08319  Biso   1.000  H
  H419     1.0000 0.46271  0.52974  0.03090  Biso   1.000  H
  H420     1.0000 0.74144  0.52352  0.00068  Biso   1.000  H
  H421     1.0000 0.74497  0.43579  0.96118  Biso   1.000  H
  H422     1.0000 0.67219  0.46728  0.97620  Biso   1.000  H
  C387     1.0000 0.49998  0.91434  0.24999  Biso   1.000  C
  H423     1.0000 0.69902  0.10943  0.11462  Biso   1.000  H
  H424     1.0000 0.62218  0.08293  0.12219  Biso   1.000  H
  H425     1.0000 0.68442  0.01367  0.13750  Biso   1.000  H
  C388     1.0000 0.57255  0.97460  0.44649  Biso   1.000  C
  C389     1.0000 0.30471  0.37566  0.23971  Biso   1.000  C
  C390     1.0000 0.32952  0.37495  0.13402  Biso   1.000  C
  C391     1.0000 0.43593  0.97039  0.22682  Biso   1.000  C
  H426     1.0000 0.49247  0.87670  0.28572  Biso   1.000  H
  H427     1.0000 0.50750  0.87670  0.21431  Biso   1.000  H
  H428     1.0000 0.56595  0.03648  0.45378  Biso   1.000  H
  H429     1.0000 0.62216  0.95989  0.46020  Biso   1.000  H
  H430     1.0000 0.54537  0.94052  0.47150  Biso   1.000  H
  C392     1.0000 0.28389  0.28943  0.23198  Biso   1.000  C
  O135     1.0000 0.30761  0.42277  0.29557  Biso   1.000  O
  C393     1.0000 0.31076  0.28813  0.12726  Biso   1.000  C
  H431     1.0000 0.34430  0.40398  0.09970  Biso   1.000  H
  C394     1.0000 0.40123  0.00596  0.27152  Biso   1.000  C
  C395     1.0000 0.41352  0.99294  0.16222  Biso   1.000  C
  C396     1.0000 0.28675  0.24407  0.17559  Biso   1.000  C
  H432     1.0000 0.26747  0.26092  0.26558  Biso   1.000  H
  C397     1.0000 0.27774  0.38681  0.34418  Biso   1.000  C
  O136     1.0000 0.31301  0.23980  0.07242  Biso   1.000  O
  C398     1.0000 0.34643  0.06337  0.25279  Biso   1.000  C
  H433     1.0000 0.41550  0.99048  0.31580  Biso   1.000  H
  C399     1.0000 0.35831  0.05080  0.14305  Biso   1.000  C
  O137     1.0000 0.45041  0.95575  0.11993  Biso   1.000  O
  C400     1.0000 0.26412  0.15019  0.16734  Biso   1.000  C
  H434     1.0000 0.29508  0.32701  0.35389  Biso   1.000  H
  H435     1.0000 0.22628  0.38474  0.32980  Biso   1.000  H
  C401     1.0000 0.29774  0.44259  0.40342  Biso   1.000  C
  C402     1.0000 0.34292  0.27984  0.02511  Biso   1.000  C
  C403     1.0000 0.32406  0.08695  0.18795  Biso   1.000  C
  O138     1.0000 0.31156  0.10270  0.29523  Biso   1.000  O
  H436     1.0000 0.34378  0.06583  0.09878  Biso   1.000  H
  C404     1.0000 0.42743  0.97460  0.05354  Biso   1.000  C
  H437     1.0000 0.24223  0.13969  0.12142  Biso   1.000  H
  H438     1.0000 0.22839  0.13911  0.19312  Biso   1.000  H
  O139     1.0000 0.33900  0.50065  0.41095  Biso   1.000  O
  O140     1.0000 0.26275  0.41629  0.44731  Biso   1.000  O
  H439     1.0000 0.38908  0.30439  0.04509  Biso   1.000  H
  H440     1.0000 0.31249  0.32739  0.00401  Biso   1.000  H
  C405     1.0000 0.35065  0.21161  0.97615  Biso   1.000  C
  C406     1.0000 0.32773  0.07503  0.36021  Biso   1.000  C
  H441     1.0000 0.43401  0.03648  0.04620  Biso   1.000  H
  H442     1.0000 0.37780  0.95989  0.03978  Biso   1.000  H
  H443     1.0000 0.45460  0.94052  0.02848  Biso   1.000  H
  C407     1.0000 0.27716  0.46462  0.50708  Biso   1.000  C
  O141     1.0000 0.33389  0.13671  0.97697  Biso   1.000  O
  O142     1.0000 0.37940  0.24699  0.93062  Biso   1.000  O
  H444     1.0000 0.30095  0.10943  0.38541  Biso   1.000  H
  H445     1.0000 0.37778  0.08293  0.37779  Biso   1.000  H
  H446     1.0000 0.31559  0.01367  0.36248  Biso   1.000  H
  H447     1.0000 0.25495  0.43579  0.53880  Biso   1.000  H
  H448     1.0000 0.25858  0.52352  0.49930  Biso   1.000  H
  H449     1.0000 0.32778  0.46728  0.52378  Biso   1.000  H
  C408     1.0000 0.39081  0.19068  0.88012  Biso   1.000  C
  H450     1.0000 0.42486  0.14598  0.89832  Biso   1.000  H
  H451     1.0000 0.40870  0.22437  0.84802  Biso   1.000  H
  H452     1.0000 0.34665  0.16308  0.85951  Biso   1.000  H
