data_image0
_cell_length_a       14.992
_cell_length_b       18.529
_cell_length_c       12.469
_cell_angle_alpha    90
_cell_angle_beta     91.87
_cell_angle_gamma    90

_symmetry_space_group_name_H-M    "P 1"
_symmetry_int_tables_number       1

loop_
  _symmetry_equiv_pos_as_xyz
  'x, y, z'

loop_
  _atom_site_label
  _atom_site_occupancy
  _atom_site_fract_x
  _atom_site_fract_y
  _atom_site_fract_z
  _atom_site_thermal_displace_type
  _atom_site_B_iso_or_equiv
  _atom_site_type_symbol
  C1       1.0000 0.17693  0.17869  0.44382  Biso   1.000  C
  N1       1.0000 0.17668  0.17049  0.33613  Biso   1.000  N
  N2       1.0000 0.17675  0.17049  0.33613  Biso   1.000  N
  N3       1.0000 0.10673  0.22322  0.46957  Biso   1.000  N
  N4       1.0000 0.10673  0.22316  0.46957  Biso   1.000  N
  O1       1.0000 0.23211  0.15392  0.50809  Biso   1.000  O
  O2       1.0000 0.23211  0.15387  0.50809  Biso   1.000  O
  O3       1.0000 0.23217  0.15392  0.50809  Biso   1.000  O
  O4       1.0000 0.23217  0.15387  0.50809  Biso   1.000  O
  C2       1.0000 0.10674  0.21372  0.28060  Biso   1.000  C
  C3       1.0000 0.10674  0.21367  0.28060  Biso   1.000  C
  C4       1.0000 0.24439  0.13201  0.28221  Biso   1.000  C
  C5       1.0000 0.24439  0.13196  0.28221  Biso   1.000  C
  C6       1.0000 0.24445  0.13201  0.28221  Biso   1.000  C
  C7       1.0000 0.24445  0.13196  0.28221  Biso   1.000  C
  C8       1.0000 0.06053  0.25209  0.37706  Biso   1.000  C
  C9       1.0000 0.10260  0.25479  0.57557  Biso   1.000  C
  C10      1.0000 0.10267  0.25479  0.57557  Biso   1.000  C
  C11      1.0000 0.13844  0.27460  0.20767  Biso   1.000  C
  C12      1.0000 0.13837  0.27460  0.20767  Biso   1.000  C
  N5       1.0000 0.03581  0.17092  0.23318  Biso   1.000  N
  N6       1.0000 0.03581  0.17087  0.23318  Biso   1.000  N
  H1       1.0000 0.29664  0.12829  0.32987  Biso   1.000  H
  H2       1.0000 0.26124  0.15980  0.22010  Biso   1.000  H
  N7       1.0000 0.21949  0.06050  0.24706  Biso   1.000  N
  N8       1.0000 0.21955  0.06050  0.24706  Biso   1.000  N
  C13      1.0000 0.05903  0.33628  0.36847  Biso   1.000  C
  N9       1.0000 0.96937  0.22878  0.36333  Biso   1.000  N
  N10      1.0000 0.96944  0.22878  0.36333  Biso   1.000  N
  H3       1.0000 0.15829  0.24481  0.61481  Biso   1.000  H
  H4       1.0000 0.09720  0.30671  0.56835  Biso   1.000  H
  N11      1.0000 0.03062  0.22878  0.63672  Biso   1.000  N
  H5       1.0000 0.09720  0.30665  0.56835  Biso   1.000  H
  H6       1.0000 0.15836  0.24481  0.61481  Biso   1.000  H
  H7       1.0000 0.09727  0.30671  0.56835  Biso   1.000  H
  H8       1.0000 0.09727  0.30665  0.56835  Biso   1.000  H
  H9       1.0000 0.18602  0.30061  0.24546  Biso   1.000  H
  H10      1.0000 0.16361  0.25301  0.14460  Biso   1.000  H
  C14      1.0000 0.06720  0.32911  0.17067  Biso   1.000  C
  H11      1.0000 0.18602  0.30056  0.24546  Biso   1.000  H
  H12      1.0000 0.16361  0.25295  0.14460  Biso   1.000  H
  C15      1.0000 0.06720  0.32905  0.17067  Biso   1.000  C
  C16      1.0000 0.04221  0.13088  0.13216  Biso   1.000  C
  C17      1.0000 0.95588  0.18490  0.27659  Biso   1.000  C
  C18      1.0000 0.95595  0.18490  0.27659  Biso   1.000  C
  C19      1.0000 0.17389  0.04210  0.14500  Biso   1.000  C
  C20      1.0000 0.17396  0.04210  0.14500  Biso   1.000  C
  C21      1.0000 0.24792  0.00000  0.30187  Biso   1.000  C
  C22      1.0000 0.02623  0.36877  0.26127  Biso   1.000  C
  H13      1.0000 0.02158  0.35469  0.42416  Biso   1.000  H
  H14      1.0000 0.11914  0.35377  0.38372  Biso   1.000  H
  H15      1.0000 0.02165  0.35469  0.42416  Biso   1.000  H
  C23      1.0000 0.89739  0.25479  0.42440  Biso   1.000  C
  C24      1.0000 0.89746  0.25479  0.42440  Biso   1.000  C
  C25      1.0000 0.04411  0.18490  0.72338  Biso   1.000  C
  C26      1.0000 0.93953  0.25209  0.62292  Biso   1.000  C
  H16      1.0000 0.09399  0.36381  0.12309  Biso   1.000  H
  H17      1.0000 0.02061  0.30390  0.13007  Biso   1.000  H
  H18      1.0000 0.09399  0.36375  0.12309  Biso   1.000  H
  H19      1.0000 0.09406  0.36381  0.12309  Biso   1.000  H
  H20      1.0000 0.09406  0.36375  0.12309  Biso   1.000  H
  H21      1.0000 0.07933  0.15818  0.08441  Biso   1.000  H
  N12      1.0000 0.07841  0.05969  0.14387  Biso   1.000  N
  H22      1.0000 0.98313  0.12742  0.09862  Biso   1.000  H
  H23      1.0000 0.98313  0.12737  0.09862  Biso   1.000  H
  O5       1.0000 0.88278  0.16169  0.24233  Biso   1.000  O
  O6       1.0000 0.88284  0.16169  0.24233  Biso   1.000  O
  C27      1.0000 0.22311  0.07340  0.05111  Biso   1.000  C
  C28      1.0000 0.17389  0.95790  0.14500  Biso   1.000  C
  C29      1.0000 0.17396  0.95790  0.14500  Biso   1.000  C
  O7       1.0000 0.29578  0.00000  0.38179  Biso   1.000  O
  O8       1.0000 0.29585  0.00000  0.38179  Biso   1.000  O
  N13      1.0000 0.21949  0.93950  0.24706  Biso   1.000  N
  N14      1.0000 0.21955  0.93950  0.24706  Biso   1.000  N
  H24      1.0000 0.04250  0.41950  0.25846  Biso   1.000  H
  H25      1.0000 0.04250  0.41945  0.25846  Biso   1.000  H
  H26      1.0000 0.96169  0.36537  0.25477  Biso   1.000  H
  H27      1.0000 0.96176  0.36537  0.25477  Biso   1.000  H
  H28      1.0000 0.84170  0.24481  0.38516  Biso   1.000  H
  H29      1.0000 0.90279  0.30671  0.43162  Biso   1.000  H
  N15      1.0000 0.89333  0.22322  0.53040  Biso   1.000  N
  H30      1.0000 0.90279  0.30665  0.43162  Biso   1.000  H
  N16      1.0000 0.89333  0.22316  0.53040  Biso   1.000  N
  H31      1.0000 0.90286  0.30671  0.43162  Biso   1.000  H
  H32      1.0000 0.90286  0.30665  0.43162  Biso   1.000  H
  O9       1.0000 0.11722  0.16169  0.75772  Biso   1.000  O
  N17      1.0000 0.96418  0.17092  0.76679  Biso   1.000  N
  N18      1.0000 0.96418  0.17087  0.76679  Biso   1.000  N
  N19      1.0000 0.96425  0.17092  0.76679  Biso   1.000  N
  N20      1.0000 0.96425  0.17087  0.76679  Biso   1.000  N
  C30      1.0000 0.89332  0.21372  0.71937  Biso   1.000  C
  C31      1.0000 0.94103  0.33628  0.63150  Biso   1.000  C
  C32      1.0000 0.89332  0.21367  0.71937  Biso   1.000  C
  C33      1.0000 0.02523  0.00000  0.13561  Biso   1.000  C
  H33      1.0000 0.22983  0.12510  0.06042  Biso   1.000  H
  C34      1.0000 0.31643  0.03772  0.04421  Biso   1.000  C
  C35      1.0000 0.31643  0.03767  0.04421  Biso   1.000  C
  H34      1.0000 0.18883  0.06493  0.98499  Biso   1.000  H
  H35      1.0000 0.18883  0.06487  0.98499  Biso   1.000  H
  N21      1.0000 0.07841  0.94031  0.14387  Biso   1.000  N
  C36      1.0000 0.22311  0.92660  0.05111  Biso   1.000  C
  C37      1.0000 0.24439  0.86799  0.28221  Biso   1.000  C
  C38      1.0000 0.24445  0.86799  0.28221  Biso   1.000  C
  C39      1.0000 0.82313  0.17869  0.55615  Biso   1.000  C
  C40      1.0000 0.95778  0.13088  0.86781  Biso   1.000  C
  C41      1.0000 0.95785  0.13088  0.86781  Biso   1.000  C
  N22      1.0000 0.82332  0.17049  0.66392  Biso   1.000  N
  C42      1.0000 0.86162  0.27460  0.79231  Biso   1.000  C
  H36      1.0000 0.97841  0.35469  0.57581  Biso   1.000  H
  H37      1.0000 0.88092  0.35377  0.61626  Biso   1.000  H
  C43      1.0000 0.97382  0.36877  0.73870  Biso   1.000  C
  O10      1.0000 0.94383  0.00000  0.12502  Biso   1.000  O
  H38      1.0000 0.35342  0.05429  0.10447  Biso   1.000  H
  C44      1.0000 0.31643  0.96228  0.04421  Biso   1.000  C
  H39      1.0000 0.34369  0.05429  0.97922  Biso   1.000  H
  H40      1.0000 0.34375  0.05429  0.97922  Biso   1.000  H
  C45      1.0000 0.04221  0.86912  0.13216  Biso   1.000  C
  C46      1.0000 0.04221  0.86907  0.13216  Biso   1.000  C
  H41      1.0000 0.18883  0.93507  0.98499  Biso   1.000  H
  H42      1.0000 0.22983  0.87490  0.06042  Biso   1.000  H
  H43      1.0000 0.29664  0.87171  0.32987  Biso   1.000  H
  H44      1.0000 0.26124  0.84020  0.22010  Biso   1.000  H
  N23      1.0000 0.17668  0.82951  0.33613  Biso   1.000  N
  H45      1.0000 0.29664  0.87166  0.32987  Biso   1.000  H
  N24      1.0000 0.17675  0.82951  0.33613  Biso   1.000  N
  O11      1.0000 0.76789  0.15392  0.49188  Biso   1.000  O
  O12      1.0000 0.76789  0.15387  0.49188  Biso   1.000  O
  O13      1.0000 0.76795  0.15392  0.49188  Biso   1.000  O
  O14      1.0000 0.76795  0.15387  0.49188  Biso   1.000  O
  H46      1.0000 0.01693  0.12742  0.90135  Biso   1.000  H
  H47      1.0000 0.01693  0.12737  0.90135  Biso   1.000  H
  H48      1.0000 0.92073  0.15818  0.91556  Biso   1.000  H
  N25      1.0000 0.92158  0.05969  0.85610  Biso   1.000  N
  N26      1.0000 0.92165  0.05969  0.85610  Biso   1.000  N
  C47      1.0000 0.75561  0.13201  0.71776  Biso   1.000  C
  C48      1.0000 0.75561  0.13196  0.71776  Biso   1.000  C
  H49      1.0000 0.81403  0.30061  0.75451  Biso   1.000  H
  H50      1.0000 0.83638  0.25301  0.85538  Biso   1.000  H
  C49      1.0000 0.93279  0.32911  0.82930  Biso   1.000  C
  H51      1.0000 0.81403  0.30056  0.75451  Biso   1.000  H
  H52      1.0000 0.83638  0.25295  0.85538  Biso   1.000  H
  C50      1.0000 0.93279  0.32905  0.82930  Biso   1.000  C
  H53      1.0000 0.83645  0.25301  0.85538  Biso   1.000  H
  C51      1.0000 0.93286  0.32911  0.82930  Biso   1.000  C
  H54      1.0000 0.83645  0.25295  0.85538  Biso   1.000  H
  C52      1.0000 0.93286  0.32905  0.82930  Biso   1.000  C
  H55      1.0000 0.03830  0.36537  0.74520  Biso   1.000  H
  H56      1.0000 0.03837  0.36537  0.74520  Biso   1.000  H
  H57      1.0000 0.95749  0.41950  0.74151  Biso   1.000  H
  H58      1.0000 0.95749  0.41945  0.74151  Biso   1.000  H
  H59      1.0000 0.95756  0.41950  0.74151  Biso   1.000  H
  H60      1.0000 0.95756  0.41945  0.74151  Biso   1.000  H
  H61      1.0000 0.34369  0.94571  0.97922  Biso   1.000  H
  H62      1.0000 0.34375  0.94571  0.97922  Biso   1.000  H
  H63      1.0000 0.35342  0.94571  0.10447  Biso   1.000  H
  H64      1.0000 0.98313  0.87258  0.09862  Biso   1.000  H
  H65      1.0000 0.07933  0.84182  0.08441  Biso   1.000  H
  N27      1.0000 0.03581  0.82908  0.23318  Biso   1.000  N
  H66      1.0000 0.07933  0.84176  0.08441  Biso   1.000  H
  C53      1.0000 0.10674  0.78628  0.28060  Biso   1.000  C
  C54      1.0000 0.17693  0.82131  0.44382  Biso   1.000  C
  C55      1.0000 0.97483  0.00000  0.86436  Biso   1.000  C
  C56      1.0000 0.82610  0.04210  0.85497  Biso   1.000  C
  C57      1.0000 0.82617  0.04210  0.85497  Biso   1.000  C
  H67      1.0000 0.70342  0.12829  0.67010  Biso   1.000  H
  H68      1.0000 0.73882  0.15980  0.77987  Biso   1.000  H
  N28      1.0000 0.78051  0.06050  0.75291  Biso   1.000  N
  H69      1.0000 0.90600  0.36381  0.87688  Biso   1.000  H
  H70      1.0000 0.97939  0.30390  0.86990  Biso   1.000  H
  H71      1.0000 0.90600  0.36375  0.87688  Biso   1.000  H
  H72      1.0000 0.90607  0.36381  0.87688  Biso   1.000  H
  H73      1.0000 0.97945  0.30390  0.86990  Biso   1.000  H
  H74      1.0000 0.90607  0.36375  0.87688  Biso   1.000  H
  C58      1.0000 0.95588  0.81510  0.27659  Biso   1.000  C
  C59      1.0000 0.95595  0.81510  0.27659  Biso   1.000  C
  C60      1.0000 0.06053  0.74791  0.37706  Biso   1.000  C
  C61      1.0000 0.13837  0.72540  0.20767  Biso   1.000  C
  C62      1.0000 0.13844  0.72540  0.20767  Biso   1.000  C
  N29      1.0000 0.10673  0.77678  0.46957  Biso   1.000  N
  O15      1.0000 0.23211  0.84608  0.50809  Biso   1.000  O
  O16      1.0000 0.23217  0.84608  0.50809  Biso   1.000  O
  O17      1.0000 0.05623  0.00000  0.87495  Biso   1.000  O
  N30      1.0000 0.92158  0.94031  0.85610  Biso   1.000  N
  N31      1.0000 0.92165  0.94031  0.85610  Biso   1.000  N
  C63      1.0000 0.82610  0.95790  0.85497  Biso   1.000  C
  C64      1.0000 0.82617  0.95790  0.85497  Biso   1.000  C
  C65      1.0000 0.77689  0.07340  0.94886  Biso   1.000  C
  C66      1.0000 0.77695  0.07340  0.94886  Biso   1.000  C
  C67      1.0000 0.75207  0.00000  0.69810  Biso   1.000  C
  C68      1.0000 0.75214  0.00000  0.69810  Biso   1.000  C
  N32      1.0000 0.96937  0.77122  0.36333  Biso   1.000  N
  O18      1.0000 0.88278  0.83831  0.24233  Biso   1.000  O
  N33      1.0000 0.96937  0.77117  0.36333  Biso   1.000  N
  N34      1.0000 0.96944  0.77122  0.36333  Biso   1.000  N
  O19      1.0000 0.88284  0.83831  0.24233  Biso   1.000  O
  N35      1.0000 0.96944  0.77117  0.36333  Biso   1.000  N
  C69      1.0000 0.05903  0.66372  0.36847  Biso   1.000  C
  C70      1.0000 0.05903  0.66366  0.36847  Biso   1.000  C
  H75      1.0000 0.18602  0.69939  0.24546  Biso   1.000  H
  H76      1.0000 0.16361  0.74699  0.14460  Biso   1.000  H
  C71      1.0000 0.06720  0.67089  0.17067  Biso   1.000  C
  C72      1.0000 0.10260  0.74521  0.57557  Biso   1.000  C
  C73      1.0000 0.10267  0.74521  0.57557  Biso   1.000  C
  C74      1.0000 0.95778  0.86912  0.86781  Biso   1.000  C
  C75      1.0000 0.95778  0.86907  0.86781  Biso   1.000  C
  C76      1.0000 0.95785  0.86912  0.86781  Biso   1.000  C
  C77      1.0000 0.95785  0.86907  0.86781  Biso   1.000  C
  N36      1.0000 0.78051  0.93950  0.75291  Biso   1.000  N
  C78      1.0000 0.77689  0.92660  0.94886  Biso   1.000  C
  C79      1.0000 0.77695  0.92660  0.94886  Biso   1.000  C
  H77      1.0000 0.77023  0.12510  0.93955  Biso   1.000  H
  C80      1.0000 0.68362  0.03772  0.95576  Biso   1.000  C
  C81      1.0000 0.68362  0.03767  0.95576  Biso   1.000  C
  H78      1.0000 0.81123  0.06493  0.01498  Biso   1.000  H
  H79      1.0000 0.81123  0.06487  0.01498  Biso   1.000  H
  O20      1.0000 0.70421  0.00000  0.61818  Biso   1.000  O
  C82      1.0000 0.89739  0.74521  0.42440  Biso   1.000  C
  C83      1.0000 0.89746  0.74521  0.42440  Biso   1.000  C
  H80      1.0000 0.02158  0.64531  0.42416  Biso   1.000  H
  H81      1.0000 0.11914  0.64623  0.38372  Biso   1.000  H
  C84      1.0000 0.02623  0.63123  0.26127  Biso   1.000  C
  H82      1.0000 0.11914  0.64618  0.38372  Biso   1.000  H
  C85      1.0000 0.02623  0.63117  0.26127  Biso   1.000  C
  H83      1.0000 0.02165  0.64531  0.42416  Biso   1.000  H
  H84      1.0000 0.09399  0.63619  0.12309  Biso   1.000  H
  H85      1.0000 0.02061  0.69610  0.13007  Biso   1.000  H
  H86      1.0000 0.09406  0.63619  0.12309  Biso   1.000  H
  H87      1.0000 0.15829  0.75519  0.61481  Biso   1.000  H
  H88      1.0000 0.09720  0.69329  0.56835  Biso   1.000  H
  N37      1.0000 0.03062  0.77122  0.63672  Biso   1.000  N
  N38      1.0000 0.03062  0.77117  0.63672  Biso   1.000  N
  H89      1.0000 0.15836  0.75519  0.61481  Biso   1.000  H
  H90      1.0000 0.09727  0.69329  0.56835  Biso   1.000  H
  H91      1.0000 0.92073  0.84182  0.91556  Biso   1.000  H
  N39      1.0000 0.96418  0.82908  0.76679  Biso   1.000  N
  H92      1.0000 0.92073  0.84176  0.91556  Biso   1.000  H
  N40      1.0000 0.96425  0.82908  0.76679  Biso   1.000  N
  H93      1.0000 0.01693  0.87258  0.90135  Biso   1.000  H
  C86      1.0000 0.75561  0.86799  0.71776  Biso   1.000  C
  H94      1.0000 0.77023  0.87490  0.93955  Biso   1.000  H
  C87      1.0000 0.68362  0.96228  0.95576  Biso   1.000  C
  H95      1.0000 0.81123  0.93507  0.01498  Biso   1.000  H
  H96      1.0000 0.64664  0.05429  0.89550  Biso   1.000  H
  H97      1.0000 0.65631  0.05429  0.02075  Biso   1.000  H
  H98      1.0000 0.84170  0.75519  0.38516  Biso   1.000  H
  H99      1.0000 0.90279  0.69329  0.43162  Biso   1.000  H
  N41      1.0000 0.89333  0.77678  0.53040  Biso   1.000  N
  H100     1.0000 0.90286  0.69329  0.43162  Biso   1.000  H
  H101     1.0000 0.96169  0.63463  0.25477  Biso   1.000  H
  H102     1.0000 0.96169  0.63457  0.25477  Biso   1.000  H
  H103     1.0000 0.96176  0.63463  0.25477  Biso   1.000  H
  H104     1.0000 0.96176  0.63457  0.25477  Biso   1.000  H
  H105     1.0000 0.04250  0.58050  0.25846  Biso   1.000  H
  C88      1.0000 0.93953  0.74791  0.62292  Biso   1.000  C
  C89      1.0000 0.04411  0.81510  0.72338  Biso   1.000  C
  C90      1.0000 0.89332  0.78628  0.71937  Biso   1.000  C
  H106     1.0000 0.70342  0.87171  0.67010  Biso   1.000  H
  H107     1.0000 0.73882  0.84020  0.77987  Biso   1.000  H
  N42      1.0000 0.82332  0.82951  0.66392  Biso   1.000  N
  H108     1.0000 0.70342  0.87166  0.67010  Biso   1.000  H
  H109     1.0000 0.64664  0.94571  0.89550  Biso   1.000  H
  H110     1.0000 0.65631  0.94571  0.02075  Biso   1.000  H
  C91      1.0000 0.82313  0.82131  0.55615  Biso   1.000  C
  C92      1.0000 0.94103  0.66372  0.63150  Biso   1.000  C
  C93      1.0000 0.94103  0.66366  0.63150  Biso   1.000  C
  O21      1.0000 0.11722  0.83831  0.75772  Biso   1.000  O
  C94      1.0000 0.86162  0.72540  0.79231  Biso   1.000  C
  O22      1.0000 0.76789  0.84608  0.49188  Biso   1.000  O
  O23      1.0000 0.76795  0.84608  0.49188  Biso   1.000  O
  H111     1.0000 0.97841  0.64531  0.57581  Biso   1.000  H
  H112     1.0000 0.88092  0.64623  0.61626  Biso   1.000  H
  C95      1.0000 0.97382  0.63123  0.73870  Biso   1.000  C
  H113     1.0000 0.88092  0.64618  0.61626  Biso   1.000  H
  C96      1.0000 0.97382  0.63117  0.73870  Biso   1.000  C
  H114     1.0000 0.81403  0.69939  0.75451  Biso   1.000  H
  H115     1.0000 0.83638  0.74699  0.85538  Biso   1.000  H
  C97      1.0000 0.93279  0.67089  0.82930  Biso   1.000  C
  H116     1.0000 0.83645  0.74699  0.85538  Biso   1.000  H
  C98      1.0000 0.93286  0.67089  0.82930  Biso   1.000  C
  H117     1.0000 0.95749  0.58050  0.74151  Biso   1.000  H
  H118     1.0000 0.95756  0.58050  0.74151  Biso   1.000  H
  H119     1.0000 0.03830  0.63463  0.74520  Biso   1.000  H
  H120     1.0000 0.03830  0.63457  0.74520  Biso   1.000  H
  H121     1.0000 0.03837  0.63463  0.74520  Biso   1.000  H
  H122     1.0000 0.03837  0.63457  0.74520  Biso   1.000  H
  H123     1.0000 0.90600  0.63619  0.87688  Biso   1.000  H
  H124     1.0000 0.97939  0.69610  0.86990  Biso   1.000  H
  H125     1.0000 0.90607  0.63619  0.87688  Biso   1.000  H
  H126     1.0000 0.97945  0.69610  0.86990  Biso   1.000  H
  C99      1.0000 0.17693  0.17869  0.44382  Biso   1.000  C
  N43      1.0000 0.17668  0.17049  0.33613  Biso   1.000  N
  N44      1.0000 0.17675  0.17049  0.33613  Biso   1.000  N
  N45      1.0000 0.10673  0.22322  0.46957  Biso   1.000  N
  N46      1.0000 0.10673  0.22316  0.46957  Biso   1.000  N
  O24      1.0000 0.23211  0.15392  0.50809  Biso   1.000  O
  O25      1.0000 0.23211  0.15387  0.50809  Biso   1.000  O
  O26      1.0000 0.23217  0.15392  0.50809  Biso   1.000  O
  O27      1.0000 0.23217  0.15387  0.50809  Biso   1.000  O
  C100     1.0000 0.10674  0.21372  0.28060  Biso   1.000  C
  C101     1.0000 0.10674  0.21367  0.28060  Biso   1.000  C
  C102     1.0000 0.24439  0.13201  0.28221  Biso   1.000  C
  C103     1.0000 0.24439  0.13196  0.28221  Biso   1.000  C
  C104     1.0000 0.24445  0.13201  0.28221  Biso   1.000  C
  C105     1.0000 0.24445  0.13196  0.28221  Biso   1.000  C
  C106     1.0000 0.06053  0.25209  0.37706  Biso   1.000  C
  C107     1.0000 0.10260  0.25479  0.57557  Biso   1.000  C
  C108     1.0000 0.10267  0.25479  0.57557  Biso   1.000  C
  C109     1.0000 0.13844  0.27460  0.20767  Biso   1.000  C
  C110     1.0000 0.13837  0.27460  0.20767  Biso   1.000  C
  N47      1.0000 0.03581  0.17092  0.23318  Biso   1.000  N
  N48      1.0000 0.03581  0.17087  0.23318  Biso   1.000  N
  H127     1.0000 0.29664  0.12829  0.32987  Biso   1.000  H
  H128     1.0000 0.26124  0.15980  0.22010  Biso   1.000  H
  N49      1.0000 0.21949  0.06050  0.24706  Biso   1.000  N
  N50      1.0000 0.21955  0.06050  0.24706  Biso   1.000  N
  C111     1.0000 0.05903  0.33628  0.36847  Biso   1.000  C
  N51      1.0000 0.96937  0.22878  0.36333  Biso   1.000  N
  N52      1.0000 0.96944  0.22878  0.36333  Biso   1.000  N
  H129     1.0000 0.15829  0.24481  0.61481  Biso   1.000  H
  N53      1.0000 0.03062  0.22878  0.63672  Biso   1.000  N
  H130     1.0000 0.15836  0.24481  0.61481  Biso   1.000  H
  H131     1.0000 0.09720  0.30671  0.56835  Biso   1.000  H
  H132     1.0000 0.09720  0.30665  0.56835  Biso   1.000  H
  H133     1.0000 0.09727  0.30671  0.56835  Biso   1.000  H
  H134     1.0000 0.09727  0.30665  0.56835  Biso   1.000  H
  H135     1.0000 0.18602  0.30061  0.24546  Biso   1.000  H
  H136     1.0000 0.16361  0.25301  0.14460  Biso   1.000  H
  C112     1.0000 0.06720  0.32911  0.17067  Biso   1.000  C
  H137     1.0000 0.18602  0.30056  0.24546  Biso   1.000  H
  H138     1.0000 0.16361  0.25295  0.14460  Biso   1.000  H
  C113     1.0000 0.06720  0.32905  0.17067  Biso   1.000  C
  C114     1.0000 0.04221  0.13088  0.13216  Biso   1.000  C
  C115     1.0000 0.95588  0.18490  0.27659  Biso   1.000  C
  C116     1.0000 0.95595  0.18490  0.27659  Biso   1.000  C
  C117     1.0000 0.17389  0.04210  0.14500  Biso   1.000  C
  C118     1.0000 0.24792  0.00000  0.30187  Biso   1.000  C
  C119     1.0000 0.17396  0.04210  0.14500  Biso   1.000  C
  C120     1.0000 0.02623  0.36877  0.26127  Biso   1.000  C
  H139     1.0000 0.02158  0.35469  0.42416  Biso   1.000  H
  H140     1.0000 0.11914  0.35377  0.38372  Biso   1.000  H
  H141     1.0000 0.02165  0.35469  0.42416  Biso   1.000  H
  C121     1.0000 0.89739  0.25479  0.42440  Biso   1.000  C
  C122     1.0000 0.89746  0.25479  0.42440  Biso   1.000  C
  C123     1.0000 0.04411  0.18490  0.72338  Biso   1.000  C
  C124     1.0000 0.93953  0.25209  0.62292  Biso   1.000  C
  H142     1.0000 0.02061  0.30390  0.13007  Biso   1.000  H
  H143     1.0000 0.09399  0.36381  0.12309  Biso   1.000  H
  H144     1.0000 0.09399  0.36375  0.12309  Biso   1.000  H
  H145     1.0000 0.09406  0.36381  0.12309  Biso   1.000  H
  H146     1.0000 0.09406  0.36375  0.12309  Biso   1.000  H
  H147     1.0000 0.07933  0.15818  0.08441  Biso   1.000  H
  N54      1.0000 0.07841  0.05969  0.14387  Biso   1.000  N
  H148     1.0000 0.98313  0.12742  0.09862  Biso   1.000  H
  H149     1.0000 0.98313  0.12737  0.09862  Biso   1.000  H
  O28      1.0000 0.88278  0.16169  0.24233  Biso   1.000  O
  O29      1.0000 0.88284  0.16169  0.24233  Biso   1.000  O
  C125     1.0000 0.22311  0.07340  0.05111  Biso   1.000  C
  C126     1.0000 0.17389  0.95790  0.14500  Biso   1.000  C
  C127     1.0000 0.17396  0.95790  0.14500  Biso   1.000  C
  O30      1.0000 0.29578  0.00000  0.38179  Biso   1.000  O
  O31      1.0000 0.29585  0.00000  0.38179  Biso   1.000  O
  N55      1.0000 0.21949  0.93950  0.24706  Biso   1.000  N
  N56      1.0000 0.21955  0.93950  0.24706  Biso   1.000  N
  H150     1.0000 0.04250  0.41950  0.25846  Biso   1.000  H
  H151     1.0000 0.04250  0.41945  0.25846  Biso   1.000  H
  H152     1.0000 0.96169  0.36537  0.25477  Biso   1.000  H
  H153     1.0000 0.96176  0.36537  0.25477  Biso   1.000  H
  H154     1.0000 0.84170  0.24481  0.38516  Biso   1.000  H
  H155     1.0000 0.90279  0.30671  0.43162  Biso   1.000  H
  N57      1.0000 0.89333  0.22322  0.53040  Biso   1.000  N
  H156     1.0000 0.90279  0.30665  0.43162  Biso   1.000  H
  N58      1.0000 0.89333  0.22316  0.53040  Biso   1.000  N
  H157     1.0000 0.90286  0.30671  0.43162  Biso   1.000  H
  H158     1.0000 0.90286  0.30665  0.43162  Biso   1.000  H
  O32      1.0000 0.11722  0.16169  0.75772  Biso   1.000  O
  N59      1.0000 0.96418  0.17092  0.76679  Biso   1.000  N
  N60      1.0000 0.96418  0.17087  0.76679  Biso   1.000  N
  N61      1.0000 0.96425  0.17092  0.76679  Biso   1.000  N
  N62      1.0000 0.96425  0.17087  0.76679  Biso   1.000  N
  C128     1.0000 0.89332  0.21372  0.71937  Biso   1.000  C
  C129     1.0000 0.94103  0.33628  0.63150  Biso   1.000  C
  C130     1.0000 0.89332  0.21367  0.71937  Biso   1.000  C
  C131     1.0000 0.02523  0.00000  0.13561  Biso   1.000  C
  H159     1.0000 0.22983  0.12510  0.06042  Biso   1.000  H
  C132     1.0000 0.31643  0.03772  0.04421  Biso   1.000  C
  C133     1.0000 0.31643  0.03767  0.04421  Biso   1.000  C
  H160     1.0000 0.18883  0.06493  0.98499  Biso   1.000  H
  H161     1.0000 0.18883  0.06487  0.98499  Biso   1.000  H
  N63      1.0000 0.07841  0.94031  0.14387  Biso   1.000  N
  C134     1.0000 0.22311  0.92660  0.05111  Biso   1.000  C
  C135     1.0000 0.24439  0.86799  0.28221  Biso   1.000  C
  C136     1.0000 0.24445  0.86799  0.28221  Biso   1.000  C
  C137     1.0000 0.82313  0.17869  0.55615  Biso   1.000  C
  C138     1.0000 0.95778  0.13088  0.86781  Biso   1.000  C
  C139     1.0000 0.95785  0.13088  0.86781  Biso   1.000  C
  N64      1.0000 0.82332  0.17049  0.66392  Biso   1.000  N
  C140     1.0000 0.86162  0.27460  0.79231  Biso   1.000  C
  H162     1.0000 0.97841  0.35469  0.57581  Biso   1.000  H
  H163     1.0000 0.88092  0.35377  0.61626  Biso   1.000  H
  C141     1.0000 0.97382  0.36877  0.73870  Biso   1.000  C
  O33      1.0000 0.94383  0.00000  0.12502  Biso   1.000  O
  H164     1.0000 0.35342  0.05429  0.10447  Biso   1.000  H
  C142     1.0000 0.31643  0.96228  0.04421  Biso   1.000  C
  H165     1.0000 0.34369  0.05429  0.97922  Biso   1.000  H
  H166     1.0000 0.34375  0.05429  0.97922  Biso   1.000  H
  C143     1.0000 0.04221  0.86912  0.13216  Biso   1.000  C
  C144     1.0000 0.04221  0.86907  0.13216  Biso   1.000  C
  H167     1.0000 0.18883  0.93507  0.98499  Biso   1.000  H
  H168     1.0000 0.22983  0.87490  0.06042  Biso   1.000  H
  H169     1.0000 0.29664  0.87171  0.32987  Biso   1.000  H
  H170     1.0000 0.26124  0.84020  0.22010  Biso   1.000  H
  N65      1.0000 0.17668  0.82951  0.33613  Biso   1.000  N
  H171     1.0000 0.29664  0.87166  0.32987  Biso   1.000  H
  N66      1.0000 0.17675  0.82951  0.33613  Biso   1.000  N
  O34      1.0000 0.76789  0.15392  0.49188  Biso   1.000  O
  O35      1.0000 0.76789  0.15387  0.49188  Biso   1.000  O
  O36      1.0000 0.76795  0.15392  0.49188  Biso   1.000  O
  O37      1.0000 0.76795  0.15387  0.49188  Biso   1.000  O
  H172     1.0000 0.01693  0.12742  0.90135  Biso   1.000  H
  H173     1.0000 0.01693  0.12737  0.90135  Biso   1.000  H
  H174     1.0000 0.92073  0.15818  0.91556  Biso   1.000  H
  N67      1.0000 0.92158  0.05969  0.85610  Biso   1.000  N
  N68      1.0000 0.92165  0.05969  0.85610  Biso   1.000  N
  C145     1.0000 0.75561  0.13201  0.71776  Biso   1.000  C
  C146     1.0000 0.75561  0.13196  0.71776  Biso   1.000  C
  H175     1.0000 0.81403  0.30061  0.75451  Biso   1.000  H
  H176     1.0000 0.83638  0.25301  0.85538  Biso   1.000  H
  C147     1.0000 0.93279  0.32911  0.82930  Biso   1.000  C
  H177     1.0000 0.81403  0.30056  0.75451  Biso   1.000  H
  H178     1.0000 0.83638  0.25295  0.85538  Biso   1.000  H
  C148     1.0000 0.93279  0.32905  0.82930  Biso   1.000  C
  H179     1.0000 0.83645  0.25301  0.85538  Biso   1.000  H
  C149     1.0000 0.93286  0.32911  0.82930  Biso   1.000  C
  H180     1.0000 0.83645  0.25295  0.85538  Biso   1.000  H
  C150     1.0000 0.93286  0.32905  0.82930  Biso   1.000  C
  H181     1.0000 0.03830  0.36537  0.74520  Biso   1.000  H
  H182     1.0000 0.03837  0.36537  0.74520  Biso   1.000  H
  H183     1.0000 0.95749  0.41950  0.74151  Biso   1.000  H
  H184     1.0000 0.95749  0.41945  0.74151  Biso   1.000  H
  H185     1.0000 0.95756  0.41950  0.74151  Biso   1.000  H
  H186     1.0000 0.95756  0.41945  0.74151  Biso   1.000  H
  H187     1.0000 0.34369  0.94571  0.97922  Biso   1.000  H
  H188     1.0000 0.34375  0.94571  0.97922  Biso   1.000  H
  H189     1.0000 0.35342  0.94571  0.10447  Biso   1.000  H
  H190     1.0000 0.98313  0.87258  0.09862  Biso   1.000  H
  H191     1.0000 0.07933  0.84182  0.08441  Biso   1.000  H
  N69      1.0000 0.03581  0.82908  0.23318  Biso   1.000  N
  H192     1.0000 0.07933  0.84176  0.08441  Biso   1.000  H
  C151     1.0000 0.10674  0.78628  0.28060  Biso   1.000  C
  C152     1.0000 0.17693  0.82131  0.44382  Biso   1.000  C
  C153     1.0000 0.97483  0.00000  0.86436  Biso   1.000  C
  C154     1.0000 0.82610  0.04210  0.85497  Biso   1.000  C
  C155     1.0000 0.82617  0.04210  0.85497  Biso   1.000  C
  H193     1.0000 0.70342  0.12829  0.67010  Biso   1.000  H
  H194     1.0000 0.73882  0.15980  0.77987  Biso   1.000  H
  N70      1.0000 0.78051  0.06050  0.75291  Biso   1.000  N
  H195     1.0000 0.90600  0.36381  0.87688  Biso   1.000  H
  H196     1.0000 0.97939  0.30390  0.86990  Biso   1.000  H
  H197     1.0000 0.90600  0.36375  0.87688  Biso   1.000  H
  H198     1.0000 0.90607  0.36381  0.87688  Biso   1.000  H
  H199     1.0000 0.97945  0.30390  0.86990  Biso   1.000  H
  H200     1.0000 0.90607  0.36375  0.87688  Biso   1.000  H
  C156     1.0000 0.95588  0.81510  0.27659  Biso   1.000  C
  C157     1.0000 0.95595  0.81510  0.27659  Biso   1.000  C
  C158     1.0000 0.06053  0.74791  0.37706  Biso   1.000  C
  C159     1.0000 0.13837  0.72540  0.20767  Biso   1.000  C
  C160     1.0000 0.13844  0.72540  0.20767  Biso   1.000  C
  N71      1.0000 0.10673  0.77678  0.46957  Biso   1.000  N
  O38      1.0000 0.23211  0.84608  0.50809  Biso   1.000  O
  O39      1.0000 0.23217  0.84608  0.50809  Biso   1.000  O
  O40      1.0000 0.05623  0.00000  0.87495  Biso   1.000  O
  N72      1.0000 0.92158  0.94031  0.85610  Biso   1.000  N
  N73      1.0000 0.92165  0.94031  0.85610  Biso   1.000  N
  C161     1.0000 0.82610  0.95790  0.85497  Biso   1.000  C
  C162     1.0000 0.82617  0.95790  0.85497  Biso   1.000  C
  C163     1.0000 0.77689  0.07340  0.94886  Biso   1.000  C
  C164     1.0000 0.77695  0.07340  0.94886  Biso   1.000  C
  C165     1.0000 0.75207  0.00000  0.69810  Biso   1.000  C
  C166     1.0000 0.75214  0.00000  0.69810  Biso   1.000  C
  N74      1.0000 0.96937  0.77122  0.36333  Biso   1.000  N
  O41      1.0000 0.88278  0.83831  0.24233  Biso   1.000  O
  N75      1.0000 0.96937  0.77117  0.36333  Biso   1.000  N
  N76      1.0000 0.96944  0.77122  0.36333  Biso   1.000  N
  O42      1.0000 0.88284  0.83831  0.24233  Biso   1.000  O
  N77      1.0000 0.96944  0.77117  0.36333  Biso   1.000  N
  C167     1.0000 0.05903  0.66372  0.36847  Biso   1.000  C
  C168     1.0000 0.05903  0.66366  0.36847  Biso   1.000  C
  H201     1.0000 0.18602  0.69939  0.24546  Biso   1.000  H
  H202     1.0000 0.16361  0.74699  0.14460  Biso   1.000  H
  C169     1.0000 0.06720  0.67089  0.17067  Biso   1.000  C
  C170     1.0000 0.10260  0.74521  0.57557  Biso   1.000  C
  C171     1.0000 0.10267  0.74521  0.57557  Biso   1.000  C
  C172     1.0000 0.95778  0.86912  0.86781  Biso   1.000  C
  C173     1.0000 0.95778  0.86907  0.86781  Biso   1.000  C
  C174     1.0000 0.95785  0.86912  0.86781  Biso   1.000  C
  C175     1.0000 0.95785  0.86907  0.86781  Biso   1.000  C
  N78      1.0000 0.78051  0.93950  0.75291  Biso   1.000  N
  C176     1.0000 0.77689  0.92660  0.94886  Biso   1.000  C
  C177     1.0000 0.77695  0.92660  0.94886  Biso   1.000  C
  H203     1.0000 0.77023  0.12510  0.93955  Biso   1.000  H
  C178     1.0000 0.68362  0.03772  0.95576  Biso   1.000  C
  C179     1.0000 0.68362  0.03767  0.95576  Biso   1.000  C
  H204     1.0000 0.81123  0.06493  0.01498  Biso   1.000  H
  H205     1.0000 0.81123  0.06487  0.01498  Biso   1.000  H
  O43      1.0000 0.70421  0.00000  0.61818  Biso   1.000  O
  C180     1.0000 0.89739  0.74521  0.42440  Biso   1.000  C
  C181     1.0000 0.89746  0.74521  0.42440  Biso   1.000  C
  H206     1.0000 0.02158  0.64531  0.42416  Biso   1.000  H
  H207     1.0000 0.11914  0.64623  0.38372  Biso   1.000  H
  C182     1.0000 0.02623  0.63123  0.26127  Biso   1.000  C
  H208     1.0000 0.11914  0.64618  0.38372  Biso   1.000  H
  C183     1.0000 0.02623  0.63117  0.26127  Biso   1.000  C
  H209     1.0000 0.02165  0.64531  0.42416  Biso   1.000  H
  H210     1.0000 0.09399  0.63619  0.12309  Biso   1.000  H
  H211     1.0000 0.02061  0.69610  0.13007  Biso   1.000  H
  H212     1.0000 0.09406  0.63619  0.12309  Biso   1.000  H
  H213     1.0000 0.15829  0.75519  0.61481  Biso   1.000  H
  H214     1.0000 0.09720  0.69329  0.56835  Biso   1.000  H
  N79      1.0000 0.03062  0.77122  0.63672  Biso   1.000  N
  N80      1.0000 0.03062  0.77117  0.63672  Biso   1.000  N
  H215     1.0000 0.15836  0.75519  0.61481  Biso   1.000  H
  H216     1.0000 0.09727  0.69329  0.56835  Biso   1.000  H
  H217     1.0000 0.92073  0.84182  0.91556  Biso   1.000  H
  N81      1.0000 0.96418  0.82908  0.76679  Biso   1.000  N
  H218     1.0000 0.92073  0.84176  0.91556  Biso   1.000  H
  N82      1.0000 0.96425  0.82908  0.76679  Biso   1.000  N
  H219     1.0000 0.01693  0.87258  0.90135  Biso   1.000  H
  C184     1.0000 0.75561  0.86799  0.71776  Biso   1.000  C
  H220     1.0000 0.77023  0.87490  0.93955  Biso   1.000  H
  C185     1.0000 0.68362  0.96228  0.95576  Biso   1.000  C
  H221     1.0000 0.81123  0.93507  0.01498  Biso   1.000  H
  H222     1.0000 0.64664  0.05429  0.89550  Biso   1.000  H
  H223     1.0000 0.65631  0.05429  0.02075  Biso   1.000  H
  H224     1.0000 0.84170  0.75519  0.38516  Biso   1.000  H
  H225     1.0000 0.90279  0.69329  0.43162  Biso   1.000  H
  N83      1.0000 0.89333  0.77678  0.53040  Biso   1.000  N
  H226     1.0000 0.90286  0.69329  0.43162  Biso   1.000  H
  H227     1.0000 0.96169  0.63463  0.25477  Biso   1.000  H
  H228     1.0000 0.96169  0.63457  0.25477  Biso   1.000  H
  H229     1.0000 0.96176  0.63463  0.25477  Biso   1.000  H
  H230     1.0000 0.96176  0.63457  0.25477  Biso   1.000  H
  H231     1.0000 0.04250  0.58050  0.25846  Biso   1.000  H
  C186     1.0000 0.93953  0.74791  0.62292  Biso   1.000  C
  C187     1.0000 0.04411  0.81510  0.72338  Biso   1.000  C
  C188     1.0000 0.89332  0.78628  0.71937  Biso   1.000  C
  H232     1.0000 0.70342  0.87171  0.67010  Biso   1.000  H
  H233     1.0000 0.73882  0.84020  0.77987  Biso   1.000  H
  N84      1.0000 0.82332  0.82951  0.66392  Biso   1.000  N
  H234     1.0000 0.70342  0.87166  0.67010  Biso   1.000  H
  H235     1.0000 0.64664  0.94571  0.89550  Biso   1.000  H
  H236     1.0000 0.65631  0.94571  0.02075  Biso   1.000  H
  C189     1.0000 0.82313  0.82131  0.55615  Biso   1.000  C
  C190     1.0000 0.94103  0.66372  0.63150  Biso   1.000  C
  C191     1.0000 0.94103  0.66366  0.63150  Biso   1.000  C
  O44      1.0000 0.11722  0.83831  0.75772  Biso   1.000  O
  C192     1.0000 0.86162  0.72540  0.79231  Biso   1.000  C
  O45      1.0000 0.76789  0.84608  0.49188  Biso   1.000  O
  O46      1.0000 0.76795  0.84608  0.49188  Biso   1.000  O
  H237     1.0000 0.97841  0.64531  0.57581  Biso   1.000  H
  H238     1.0000 0.88092  0.64623  0.61626  Biso   1.000  H
  C193     1.0000 0.97382  0.63123  0.73870  Biso   1.000  C
  H239     1.0000 0.88092  0.64618  0.61626  Biso   1.000  H
  C194     1.0000 0.97382  0.63117  0.73870  Biso   1.000  C
  H240     1.0000 0.81403  0.69939  0.75451  Biso   1.000  H
  H241     1.0000 0.83638  0.74699  0.85538  Biso   1.000  H
  C195     1.0000 0.93279  0.67089  0.82930  Biso   1.000  C
  H242     1.0000 0.83645  0.74699  0.85538  Biso   1.000  H
  C196     1.0000 0.93286  0.67089  0.82930  Biso   1.000  C
  H243     1.0000 0.95749  0.58050  0.74151  Biso   1.000  H
  H244     1.0000 0.95756  0.58050  0.74151  Biso   1.000  H
  H245     1.0000 0.03830  0.63463  0.74520  Biso   1.000  H
  H246     1.0000 0.03830  0.63457  0.74520  Biso   1.000  H
  H247     1.0000 0.03837  0.63463  0.74520  Biso   1.000  H
  H248     1.0000 0.03837  0.63457  0.74520  Biso   1.000  H
  H249     1.0000 0.90600  0.63619  0.87688  Biso   1.000  H
  H250     1.0000 0.97939  0.69610  0.86990  Biso   1.000  H
  H251     1.0000 0.90607  0.63619  0.87688  Biso   1.000  H
  H252     1.0000 0.97945  0.69610  0.86990  Biso   1.000  H
  C197     1.0000 0.17693  0.17869  0.44382  Biso   1.000  C
  N85      1.0000 0.17668  0.17049  0.33613  Biso   1.000  N
  N86      1.0000 0.10673  0.22322  0.46957  Biso   1.000  N
  O47      1.0000 0.23211  0.15392  0.50809  Biso   1.000  O
  N87      1.0000 0.10673  0.22316  0.46957  Biso   1.000  N
  O48      1.0000 0.23211  0.15387  0.50809  Biso   1.000  O
  N88      1.0000 0.17675  0.17049  0.33613  Biso   1.000  N
  O49      1.0000 0.23217  0.15392  0.50809  Biso   1.000  O
  O50      1.0000 0.23217  0.15387  0.50809  Biso   1.000  O
  C198     1.0000 0.10674  0.21372  0.28060  Biso   1.000  C
  C199     1.0000 0.24439  0.13201  0.28221  Biso   1.000  C
  C200     1.0000 0.10674  0.21367  0.28060  Biso   1.000  C
  C201     1.0000 0.24439  0.13196  0.28221  Biso   1.000  C
  C202     1.0000 0.24445  0.13201  0.28221  Biso   1.000  C
  C203     1.0000 0.24445  0.13196  0.28221  Biso   1.000  C
  C204     1.0000 0.06053  0.25209  0.37706  Biso   1.000  C
  C205     1.0000 0.10260  0.25479  0.57557  Biso   1.000  C
  C206     1.0000 0.10267  0.25479  0.57557  Biso   1.000  C
  C207     1.0000 0.13837  0.27460  0.20767  Biso   1.000  C
  N89      1.0000 0.03581  0.17092  0.23318  Biso   1.000  N
  N90      1.0000 0.03581  0.17087  0.23318  Biso   1.000  N
  C208     1.0000 0.13844  0.27460  0.20767  Biso   1.000  C
  H253     1.0000 0.29664  0.12829  0.32987  Biso   1.000  H
  H254     1.0000 0.26124  0.15980  0.22010  Biso   1.000  H
  N91      1.0000 0.21949  0.06050  0.24706  Biso   1.000  N
  N92      1.0000 0.21955  0.06050  0.24706  Biso   1.000  N
  C209     1.0000 0.05903  0.33628  0.36847  Biso   1.000  C
  N93      1.0000 0.96937  0.22878  0.36333  Biso   1.000  N
  N94      1.0000 0.96944  0.22878  0.36333  Biso   1.000  N
  N95      1.0000 0.03062  0.22878  0.63672  Biso   1.000  N
  H255     1.0000 0.15829  0.24481  0.61481  Biso   1.000  H
  H256     1.0000 0.09720  0.30671  0.56835  Biso   1.000  H
  H257     1.0000 0.09720  0.30665  0.56835  Biso   1.000  H
  H258     1.0000 0.15836  0.24481  0.61481  Biso   1.000  H
  H259     1.0000 0.09727  0.30671  0.56835  Biso   1.000  H
  H260     1.0000 0.09727  0.30665  0.56835  Biso   1.000  H
  H261     1.0000 0.18602  0.30061  0.24546  Biso   1.000  H
  H262     1.0000 0.16361  0.25301  0.14460  Biso   1.000  H
  C210     1.0000 0.06720  0.32911  0.17067  Biso   1.000  C
  H263     1.0000 0.18602  0.30056  0.24546  Biso   1.000  H
  H264     1.0000 0.16361  0.25295  0.14460  Biso   1.000  H
  C211     1.0000 0.06720  0.32905  0.17067  Biso   1.000  C
  C212     1.0000 0.04221  0.13088  0.13216  Biso   1.000  C
  C213     1.0000 0.95588  0.18490  0.27659  Biso   1.000  C
  C214     1.0000 0.95595  0.18490  0.27659  Biso   1.000  C
  C215     1.0000 0.24792  0.00000  0.30187  Biso   1.000  C
  C216     1.0000 0.17389  0.04210  0.14500  Biso   1.000  C
  C217     1.0000 0.17396  0.04210  0.14500  Biso   1.000  C
  H265     1.0000 0.11914  0.35377  0.38372  Biso   1.000  H
  C218     1.0000 0.02623  0.36877  0.26127  Biso   1.000  C
  H266     1.0000 0.02158  0.35469  0.42416  Biso   1.000  H
  H267     1.0000 0.02165  0.35469  0.42416  Biso   1.000  H
  C219     1.0000 0.89739  0.25479  0.42440  Biso   1.000  C
  C220     1.0000 0.89746  0.25479  0.42440  Biso   1.000  C
  C221     1.0000 0.04411  0.18490  0.72338  Biso   1.000  C
  C222     1.0000 0.93953  0.25209  0.62292  Biso   1.000  C
  H268     1.0000 0.02061  0.30390  0.13007  Biso   1.000  H
  H269     1.0000 0.09399  0.36381  0.12309  Biso   1.000  H
  H270     1.0000 0.09399  0.36375  0.12309  Biso   1.000  H
  H271     1.0000 0.09406  0.36381  0.12309  Biso   1.000  H
  H272     1.0000 0.09406  0.36375  0.12309  Biso   1.000  H
  H273     1.0000 0.07933  0.15818  0.08441  Biso   1.000  H
  N96      1.0000 0.07841  0.05969  0.14387  Biso   1.000  N
  H274     1.0000 0.98313  0.12742  0.09862  Biso   1.000  H
  H275     1.0000 0.98313  0.12737  0.09862  Biso   1.000  H
  O51      1.0000 0.88278  0.16169  0.24233  Biso   1.000  O
  O52      1.0000 0.88284  0.16169  0.24233  Biso   1.000  O
  N97      1.0000 0.21949  0.93950  0.24706  Biso   1.000  N
  N98      1.0000 0.21955  0.93950  0.24706  Biso   1.000  N
  O53      1.0000 0.29578  0.00000  0.38179  Biso   1.000  O
  O54      1.0000 0.29585  0.00000  0.38179  Biso   1.000  O
  C223     1.0000 0.22311  0.07340  0.05111  Biso   1.000  C
  C224     1.0000 0.17389  0.95790  0.14500  Biso   1.000  C
  C225     1.0000 0.17396  0.95790  0.14500  Biso   1.000  C
  H276     1.0000 0.96169  0.36537  0.25477  Biso   1.000  H
  H277     1.0000 0.96176  0.36537  0.25477  Biso   1.000  H
  H278     1.0000 0.04250  0.41950  0.25846  Biso   1.000  H
  H279     1.0000 0.04250  0.41945  0.25846  Biso   1.000  H
  H280     1.0000 0.84170  0.24481  0.38516  Biso   1.000  H
  H281     1.0000 0.90279  0.30671  0.43162  Biso   1.000  H
  N99      1.0000 0.89333  0.22322  0.53040  Biso   1.000  N
  H282     1.0000 0.90279  0.30665  0.43162  Biso   1.000  H
  N100     1.0000 0.89333  0.22316  0.53040  Biso   1.000  N
  H283     1.0000 0.90286  0.30671  0.43162  Biso   1.000  H
  H284     1.0000 0.90286  0.30665  0.43162  Biso   1.000  H
  O55      1.0000 0.11722  0.16169  0.75772  Biso   1.000  O
  N101     1.0000 0.96418  0.17092  0.76679  Biso   1.000  N
  N102     1.0000 0.96418  0.17087  0.76679  Biso   1.000  N
  N103     1.0000 0.96425  0.17092  0.76679  Biso   1.000  N
  N104     1.0000 0.96425  0.17087  0.76679  Biso   1.000  N
  C226     1.0000 0.89332  0.21372  0.71937  Biso   1.000  C
  C227     1.0000 0.94103  0.33628  0.63150  Biso   1.000  C
  C228     1.0000 0.89332  0.21367  0.71937  Biso   1.000  C
  C229     1.0000 0.02523  0.00000  0.13561  Biso   1.000  C
  C230     1.0000 0.24439  0.86799  0.28221  Biso   1.000  C
  C231     1.0000 0.24445  0.86799  0.28221  Biso   1.000  C
  H285     1.0000 0.22983  0.12510  0.06042  Biso   1.000  H
  H286     1.0000 0.18883  0.06493  0.98499  Biso   1.000  H
  H287     1.0000 0.18883  0.06487  0.98499  Biso   1.000  H
  C232     1.0000 0.31643  0.03772  0.04421  Biso   1.000  C
  C233     1.0000 0.31643  0.03767  0.04421  Biso   1.000  C
  C234     1.0000 0.22311  0.92660  0.05111  Biso   1.000  C
  N105     1.0000 0.07841  0.94031  0.14387  Biso   1.000  N
  C235     1.0000 0.82313  0.17869  0.55615  Biso   1.000  C
  C236     1.0000 0.95778  0.13088  0.86781  Biso   1.000  C
  C237     1.0000 0.95785  0.13088  0.86781  Biso   1.000  C
  C238     1.0000 0.86162  0.27460  0.79231  Biso   1.000  C
  N106     1.0000 0.82332  0.17049  0.66392  Biso   1.000  N
  H288     1.0000 0.97841  0.35469  0.57581  Biso   1.000  H
  H289     1.0000 0.88092  0.35377  0.61626  Biso   1.000  H
  C239     1.0000 0.97382  0.36877  0.73870  Biso   1.000  C
  O56      1.0000 0.94383  0.00000  0.12502  Biso   1.000  O
  H290     1.0000 0.29664  0.87171  0.32987  Biso   1.000  H
  H291     1.0000 0.26124  0.84020  0.22010  Biso   1.000  H
  N107     1.0000 0.17668  0.82951  0.33613  Biso   1.000  N
  H292     1.0000 0.29664  0.87166  0.32987  Biso   1.000  H
  N108     1.0000 0.17675  0.82951  0.33613  Biso   1.000  N
  H293     1.0000 0.35342  0.05429  0.10447  Biso   1.000  H
  C240     1.0000 0.31643  0.96228  0.04421  Biso   1.000  C
  H294     1.0000 0.34369  0.05429  0.97922  Biso   1.000  H
  H295     1.0000 0.34375  0.05429  0.97922  Biso   1.000  H
  H296     1.0000 0.18883  0.93507  0.98499  Biso   1.000  H
  H297     1.0000 0.22983  0.87490  0.06042  Biso   1.000  H
  C241     1.0000 0.04221  0.86912  0.13216  Biso   1.000  C
  C242     1.0000 0.04221  0.86907  0.13216  Biso   1.000  C
  O57      1.0000 0.76789  0.15392  0.49188  Biso   1.000  O
  O58      1.0000 0.76789  0.15387  0.49188  Biso   1.000  O
  O59      1.0000 0.76795  0.15392  0.49188  Biso   1.000  O
  O60      1.0000 0.76795  0.15387  0.49188  Biso   1.000  O
  H298     1.0000 0.92073  0.15818  0.91556  Biso   1.000  H
  N109     1.0000 0.92158  0.05969  0.85610  Biso   1.000  N
  N110     1.0000 0.92165  0.05969  0.85610  Biso   1.000  N
  H299     1.0000 0.01693  0.12742  0.90135  Biso   1.000  H
  H300     1.0000 0.01693  0.12737  0.90135  Biso   1.000  H
  H301     1.0000 0.81403  0.30061  0.75451  Biso   1.000  H
  H302     1.0000 0.83638  0.25301  0.85538  Biso   1.000  H
  C243     1.0000 0.93279  0.32911  0.82930  Biso   1.000  C
  H303     1.0000 0.81403  0.30056  0.75451  Biso   1.000  H
  H304     1.0000 0.83638  0.25295  0.85538  Biso   1.000  H
  C244     1.0000 0.93279  0.32905  0.82930  Biso   1.000  C
  H305     1.0000 0.83645  0.25301  0.85538  Biso   1.000  H
  C245     1.0000 0.93286  0.32911  0.82930  Biso   1.000  C
  H306     1.0000 0.83645  0.25295  0.85538  Biso   1.000  H
  C246     1.0000 0.93286  0.32905  0.82930  Biso   1.000  C
  C247     1.0000 0.75561  0.13201  0.71776  Biso   1.000  C
  C248     1.0000 0.75561  0.13196  0.71776  Biso   1.000  C
  H307     1.0000 0.95749  0.41950  0.74151  Biso   1.000  H
  H308     1.0000 0.95749  0.41945  0.74151  Biso   1.000  H
  H309     1.0000 0.95756  0.41950  0.74151  Biso   1.000  H
  H310     1.0000 0.95756  0.41945  0.74151  Biso   1.000  H
  H311     1.0000 0.03830  0.36537  0.74520  Biso   1.000  H
  H312     1.0000 0.03837  0.36537  0.74520  Biso   1.000  H
  C249     1.0000 0.10674  0.78628  0.28060  Biso   1.000  C
  C250     1.0000 0.17693  0.82131  0.44382  Biso   1.000  C
  H313     1.0000 0.34369  0.94571  0.97922  Biso   1.000  H
  H314     1.0000 0.34375  0.94571  0.97922  Biso   1.000  H
  H315     1.0000 0.35342  0.94571  0.10447  Biso   1.000  H
  H316     1.0000 0.98313  0.87258  0.09862  Biso   1.000  H
  H317     1.0000 0.07933  0.84182  0.08441  Biso   1.000  H
  N111     1.0000 0.03581  0.82908  0.23318  Biso   1.000  N
  H318     1.0000 0.07933  0.84176  0.08441  Biso   1.000  H
  C251     1.0000 0.97483  0.00000  0.86436  Biso   1.000  C
  C252     1.0000 0.82610  0.04210  0.85497  Biso   1.000  C
  C253     1.0000 0.82617  0.04210  0.85497  Biso   1.000  C
  H319     1.0000 0.90600  0.36381  0.87688  Biso   1.000  H
  H320     1.0000 0.97939  0.30390  0.86990  Biso   1.000  H
  H321     1.0000 0.90600  0.36375  0.87688  Biso   1.000  H
  H322     1.0000 0.90607  0.36381  0.87688  Biso   1.000  H
  H323     1.0000 0.97945  0.30390  0.86990  Biso   1.000  H
  H324     1.0000 0.90607  0.36375  0.87688  Biso   1.000  H
  H325     1.0000 0.70342  0.12829  0.67010  Biso   1.000  H
  H326     1.0000 0.73882  0.15980  0.77987  Biso   1.000  H
  N112     1.0000 0.78051  0.06050  0.75291  Biso   1.000  N
  C254     1.0000 0.06053  0.74791  0.37706  Biso   1.000  C
  C255     1.0000 0.13837  0.72540  0.20767  Biso   1.000  C
  C256     1.0000 0.13844  0.72540  0.20767  Biso   1.000  C
  N113     1.0000 0.10673  0.77678  0.46957  Biso   1.000  N
  O61      1.0000 0.23211  0.84608  0.50809  Biso   1.000  O
  O62      1.0000 0.23217  0.84608  0.50809  Biso   1.000  O
  C257     1.0000 0.95588  0.81510  0.27659  Biso   1.000  C
  C258     1.0000 0.95595  0.81510  0.27659  Biso   1.000  C
  O63      1.0000 0.05623  0.00000  0.87495  Biso   1.000  O
  N114     1.0000 0.92158  0.94031  0.85610  Biso   1.000  N
  N115     1.0000 0.92165  0.94031  0.85610  Biso   1.000  N
  C259     1.0000 0.82610  0.95790  0.85497  Biso   1.000  C
  C260     1.0000 0.82617  0.95790  0.85497  Biso   1.000  C
  C261     1.0000 0.77689  0.07340  0.94886  Biso   1.000  C
  C262     1.0000 0.77695  0.07340  0.94886  Biso   1.000  C
  C263     1.0000 0.75207  0.00000  0.69810  Biso   1.000  C
  C264     1.0000 0.75214  0.00000  0.69810  Biso   1.000  C
  N116     1.0000 0.96937  0.77122  0.36333  Biso   1.000  N
  N117     1.0000 0.96937  0.77117  0.36333  Biso   1.000  N
  N118     1.0000 0.96944  0.77122  0.36333  Biso   1.000  N
  N119     1.0000 0.96944  0.77117  0.36333  Biso   1.000  N
  C265     1.0000 0.05903  0.66372  0.36847  Biso   1.000  C
  C266     1.0000 0.05903  0.66366  0.36847  Biso   1.000  C
  H327     1.0000 0.18602  0.69939  0.24546  Biso   1.000  H
  H328     1.0000 0.16361  0.74699  0.14460  Biso   1.000  H
  C267     1.0000 0.06720  0.67089  0.17067  Biso   1.000  C
  C268     1.0000 0.10260  0.74521  0.57557  Biso   1.000  C
  C269     1.0000 0.10267  0.74521  0.57557  Biso   1.000  C
  O64      1.0000 0.88278  0.83831  0.24233  Biso   1.000  O
  O65      1.0000 0.88284  0.83831  0.24233  Biso   1.000  O
  C270     1.0000 0.95778  0.86912  0.86781  Biso   1.000  C
  C271     1.0000 0.95778  0.86907  0.86781  Biso   1.000  C
  C272     1.0000 0.95785  0.86912  0.86781  Biso   1.000  C
  C273     1.0000 0.95785  0.86907  0.86781  Biso   1.000  C
  C274     1.0000 0.77689  0.92660  0.94886  Biso   1.000  C
  N120     1.0000 0.78051  0.93950  0.75291  Biso   1.000  N
  C275     1.0000 0.77695  0.92660  0.94886  Biso   1.000  C
  H329     1.0000 0.77023  0.12510  0.93955  Biso   1.000  H
  C276     1.0000 0.68362  0.03772  0.95576  Biso   1.000  C
  C277     1.0000 0.68362  0.03767  0.95576  Biso   1.000  C
  H330     1.0000 0.81123  0.06493  0.01498  Biso   1.000  H
  H331     1.0000 0.81123  0.06487  0.01498  Biso   1.000  H
  O66      1.0000 0.70421  0.00000  0.61818  Biso   1.000  O
  C278     1.0000 0.89739  0.74521  0.42440  Biso   1.000  C
  C279     1.0000 0.89746  0.74521  0.42440  Biso   1.000  C
  H332     1.0000 0.02158  0.64531  0.42416  Biso   1.000  H
  H333     1.0000 0.11914  0.64623  0.38372  Biso   1.000  H
  C280     1.0000 0.02623  0.63123  0.26127  Biso   1.000  C
  H334     1.0000 0.11914  0.64618  0.38372  Biso   1.000  H
  C281     1.0000 0.02623  0.63117  0.26127  Biso   1.000  C
  H335     1.0000 0.02165  0.64531  0.42416  Biso   1.000  H
  H336     1.0000 0.09399  0.63619  0.12309  Biso   1.000  H
  H337     1.0000 0.02061  0.69610  0.13007  Biso   1.000  H
  H338     1.0000 0.09406  0.63619  0.12309  Biso   1.000  H
  H339     1.0000 0.15829  0.75519  0.61481  Biso   1.000  H
  H340     1.0000 0.09720  0.69329  0.56835  Biso   1.000  H
  N121     1.0000 0.03062  0.77122  0.63672  Biso   1.000  N
  N122     1.0000 0.03062  0.77117  0.63672  Biso   1.000  N
  H341     1.0000 0.15836  0.75519  0.61481  Biso   1.000  H
  H342     1.0000 0.09727  0.69329  0.56835  Biso   1.000  H
  H343     1.0000 0.92073  0.84182  0.91556  Biso   1.000  H
  N123     1.0000 0.96418  0.82908  0.76679  Biso   1.000  N
  H344     1.0000 0.92073  0.84176  0.91556  Biso   1.000  H
  N124     1.0000 0.96425  0.82908  0.76679  Biso   1.000  N
  H345     1.0000 0.01693  0.87258  0.90135  Biso   1.000  H
  H346     1.0000 0.77023  0.87490  0.93955  Biso   1.000  H
  C282     1.0000 0.68362  0.96228  0.95576  Biso   1.000  C
  H347     1.0000 0.81123  0.93507  0.01498  Biso   1.000  H
  C283     1.0000 0.75561  0.86799  0.71776  Biso   1.000  C
  H348     1.0000 0.64664  0.05429  0.89550  Biso   1.000  H
  H349     1.0000 0.65631  0.05429  0.02075  Biso   1.000  H
  H350     1.0000 0.84170  0.75519  0.38516  Biso   1.000  H
  H351     1.0000 0.90279  0.69329  0.43162  Biso   1.000  H
  N125     1.0000 0.89333  0.77678  0.53040  Biso   1.000  N
  H352     1.0000 0.90286  0.69329  0.43162  Biso   1.000  H
  H353     1.0000 0.96169  0.63463  0.25477  Biso   1.000  H
  H354     1.0000 0.96169  0.63457  0.25477  Biso   1.000  H
  H355     1.0000 0.96176  0.63463  0.25477  Biso   1.000  H
  H356     1.0000 0.96176  0.63457  0.25477  Biso   1.000  H
  H357     1.0000 0.04250  0.58050  0.25846  Biso   1.000  H
  C284     1.0000 0.93953  0.74791  0.62292  Biso   1.000  C
  C285     1.0000 0.04411  0.81510  0.72338  Biso   1.000  C
  C286     1.0000 0.89332  0.78628  0.71937  Biso   1.000  C
  H358     1.0000 0.64664  0.94571  0.89550  Biso   1.000  H
  H359     1.0000 0.65631  0.94571  0.02075  Biso   1.000  H
  H360     1.0000 0.70342  0.87171  0.67010  Biso   1.000  H
  H361     1.0000 0.73882  0.84020  0.77987  Biso   1.000  H
  N126     1.0000 0.82332  0.82951  0.66392  Biso   1.000  N
  H362     1.0000 0.70342  0.87166  0.67010  Biso   1.000  H
  C287     1.0000 0.82313  0.82131  0.55615  Biso   1.000  C
  C288     1.0000 0.94103  0.66372  0.63150  Biso   1.000  C
  C289     1.0000 0.94103  0.66366  0.63150  Biso   1.000  C
  O67      1.0000 0.11722  0.83831  0.75772  Biso   1.000  O
  C290     1.0000 0.86162  0.72540  0.79231  Biso   1.000  C
  O68      1.0000 0.76789  0.84608  0.49188  Biso   1.000  O
  O69      1.0000 0.76795  0.84608  0.49188  Biso   1.000  O
  H363     1.0000 0.97841  0.64531  0.57581  Biso   1.000  H
  H364     1.0000 0.88092  0.64623  0.61626  Biso   1.000  H
  C291     1.0000 0.97382  0.63123  0.73870  Biso   1.000  C
  H365     1.0000 0.88092  0.64618  0.61626  Biso   1.000  H
  C292     1.0000 0.97382  0.63117  0.73870  Biso   1.000  C
  H366     1.0000 0.81403  0.69939  0.75451  Biso   1.000  H
  H367     1.0000 0.83638  0.74699  0.85538  Biso   1.000  H
  C293     1.0000 0.93279  0.67089  0.82930  Biso   1.000  C
  H368     1.0000 0.83645  0.74699  0.85538  Biso   1.000  H
  C294     1.0000 0.93286  0.67089  0.82930  Biso   1.000  C
  H369     1.0000 0.95749  0.58050  0.74151  Biso   1.000  H
  H370     1.0000 0.95756  0.58050  0.74151  Biso   1.000  H
  H371     1.0000 0.03830  0.63463  0.74520  Biso   1.000  H
  H372     1.0000 0.03830  0.63457  0.74520  Biso   1.000  H
  H373     1.0000 0.03837  0.63463  0.74520  Biso   1.000  H
  H374     1.0000 0.03837  0.63457  0.74520  Biso   1.000  H
  H375     1.0000 0.90600  0.63619  0.87688  Biso   1.000  H
  H376     1.0000 0.97939  0.69610  0.86990  Biso   1.000  H
  H377     1.0000 0.90607  0.63619  0.87688  Biso   1.000  H
  H378     1.0000 0.97945  0.69610  0.86990  Biso   1.000  H
  C295     1.0000 0.17693  0.17869  0.44382  Biso   1.000  C
  N127     1.0000 0.17668  0.17049  0.33613  Biso   1.000  N
  N128     1.0000 0.10673  0.22322  0.46957  Biso   1.000  N
  O70      1.0000 0.23211  0.15392  0.50809  Biso   1.000  O
  N129     1.0000 0.10673  0.22316  0.46957  Biso   1.000  N
  O71      1.0000 0.23211  0.15387  0.50809  Biso   1.000  O
  N130     1.0000 0.17675  0.17049  0.33613  Biso   1.000  N
  O72      1.0000 0.23217  0.15392  0.50809  Biso   1.000  O
  O73      1.0000 0.23217  0.15387  0.50809  Biso   1.000  O
  C296     1.0000 0.10674  0.21372  0.28060  Biso   1.000  C
  C297     1.0000 0.24439  0.13201  0.28221  Biso   1.000  C
  C298     1.0000 0.10674  0.21367  0.28060  Biso   1.000  C
  C299     1.0000 0.24439  0.13196  0.28221  Biso   1.000  C
  C300     1.0000 0.24445  0.13201  0.28221  Biso   1.000  C
  C301     1.0000 0.24445  0.13196  0.28221  Biso   1.000  C
  C302     1.0000 0.06053  0.25209  0.37706  Biso   1.000  C
  C303     1.0000 0.10260  0.25479  0.57557  Biso   1.000  C
  C304     1.0000 0.10267  0.25479  0.57557  Biso   1.000  C
  C305     1.0000 0.13837  0.27460  0.20767  Biso   1.000  C
  N131     1.0000 0.03581  0.17092  0.23318  Biso   1.000  N
  N132     1.0000 0.03581  0.17087  0.23318  Biso   1.000  N
  C306     1.0000 0.13844  0.27460  0.20767  Biso   1.000  C
  H379     1.0000 0.29664  0.12829  0.32987  Biso   1.000  H
  H380     1.0000 0.26124  0.15980  0.22010  Biso   1.000  H
  N133     1.0000 0.21949  0.06050  0.24706  Biso   1.000  N
  N134     1.0000 0.21955  0.06050  0.24706  Biso   1.000  N
  C307     1.0000 0.05903  0.33628  0.36847  Biso   1.000  C
  N135     1.0000 0.96937  0.22878  0.36333  Biso   1.000  N
  N136     1.0000 0.96944  0.22878  0.36333  Biso   1.000  N
  N137     1.0000 0.03062  0.22878  0.63672  Biso   1.000  N
  H381     1.0000 0.15829  0.24481  0.61481  Biso   1.000  H
  H382     1.0000 0.09720  0.30671  0.56835  Biso   1.000  H
  H383     1.0000 0.09720  0.30665  0.56835  Biso   1.000  H
  H384     1.0000 0.15836  0.24481  0.61481  Biso   1.000  H
  H385     1.0000 0.09727  0.30671  0.56835  Biso   1.000  H
  H386     1.0000 0.09727  0.30665  0.56835  Biso   1.000  H
  H387     1.0000 0.18602  0.30061  0.24546  Biso   1.000  H
  H388     1.0000 0.16361  0.25301  0.14460  Biso   1.000  H
  C308     1.0000 0.06720  0.32911  0.17067  Biso   1.000  C
  H389     1.0000 0.18602  0.30056  0.24546  Biso   1.000  H
  H390     1.0000 0.16361  0.25295  0.14460  Biso   1.000  H
  C309     1.0000 0.06720  0.32905  0.17067  Biso   1.000  C
  C310     1.0000 0.04221  0.13088  0.13216  Biso   1.000  C
  C311     1.0000 0.95588  0.18490  0.27659  Biso   1.000  C
  C312     1.0000 0.95595  0.18490  0.27659  Biso   1.000  C
  C313     1.0000 0.24792  0.00000  0.30187  Biso   1.000  C
  C314     1.0000 0.17389  0.04210  0.14500  Biso   1.000  C
  C315     1.0000 0.17396  0.04210  0.14500  Biso   1.000  C
  H391     1.0000 0.11914  0.35377  0.38372  Biso   1.000  H
  C316     1.0000 0.02623  0.36877  0.26127  Biso   1.000  C
  H392     1.0000 0.02158  0.35469  0.42416  Biso   1.000  H
  H393     1.0000 0.02165  0.35469  0.42416  Biso   1.000  H
  C317     1.0000 0.89739  0.25479  0.42440  Biso   1.000  C
  C318     1.0000 0.89746  0.25479  0.42440  Biso   1.000  C
  C319     1.0000 0.04411  0.18490  0.72338  Biso   1.000  C
  C320     1.0000 0.93953  0.25209  0.62292  Biso   1.000  C
  H394     1.0000 0.02061  0.30390  0.13007  Biso   1.000  H
  H395     1.0000 0.09399  0.36381  0.12309  Biso   1.000  H
  H396     1.0000 0.09399  0.36375  0.12309  Biso   1.000  H
  H397     1.0000 0.09406  0.36381  0.12309  Biso   1.000  H
  H398     1.0000 0.09406  0.36375  0.12309  Biso   1.000  H
  H399     1.0000 0.07933  0.15818  0.08441  Biso   1.000  H
  N138     1.0000 0.07841  0.05969  0.14387  Biso   1.000  N
  H400     1.0000 0.98313  0.12742  0.09862  Biso   1.000  H
  H401     1.0000 0.98313  0.12737  0.09862  Biso   1.000  H
  O74      1.0000 0.88278  0.16169  0.24233  Biso   1.000  O
  O75      1.0000 0.88284  0.16169  0.24233  Biso   1.000  O
  N139     1.0000 0.21949  0.93950  0.24706  Biso   1.000  N
  N140     1.0000 0.21955  0.93950  0.24706  Biso   1.000  N
  O76      1.0000 0.29578  0.00000  0.38179  Biso   1.000  O
  O77      1.0000 0.29585  0.00000  0.38179  Biso   1.000  O
  C321     1.0000 0.22311  0.07340  0.05111  Biso   1.000  C
  C322     1.0000 0.17389  0.95790  0.14500  Biso   1.000  C
  C323     1.0000 0.17396  0.95790  0.14500  Biso   1.000  C
  H402     1.0000 0.96169  0.36537  0.25477  Biso   1.000  H
  H403     1.0000 0.96176  0.36537  0.25477  Biso   1.000  H
  H404     1.0000 0.04250  0.41950  0.25846  Biso   1.000  H
  H405     1.0000 0.04250  0.41945  0.25846  Biso   1.000  H
  H406     1.0000 0.84170  0.24481  0.38516  Biso   1.000  H
  H407     1.0000 0.90279  0.30671  0.43162  Biso   1.000  H
  N141     1.0000 0.89333  0.22322  0.53040  Biso   1.000  N
  H408     1.0000 0.90279  0.30665  0.43162  Biso   1.000  H
  N142     1.0000 0.89333  0.22316  0.53040  Biso   1.000  N
  H409     1.0000 0.90286  0.30671  0.43162  Biso   1.000  H
  H410     1.0000 0.90286  0.30665  0.43162  Biso   1.000  H
  O78      1.0000 0.11722  0.16169  0.75772  Biso   1.000  O
  N143     1.0000 0.96418  0.17092  0.76679  Biso   1.000  N
  N144     1.0000 0.96418  0.17087  0.76679  Biso   1.000  N
  N145     1.0000 0.96425  0.17092  0.76679  Biso   1.000  N
  N146     1.0000 0.96425  0.17087  0.76679  Biso   1.000  N
  C324     1.0000 0.89332  0.21372  0.71937  Biso   1.000  C
  C325     1.0000 0.94103  0.33628  0.63150  Biso   1.000  C
  C326     1.0000 0.89332  0.21367  0.71937  Biso   1.000  C
  C327     1.0000 0.02523  0.00000  0.13561  Biso   1.000  C
  C328     1.0000 0.24439  0.86799  0.28221  Biso   1.000  C
  C329     1.0000 0.24445  0.86799  0.28221  Biso   1.000  C
  H411     1.0000 0.22983  0.12510  0.06042  Biso   1.000  H
  H412     1.0000 0.18883  0.06493  0.98499  Biso   1.000  H
  H413     1.0000 0.18883  0.06487  0.98499  Biso   1.000  H
  C330     1.0000 0.31643  0.03772  0.04421  Biso   1.000  C
  C331     1.0000 0.31643  0.03767  0.04421  Biso   1.000  C
  C332     1.0000 0.22311  0.92660  0.05111  Biso   1.000  C
  N147     1.0000 0.07841  0.94031  0.14387  Biso   1.000  N
  C333     1.0000 0.82313  0.17869  0.55615  Biso   1.000  C
  C334     1.0000 0.95778  0.13088  0.86781  Biso   1.000  C
  C335     1.0000 0.95785  0.13088  0.86781  Biso   1.000  C
  C336     1.0000 0.86162  0.27460  0.79231  Biso   1.000  C
  N148     1.0000 0.82332  0.17049  0.66392  Biso   1.000  N
  H414     1.0000 0.97841  0.35469  0.57581  Biso   1.000  H
  H415     1.0000 0.88092  0.35377  0.61626  Biso   1.000  H
  C337     1.0000 0.97382  0.36877  0.73870  Biso   1.000  C
  O79      1.0000 0.94383  0.00000  0.12502  Biso   1.000  O
  H416     1.0000 0.29664  0.87171  0.32987  Biso   1.000  H
  H417     1.0000 0.26124  0.84020  0.22010  Biso   1.000  H
  N149     1.0000 0.17668  0.82951  0.33613  Biso   1.000  N
  H418     1.0000 0.29664  0.87166  0.32987  Biso   1.000  H
  N150     1.0000 0.17675  0.82951  0.33613  Biso   1.000  N
  H419     1.0000 0.35342  0.05429  0.10447  Biso   1.000  H
  C338     1.0000 0.31643  0.96228  0.04421  Biso   1.000  C
  H420     1.0000 0.34369  0.05429  0.97922  Biso   1.000  H
  H421     1.0000 0.34375  0.05429  0.97922  Biso   1.000  H
  H422     1.0000 0.18883  0.93507  0.98499  Biso   1.000  H
  H423     1.0000 0.22983  0.87490  0.06042  Biso   1.000  H
  C339     1.0000 0.04221  0.86912  0.13216  Biso   1.000  C
  C340     1.0000 0.04221  0.86907  0.13216  Biso   1.000  C
  O80      1.0000 0.76789  0.15392  0.49188  Biso   1.000  O
  O81      1.0000 0.76789  0.15387  0.49188  Biso   1.000  O
  O82      1.0000 0.76795  0.15392  0.49188  Biso   1.000  O
  O83      1.0000 0.76795  0.15387  0.49188  Biso   1.000  O
  H424     1.0000 0.92073  0.15818  0.91556  Biso   1.000  H
  N151     1.0000 0.92158  0.05969  0.85610  Biso   1.000  N
  N152     1.0000 0.92165  0.05969  0.85610  Biso   1.000  N
  H425     1.0000 0.01693  0.12742  0.90135  Biso   1.000  H
  H426     1.0000 0.01693  0.12737  0.90135  Biso   1.000  H
  H427     1.0000 0.81403  0.30061  0.75451  Biso   1.000  H
  H428     1.0000 0.83638  0.25301  0.85538  Biso   1.000  H
  C341     1.0000 0.93279  0.32911  0.82930  Biso   1.000  C
  H429     1.0000 0.81403  0.30056  0.75451  Biso   1.000  H
  H430     1.0000 0.83638  0.25295  0.85538  Biso   1.000  H
  C342     1.0000 0.93279  0.32905  0.82930  Biso   1.000  C
  H431     1.0000 0.83645  0.25301  0.85538  Biso   1.000  H
  C343     1.0000 0.93286  0.32911  0.82930  Biso   1.000  C
  H432     1.0000 0.83645  0.25295  0.85538  Biso   1.000  H
  C344     1.0000 0.93286  0.32905  0.82930  Biso   1.000  C
  C345     1.0000 0.75561  0.13201  0.71776  Biso   1.000  C
  C346     1.0000 0.75561  0.13196  0.71776  Biso   1.000  C
  H433     1.0000 0.95749  0.41950  0.74151  Biso   1.000  H
  H434     1.0000 0.95749  0.41945  0.74151  Biso   1.000  H
  H435     1.0000 0.95756  0.41950  0.74151  Biso   1.000  H
  H436     1.0000 0.95756  0.41945  0.74151  Biso   1.000  H
  H437     1.0000 0.03830  0.36537  0.74520  Biso   1.000  H
  H438     1.0000 0.03837  0.36537  0.74520  Biso   1.000  H
  C347     1.0000 0.10674  0.78628  0.28060  Biso   1.000  C
  C348     1.0000 0.17693  0.82131  0.44382  Biso   1.000  C
  H439     1.0000 0.34369  0.94571  0.97922  Biso   1.000  H
  H440     1.0000 0.34375  0.94571  0.97922  Biso   1.000  H
  H441     1.0000 0.35342  0.94571  0.10447  Biso   1.000  H
  H442     1.0000 0.98313  0.87258  0.09862  Biso   1.000  H
  H443     1.0000 0.07933  0.84182  0.08441  Biso   1.000  H
  N153     1.0000 0.03581  0.82908  0.23318  Biso   1.000  N
  H444     1.0000 0.07933  0.84176  0.08441  Biso   1.000  H
  C349     1.0000 0.97483  0.00000  0.86436  Biso   1.000  C
  C350     1.0000 0.82610  0.04210  0.85497  Biso   1.000  C
  C351     1.0000 0.82617  0.04210  0.85497  Biso   1.000  C
  H445     1.0000 0.90600  0.36381  0.87688  Biso   1.000  H
  H446     1.0000 0.97939  0.30390  0.86990  Biso   1.000  H
  H447     1.0000 0.90600  0.36375  0.87688  Biso   1.000  H
  H448     1.0000 0.90607  0.36381  0.87688  Biso   1.000  H
  H449     1.0000 0.97945  0.30390  0.86990  Biso   1.000  H
  H450     1.0000 0.90607  0.36375  0.87688  Biso   1.000  H
  H451     1.0000 0.70342  0.12829  0.67010  Biso   1.000  H
  H452     1.0000 0.73882  0.15980  0.77987  Biso   1.000  H
  N154     1.0000 0.78051  0.06050  0.75291  Biso   1.000  N
  C352     1.0000 0.06053  0.74791  0.37706  Biso   1.000  C
  C353     1.0000 0.13837  0.72540  0.20767  Biso   1.000  C
  C354     1.0000 0.13844  0.72540  0.20767  Biso   1.000  C
  N155     1.0000 0.10673  0.77678  0.46957  Biso   1.000  N
  O84      1.0000 0.23211  0.84608  0.50809  Biso   1.000  O
  O85      1.0000 0.23217  0.84608  0.50809  Biso   1.000  O
  C355     1.0000 0.95588  0.81510  0.27659  Biso   1.000  C
  C356     1.0000 0.95595  0.81510  0.27659  Biso   1.000  C
  O86      1.0000 0.05623  0.00000  0.87495  Biso   1.000  O
  N156     1.0000 0.92158  0.94031  0.85610  Biso   1.000  N
  N157     1.0000 0.92165  0.94031  0.85610  Biso   1.000  N
  C357     1.0000 0.82610  0.95790  0.85497  Biso   1.000  C
  C358     1.0000 0.82617  0.95790  0.85497  Biso   1.000  C
  C359     1.0000 0.77689  0.07340  0.94886  Biso   1.000  C
  C360     1.0000 0.77695  0.07340  0.94886  Biso   1.000  C
  C361     1.0000 0.75207  0.00000  0.69810  Biso   1.000  C
  C362     1.0000 0.75214  0.00000  0.69810  Biso   1.000  C
  N158     1.0000 0.96937  0.77122  0.36333  Biso   1.000  N
  N159     1.0000 0.96937  0.77117  0.36333  Biso   1.000  N
  N160     1.0000 0.96944  0.77122  0.36333  Biso   1.000  N
  N161     1.0000 0.96944  0.77117  0.36333  Biso   1.000  N
  C363     1.0000 0.05903  0.66372  0.36847  Biso   1.000  C
  C364     1.0000 0.05903  0.66366  0.36847  Biso   1.000  C
  H453     1.0000 0.18602  0.69939  0.24546  Biso   1.000  H
  H454     1.0000 0.16361  0.74699  0.14460  Biso   1.000  H
  C365     1.0000 0.06720  0.67089  0.17067  Biso   1.000  C
  C366     1.0000 0.10260  0.74521  0.57557  Biso   1.000  C
  C367     1.0000 0.10267  0.74521  0.57557  Biso   1.000  C
  O87      1.0000 0.88278  0.83831  0.24233  Biso   1.000  O
  O88      1.0000 0.88284  0.83831  0.24233  Biso   1.000  O
  C368     1.0000 0.95778  0.86912  0.86781  Biso   1.000  C
  C369     1.0000 0.95778  0.86907  0.86781  Biso   1.000  C
  C370     1.0000 0.95785  0.86912  0.86781  Biso   1.000  C
  C371     1.0000 0.95785  0.86907  0.86781  Biso   1.000  C
  C372     1.0000 0.77689  0.92660  0.94886  Biso   1.000  C
  N162     1.0000 0.78051  0.93950  0.75291  Biso   1.000  N
  C373     1.0000 0.77695  0.92660  0.94886  Biso   1.000  C
  H455     1.0000 0.77023  0.12510  0.93955  Biso   1.000  H
  C374     1.0000 0.68362  0.03772  0.95576  Biso   1.000  C
  C375     1.0000 0.68362  0.03767  0.95576  Biso   1.000  C
  H456     1.0000 0.81123  0.06493  0.01498  Biso   1.000  H
  H457     1.0000 0.81123  0.06487  0.01498  Biso   1.000  H
  O89      1.0000 0.70421  0.00000  0.61818  Biso   1.000  O
  C376     1.0000 0.89739  0.74521  0.42440  Biso   1.000  C
  C377     1.0000 0.89746  0.74521  0.42440  Biso   1.000  C
  H458     1.0000 0.02158  0.64531  0.42416  Biso   1.000  H
  H459     1.0000 0.11914  0.64623  0.38372  Biso   1.000  H
  C378     1.0000 0.02623  0.63123  0.26127  Biso   1.000  C
  H460     1.0000 0.11914  0.64618  0.38372  Biso   1.000  H
  C379     1.0000 0.02623  0.63117  0.26127  Biso   1.000  C
  H461     1.0000 0.02165  0.64531  0.42416  Biso   1.000  H
  H462     1.0000 0.09399  0.63619  0.12309  Biso   1.000  H
  H463     1.0000 0.02061  0.69610  0.13007  Biso   1.000  H
  H464     1.0000 0.09406  0.63619  0.12309  Biso   1.000  H
  H465     1.0000 0.15829  0.75519  0.61481  Biso   1.000  H
  H466     1.0000 0.09720  0.69329  0.56835  Biso   1.000  H
  N163     1.0000 0.03062  0.77122  0.63672  Biso   1.000  N
  N164     1.0000 0.03062  0.77117  0.63672  Biso   1.000  N
  H467     1.0000 0.15836  0.75519  0.61481  Biso   1.000  H
  H468     1.0000 0.09727  0.69329  0.56835  Biso   1.000  H
  H469     1.0000 0.92073  0.84182  0.91556  Biso   1.000  H
  N165     1.0000 0.96418  0.82908  0.76679  Biso   1.000  N
  H470     1.0000 0.92073  0.84176  0.91556  Biso   1.000  H
  N166     1.0000 0.96425  0.82908  0.76679  Biso   1.000  N
  H471     1.0000 0.01693  0.87258  0.90135  Biso   1.000  H
  H472     1.0000 0.77023  0.87490  0.93955  Biso   1.000  H
  C380     1.0000 0.68362  0.96228  0.95576  Biso   1.000  C
  H473     1.0000 0.81123  0.93507  0.01498  Biso   1.000  H
  C381     1.0000 0.75561  0.86799  0.71776  Biso   1.000  C
  H474     1.0000 0.64664  0.05429  0.89550  Biso   1.000  H
  H475     1.0000 0.65631  0.05429  0.02075  Biso   1.000  H
  H476     1.0000 0.84170  0.75519  0.38516  Biso   1.000  H
  H477     1.0000 0.90279  0.69329  0.43162  Biso   1.000  H
  N167     1.0000 0.89333  0.77678  0.53040  Biso   1.000  N
  H478     1.0000 0.90286  0.69329  0.43162  Biso   1.000  H
  H479     1.0000 0.96169  0.63463  0.25477  Biso   1.000  H
  H480     1.0000 0.96169  0.63457  0.25477  Biso   1.000  H
  H481     1.0000 0.96176  0.63463  0.25477  Biso   1.000  H
  H482     1.0000 0.96176  0.63457  0.25477  Biso   1.000  H
  H483     1.0000 0.04250  0.58050  0.25846  Biso   1.000  H
  C382     1.0000 0.93953  0.74791  0.62292  Biso   1.000  C
  C383     1.0000 0.04411  0.81510  0.72338  Biso   1.000  C
  C384     1.0000 0.89332  0.78628  0.71937  Biso   1.000  C
  H484     1.0000 0.64664  0.94571  0.89550  Biso   1.000  H
  H485     1.0000 0.65631  0.94571  0.02075  Biso   1.000  H
  H486     1.0000 0.70342  0.87171  0.67010  Biso   1.000  H
  H487     1.0000 0.73882  0.84020  0.77987  Biso   1.000  H
  N168     1.0000 0.82332  0.82951  0.66392  Biso   1.000  N
  H488     1.0000 0.70342  0.87166  0.67010  Biso   1.000  H
  C385     1.0000 0.82313  0.82131  0.55615  Biso   1.000  C
  C386     1.0000 0.94103  0.66372  0.63150  Biso   1.000  C
  C387     1.0000 0.94103  0.66366  0.63150  Biso   1.000  C
  O90      1.0000 0.11722  0.83831  0.75772  Biso   1.000  O
  C388     1.0000 0.86162  0.72540  0.79231  Biso   1.000  C
  O91      1.0000 0.76789  0.84608  0.49188  Biso   1.000  O
  O92      1.0000 0.76795  0.84608  0.49188  Biso   1.000  O
  H489     1.0000 0.97841  0.64531  0.57581  Biso   1.000  H
  H490     1.0000 0.88092  0.64623  0.61626  Biso   1.000  H
  C389     1.0000 0.97382  0.63123  0.73870  Biso   1.000  C
  H491     1.0000 0.88092  0.64618  0.61626  Biso   1.000  H
  C390     1.0000 0.97382  0.63117  0.73870  Biso   1.000  C
  H492     1.0000 0.81403  0.69939  0.75451  Biso   1.000  H
  H493     1.0000 0.83638  0.74699  0.85538  Biso   1.000  H
  C391     1.0000 0.93279  0.67089  0.82930  Biso   1.000  C
  H494     1.0000 0.83645  0.74699  0.85538  Biso   1.000  H
  C392     1.0000 0.93286  0.67089  0.82930  Biso   1.000  C
  H495     1.0000 0.95749  0.58050  0.74151  Biso   1.000  H
  H496     1.0000 0.95756  0.58050  0.74151  Biso   1.000  H
  H497     1.0000 0.03830  0.63463  0.74520  Biso   1.000  H
  H498     1.0000 0.03830  0.63457  0.74520  Biso   1.000  H
  H499     1.0000 0.03837  0.63463  0.74520  Biso   1.000  H
  H500     1.0000 0.03837  0.63457  0.74520  Biso   1.000  H
  H501     1.0000 0.90600  0.63619  0.87688  Biso   1.000  H
  H502     1.0000 0.97939  0.69610  0.86990  Biso   1.000  H
  H503     1.0000 0.90607  0.63619  0.87688  Biso   1.000  H
  H504     1.0000 0.97945  0.69610  0.86990  Biso   1.000  H
  O93      1.0000 0.26789  0.34611  0.49188  Biso   1.000  O
  C393     1.0000 0.32313  0.32128  0.55615  Biso   1.000  C
  N169     1.0000 0.39333  0.27681  0.53040  Biso   1.000  N
  N170     1.0000 0.32332  0.32948  0.66392  Biso   1.000  N
  C394     1.0000 0.39739  0.24518  0.42440  Biso   1.000  C
  C395     1.0000 0.43953  0.24788  0.62292  Biso   1.000  C
  C396     1.0000 0.39332  0.28631  0.71937  Biso   1.000  C
  C397     1.0000 0.25561  0.36802  0.71776  Biso   1.000  C
  N171     1.0000 0.46944  0.27120  0.36333  Biso   1.000  N
  H505     1.0000 0.34170  0.25522  0.38516  Biso   1.000  H
  H506     1.0000 0.40279  0.19332  0.43162  Biso   1.000  H
  C398     1.0000 0.44103  0.16369  0.63150  Biso   1.000  C
  N172     1.0000 0.53062  0.27120  0.63672  Biso   1.000  N
  C399     1.0000 0.36162  0.22538  0.79231  Biso   1.000  C
  N173     1.0000 0.46425  0.32911  0.76679  Biso   1.000  N
  H507     1.0000 0.20342  0.37169  0.67010  Biso   1.000  H
  H508     1.0000 0.23882  0.34017  0.77987  Biso   1.000  H
  N174     1.0000 0.28051  0.43947  0.75291  Biso   1.000  N
  C400     1.0000 0.45595  0.31507  0.27659  Biso   1.000  C
  C401     1.0000 0.56053  0.24788  0.37706  Biso   1.000  C
  H509     1.0000 0.47841  0.14529  0.57581  Biso   1.000  H
  H510     1.0000 0.38092  0.14620  0.61626  Biso   1.000  H
  C402     1.0000 0.47382  0.13120  0.73870  Biso   1.000  C
  C403     1.0000 0.60260  0.24518  0.57557  Biso   1.000  C
  C404     1.0000 0.54411  0.31507  0.72338  Biso   1.000  C
  H511     1.0000 0.31403  0.19942  0.75451  Biso   1.000  H
  H512     1.0000 0.33645  0.24702  0.85538  Biso   1.000  H
  C405     1.0000 0.43279  0.17092  0.82930  Biso   1.000  C
  C406     1.0000 0.45785  0.36910  0.86781  Biso   1.000  C
  C407     1.0000 0.32610  0.45788  0.85497  Biso   1.000  C
  C408     1.0000 0.25214  0.49997  0.69810  Biso   1.000  C
  O94      1.0000 0.38284  0.33828  0.24233  Biso   1.000  O
  N175     1.0000 0.53581  0.32911  0.23318  Biso   1.000  N
  C409     1.0000 0.60674  0.28631  0.28060  Biso   1.000  C
  C410     1.0000 0.55903  0.16369  0.36847  Biso   1.000  C
  N176     1.0000 0.60673  0.27681  0.46957  Biso   1.000  N
  H513     1.0000 0.53830  0.13460  0.74520  Biso   1.000  H
  H514     1.0000 0.45749  0.08052  0.74151  Biso   1.000  H
  H515     1.0000 0.65829  0.25522  0.61481  Biso   1.000  H
  H516     1.0000 0.59720  0.19332  0.56835  Biso   1.000  H
  O95      1.0000 0.61722  0.33828  0.75772  Biso   1.000  O
  H517     1.0000 0.40600  0.13622  0.87688  Biso   1.000  H
  H518     1.0000 0.47945  0.19607  0.86990  Biso   1.000  H
  H519     1.0000 0.51693  0.37261  0.90135  Biso   1.000  H
  H520     1.0000 0.42073  0.34179  0.91556  Biso   1.000  H
  N177     1.0000 0.42165  0.44028  0.85610  Biso   1.000  N
  C411     1.0000 0.32610  0.54207  0.85497  Biso   1.000  C
  C412     1.0000 0.27695  0.42657  0.94886  Biso   1.000  C
  N178     1.0000 0.28051  0.56047  0.75291  Biso   1.000  N
  O96      1.0000 0.20421  0.49997  0.61818  Biso   1.000  O
  C413     1.0000 0.54221  0.36910  0.13216  Biso   1.000  C
  C414     1.0000 0.63844  0.22538  0.20767  Biso   1.000  C
  N179     1.0000 0.67675  0.32948  0.33613  Biso   1.000  N
  H521     1.0000 0.52165  0.14529  0.42416  Biso   1.000  H
  H522     1.0000 0.61914  0.14620  0.38372  Biso   1.000  H
  C415     1.0000 0.52623  0.13120  0.26127  Biso   1.000  C
  C416     1.0000 0.67693  0.32128  0.44382  Biso   1.000  C
  C417     1.0000 0.47483  0.49997  0.86436  Biso   1.000  C
  N180     1.0000 0.42165  0.55972  0.85610  Biso   1.000  N
  C418     1.0000 0.27695  0.57337  0.94886  Biso   1.000  C
  H523     1.0000 0.27023  0.37487  0.93955  Biso   1.000  H
  C419     1.0000 0.18362  0.46230  0.95576  Biso   1.000  C
  H524     1.0000 0.31123  0.43510  0.01498  Biso   1.000  H
  C420     1.0000 0.25561  0.63198  0.71776  Biso   1.000  C
  H525     1.0000 0.48313  0.37261  0.09862  Biso   1.000  H
  H526     1.0000 0.57933  0.34179  0.08441  Biso   1.000  H
  N181     1.0000 0.57841  0.44028  0.14387  Biso   1.000  N
  H527     1.0000 0.68602  0.19942  0.24546  Biso   1.000  H
  H528     1.0000 0.66361  0.24702  0.14460  Biso   1.000  H
  C421     1.0000 0.56720  0.17092  0.17067  Biso   1.000  C
  C422     1.0000 0.74445  0.36802  0.28221  Biso   1.000  C
  H529     1.0000 0.46169  0.13460  0.25477  Biso   1.000  H
  H530     1.0000 0.54250  0.08052  0.25846  Biso   1.000  H
  O97      1.0000 0.73211  0.34611  0.50809  Biso   1.000  O
  O98      1.0000 0.55623  0.49997  0.87495  Biso   1.000  O
  C423     1.0000 0.45785  0.63090  0.86781  Biso   1.000  C
  H531     1.0000 0.27023  0.62507  0.93955  Biso   1.000  H
  C424     1.0000 0.18362  0.53770  0.95576  Biso   1.000  C
  H532     1.0000 0.31123  0.56490  0.01498  Biso   1.000  H
  H533     1.0000 0.14664  0.44568  0.89550  Biso   1.000  H
  H534     1.0000 0.15631  0.44568  0.02075  Biso   1.000  H
  H535     1.0000 0.20342  0.62831  0.67010  Biso   1.000  H
  H536     1.0000 0.23882  0.65978  0.77987  Biso   1.000  H
  N182     1.0000 0.32332  0.67046  0.66392  Biso   1.000  N
  C425     1.0000 0.52523  0.49997  0.13561  Biso   1.000  C
  C426     1.0000 0.67389  0.45788  0.14500  Biso   1.000  C
  H537     1.0000 0.59399  0.13622  0.12309  Biso   1.000  H
  H538     1.0000 0.52061  0.19607  0.13007  Biso   1.000  H
  H539     1.0000 0.79664  0.37169  0.32987  Biso   1.000  H
  H540     1.0000 0.76124  0.34017  0.22010  Biso   1.000  H
  N183     1.0000 0.71955  0.43947  0.24706  Biso   1.000  N
  H541     1.0000 0.51693  0.62739  0.90135  Biso   1.000  H
  H542     1.0000 0.42073  0.65821  0.91556  Biso   1.000  H
  N184     1.0000 0.46425  0.67089  0.76679  Biso   1.000  N
  H543     1.0000 0.14664  0.55427  0.89550  Biso   1.000  H
  H544     1.0000 0.15631  0.55427  0.02075  Biso   1.000  H
  C427     1.0000 0.32313  0.67867  0.55615  Biso   1.000  C
  C428     1.0000 0.39332  0.71369  0.71937  Biso   1.000  C
  N185     1.0000 0.57841  0.55972  0.14387  Biso   1.000  N
  O99      1.0000 0.44383  0.49997  0.12502  Biso   1.000  O
  C429     1.0000 0.67389  0.54207  0.14500  Biso   1.000  C
  C430     1.0000 0.72311  0.42657  0.05111  Biso   1.000  C
  C431     1.0000 0.74792  0.49997  0.30187  Biso   1.000  C
  C432     1.0000 0.54411  0.68487  0.72338  Biso   1.000  C
  N186     1.0000 0.39333  0.72319  0.53040  Biso   1.000  N
  O100     1.0000 0.26789  0.65389  0.49188  Biso   1.000  O
  C433     1.0000 0.43953  0.75206  0.62292  Biso   1.000  C
  C434     1.0000 0.36162  0.77457  0.79231  Biso   1.000  C
  C435     1.0000 0.54221  0.63090  0.13216  Biso   1.000  C
  C436     1.0000 0.72311  0.57337  0.05111  Biso   1.000  C
  N187     1.0000 0.71955  0.56047  0.24706  Biso   1.000  N
  H545     1.0000 0.72983  0.37487  0.06042  Biso   1.000  H
  C437     1.0000 0.81643  0.46230  0.04421  Biso   1.000  C
  H546     1.0000 0.68883  0.43510  0.98499  Biso   1.000  H
  O101     1.0000 0.79585  0.49997  0.38179  Biso   1.000  O
  N188     1.0000 0.53062  0.72880  0.63672  Biso   1.000  N
  O102     1.0000 0.61722  0.66167  0.75772  Biso   1.000  O
  C438     1.0000 0.39739  0.75476  0.42440  Biso   1.000  C
  C439     1.0000 0.44103  0.83631  0.63150  Biso   1.000  C
  H547     1.0000 0.31403  0.80058  0.75451  Biso   1.000  H
  H548     1.0000 0.33645  0.75298  0.85538  Biso   1.000  H
  C440     1.0000 0.43279  0.82908  0.82930  Biso   1.000  C
  H549     1.0000 0.48313  0.62739  0.09862  Biso   1.000  H
  H550     1.0000 0.57933  0.65821  0.08441  Biso   1.000  H
  N189     1.0000 0.53581  0.67089  0.23318  Biso   1.000  N
  H551     1.0000 0.72983  0.62507  0.06042  Biso   1.000  H
  C441     1.0000 0.81643  0.53770  0.04421  Biso   1.000  C
  H552     1.0000 0.68883  0.56490  0.98499  Biso   1.000  H
  C442     1.0000 0.74445  0.63198  0.28221  Biso   1.000  C
  H553     1.0000 0.85342  0.44568  0.10447  Biso   1.000  H
  H554     1.0000 0.84375  0.44568  0.97922  Biso   1.000  H
  C443     1.0000 0.60260  0.75476  0.57557  Biso   1.000  C
  N190     1.0000 0.46944  0.72880  0.36333  Biso   1.000  N
  H555     1.0000 0.34170  0.74478  0.38516  Biso   1.000  H
  H556     1.0000 0.40279  0.80668  0.43162  Biso   1.000  H
  H557     1.0000 0.47841  0.85466  0.57581  Biso   1.000  H
  H558     1.0000 0.38092  0.85380  0.61626  Biso   1.000  H
  C444     1.0000 0.47382  0.86880  0.73870  Biso   1.000  C
  H559     1.0000 0.40600  0.86378  0.87688  Biso   1.000  H
  H560     1.0000 0.47945  0.80388  0.86990  Biso   1.000  H
  C445     1.0000 0.45595  0.68487  0.27659  Biso   1.000  C
  C446     1.0000 0.60674  0.71369  0.28060  Biso   1.000  C
  H561     1.0000 0.85342  0.55427  0.10447  Biso   1.000  H
  H562     1.0000 0.84375  0.55427  0.97922  Biso   1.000  H
  H563     1.0000 0.79664  0.62831  0.32987  Biso   1.000  H
  H564     1.0000 0.76124  0.65978  0.22010  Biso   1.000  H
  N191     1.0000 0.67675  0.67046  0.33613  Biso   1.000  N
  N192     1.0000 0.60673  0.72319  0.46957  Biso   1.000  N
  H565     1.0000 0.65829  0.74478  0.61481  Biso   1.000  H
  H566     1.0000 0.59720  0.80668  0.56835  Biso   1.000  H
  C447     1.0000 0.56053  0.75206  0.37706  Biso   1.000  C
  H567     1.0000 0.53830  0.86540  0.74520  Biso   1.000  H
  H568     1.0000 0.45749  0.91948  0.74151  Biso   1.000  H
  O103     1.0000 0.38284  0.66167  0.24233  Biso   1.000  O
  C448     1.0000 0.63844  0.77457  0.20767  Biso   1.000  C
  C449     1.0000 0.67693  0.67867  0.44382  Biso   1.000  C
  C450     1.0000 0.55903  0.83631  0.36847  Biso   1.000  C
  H569     1.0000 0.68602  0.80058  0.24546  Biso   1.000  H
  H570     1.0000 0.66361  0.75298  0.14460  Biso   1.000  H
  C451     1.0000 0.56720  0.82908  0.17067  Biso   1.000  C
  O104     1.0000 0.73211  0.65389  0.50809  Biso   1.000  O
  H571     1.0000 0.52165  0.85466  0.42416  Biso   1.000  H
  H572     1.0000 0.61914  0.85380  0.38372  Biso   1.000  H
  C452     1.0000 0.52623  0.86880  0.26127  Biso   1.000  C
  H573     1.0000 0.59399  0.86378  0.12309  Biso   1.000  H
  H574     1.0000 0.52061  0.80388  0.13007  Biso   1.000  H
  H575     1.0000 0.46169  0.86540  0.25477  Biso   1.000  H
  H576     1.0000 0.54250  0.91948  0.25846  Biso   1.000  H
