data_image0
_cell_length_a       39.709
_cell_length_b       39.709
_cell_length_c       39.724
_cell_angle_alpha    90
_cell_angle_beta     90
_cell_angle_gamma    90

_symmetry_space_group_name_H-M    "P 1"
_symmetry_int_tables_number       1

loop_
  _symmetry_equiv_pos_as_xyz
  'x, y, z'

loop_
  _atom_site_label
  _atom_site_occupancy
  _atom_site_fract_x
  _atom_site_fract_y
  _atom_site_fract_z
  _atom_site_thermal_displace_type
  _atom_site_B_iso_or_equiv
  _atom_site_type_symbol
  C1       1.0000 0.55267  0.44151  0.51621  Biso   1.000  C
  C2       1.0000 0.56030  0.41721  0.49174  Biso   1.000  C
  C3       1.0000 0.52872  0.43340  0.53995  Biso   1.000  C
  H1       1.0000 0.56360  0.46279  0.51639  Biso   1.000  H
  C4       1.0000 0.58385  0.42663  0.46445  Biso   1.000  C
  C5       1.0000 0.54592  0.38631  0.49242  Biso   1.000  C
  C6       1.0000 0.51253  0.40235  0.54093  Biso   1.000  C
  H2       1.0000 0.52300  0.44980  0.55639  Biso   1.000  H
  C7       1.0000 0.60150  0.43519  0.44084  Biso   1.000  C
  C8       1.0000 0.52200  0.37949  0.51659  Biso   1.000  C
  H3       1.0000 0.55219  0.36959  0.47649  Biso   1.000  H
  C9       1.0000 0.48236  0.39787  0.56472  Biso   1.000  C
  C10      1.0000 0.62089  0.44491  0.41310  Biso   1.000  C
  H4       1.0000 0.51150  0.35800  0.51649  Biso   1.000  H
  C11      1.0000 0.46957  0.36123  0.56593  Biso   1.000  C
  C12      1.0000 0.49130  0.40610  0.60175  Biso   1.000  C
  C13      1.0000 0.45582  0.42237  0.55052  Biso   1.000  C
  C14      1.0000 0.61518  0.42985  0.38231  Biso   1.000  C
  C15      1.0000 0.64514  0.46989  0.41615  Biso   1.000  C
  C16      1.0000 0.43728  0.35206  0.55969  Biso   1.000  C
  C17      1.0000 0.49203  0.33577  0.57557  Biso   1.000  C
  C18      1.0000 0.46556  0.40666  0.62529  Biso   1.000  C
  C19      1.0000 0.52280  0.40840  0.61308  Biso   1.000  C
  C20      1.0000 0.44290  0.41618  0.51843  Biso   1.000  C
  C21      1.0000 0.44635  0.45237  0.56497  Biso   1.000  C
  C22      1.0000 0.63361  0.43899  0.35460  Biso   1.000  C
  H5       1.0000 0.59830  0.41300  0.38030  Biso   1.000  H
  C23      1.0000 0.66403  0.47871  0.38800  Biso   1.000  C
  H6       1.0000 0.64879  0.48080  0.43709  Biso   1.000  H
  C24      1.0000 0.42736  0.31879  0.56142  Biso   1.000  C
  H7       1.0000 0.42119  0.36881  0.55400  Biso   1.000  H
  C25      1.0000 0.48241  0.30313  0.57764  Biso   1.000  C
  H8       1.0000 0.51459  0.34161  0.58081  Biso   1.000  H
  H9       1.0000 0.44290  0.40429  0.61789  Biso   1.000  H
  C26      1.0000 0.47211  0.41064  0.65925  Biso   1.000  C
  H10      1.0000 0.54111  0.40799  0.59760  Biso   1.000  H
  C27      1.0000 0.52950  0.41149  0.64860  Biso   1.000  C
  C28      1.0000 0.41978  0.43728  0.50383  Biso   1.000  C
  H11      1.0000 0.45030  0.39691  0.50639  Biso   1.000  H
  C29      1.0000 0.42383  0.47417  0.55040  Biso   1.000  C
  H12      1.0000 0.45579  0.45831  0.58609  Biso   1.000  H
  C30      1.0000 0.62754  0.42278  0.32275  Biso   1.000  C
  C31      1.0000 0.65834  0.46332  0.35699  Biso   1.000  C
  H13      1.0000 0.68100  0.49540  0.38999  Biso   1.000  H
  C32      1.0000 0.45015  0.29346  0.57023  Biso   1.000  C
  H14      1.0000 0.40469  0.31300  0.55659  Biso   1.000  H
  H15      1.0000 0.49830  0.28661  0.58441  Biso   1.000  H
  H16      1.0000 0.45370  0.41210  0.67450  Biso   1.000  H
  C33      1.0000 0.50419  0.41260  0.67131  Biso   1.000  C
  H17      1.0000 0.55209  0.41280  0.65620  Biso   1.000  H
  C34      1.0000 0.40973  0.46579  0.51913  Biso   1.000  C
  H18      1.0000 0.41069  0.43169  0.48240  Biso   1.000  H
  H19      1.0000 0.41789  0.49460  0.56130  Biso   1.000  H
  C35      1.0000 0.62084  0.40895  0.29801  Biso   1.000  C
  H20      1.0000 0.67121  0.46949  0.33781  Biso   1.000  H
  C36      1.0000 0.43925  0.25921  0.57139  Biso   1.000  C
  Br1      1.0000 0.51283  0.41537  0.71680  Biso   1.000  Br
  C37      1.0000 0.38561  0.48790  0.50428  Biso   1.000  C
  C38      1.0000 0.61225  0.39210  0.26709  Biso   1.000  C
  C39      1.0000 0.43015  0.22980  0.57152  Biso   1.000  C
  C40      1.0000 0.36501  0.50558  0.49260  Biso   1.000  C
  C41      1.0000 0.60558  0.37815  0.24139  Biso   1.000  C
  C42      1.0000 0.41724  0.19630  0.57021  Biso   1.000  C
  C43      1.0000 0.33889  0.52610  0.47780  Biso   1.000  C
  C44      1.0000 0.59488  0.36166  0.21174  Biso   1.000  C
  C45      1.0000 0.40225  0.18623  0.54061  Biso   1.000  C
  C46      1.0000 0.41799  0.17512  0.59737  Biso   1.000  C
  C47      1.0000 0.31889  0.51346  0.45199  Biso   1.000  C
  C48      1.0000 0.33270  0.55781  0.49041  Biso   1.000  C
  C49      1.0000 0.56375  0.34775  0.20939  Biso   1.000  C
  C50      1.0000 0.61694  0.36052  0.18342  Biso   1.000  C
  C51      1.0000 0.38835  0.15513  0.53826  Biso   1.000  C
  H21      1.0000 0.40170  0.20109  0.52190  Biso   1.000  H
  C52      1.0000 0.40444  0.14435  0.59556  Biso   1.000  C
  H22      1.0000 0.42829  0.18240  0.61771  Biso   1.000  H
  C53      1.0000 0.29409  0.53280  0.43820  Biso   1.000  C
  H23      1.0000 0.32260  0.49120  0.44389  Biso   1.000  H
  C54      1.0000 0.30711  0.57790  0.47669  Biso   1.000  C
  H24      1.0000 0.34589  0.56609  0.50861  Biso   1.000  H
  C55      1.0000 0.55368  0.33277  0.17979  Biso   1.000  C
  H25      1.0000 0.54889  0.34831  0.22810  Biso   1.000  H
  C56      1.0000 0.60566  0.34556  0.15444  Biso   1.000  C
  H26      1.0000 0.63890  0.36989  0.18460  Biso   1.000  H
  C57      1.0000 0.37186  0.14443  0.50861  Biso   1.000  C
  C58      1.0000 0.38948  0.13307  0.56658  Biso   1.000  C
  H27      1.0000 0.40520  0.13000  0.61469  Biso   1.000  H
  C59      1.0000 0.27389  0.51880  0.41139  Biso   1.000  C
  C60      1.0000 0.28840  0.56539  0.44970  Biso   1.000  C
  H28      1.0000 0.30260  0.59961  0.48560  Biso   1.000  H
  C61      1.0000 0.52021  0.31985  0.17848  Biso   1.000  C
  C62      1.0000 0.57488  0.33199  0.15263  Biso   1.000  C
  H29      1.0000 0.62001  0.34481  0.13531  Biso   1.000  H
  C63      1.0000 0.35790  0.13775  0.48291  Biso   1.000  C
  H30      1.0000 0.38009  0.11111  0.56540  Biso   1.000  H
  C64      1.0000 0.25989  0.50570  0.38911  Biso   1.000  C
  H31      1.0000 0.27180  0.57909  0.43931  Biso   1.000  H
  C65      1.0000 0.49080  0.31076  0.17861  Biso   1.000  C
  H32      1.0000 0.56760  0.32169  0.13229  Biso   1.000  H
  C66      1.0000 0.34103  0.12916  0.45199  Biso   1.000  C
  C67      1.0000 0.24430  0.49009  0.36089  Biso   1.000  C
  C68      1.0000 0.45655  0.29983  0.17977  Biso   1.000  C
  C69      1.0000 0.32723  0.12244  0.42725  Biso   1.000  C
  C70      1.0000 0.23121  0.47609  0.33861  Biso   1.000  C
  C71      1.0000 0.44685  0.26760  0.17236  Biso   1.000  C
  C72      1.0000 0.43121  0.32265  0.18858  Biso   1.000  C
  C73      1.0000 0.31099  0.11640  0.39540  Biso   1.000  C
  C74      1.0000 0.21721  0.45589  0.31180  Biso   1.000  C
  C75      1.0000 0.41421  0.25798  0.17443  Biso   1.000  C
  H33      1.0000 0.46340  0.25171  0.16559  Biso   1.000  H
  C76      1.0000 0.39795  0.31273  0.19031  Biso   1.000  C
  H34      1.0000 0.43700  0.34531  0.19341  Biso   1.000  H
  C77      1.0000 0.32013  0.13483  0.36769  Biso   1.000  C
  C78      1.0000 0.28669  0.09167  0.39301  Biso   1.000  C
  C79      1.0000 0.23655  0.43111  0.29801  Biso   1.000  C
  C80      1.0000 0.18459  0.46161  0.30030  Biso   1.000  C
  C81      1.0000 0.38878  0.28044  0.18407  Biso   1.000  C
  H35      1.0000 0.40840  0.23539  0.16919  Biso   1.000  H
  H36      1.0000 0.38120  0.32879  0.19600  Biso   1.000  H
  C82      1.0000 0.30507  0.12911  0.33690  Biso   1.000  C
  H37      1.0000 0.33700  0.15170  0.36970  Biso   1.000  H
  C83      1.0000 0.27130  0.08598  0.36200  Biso   1.000  C
  H38      1.0000 0.28049  0.07880  0.41219  Biso   1.000  H
  C84      1.0000 0.22390  0.41109  0.27220  Biso   1.000  C
  H39      1.0000 0.25881  0.42741  0.30611  Biso   1.000  H
  C85      1.0000 0.17210  0.44290  0.27331  Biso   1.000  C
  H40      1.0000 0.17089  0.47820  0.31069  Biso   1.000  H
  C86      1.0000 0.35214  0.26762  0.18528  Biso   1.000  C
  C87      1.0000 0.31482  0.14851  0.30916  Biso   1.000  C
  C88      1.0000 0.28009  0.10486  0.33385  Biso   1.000  C
  H41      1.0000 0.25460  0.06900  0.36001  Biso   1.000  H
  C89      1.0000 0.24440  0.38500  0.25740  Biso   1.000  C
  C90      1.0000 0.19220  0.41731  0.25959  Biso   1.000  C
  H42      1.0000 0.15039  0.44740  0.26440  Biso   1.000  H
  C91      1.0000 0.34765  0.23745  0.20907  Biso   1.000  C
  C92      1.0000 0.34390  0.25871  0.14825  Biso   1.000  C
  C93      1.0000 0.32761  0.29419  0.19948  Biso   1.000  C
  C94      1.0000 0.32338  0.16613  0.28555  Biso   1.000  C
  H43      1.0000 0.26921  0.10121  0.31291  Biso   1.000  H
  C95      1.0000 0.26211  0.36440  0.24572  Biso   1.000  C
  H44      1.0000 0.18389  0.40409  0.24139  Biso   1.000  H
  C96      1.0000 0.31660  0.22128  0.21005  Biso   1.000  C
  C97      1.0000 0.37052  0.22798  0.23341  Biso   1.000  C
  C98      1.0000 0.34332  0.28444  0.12471  Biso   1.000  C
  C99      1.0000 0.34161  0.22720  0.13692  Biso   1.000  C
  C100     1.0000 0.33380  0.30711  0.23157  Biso   1.000  C
  C101     1.0000 0.29764  0.30366  0.18503  Biso   1.000  C
  C102     1.0000 0.33280  0.18971  0.25826  Biso   1.000  C
  C103     1.0000 0.28419  0.34025  0.23087  Biso   1.000  C
  C104     1.0000 0.30847  0.19734  0.23379  Biso   1.000  C
  H45      1.0000 0.30021  0.22700  0.19361  Biso   1.000  H
  C105     1.0000 0.36367  0.20406  0.25758  Biso   1.000  C
  H46      1.0000 0.39200  0.23851  0.23351  Biso   1.000  H
  H47      1.0000 0.34569  0.30711  0.13211  Biso   1.000  H
  C106     1.0000 0.33937  0.27790  0.09075  Biso   1.000  C
  H48      1.0000 0.34199  0.20889  0.15240  Biso   1.000  H
  C107     1.0000 0.33849  0.22050  0.10140  Biso   1.000  C
  H49      1.0000 0.35309  0.29971  0.24361  Biso   1.000  H
  C108     1.0000 0.31270  0.33023  0.24617  Biso   1.000  C
  H50      1.0000 0.29170  0.29419  0.16391  Biso   1.000  H
  C109     1.0000 0.27583  0.32617  0.19960  Biso   1.000  C
  H51      1.0000 0.28719  0.18641  0.23361  Biso   1.000  H
  H52      1.0000 0.38039  0.19779  0.27351  Biso   1.000  H
  H53      1.0000 0.33791  0.29631  0.07550  Biso   1.000  H
  C110     1.0000 0.33740  0.24579  0.07869  Biso   1.000  C
  H54      1.0000 0.33720  0.19789  0.09380  Biso   1.000  H
  H55      1.0000 0.31829  0.33929  0.26760  Biso   1.000  H
  H56      1.0000 0.25541  0.33209  0.18870  Biso   1.000  H
  Br2      1.0000 0.33463  0.23718  0.03320  Biso   1.000  Br
  C111     1.0000 0.44733  0.55849  0.48379  Biso   1.000  C
  C112     1.0000 0.47128  0.56660  0.46005  Biso   1.000  C
  H57      1.0000 0.43640  0.53721  0.48361  Biso   1.000  H
  C113     1.0000 0.43970  0.58279  0.50826  Biso   1.000  C
  C114     1.0000 0.48747  0.59765  0.45907  Biso   1.000  C
  H58      1.0000 0.47700  0.55020  0.44361  Biso   1.000  H
  C115     1.0000 0.45408  0.61369  0.50758  Biso   1.000  C
  C116     1.0000 0.41615  0.57337  0.53555  Biso   1.000  C
  C117     1.0000 0.51764  0.60213  0.43528  Biso   1.000  C
  C118     1.0000 0.47800  0.62051  0.48341  Biso   1.000  C
  H59      1.0000 0.44781  0.63041  0.52351  Biso   1.000  H
  C119     1.0000 0.39850  0.56481  0.55916  Biso   1.000  C
  C120     1.0000 0.50870  0.59390  0.39825  Biso   1.000  C
  C121     1.0000 0.53043  0.63877  0.43407  Biso   1.000  C
  C122     1.0000 0.54418  0.57763  0.44948  Biso   1.000  C
  H60      1.0000 0.48850  0.64200  0.48351  Biso   1.000  H
  C123     1.0000 0.37911  0.55509  0.58690  Biso   1.000  C
  C124     1.0000 0.47720  0.59160  0.38692  Biso   1.000  C
  C125     1.0000 0.53444  0.59334  0.37471  Biso   1.000  C
  C126     1.0000 0.50797  0.66423  0.42443  Biso   1.000  C
  C127     1.0000 0.56272  0.64794  0.44031  Biso   1.000  C
  C128     1.0000 0.55710  0.58382  0.48157  Biso   1.000  C
  C129     1.0000 0.55365  0.54763  0.43503  Biso   1.000  C
  C130     1.0000 0.35486  0.53011  0.58385  Biso   1.000  C
  C131     1.0000 0.38482  0.57015  0.61769  Biso   1.000  C
  C132     1.0000 0.47050  0.58851  0.35140  Biso   1.000  C
  H61      1.0000 0.45889  0.59201  0.40240  Biso   1.000  H
  C133     1.0000 0.52789  0.58936  0.34075  Biso   1.000  C
  H62      1.0000 0.55710  0.59571  0.38211  Biso   1.000  H
  H63      1.0000 0.48541  0.65839  0.41919  Biso   1.000  H
  C134     1.0000 0.51759  0.69687  0.42236  Biso   1.000  C
  H64      1.0000 0.57881  0.63119  0.44600  Biso   1.000  H
  C135     1.0000 0.57264  0.68121  0.43858  Biso   1.000  C
  H65      1.0000 0.54970  0.60309  0.49361  Biso   1.000  H
  C136     1.0000 0.58022  0.56272  0.49617  Biso   1.000  C
  H66      1.0000 0.54421  0.54169  0.41391  Biso   1.000  H
  C137     1.0000 0.57617  0.52583  0.44960  Biso   1.000  C
  H67      1.0000 0.35121  0.51920  0.56291  Biso   1.000  H
  C138     1.0000 0.33597  0.52129  0.61200  Biso   1.000  C
  H68      1.0000 0.40170  0.58700  0.61970  Biso   1.000  H
  C139     1.0000 0.36639  0.56101  0.64540  Biso   1.000  C
  H69      1.0000 0.44791  0.58720  0.34380  Biso   1.000  H
  C140     1.0000 0.49581  0.58740  0.32869  Biso   1.000  C
  H70      1.0000 0.54630  0.58790  0.32550  Biso   1.000  H
  H71      1.0000 0.50170  0.71339  0.41559  Biso   1.000  H
  C141     1.0000 0.54985  0.70654  0.42977  Biso   1.000  C
  H72      1.0000 0.59531  0.68700  0.44341  Biso   1.000  H
  C142     1.0000 0.59027  0.53421  0.48087  Biso   1.000  C
  H73      1.0000 0.58931  0.56831  0.51760  Biso   1.000  H
  H74      1.0000 0.58211  0.50540  0.43870  Biso   1.000  H
  C143     1.0000 0.34166  0.53668  0.64301  Biso   1.000  C
  H75      1.0000 0.31900  0.50460  0.61001  Biso   1.000  H
  C144     1.0000 0.37246  0.57722  0.67725  Biso   1.000  C
  Br3      1.0000 0.48717  0.58463  0.28320  Biso   1.000  Br
  C145     1.0000 0.56075  0.74079  0.42861  Biso   1.000  C
  C146     1.0000 0.61439  0.51210  0.49572  Biso   1.000  C
  H76      1.0000 0.32879  0.53051  0.66219  Biso   1.000  H
  C147     1.0000 0.37916  0.59105  0.70199  Biso   1.000  C
  C148     1.0000 0.56985  0.77020  0.42848  Biso   1.000  C
  C149     1.0000 0.63499  0.49442  0.50740  Biso   1.000  C
  C150     1.0000 0.38775  0.60790  0.73291  Biso   1.000  C
  C151     1.0000 0.58276  0.80370  0.42979  Biso   1.000  C
  C152     1.0000 0.66111  0.47390  0.52220  Biso   1.000  C
  C153     1.0000 0.39442  0.62185  0.75861  Biso   1.000  C
  C154     1.0000 0.59775  0.81377  0.45939  Biso   1.000  C
  C155     1.0000 0.58201  0.82488  0.40263  Biso   1.000  C
  C156     1.0000 0.66730  0.44219  0.50959  Biso   1.000  C
  C157     1.0000 0.68111  0.48654  0.54801  Biso   1.000  C
  C158     1.0000 0.40512  0.63834  0.78826  Biso   1.000  C
  H77      1.0000 0.59830  0.79891  0.47810  Biso   1.000  H
  C159     1.0000 0.61165  0.84487  0.46174  Biso   1.000  C
  C160     1.0000 0.59556  0.85565  0.40444  Biso   1.000  C
  H78      1.0000 0.57171  0.81760  0.38229  Biso   1.000  H
  H79      1.0000 0.65411  0.43391  0.49139  Biso   1.000  H
  C161     1.0000 0.69289  0.42210  0.52331  Biso   1.000  C
  H80      1.0000 0.67740  0.50880  0.55611  Biso   1.000  H
  C162     1.0000 0.70591  0.46720  0.56180  Biso   1.000  C
  C163     1.0000 0.43625  0.65225  0.79061  Biso   1.000  C
  C164     1.0000 0.38306  0.63948  0.81658  Biso   1.000  C
  C165     1.0000 0.61052  0.86693  0.43342  Biso   1.000  C
  C166     1.0000 0.62814  0.85557  0.49139  Biso   1.000  C
  H81      1.0000 0.59480  0.87000  0.38531  Biso   1.000  H
  C167     1.0000 0.71160  0.43461  0.55030  Biso   1.000  C
  H82      1.0000 0.69740  0.40039  0.51440  Biso   1.000  H
  C168     1.0000 0.72611  0.48120  0.58861  Biso   1.000  C
  C169     1.0000 0.44632  0.66723  0.82021  Biso   1.000  C
  H83      1.0000 0.45111  0.65169  0.77190  Biso   1.000  H
  H84      1.0000 0.36110  0.63011  0.81540  Biso   1.000  H
  C170     1.0000 0.39434  0.65444  0.84556  Biso   1.000  C
  H85      1.0000 0.61991  0.88889  0.43460  Biso   1.000  H
  C171     1.0000 0.64210  0.86225  0.51709  Biso   1.000  C
  H86      1.0000 0.72820  0.42091  0.56069  Biso   1.000  H
  C172     1.0000 0.74011  0.49430  0.61089  Biso   1.000  C
  C173     1.0000 0.47979  0.68015  0.82152  Biso   1.000  C
  C174     1.0000 0.42512  0.66801  0.84737  Biso   1.000  C
  H87      1.0000 0.37999  0.65519  0.86469  Biso   1.000  H
  C175     1.0000 0.65897  0.87084  0.54801  Biso   1.000  C
  C176     1.0000 0.75570  0.50991  0.63911  Biso   1.000  C
  C177     1.0000 0.50920  0.68924  0.82139  Biso   1.000  C
  H88      1.0000 0.43240  0.67831  0.86771  Biso   1.000  H
  C178     1.0000 0.67277  0.87756  0.57275  Biso   1.000  C
  C179     1.0000 0.76879  0.52391  0.66139  Biso   1.000  C
  C180     1.0000 0.54345  0.70017  0.82023  Biso   1.000  C
  C181     1.0000 0.68901  0.88360  0.60460  Biso   1.000  C
  C182     1.0000 0.78279  0.54411  0.68820  Biso   1.000  C
  C183     1.0000 0.56879  0.67735  0.81142  Biso   1.000  C
  C184     1.0000 0.55315  0.73240  0.82764  Biso   1.000  C
  C185     1.0000 0.67987  0.86517  0.63231  Biso   1.000  C
  C186     1.0000 0.71331  0.90833  0.60699  Biso   1.000  C
  C187     1.0000 0.76345  0.56889  0.70199  Biso   1.000  C
  C188     1.0000 0.81541  0.53839  0.69970  Biso   1.000  C
  C189     1.0000 0.60205  0.68727  0.80969  Biso   1.000  C
  H89      1.0000 0.56300  0.65469  0.80659  Biso   1.000  H
  C190     1.0000 0.58579  0.74202  0.82557  Biso   1.000  C
  H90      1.0000 0.53660  0.74829  0.83441  Biso   1.000  H
  C191     1.0000 0.69493  0.87089  0.66310  Biso   1.000  C
  H91      1.0000 0.66300  0.84830  0.63030  Biso   1.000  H
  H92      1.0000 0.71951  0.92120  0.58781  Biso   1.000  H
  C192     1.0000 0.72870  0.91402  0.63800  Biso   1.000  C
  C193     1.0000 0.77610  0.58891  0.72780  Biso   1.000  C
  H93      1.0000 0.74119  0.57259  0.69389  Biso   1.000  H
  H94      1.0000 0.82911  0.52180  0.68931  Biso   1.000  H
  C194     1.0000 0.82790  0.55710  0.72669  Biso   1.000  C
  C195     1.0000 0.61122  0.71956  0.81593  Biso   1.000  C
  H95      1.0000 0.61880  0.67121  0.80400  Biso   1.000  H
  H96      1.0000 0.59160  0.76461  0.83081  Biso   1.000  H
  C196     1.0000 0.68518  0.85149  0.69084  Biso   1.000  C
  C197     1.0000 0.71991  0.89514  0.66615  Biso   1.000  C
  H97      1.0000 0.74540  0.93100  0.63999  Biso   1.000  H
  C198     1.0000 0.75560  0.61500  0.74260  Biso   1.000  C
  C199     1.0000 0.80780  0.58269  0.74041  Biso   1.000  C
  H98      1.0000 0.84961  0.55260  0.73560  Biso   1.000  H
  C200     1.0000 0.64786  0.73238  0.81472  Biso   1.000  C
  C201     1.0000 0.67662  0.83387  0.71445  Biso   1.000  C
  H99      1.0000 0.73079  0.89879  0.68709  Biso   1.000  H
  C202     1.0000 0.73789  0.63560  0.75428  Biso   1.000  C
  H100     1.0000 0.81611  0.59591  0.75861  Biso   1.000  H
  C203     1.0000 0.65235  0.76255  0.79093  Biso   1.000  C
  C204     1.0000 0.67239  0.70581  0.80052  Biso   1.000  C
  C205     1.0000 0.65610  0.74129  0.85175  Biso   1.000  C
  C206     1.0000 0.66720  0.81029  0.74174  Biso   1.000  C
  C207     1.0000 0.71581  0.65975  0.76913  Biso   1.000  C
  C208     1.0000 0.68340  0.77872  0.78995  Biso   1.000  C
  C209     1.0000 0.62948  0.77202  0.76659  Biso   1.000  C
  C210     1.0000 0.70236  0.69634  0.81497  Biso   1.000  C
  C211     1.0000 0.66620  0.69289  0.76843  Biso   1.000  C
  C212     1.0000 0.65668  0.71556  0.87529  Biso   1.000  C
  C213     1.0000 0.65839  0.77280  0.86308  Biso   1.000  C
  C214     1.0000 0.69153  0.80266  0.76621  Biso   1.000  C
  C215     1.0000 0.63633  0.79594  0.74242  Biso   1.000  C
  C216     1.0000 0.72417  0.67383  0.80040  Biso   1.000  C
  C217     1.0000 0.68730  0.66977  0.75383  Biso   1.000  C
  H101     1.0000 0.69979  0.77300  0.80639  Biso   1.000  H
  H102     1.0000 0.60800  0.76149  0.76649  Biso   1.000  H
  H103     1.0000 0.70830  0.70581  0.83609  Biso   1.000  H
  H104     1.0000 0.64691  0.70029  0.75639  Biso   1.000  H
  H105     1.0000 0.65431  0.69289  0.86789  Biso   1.000  H
  C218     1.0000 0.66063  0.72210  0.90925  Biso   1.000  C
  H106     1.0000 0.65801  0.79111  0.84760  Biso   1.000  H
  C219     1.0000 0.66151  0.77950  0.89860  Biso   1.000  C
  H107     1.0000 0.71281  0.81359  0.76639  Biso   1.000  H
  H108     1.0000 0.61961  0.80221  0.72649  Biso   1.000  H
  H109     1.0000 0.74459  0.66791  0.81130  Biso   1.000  H
  H110     1.0000 0.68171  0.66071  0.73240  Biso   1.000  H
  H111     1.0000 0.66209  0.70369  0.92450  Biso   1.000  H
  C220     1.0000 0.66260  0.75421  0.92131  Biso   1.000  C
  H112     1.0000 0.66280  0.80211  0.90620  Biso   1.000  H
  Br4      1.0000 0.66537  0.76282  0.96680  Biso   1.000  Br
  C221     1.0000 0.61052  0.36694  0.56658  Biso   1.000  C
  C222     1.0000 0.61165  0.34488  0.53826  Biso   1.000  C
  C223     1.0000 0.59556  0.35566  0.59556  Biso   1.000  C
  H113     1.0000 0.61991  0.38890  0.56540  Biso   1.000  H
  C224     1.0000 0.62814  0.35559  0.50861  Biso   1.000  C
  C225     1.0000 0.59775  0.31376  0.54061  Biso   1.000  C
  C226     1.0000 0.58201  0.32489  0.59737  Biso   1.000  C
  H114     1.0000 0.59480  0.36999  0.61469  Biso   1.000  H
  C227     1.0000 0.64210  0.36226  0.48291  Biso   1.000  C
  C228     1.0000 0.58276  0.30368  0.57021  Biso   1.000  C
  H115     1.0000 0.59830  0.29890  0.52190  Biso   1.000  H
  H116     1.0000 0.57171  0.31761  0.61771  Biso   1.000  H
  C229     1.0000 0.65897  0.37085  0.45199  Biso   1.000  C
  C230     1.0000 0.56985  0.27019  0.57152  Biso   1.000  C
  C231     1.0000 0.67277  0.37755  0.42725  Biso   1.000  C
  C232     1.0000 0.56075  0.24080  0.57139  Biso   1.000  C
  C233     1.0000 0.68901  0.38362  0.39540  Biso   1.000  C
  C234     1.0000 0.54985  0.20653  0.57023  Biso   1.000  C
  C235     1.0000 0.67987  0.36518  0.36769  Biso   1.000  C
  C236     1.0000 0.71331  0.40832  0.39301  Biso   1.000  C
  C237     1.0000 0.51759  0.19686  0.57764  Biso   1.000  C
  C238     1.0000 0.57264  0.18119  0.56142  Biso   1.000  C
  C239     1.0000 0.69493  0.37087  0.33690  Biso   1.000  C
  H117     1.0000 0.66300  0.34831  0.36970  Biso   1.000  H
  C240     1.0000 0.72870  0.41404  0.36200  Biso   1.000  C
  H118     1.0000 0.71951  0.42119  0.41219  Biso   1.000  H
  C241     1.0000 0.50797  0.16422  0.57557  Biso   1.000  C
  H119     1.0000 0.50170  0.21340  0.58441  Biso   1.000  H
  C242     1.0000 0.56272  0.14795  0.55969  Biso   1.000  C
  H120     1.0000 0.59531  0.18701  0.55659  Biso   1.000  H
  C243     1.0000 0.68518  0.35151  0.30916  Biso   1.000  C
  C244     1.0000 0.71991  0.39515  0.33385  Biso   1.000  C
  H121     1.0000 0.74540  0.43101  0.36001  Biso   1.000  H
  C245     1.0000 0.53043  0.13878  0.56593  Biso   1.000  C
  H122     1.0000 0.48541  0.15840  0.58081  Biso   1.000  H
  H123     1.0000 0.57881  0.13120  0.55400  Biso   1.000  H
  C246     1.0000 0.67662  0.33385  0.28555  Biso   1.000  C
  H124     1.0000 0.73079  0.39880  0.31291  Biso   1.000  H
  C247     1.0000 0.51764  0.10212  0.56472  Biso   1.000  C
  C248     1.0000 0.66720  0.31028  0.25826  Biso   1.000  C
  C249     1.0000 0.48747  0.09766  0.54093  Biso   1.000  C
  C250     1.0000 0.50870  0.09391  0.60175  Biso   1.000  C
  C251     1.0000 0.54418  0.07761  0.55052  Biso   1.000  C
  C252     1.0000 0.69153  0.30265  0.23379  Biso   1.000  C
  C253     1.0000 0.63633  0.29593  0.25758  Biso   1.000  C
  C254     1.0000 0.47128  0.06661  0.53995  Biso   1.000  C
  C255     1.0000 0.47800  0.12053  0.51659  Biso   1.000  C
  C256     1.0000 0.53444  0.09333  0.62529  Biso   1.000  C
  C257     1.0000 0.47720  0.09159  0.61308  Biso   1.000  C
  C258     1.0000 0.55710  0.08381  0.51843  Biso   1.000  C
  C259     1.0000 0.55365  0.04765  0.56497  Biso   1.000  C
  C260     1.0000 0.68340  0.27870  0.21005  Biso   1.000  C
  H125     1.0000 0.71281  0.31361  0.23361  Biso   1.000  H
  C261     1.0000 0.62948  0.27200  0.23341  Biso   1.000  C
  H126     1.0000 0.61961  0.30220  0.27351  Biso   1.000  H
  C262     1.0000 0.44733  0.05848  0.51621  Biso   1.000  C
  H127     1.0000 0.47700  0.05019  0.55639  Biso   1.000  H
  C263     1.0000 0.45408  0.11368  0.49242  Biso   1.000  C
  H128     1.0000 0.48850  0.14201  0.51649  Biso   1.000  H
  H129     1.0000 0.55710  0.09570  0.61789  Biso   1.000  H
  C264     1.0000 0.52789  0.08938  0.65925  Biso   1.000  C
  H130     1.0000 0.45889  0.09199  0.59760  Biso   1.000  H
  C265     1.0000 0.47050  0.08849  0.64860  Biso   1.000  C
  H131     1.0000 0.54970  0.10310  0.50639  Biso   1.000  H
  C266     1.0000 0.58022  0.06271  0.50383  Biso   1.000  C
  H132     1.0000 0.54421  0.04170  0.58609  Biso   1.000  H
  C267     1.0000 0.57617  0.02584  0.55040  Biso   1.000  C
  C268     1.0000 0.65235  0.26253  0.20907  Biso   1.000  C
  H133     1.0000 0.69979  0.27301  0.19361  Biso   1.000  H
  H134     1.0000 0.60800  0.26150  0.23351  Biso   1.000  H
  C269     1.0000 0.43970  0.08280  0.49174  Biso   1.000  C
  H135     1.0000 0.43640  0.03720  0.51639  Biso   1.000  H
  H136     1.0000 0.44781  0.13040  0.47649  Biso   1.000  H
  H137     1.0000 0.54630  0.08789  0.67450  Biso   1.000  H
  C270     1.0000 0.49581  0.08741  0.67131  Biso   1.000  C
  H138     1.0000 0.44791  0.08721  0.65620  Biso   1.000  H
  C271     1.0000 0.59027  0.03420  0.51913  Biso   1.000  C
  H139     1.0000 0.58931  0.06830  0.48240  Biso   1.000  H
  H140     1.0000 0.58211  0.00539  0.56130  Biso   1.000  H
  C272     1.0000 0.64786  0.23237  0.18528  Biso   1.000  C
  C273     1.0000 0.41615  0.07336  0.46445  Biso   1.000  C
  Br5      1.0000 0.48717  0.08464  0.71680  Biso   1.000  Br
  C274     1.0000 0.61439  0.01211  0.50428  Biso   1.000  C
  C275     1.0000 0.61122  0.21957  0.18407  Biso   1.000  C
  C276     1.0000 0.65610  0.24128  0.14825  Biso   1.000  C
  C277     1.0000 0.67239  0.20582  0.19948  Biso   1.000  C
  C278     1.0000 0.39850  0.06482  0.44084  Biso   1.000  C
  C279     1.0000 0.63499  0.99441  0.49260  Biso   1.000  C
  C280     1.0000 0.60205  0.18729  0.19031  Biso   1.000  C
  C281     1.0000 0.58579  0.24204  0.17443  Biso   1.000  C
  C282     1.0000 0.65668  0.21557  0.12471  Biso   1.000  C
  C283     1.0000 0.65839  0.27281  0.13692  Biso   1.000  C
  C284     1.0000 0.66620  0.19290  0.23157  Biso   1.000  C
  C285     1.0000 0.70236  0.19633  0.18503  Biso   1.000  C
  C286     1.0000 0.37911  0.05508  0.41310  Biso   1.000  C
  C287     1.0000 0.66111  0.97391  0.47780  Biso   1.000  C
  C288     1.0000 0.56879  0.17737  0.18858  Biso   1.000  C
  H141     1.0000 0.61880  0.17120  0.19600  Biso   1.000  H
  C289     1.0000 0.55315  0.23239  0.17236  Biso   1.000  C
  H142     1.0000 0.59160  0.26460  0.16919  Biso   1.000  H
  H143     1.0000 0.65431  0.19290  0.13211  Biso   1.000  H
  C290     1.0000 0.66063  0.22209  0.09075  Biso   1.000  C
  H144     1.0000 0.65801  0.29109  0.15240  Biso   1.000  H
  C291     1.0000 0.66151  0.27951  0.10140  Biso   1.000  C
  H145     1.0000 0.64691  0.20031  0.24361  Biso   1.000  H
  C292     1.0000 0.68730  0.16979  0.24617  Biso   1.000  C
  H146     1.0000 0.70830  0.20580  0.16391  Biso   1.000  H
  C293     1.0000 0.72417  0.17384  0.19960  Biso   1.000  C
  C294     1.0000 0.38482  0.07014  0.38231  Biso   1.000  C
  C295     1.0000 0.35486  0.03009  0.41615  Biso   1.000  C
  C296     1.0000 0.66730  0.94220  0.49041  Biso   1.000  C
  C297     1.0000 0.68111  0.98655  0.45199  Biso   1.000  C
  C298     1.0000 0.54345  0.20016  0.17977  Biso   1.000  C
  H147     1.0000 0.56300  0.15470  0.19341  Biso   1.000  H
  H148     1.0000 0.53660  0.24831  0.16559  Biso   1.000  H
  H149     1.0000 0.66209  0.20371  0.07550  Biso   1.000  H
  C299     1.0000 0.66260  0.25420  0.07869  Biso   1.000  C
  H150     1.0000 0.66280  0.30210  0.09380  Biso   1.000  H
  C300     1.0000 0.71581  0.15974  0.23087  Biso   1.000  C
  H151     1.0000 0.68171  0.16069  0.26760  Biso   1.000  H
  H152     1.0000 0.74459  0.16790  0.18870  Biso   1.000  H
  C301     1.0000 0.36639  0.06099  0.35460  Biso   1.000  C
  H153     1.0000 0.40170  0.08701  0.38030  Biso   1.000  H
  C302     1.0000 0.33597  0.02128  0.38800  Biso   1.000  C
  H154     1.0000 0.35121  0.01919  0.43709  Biso   1.000  H
  H155     1.0000 0.65411  0.93389  0.50861  Biso   1.000  H
  C303     1.0000 0.69289  0.92211  0.47669  Biso   1.000  C
  C304     1.0000 0.70591  0.96721  0.43820  Biso   1.000  C
  H156     1.0000 0.67740  0.00879  0.44389  Biso   1.000  H
  C305     1.0000 0.50920  0.18925  0.17861  Biso   1.000  C
  Br6      1.0000 0.66537  0.26281  0.03320  Biso   1.000  Br
  C306     1.0000 0.73789  0.13561  0.24572  Biso   1.000  C
  C307     1.0000 0.37246  0.07721  0.32275  Biso   1.000  C
  C308     1.0000 0.34166  0.03669  0.35699  Biso   1.000  C
  H157     1.0000 0.31900  0.00461  0.38999  Biso   1.000  H
  C309     1.0000 0.71160  0.93460  0.44970  Biso   1.000  C
  H158     1.0000 0.69740  0.90040  0.48560  Biso   1.000  H
  C310     1.0000 0.72611  0.98119  0.41139  Biso   1.000  C
  C311     1.0000 0.47979  0.18016  0.17848  Biso   1.000  C
  C312     1.0000 0.75560  0.11501  0.25740  Biso   1.000  C
  C313     1.0000 0.37916  0.09104  0.29801  Biso   1.000  C
  H159     1.0000 0.32879  0.03050  0.33781  Biso   1.000  H
  H160     1.0000 0.72820  0.92090  0.43931  Biso   1.000  H
  C314     1.0000 0.74011  0.99431  0.38911  Biso   1.000  C
  C315     1.0000 0.44632  0.16724  0.17979  Biso   1.000  C
  C316     1.0000 0.77610  0.08890  0.27220  Biso   1.000  C
  C317     1.0000 0.38775  0.10791  0.26709  Biso   1.000  C
  C318     1.0000 0.75570  0.00990  0.36089  Biso   1.000  C
  C319     1.0000 0.43625  0.15226  0.20939  Biso   1.000  C
  C320     1.0000 0.42512  0.16800  0.15263  Biso   1.000  C
  C321     1.0000 0.80780  0.08270  0.25959  Biso   1.000  C
  C322     1.0000 0.76345  0.06890  0.29801  Biso   1.000  C
  C323     1.0000 0.39442  0.12186  0.24139  Biso   1.000  C
  C324     1.0000 0.76879  0.02390  0.33861  Biso   1.000  C
  C325     1.0000 0.40512  0.13833  0.21174  Biso   1.000  C
  H161     1.0000 0.45111  0.15170  0.22810  Biso   1.000  H
  C326     1.0000 0.39434  0.15445  0.15444  Biso   1.000  C
  H162     1.0000 0.43240  0.17830  0.13229  Biso   1.000  H
  H163     1.0000 0.81611  0.09590  0.24139  Biso   1.000  H
  C327     1.0000 0.82790  0.05709  0.27331  Biso   1.000  C
  H164     1.0000 0.74119  0.07260  0.30611  Biso   1.000  H
  C328     1.0000 0.78279  0.04410  0.31180  Biso   1.000  C
  C329     1.0000 0.38306  0.13949  0.18342  Biso   1.000  C
  H165     1.0000 0.37999  0.15520  0.13531  Biso   1.000  H
  C330     1.0000 0.81541  0.03840  0.30030  Biso   1.000  C
  H166     1.0000 0.84961  0.05261  0.26440  Biso   1.000  H
  H167     1.0000 0.36110  0.13010  0.18460  Biso   1.000  H
  H168     1.0000 0.82911  0.02181  0.31069  Biso   1.000  H
  C331     1.0000 0.38948  0.63306  0.43342  Biso   1.000  C
  C332     1.0000 0.38835  0.65512  0.46174  Biso   1.000  C
  H169     1.0000 0.38009  0.61110  0.43460  Biso   1.000  H
  C333     1.0000 0.40444  0.64434  0.40444  Biso   1.000  C
  C334     1.0000 0.40225  0.68624  0.45939  Biso   1.000  C
  C335     1.0000 0.37186  0.64441  0.49139  Biso   1.000  C
  H170     1.0000 0.40520  0.63001  0.38531  Biso   1.000  H
  C336     1.0000 0.41799  0.67511  0.40263  Biso   1.000  C
  C337     1.0000 0.41724  0.69632  0.42979  Biso   1.000  C
  H171     1.0000 0.40170  0.70110  0.47810  Biso   1.000  H
  C338     1.0000 0.35790  0.63774  0.51709  Biso   1.000  C
  H172     1.0000 0.42829  0.68239  0.38229  Biso   1.000  H
  C339     1.0000 0.43015  0.72981  0.42848  Biso   1.000  C
  C340     1.0000 0.34103  0.62915  0.54801  Biso   1.000  C
  C341     1.0000 0.43925  0.75920  0.42861  Biso   1.000  C
  C342     1.0000 0.32723  0.62245  0.57275  Biso   1.000  C
  C343     1.0000 0.45015  0.79347  0.42977  Biso   1.000  C
  C344     1.0000 0.31099  0.61638  0.60460  Biso   1.000  C
  C345     1.0000 0.42736  0.81881  0.43858  Biso   1.000  C
  C346     1.0000 0.48241  0.80314  0.42236  Biso   1.000  C
  C347     1.0000 0.32013  0.63482  0.63231  Biso   1.000  C
  C348     1.0000 0.28669  0.59168  0.60699  Biso   1.000  C
  C349     1.0000 0.43728  0.85205  0.44031  Biso   1.000  C
  H173     1.0000 0.40469  0.81299  0.44341  Biso   1.000  H
  C350     1.0000 0.49203  0.83578  0.42443  Biso   1.000  C
  H174     1.0000 0.49830  0.78660  0.41559  Biso   1.000  H
  C351     1.0000 0.30507  0.62913  0.66310  Biso   1.000  C
  H175     1.0000 0.33700  0.65169  0.63030  Biso   1.000  H
  H176     1.0000 0.28049  0.57881  0.58781  Biso   1.000  H
  C352     1.0000 0.27130  0.58596  0.63800  Biso   1.000  C
  C353     1.0000 0.46957  0.86122  0.43407  Biso   1.000  C
  H177     1.0000 0.42119  0.86880  0.44600  Biso   1.000  H
  H178     1.0000 0.51459  0.84160  0.41919  Biso   1.000  H
  C354     1.0000 0.31482  0.64849  0.69084  Biso   1.000  C
  C355     1.0000 0.28009  0.60485  0.66615  Biso   1.000  C
  H179     1.0000 0.25460  0.56899  0.63999  Biso   1.000  H
  C356     1.0000 0.48236  0.89788  0.43528  Biso   1.000  C
  C357     1.0000 0.32338  0.66615  0.71445  Biso   1.000  C
  H180     1.0000 0.26921  0.60120  0.68709  Biso   1.000  H
  C358     1.0000 0.49130  0.90609  0.39825  Biso   1.000  C
  C359     1.0000 0.51253  0.90234  0.45907  Biso   1.000  C
  C360     1.0000 0.45582  0.92239  0.44948  Biso   1.000  C
  C361     1.0000 0.33280  0.68972  0.74174  Biso   1.000  C
  C362     1.0000 0.46556  0.90667  0.37471  Biso   1.000  C
  C363     1.0000 0.52280  0.90841  0.38692  Biso   1.000  C
  C364     1.0000 0.52872  0.93339  0.46005  Biso   1.000  C
  C365     1.0000 0.52200  0.87947  0.48341  Biso   1.000  C
  C366     1.0000 0.44290  0.91619  0.48157  Biso   1.000  C
  C367     1.0000 0.44635  0.95235  0.43503  Biso   1.000  C
  C368     1.0000 0.30847  0.69735  0.76621  Biso   1.000  C
  C369     1.0000 0.36367  0.70407  0.74242  Biso   1.000  C
  H181     1.0000 0.44290  0.90430  0.38211  Biso   1.000  H
  C370     1.0000 0.47211  0.91062  0.34075  Biso   1.000  C
  H182     1.0000 0.54111  0.90801  0.40240  Biso   1.000  H
  C371     1.0000 0.52950  0.91151  0.35140  Biso   1.000  C
  H183     1.0000 0.52300  0.94981  0.44361  Biso   1.000  H
  C372     1.0000 0.55267  0.94152  0.48379  Biso   1.000  C
  C373     1.0000 0.54592  0.88632  0.50758  Biso   1.000  C
  H184     1.0000 0.51150  0.85799  0.48351  Biso   1.000  H
  H185     1.0000 0.45030  0.89690  0.49361  Biso   1.000  H
  C374     1.0000 0.41978  0.93729  0.49617  Biso   1.000  C
  H186     1.0000 0.45579  0.95830  0.41391  Biso   1.000  H
  C375     1.0000 0.42383  0.97416  0.44960  Biso   1.000  C
  C376     1.0000 0.31660  0.72130  0.78995  Biso   1.000  C
  H187     1.0000 0.28719  0.68639  0.76639  Biso   1.000  H
  H188     1.0000 0.38039  0.69780  0.72649  Biso   1.000  H
  C377     1.0000 0.37052  0.72800  0.76659  Biso   1.000  C
  H189     1.0000 0.45370  0.91211  0.32550  Biso   1.000  H
  C378     1.0000 0.50419  0.91259  0.32869  Biso   1.000  C
  H190     1.0000 0.55209  0.91279  0.34380  Biso   1.000  H
  H191     1.0000 0.56360  0.96280  0.48361  Biso   1.000  H
  C379     1.0000 0.56030  0.91720  0.50826  Biso   1.000  C
  H192     1.0000 0.55219  0.86960  0.52351  Biso   1.000  H
  C380     1.0000 0.40973  0.96580  0.48087  Biso   1.000  C
  H193     1.0000 0.41069  0.93170  0.51760  Biso   1.000  H
  H194     1.0000 0.41789  0.99461  0.43870  Biso   1.000  H
  C381     1.0000 0.34765  0.73747  0.79093  Biso   1.000  C
  H195     1.0000 0.30021  0.72699  0.80639  Biso   1.000  H
  H196     1.0000 0.39200  0.73850  0.76649  Biso   1.000  H
  Br7      1.0000 0.51283  0.91536  0.28320  Biso   1.000  Br
  C382     1.0000 0.58385  0.92664  0.53555  Biso   1.000  C
  C383     1.0000 0.38561  0.98789  0.49572  Biso   1.000  C
  C384     1.0000 0.35214  0.76763  0.81472  Biso   1.000  C
  C385     1.0000 0.60150  0.93518  0.55916  Biso   1.000  C
  C386     1.0000 0.36501  0.00559  0.50740  Biso   1.000  C
  C387     1.0000 0.34390  0.75872  0.85175  Biso   1.000  C
  C388     1.0000 0.38878  0.78043  0.81593  Biso   1.000  C
  C389     1.0000 0.32761  0.79418  0.80052  Biso   1.000  C
  C390     1.0000 0.62089  0.94492  0.58690  Biso   1.000  C
  C391     1.0000 0.33889  0.02609  0.52220  Biso   1.000  C
  C392     1.0000 0.34332  0.78443  0.87529  Biso   1.000  C
  C393     1.0000 0.34161  0.72719  0.86308  Biso   1.000  C
  C394     1.0000 0.41421  0.75796  0.82557  Biso   1.000  C
  C395     1.0000 0.39795  0.81271  0.80969  Biso   1.000  C
  C396     1.0000 0.33380  0.80710  0.76843  Biso   1.000  C
  C397     1.0000 0.29764  0.80367  0.81497  Biso   1.000  C
  C398     1.0000 0.64514  0.96991  0.58385  Biso   1.000  C
  C399     1.0000 0.61518  0.92986  0.61769  Biso   1.000  C
  C400     1.0000 0.33270  0.05780  0.50959  Biso   1.000  C
  C401     1.0000 0.31889  0.01345  0.54801  Biso   1.000  C
  H197     1.0000 0.34569  0.80710  0.86789  Biso   1.000  H
  C402     1.0000 0.33937  0.77791  0.90925  Biso   1.000  C
  H198     1.0000 0.34199  0.70891  0.84760  Biso   1.000  H
  C403     1.0000 0.33849  0.72049  0.89860  Biso   1.000  C
  H199     1.0000 0.40840  0.73540  0.83081  Biso   1.000  H
  C404     1.0000 0.44685  0.76761  0.82764  Biso   1.000  C
  H200     1.0000 0.38120  0.82880  0.80400  Biso   1.000  H
  C405     1.0000 0.43121  0.82263  0.81142  Biso   1.000  C
  H201     1.0000 0.35309  0.79969  0.75639  Biso   1.000  H
  C406     1.0000 0.31270  0.83021  0.75383  Biso   1.000  C
  H202     1.0000 0.29170  0.79420  0.83609  Biso   1.000  H
  C407     1.0000 0.27583  0.82616  0.80040  Biso   1.000  C
  H203     1.0000 0.64879  0.98081  0.56291  Biso   1.000  H
  C408     1.0000 0.66403  0.97872  0.61200  Biso   1.000  C
  H204     1.0000 0.59830  0.91299  0.61970  Biso   1.000  H
  C409     1.0000 0.63361  0.93901  0.64540  Biso   1.000  C
  H205     1.0000 0.34589  0.06611  0.49139  Biso   1.000  H
  C410     1.0000 0.30711  0.07789  0.52331  Biso   1.000  C
  H206     1.0000 0.32260  0.99121  0.55611  Biso   1.000  H
  C411     1.0000 0.29409  0.03279  0.56180  Biso   1.000  C
  H207     1.0000 0.33791  0.79629  0.92450  Biso   1.000  H
  C412     1.0000 0.33740  0.74580  0.92131  Biso   1.000  C
  H208     1.0000 0.33720  0.69790  0.90620  Biso   1.000  H
  H209     1.0000 0.46340  0.75169  0.83441  Biso   1.000  H
  C413     1.0000 0.45655  0.79984  0.82023  Biso   1.000  C
  H210     1.0000 0.43700  0.84530  0.80659  Biso   1.000  H
  C414     1.0000 0.28419  0.84026  0.76913  Biso   1.000  C
  H211     1.0000 0.31829  0.83931  0.73240  Biso   1.000  H
  H212     1.0000 0.25541  0.83210  0.81130  Biso   1.000  H
  C415     1.0000 0.65834  0.96331  0.64301  Biso   1.000  C
  H213     1.0000 0.68100  0.99539  0.61001  Biso   1.000  H
  C416     1.0000 0.62754  0.92279  0.67725  Biso   1.000  C
  C417     1.0000 0.28840  0.06540  0.55030  Biso   1.000  C
  H214     1.0000 0.30260  0.09960  0.51440  Biso   1.000  H
  C418     1.0000 0.27389  0.01881  0.58861  Biso   1.000  C
  Br8      1.0000 0.33463  0.73719  0.96680  Biso   1.000  Br
  C419     1.0000 0.49080  0.81075  0.82139  Biso   1.000  C
  C420     1.0000 0.26211  0.86439  0.75428  Biso   1.000  C
  H215     1.0000 0.67121  0.96950  0.66219  Biso   1.000  H
  C421     1.0000 0.62084  0.90896  0.70199  Biso   1.000  C
  H216     1.0000 0.27180  0.07910  0.56069  Biso   1.000  H
  C422     1.0000 0.25989  0.00569  0.61089  Biso   1.000  C
  C423     1.0000 0.52021  0.81984  0.82152  Biso   1.000  C
  C424     1.0000 0.24440  0.88499  0.74260  Biso   1.000  C
  C425     1.0000 0.61225  0.89209  0.73291  Biso   1.000  C
  C426     1.0000 0.24430  0.99010  0.63911  Biso   1.000  C
  C427     1.0000 0.55368  0.83276  0.82021  Biso   1.000  C
  C428     1.0000 0.22390  0.91110  0.72780  Biso   1.000  C
  C429     1.0000 0.60558  0.87814  0.75861  Biso   1.000  C
  C430     1.0000 0.23121  0.97610  0.66139  Biso   1.000  C
  C431     1.0000 0.56375  0.84774  0.79061  Biso   1.000  C
  C432     1.0000 0.57488  0.83200  0.84737  Biso   1.000  C
  C433     1.0000 0.19220  0.91730  0.74041  Biso   1.000  C
  C434     1.0000 0.23655  0.93110  0.70199  Biso   1.000  C
  C435     1.0000 0.59488  0.86167  0.78826  Biso   1.000  C
  C436     1.0000 0.21721  0.95590  0.68820  Biso   1.000  C
  H217     1.0000 0.54889  0.84830  0.77190  Biso   1.000  H
  C437     1.0000 0.60566  0.84555  0.84556  Biso   1.000  C
  H218     1.0000 0.56760  0.82170  0.86771  Biso   1.000  H
  H219     1.0000 0.18389  0.90410  0.75861  Biso   1.000  H
  C438     1.0000 0.17210  0.94291  0.72669  Biso   1.000  C
  H220     1.0000 0.25881  0.92740  0.69389  Biso   1.000  H
  C439     1.0000 0.61694  0.86051  0.81658  Biso   1.000  C
  C440     1.0000 0.18459  0.96160  0.69970  Biso   1.000  C
  H221     1.0000 0.62001  0.84480  0.86469  Biso   1.000  H
  H222     1.0000 0.15039  0.94739  0.73560  Biso   1.000  H
  H223     1.0000 0.63890  0.86990  0.81540  Biso   1.000  H
  H224     1.0000 0.17089  0.97819  0.68931  Biso   1.000  H
  C441     1.0000 0.57488  0.66801  0.34737  Biso   1.000  C
  C442     1.0000 0.55368  0.66723  0.32021  Biso   1.000  C
  C443     1.0000 0.60566  0.65444  0.34556  Biso   1.000  C
  H225     1.0000 0.56760  0.67831  0.36771  Biso   1.000  H
  C444     1.0000 0.52021  0.68015  0.32152  Biso   1.000  C
  C445     1.0000 0.56375  0.65225  0.29061  Biso   1.000  C
  C446     1.0000 0.61694  0.63948  0.31658  Biso   1.000  C
  H226     1.0000 0.62001  0.65519  0.36469  Biso   1.000  H
  C447     1.0000 0.49080  0.68924  0.32139  Biso   1.000  C
  C448     1.0000 0.59488  0.63834  0.28826  Biso   1.000  C
  H227     1.0000 0.54889  0.65169  0.27190  Biso   1.000  H
  H228     1.0000 0.63890  0.63011  0.31540  Biso   1.000  H
  C449     1.0000 0.45655  0.70017  0.32023  Biso   1.000  C
  C450     1.0000 0.60558  0.62185  0.25861  Biso   1.000  C
  C451     1.0000 0.44685  0.73240  0.32764  Biso   1.000  C
  C452     1.0000 0.43121  0.67735  0.31142  Biso   1.000  C
  C453     1.0000 0.61225  0.60790  0.23291  Biso   1.000  C
  C454     1.0000 0.41421  0.74202  0.32557  Biso   1.000  C
  H229     1.0000 0.46340  0.74829  0.33441  Biso   1.000  H
  C455     1.0000 0.39795  0.68727  0.30969  Biso   1.000  C
  H230     1.0000 0.43700  0.65469  0.30659  Biso   1.000  H
  C456     1.0000 0.62084  0.59105  0.20199  Biso   1.000  C
  C457     1.0000 0.38878  0.71956  0.31593  Biso   1.000  C
  H231     1.0000 0.40840  0.76461  0.33081  Biso   1.000  H
  H232     1.0000 0.38120  0.67121  0.30400  Biso   1.000  H
  C458     1.0000 0.62754  0.57722  0.17725  Biso   1.000  C
  C459     1.0000 0.35214  0.73238  0.31472  Biso   1.000  C
  C460     1.0000 0.63361  0.56101  0.14540  Biso   1.000  C
  C461     1.0000 0.32761  0.70581  0.30052  Biso   1.000  C
  C462     1.0000 0.34390  0.74129  0.35175  Biso   1.000  C
  C463     1.0000 0.34765  0.76255  0.29093  Biso   1.000  C
  C464     1.0000 0.61518  0.57015  0.11769  Biso   1.000  C
  C465     1.0000 0.65834  0.53668  0.14301  Biso   1.000  C
  C466     1.0000 0.29764  0.69634  0.31497  Biso   1.000  C
  C467     1.0000 0.33380  0.69289  0.26843  Biso   1.000  C
  C468     1.0000 0.34332  0.71556  0.37529  Biso   1.000  C
  C469     1.0000 0.34161  0.77280  0.36308  Biso   1.000  C
  C470     1.0000 0.31660  0.77872  0.28995  Biso   1.000  C
  C471     1.0000 0.37052  0.77202  0.26659  Biso   1.000  C
  C472     1.0000 0.62089  0.55509  0.08690  Biso   1.000  C
  H233     1.0000 0.59830  0.58700  0.11970  Biso   1.000  H
  C473     1.0000 0.66403  0.52129  0.11200  Biso   1.000  C
  H234     1.0000 0.67121  0.53051  0.16219  Biso   1.000  H
  C474     1.0000 0.27583  0.67383  0.30040  Biso   1.000  C
  H235     1.0000 0.29170  0.70581  0.33609  Biso   1.000  H
  C475     1.0000 0.31270  0.66977  0.25383  Biso   1.000  C
  H236     1.0000 0.35309  0.70029  0.25639  Biso   1.000  H
  H237     1.0000 0.34569  0.69289  0.36789  Biso   1.000  H
  C476     1.0000 0.33937  0.72210  0.40925  Biso   1.000  C
  H238     1.0000 0.34199  0.79111  0.34760  Biso   1.000  H
  C477     1.0000 0.33849  0.77950  0.39860  Biso   1.000  C
  H239     1.0000 0.30021  0.77300  0.30639  Biso   1.000  H
  C478     1.0000 0.30847  0.80266  0.26621  Biso   1.000  C
  C479     1.0000 0.36367  0.79594  0.24242  Biso   1.000  C
  H240     1.0000 0.39200  0.76149  0.26649  Biso   1.000  H
  C480     1.0000 0.60150  0.56481  0.05916  Biso   1.000  C
  C481     1.0000 0.64514  0.53011  0.08385  Biso   1.000  C
  H241     1.0000 0.68100  0.50460  0.11001  Biso   1.000  H
  C482     1.0000 0.28419  0.65975  0.26913  Biso   1.000  C
  H242     1.0000 0.25541  0.66791  0.31130  Biso   1.000  H
  H243     1.0000 0.31829  0.66071  0.23240  Biso   1.000  H
  H244     1.0000 0.33791  0.70369  0.42450  Biso   1.000  H
  C483     1.0000 0.33740  0.75421  0.42131  Biso   1.000  C
  H245     1.0000 0.33720  0.80211  0.40620  Biso   1.000  H
  H246     1.0000 0.28719  0.81359  0.26639  Biso   1.000  H
  C484     1.0000 0.33280  0.81029  0.24174  Biso   1.000  C
  H247     1.0000 0.38039  0.80221  0.22649  Biso   1.000  H
  C485     1.0000 0.58385  0.57337  0.03555  Biso   1.000  C
  H248     1.0000 0.64879  0.51920  0.06291  Biso   1.000  H
  C486     1.0000 0.26211  0.63560  0.25428  Biso   1.000  C
  Br9      1.0000 0.33463  0.76282  0.46680  Biso   1.000  Br
  C487     1.0000 0.32338  0.83387  0.21445  Biso   1.000  C
  C488     1.0000 0.56030  0.58279  0.00826  Biso   1.000  C
  C489     1.0000 0.24440  0.61500  0.24260  Biso   1.000  C
  C490     1.0000 0.31482  0.85149  0.19084  Biso   1.000  C
  C491     1.0000 0.55267  0.55849  0.98379  Biso   1.000  C
  C492     1.0000 0.54592  0.61369  0.00758  Biso   1.000  C
  C493     1.0000 0.22390  0.58891  0.22780  Biso   1.000  C
  C494     1.0000 0.30507  0.87089  0.16310  Biso   1.000  C
  C495     1.0000 0.52872  0.56660  0.96005  Biso   1.000  C
  H249     1.0000 0.56360  0.53721  0.98361  Biso   1.000  H
  C496     1.0000 0.52200  0.62051  0.98341  Biso   1.000  C
  H250     1.0000 0.55219  0.63041  0.02351  Biso   1.000  H
  C497     1.0000 0.23655  0.56889  0.20199  Biso   1.000  C
  C498     1.0000 0.19220  0.58269  0.24041  Biso   1.000  C
  C499     1.0000 0.28009  0.89514  0.16615  Biso   1.000  C
  C500     1.0000 0.32013  0.86517  0.13231  Biso   1.000  C
  C501     1.0000 0.51253  0.59765  0.95907  Biso   1.000  C
  H251     1.0000 0.52300  0.55020  0.94361  Biso   1.000  H
  H252     1.0000 0.51150  0.64200  0.98351  Biso   1.000  H
  C502     1.0000 0.21721  0.54411  0.18820  Biso   1.000  C
  H253     1.0000 0.25881  0.57259  0.19389  Biso   1.000  H
  C503     1.0000 0.17210  0.55710  0.22669  Biso   1.000  C
  H254     1.0000 0.18389  0.59591  0.25861  Biso   1.000  H
  H255     1.0000 0.26921  0.89879  0.18709  Biso   1.000  H
  C504     1.0000 0.27130  0.91402  0.13800  Biso   1.000  C
  C505     1.0000 0.31099  0.88360  0.10460  Biso   1.000  C
  H256     1.0000 0.33700  0.84830  0.13030  Biso   1.000  H
  C506     1.0000 0.48236  0.60213  0.93528  Biso   1.000  C
  C507     1.0000 0.23121  0.52391  0.16139  Biso   1.000  C
  C508     1.0000 0.18459  0.53839  0.19970  Biso   1.000  C
  H257     1.0000 0.15039  0.55260  0.23560  Biso   1.000  H
  C509     1.0000 0.28669  0.90833  0.10699  Biso   1.000  C
  H258     1.0000 0.25460  0.93100  0.13999  Biso   1.000  H
  C510     1.0000 0.32723  0.87756  0.07275  Biso   1.000  C
  C511     1.0000 0.45582  0.57763  0.94948  Biso   1.000  C
  C512     1.0000 0.49130  0.59390  0.89825  Biso   1.000  C
  C513     1.0000 0.46957  0.63877  0.93407  Biso   1.000  C
  C514     1.0000 0.24430  0.50991  0.13911  Biso   1.000  C
  H259     1.0000 0.17089  0.52180  0.18931  Biso   1.000  H
  H260     1.0000 0.28049  0.92120  0.08781  Biso   1.000  H
  C515     1.0000 0.34103  0.87084  0.04801  Biso   1.000  C
  C516     1.0000 0.44635  0.54763  0.93503  Biso   1.000  C
  C517     1.0000 0.44290  0.58382  0.98157  Biso   1.000  C
  C518     1.0000 0.46556  0.59334  0.87471  Biso   1.000  C
  C519     1.0000 0.52280  0.59160  0.88692  Biso   1.000  C
  C520     1.0000 0.49203  0.66423  0.92443  Biso   1.000  C
  C521     1.0000 0.43728  0.64794  0.94031  Biso   1.000  C
  C522     1.0000 0.25989  0.49430  0.11089  Biso   1.000  C
  C523     1.0000 0.35790  0.86225  0.01709  Biso   1.000  C
  C524     1.0000 0.42383  0.52583  0.94960  Biso   1.000  C
  H261     1.0000 0.45579  0.54169  0.91391  Biso   1.000  H
  C525     1.0000 0.41978  0.56272  0.99617  Biso   1.000  C
  H262     1.0000 0.45030  0.60309  0.99361  Biso   1.000  H
  H263     1.0000 0.44290  0.59571  0.88211  Biso   1.000  H
  C526     1.0000 0.47211  0.58936  0.84075  Biso   1.000  C
  H264     1.0000 0.54111  0.59201  0.90240  Biso   1.000  H
  C527     1.0000 0.52950  0.58851  0.85140  Biso   1.000  C
  H265     1.0000 0.51459  0.65839  0.91919  Biso   1.000  H
  C528     1.0000 0.48241  0.69687  0.92236  Biso   1.000  C
  H266     1.0000 0.42119  0.63119  0.94600  Biso   1.000  H
  C529     1.0000 0.42736  0.68121  0.93858  Biso   1.000  C
  C530     1.0000 0.27389  0.48120  0.08861  Biso   1.000  C
  C531     1.0000 0.37186  0.85557  0.99139  Biso   1.000  C
  C532     1.0000 0.40973  0.53421  0.98087  Biso   1.000  C
  H267     1.0000 0.41789  0.50540  0.93870  Biso   1.000  H
  H268     1.0000 0.41069  0.56831  0.01760  Biso   1.000  H
  H269     1.0000 0.45370  0.58790  0.82550  Biso   1.000  H
  C533     1.0000 0.50419  0.58740  0.82869  Biso   1.000  C
  H270     1.0000 0.55209  0.58720  0.84380  Biso   1.000  H
  H271     1.0000 0.49830  0.71339  0.91559  Biso   1.000  H
  C534     1.0000 0.45015  0.70654  0.92977  Biso   1.000  C
  H272     1.0000 0.40469  0.68700  0.94341  Biso   1.000  H
  C535     1.0000 0.29409  0.46720  0.06180  Biso   1.000  C
  C536     1.0000 0.38835  0.84487  0.96174  Biso   1.000  C
  C537     1.0000 0.38561  0.51210  0.99572  Biso   1.000  C
  Br10     1.0000 0.51283  0.58463  0.78320  Biso   1.000  Br
  C538     1.0000 0.43925  0.74079  0.92861  Biso   1.000  C
  C539     1.0000 0.28840  0.43461  0.05030  Biso   1.000  C
  C540     1.0000 0.31889  0.48654  0.04801  Biso   1.000  C
  C541     1.0000 0.40225  0.81377  0.95939  Biso   1.000  C
  C542     1.0000 0.38948  0.86693  0.93342  Biso   1.000  C
  C543     1.0000 0.36501  0.49442  0.00740  Biso   1.000  C
  C544     1.0000 0.43015  0.77020  0.92848  Biso   1.000  C
  H273     1.0000 0.27180  0.42091  0.06069  Biso   1.000  H
  C545     1.0000 0.30711  0.42210  0.02331  Biso   1.000  C
  C546     1.0000 0.33889  0.47390  0.02220  Biso   1.000  C
  H274     1.0000 0.32260  0.50880  0.05611  Biso   1.000  H
  C547     1.0000 0.41724  0.80370  0.92979  Biso   1.000  C
  H275     1.0000 0.40170  0.79891  0.97810  Biso   1.000  H
  C548     1.0000 0.40444  0.85565  0.90444  Biso   1.000  C
  H276     1.0000 0.38009  0.88889  0.93460  Biso   1.000  H
  C549     1.0000 0.33270  0.44219  0.00959  Biso   1.000  C
  H277     1.0000 0.30260  0.40039  0.01440  Biso   1.000  H
  C550     1.0000 0.41799  0.82488  0.90263  Biso   1.000  C
  H278     1.0000 0.40520  0.87000  0.88531  Biso   1.000  H
  H279     1.0000 0.34589  0.43391  0.99139  Biso   1.000  H
  H280     1.0000 0.42829  0.81760  0.88229  Biso   1.000  H
  C551     1.0000 0.42512  0.33199  0.65263  Biso   1.000  C
  C552     1.0000 0.39434  0.34556  0.65444  Biso   1.000  C
  C553     1.0000 0.44632  0.33277  0.67979  Biso   1.000  C
  H281     1.0000 0.43240  0.32169  0.63229  Biso   1.000  H
  C554     1.0000 0.38306  0.36052  0.68342  Biso   1.000  C
  H282     1.0000 0.37999  0.34481  0.63531  Biso   1.000  H
  C555     1.0000 0.43625  0.34775  0.70939  Biso   1.000  C
  C556     1.0000 0.47979  0.31985  0.67848  Biso   1.000  C
  C557     1.0000 0.40512  0.36166  0.71174  Biso   1.000  C
  H283     1.0000 0.36110  0.36989  0.68460  Biso   1.000  H
  H284     1.0000 0.45111  0.34831  0.72810  Biso   1.000  H
  C558     1.0000 0.50920  0.31076  0.67861  Biso   1.000  C
  C559     1.0000 0.39442  0.37815  0.74139  Biso   1.000  C
  C560     1.0000 0.54345  0.29983  0.67977  Biso   1.000  C
  C561     1.0000 0.38775  0.39210  0.76709  Biso   1.000  C
  C562     1.0000 0.56879  0.32265  0.68858  Biso   1.000  C
  C563     1.0000 0.55315  0.26760  0.67236  Biso   1.000  C
  C564     1.0000 0.37916  0.40895  0.79801  Biso   1.000  C
  C565     1.0000 0.60205  0.31273  0.69031  Biso   1.000  C
  H285     1.0000 0.56300  0.34531  0.69341  Biso   1.000  H
  C566     1.0000 0.58579  0.25798  0.67443  Biso   1.000  C
  H286     1.0000 0.53660  0.25171  0.66559  Biso   1.000  H
  C567     1.0000 0.37246  0.42278  0.82275  Biso   1.000  C
  C568     1.0000 0.61122  0.28044  0.68407  Biso   1.000  C
  H287     1.0000 0.61880  0.32879  0.69600  Biso   1.000  H
  H288     1.0000 0.59160  0.23539  0.66919  Biso   1.000  H
  C569     1.0000 0.36639  0.43899  0.85460  Biso   1.000  C
  C570     1.0000 0.64786  0.26762  0.68528  Biso   1.000  C
  C571     1.0000 0.38482  0.42985  0.88231  Biso   1.000  C
  C572     1.0000 0.34166  0.46332  0.85699  Biso   1.000  C
  C573     1.0000 0.65610  0.25871  0.64825  Biso   1.000  C
  C574     1.0000 0.65235  0.23745  0.70907  Biso   1.000  C
  C575     1.0000 0.67239  0.29419  0.69948  Biso   1.000  C
  C576     1.0000 0.37911  0.44491  0.91310  Biso   1.000  C
  H289     1.0000 0.40170  0.41300  0.88030  Biso   1.000  H
  H290     1.0000 0.32879  0.46949  0.83781  Biso   1.000  H
  C577     1.0000 0.33597  0.47871  0.88800  Biso   1.000  C
  C578     1.0000 0.65668  0.28444  0.62471  Biso   1.000  C
  C579     1.0000 0.65839  0.22720  0.63692  Biso   1.000  C
  C580     1.0000 0.68340  0.22128  0.71005  Biso   1.000  C
  C581     1.0000 0.62948  0.22798  0.73341  Biso   1.000  C
  C582     1.0000 0.66620  0.30711  0.73157  Biso   1.000  C
  C583     1.0000 0.70236  0.30366  0.68503  Biso   1.000  C
  C584     1.0000 0.39850  0.43519  0.94084  Biso   1.000  C
  C585     1.0000 0.35486  0.46989  0.91615  Biso   1.000  C
  H291     1.0000 0.31900  0.49540  0.88999  Biso   1.000  H
  H292     1.0000 0.65431  0.30711  0.63211  Biso   1.000  H
  C586     1.0000 0.66063  0.27790  0.59075  Biso   1.000  C
  H293     1.0000 0.65801  0.20889  0.65240  Biso   1.000  H
  C587     1.0000 0.66151  0.22050  0.60140  Biso   1.000  C
  H294     1.0000 0.69979  0.22700  0.69361  Biso   1.000  H
  C588     1.0000 0.69153  0.19734  0.73379  Biso   1.000  C
  C589     1.0000 0.63633  0.20406  0.75758  Biso   1.000  C
  H295     1.0000 0.60800  0.23851  0.73351  Biso   1.000  H
  H296     1.0000 0.64691  0.29971  0.74361  Biso   1.000  H
  C590     1.0000 0.68730  0.33023  0.74617  Biso   1.000  C
  H297     1.0000 0.70830  0.29419  0.66391  Biso   1.000  H
  C591     1.0000 0.72417  0.32617  0.69960  Biso   1.000  C
  C592     1.0000 0.41615  0.42663  0.96445  Biso   1.000  C
  H298     1.0000 0.35121  0.48080  0.93709  Biso   1.000  H
  H299     1.0000 0.66209  0.29631  0.57550  Biso   1.000  H
  C593     1.0000 0.66260  0.24579  0.57869  Biso   1.000  C
  H300     1.0000 0.66280  0.19789  0.59380  Biso   1.000  H
  H301     1.0000 0.71281  0.18641  0.73361  Biso   1.000  H
  C594     1.0000 0.66720  0.18971  0.75826  Biso   1.000  C
  H302     1.0000 0.61961  0.19779  0.77351  Biso   1.000  H
  C595     1.0000 0.71581  0.34025  0.73087  Biso   1.000  C
  H303     1.0000 0.68171  0.33929  0.76760  Biso   1.000  H
  H304     1.0000 0.74459  0.33209  0.68870  Biso   1.000  H
  C596     1.0000 0.43970  0.41721  0.99174  Biso   1.000  C
  Br11     1.0000 0.66537  0.23718  0.53320  Biso   1.000  Br
  C597     1.0000 0.67662  0.16613  0.78555  Biso   1.000  C
  C598     1.0000 0.73789  0.36440  0.74572  Biso   1.000  C
  C599     1.0000 0.45408  0.38631  0.99242  Biso   1.000  C
  C600     1.0000 0.44733  0.44151  0.01621  Biso   1.000  C
  C601     1.0000 0.68518  0.14851  0.80916  Biso   1.000  C
  C602     1.0000 0.75560  0.38500  0.75740  Biso   1.000  C
  H305     1.0000 0.44781  0.36959  0.97649  Biso   1.000  H
  C603     1.0000 0.47800  0.37949  0.01659  Biso   1.000  C
  C604     1.0000 0.47128  0.43340  0.03995  Biso   1.000  C
  H306     1.0000 0.43640  0.46279  0.01639  Biso   1.000  H
  C605     1.0000 0.69493  0.12911  0.83690  Biso   1.000  C
  C606     1.0000 0.77610  0.41109  0.77220  Biso   1.000  C
  C607     1.0000 0.48747  0.40235  0.04093  Biso   1.000  C
  H307     1.0000 0.48850  0.35800  0.01649  Biso   1.000  H
  H308     1.0000 0.47700  0.44980  0.05639  Biso   1.000  H
  C608     1.0000 0.71991  0.10486  0.83385  Biso   1.000  C
  C609     1.0000 0.67987  0.13483  0.86769  Biso   1.000  C
  C610     1.0000 0.80780  0.41731  0.75959  Biso   1.000  C
  C611     1.0000 0.76345  0.43111  0.79801  Biso   1.000  C
  C612     1.0000 0.51764  0.39787  0.06472  Biso   1.000  C
  H309     1.0000 0.73079  0.10121  0.81291  Biso   1.000  H
  C613     1.0000 0.72870  0.08598  0.86200  Biso   1.000  C
  H310     1.0000 0.66300  0.15170  0.86970  Biso   1.000  H
  C614     1.0000 0.68901  0.11640  0.89540  Biso   1.000  C
  H311     1.0000 0.81611  0.40409  0.74139  Biso   1.000  H
  C615     1.0000 0.82790  0.44290  0.77331  Biso   1.000  C
  H312     1.0000 0.74119  0.42741  0.80611  Biso   1.000  H
  C616     1.0000 0.78279  0.45589  0.81180  Biso   1.000  C
  C617     1.0000 0.50870  0.40610  0.10175  Biso   1.000  C
  C618     1.0000 0.53043  0.36123  0.06593  Biso   1.000  C
  C619     1.0000 0.54418  0.42237  0.05052  Biso   1.000  C
  C620     1.0000 0.71331  0.09167  0.89301  Biso   1.000  C
  H313     1.0000 0.74540  0.06900  0.86001  Biso   1.000  H
  C621     1.0000 0.67277  0.12244  0.92725  Biso   1.000  C
  C622     1.0000 0.81541  0.46161  0.80030  Biso   1.000  C
  H314     1.0000 0.84961  0.44740  0.76440  Biso   1.000  H
  C623     1.0000 0.76879  0.47609  0.83861  Biso   1.000  C
  C624     1.0000 0.53444  0.40666  0.12529  Biso   1.000  C
  C625     1.0000 0.47720  0.40840  0.11308  Biso   1.000  C
  C626     1.0000 0.50797  0.33577  0.07557  Biso   1.000  C
  C627     1.0000 0.56272  0.35206  0.05969  Biso   1.000  C
  C628     1.0000 0.55710  0.41618  0.01843  Biso   1.000  C
  C629     1.0000 0.55365  0.45237  0.06497  Biso   1.000  C
  H315     1.0000 0.71951  0.07880  0.91219  Biso   1.000  H
  C630     1.0000 0.65897  0.12916  0.95199  Biso   1.000  C
  H316     1.0000 0.82911  0.47820  0.81069  Biso   1.000  H
  C631     1.0000 0.75570  0.49009  0.86089  Biso   1.000  C
  H317     1.0000 0.55710  0.40429  0.11789  Biso   1.000  H
  C632     1.0000 0.52789  0.41064  0.15925  Biso   1.000  C
  H318     1.0000 0.45889  0.40799  0.09760  Biso   1.000  H
  C633     1.0000 0.47050  0.41149  0.14860  Biso   1.000  C
  H319     1.0000 0.48541  0.34161  0.08081  Biso   1.000  H
  C634     1.0000 0.51759  0.30313  0.07764  Biso   1.000  C
  H320     1.0000 0.57881  0.36881  0.05400  Biso   1.000  H
  C635     1.0000 0.57264  0.31879  0.06142  Biso   1.000  C
  H321     1.0000 0.54970  0.39691  0.00639  Biso   1.000  H
  C636     1.0000 0.58022  0.43728  0.00383  Biso   1.000  C
  H322     1.0000 0.54421  0.45831  0.08609  Biso   1.000  H
  C637     1.0000 0.57617  0.47417  0.05040  Biso   1.000  C
  C638     1.0000 0.64210  0.13775  0.98291  Biso   1.000  C
  C639     1.0000 0.74011  0.50570  0.88911  Biso   1.000  C
  H323     1.0000 0.54630  0.41210  0.17450  Biso   1.000  H
  C640     1.0000 0.49581  0.41260  0.17131  Biso   1.000  C
  H324     1.0000 0.44791  0.41280  0.15620  Biso   1.000  H
  H325     1.0000 0.50170  0.28661  0.08441  Biso   1.000  H
  C641     1.0000 0.54985  0.29346  0.07023  Biso   1.000  C
  H326     1.0000 0.59531  0.31300  0.05659  Biso   1.000  H
  H327     1.0000 0.58931  0.43169  0.98240  Biso   1.000  H
  C642     1.0000 0.59027  0.46579  0.01913  Biso   1.000  C
  H328     1.0000 0.58211  0.49460  0.06130  Biso   1.000  H
  C643     1.0000 0.62814  0.14443  0.00861  Biso   1.000  C
  C644     1.0000 0.72611  0.51880  0.91139  Biso   1.000  C
  Br12     1.0000 0.48717  0.41537  0.21680  Biso   1.000  Br
  C645     1.0000 0.56075  0.25921  0.07139  Biso   1.000  C
  C646     1.0000 0.61439  0.48790  0.00428  Biso   1.000  C
  C647     1.0000 0.61165  0.15513  0.03826  Biso   1.000  C
  C648     1.0000 0.70591  0.53280  0.93820  Biso   1.000  C
  C649     1.0000 0.56985  0.22980  0.07152  Biso   1.000  C
  C650     1.0000 0.63499  0.50558  0.99260  Biso   1.000  C
  C651     1.0000 0.59775  0.18623  0.04061  Biso   1.000  C
  C652     1.0000 0.61052  0.13307  0.06658  Biso   1.000  C
  C653     1.0000 0.68111  0.51346  0.95199  Biso   1.000  C
  C654     1.0000 0.71160  0.56539  0.94970  Biso   1.000  C
  C655     1.0000 0.58276  0.19630  0.07021  Biso   1.000  C
  C656     1.0000 0.66111  0.52610  0.97780  Biso   1.000  C
  H329     1.0000 0.59830  0.20109  0.02190  Biso   1.000  H
  C657     1.0000 0.59556  0.14435  0.09556  Biso   1.000  C
  H330     1.0000 0.61991  0.11111  0.06540  Biso   1.000  H
  H331     1.0000 0.67740  0.49120  0.94389  Biso   1.000  H
  C658     1.0000 0.69289  0.57790  0.97669  Biso   1.000  C
  H332     1.0000 0.72820  0.57909  0.93931  Biso   1.000  H
  C659     1.0000 0.58201  0.17512  0.09737  Biso   1.000  C
  C660     1.0000 0.66730  0.55781  0.99041  Biso   1.000  C
  H333     1.0000 0.59480  0.13000  0.11469  Biso   1.000  H
  H334     1.0000 0.69740  0.59961  0.98560  Biso   1.000  H
  H335     1.0000 0.57171  0.18240  0.11771  Biso   1.000  H
  H336     1.0000 0.65411  0.56609  0.00861  Biso   1.000  H
  C661     1.0000 0.68461  0.53839  0.30030  Biso   1.000  C
  C662     1.0000 0.67209  0.55710  0.27331  Biso   1.000  C
  H337     1.0000 0.67091  0.52180  0.31069  Biso   1.000  H
  C663     1.0000 0.71719  0.54411  0.31180  Biso   1.000  C
  C664     1.0000 0.69221  0.58269  0.25959  Biso   1.000  C
  H338     1.0000 0.65041  0.55260  0.26440  Biso   1.000  H
  C665     1.0000 0.73653  0.56889  0.29801  Biso   1.000  C
  C666     1.0000 0.73119  0.52391  0.33861  Biso   1.000  C
  C667     1.0000 0.72389  0.58891  0.27220  Biso   1.000  C
  H339     1.0000 0.68390  0.59591  0.24139  Biso   1.000  H
  H340     1.0000 0.75880  0.57259  0.30611  Biso   1.000  H
  C668     1.0000 0.74429  0.50991  0.36089  Biso   1.000  C
  C669     1.0000 0.74442  0.61500  0.25740  Biso   1.000  C
  C670     1.0000 0.75990  0.49430  0.38911  Biso   1.000  C
  C671     1.0000 0.76212  0.63560  0.24572  Biso   1.000  C
  C672     1.0000 0.77391  0.48120  0.41139  Biso   1.000  C
  C673     1.0000 0.78421  0.65975  0.23087  Biso   1.000  C
  C674     1.0000 0.79410  0.46720  0.43820  Biso   1.000  C
  C675     1.0000 0.77582  0.67383  0.19960  Biso   1.000  C
  C676     1.0000 0.81271  0.66977  0.24617  Biso   1.000  C
  C677     1.0000 0.81891  0.48654  0.45199  Biso   1.000  C
  C678     1.0000 0.78841  0.43461  0.44970  Biso   1.000  C
  C679     1.0000 0.79763  0.69634  0.18503  Biso   1.000  C
  H341     1.0000 0.75540  0.66791  0.18870  Biso   1.000  H
  C680     1.0000 0.83382  0.69289  0.23157  Biso   1.000  C
  H342     1.0000 0.81830  0.66071  0.26760  Biso   1.000  H
  C681     1.0000 0.83890  0.47390  0.47780  Biso   1.000  C
  H343     1.0000 0.82261  0.50880  0.44389  Biso   1.000  H
  H344     1.0000 0.77179  0.42091  0.43931  Biso   1.000  H
  C682     1.0000 0.80710  0.42210  0.47669  Biso   1.000  C
  C683     1.0000 0.82762  0.70581  0.19948  Biso   1.000  C
  H345     1.0000 0.79171  0.70581  0.16391  Biso   1.000  H
  H346     1.0000 0.85311  0.70029  0.24361  Biso   1.000  H
  C684     1.0000 0.86499  0.49442  0.49260  Biso   1.000  C
  C685     1.0000 0.83271  0.44219  0.49041  Biso   1.000  C
  H347     1.0000 0.80259  0.40039  0.48560  Biso   1.000  H
  C686     1.0000 0.85212  0.73238  0.18528  Biso   1.000  C
  C687     1.0000 0.88559  0.51210  0.50428  Biso   1.000  C
  H348     1.0000 0.84590  0.43391  0.50861  Biso   1.000  H
  C688     1.0000 0.84389  0.74129  0.14825  Biso   1.000  C
  C689     1.0000 0.84764  0.76255  0.20907  Biso   1.000  C
  C690     1.0000 0.88879  0.71956  0.18407  Biso   1.000  C
  C691     1.0000 0.90974  0.53421  0.51913  Biso   1.000  C
  C692     1.0000 0.84334  0.71556  0.12471  Biso   1.000  C
  C693     1.0000 0.84160  0.77280  0.13692  Biso   1.000  C
  C694     1.0000 0.81659  0.77872  0.21005  Biso   1.000  C
  C695     1.0000 0.87051  0.77202  0.23341  Biso   1.000  C
  C696     1.0000 0.91423  0.74202  0.17443  Biso   1.000  C
  C697     1.0000 0.89796  0.68727  0.19031  Biso   1.000  C
  C698     1.0000 0.92382  0.52583  0.55040  Biso   1.000  C
  C699     1.0000 0.91979  0.56272  0.50383  Biso   1.000  C
  H349     1.0000 0.84570  0.69289  0.13211  Biso   1.000  H
  C700     1.0000 0.83938  0.72210  0.09075  Biso   1.000  C
  H350     1.0000 0.84200  0.79111  0.15240  Biso   1.000  H
  C701     1.0000 0.83850  0.77950  0.10140  Biso   1.000  C
  H351     1.0000 0.80020  0.77300  0.19361  Biso   1.000  H
  C702     1.0000 0.80848  0.80266  0.23379  Biso   1.000  C
  C703     1.0000 0.86368  0.79594  0.25758  Biso   1.000  C
  H352     1.0000 0.89199  0.76149  0.23351  Biso   1.000  H
  H353     1.0000 0.90841  0.76461  0.16919  Biso   1.000  H
  C704     1.0000 0.94686  0.73240  0.17236  Biso   1.000  C
  H354     1.0000 0.88121  0.67121  0.19600  Biso   1.000  H
  C705     1.0000 0.93120  0.67735  0.18858  Biso   1.000  C
  C706     1.0000 0.94633  0.54763  0.56497  Biso   1.000  C
  H355     1.0000 0.91790  0.50540  0.56130  Biso   1.000  H
  C707     1.0000 0.94291  0.58382  0.51843  Biso   1.000  C
  H356     1.0000 0.91070  0.56831  0.48240  Biso   1.000  H
  H357     1.0000 0.83790  0.70369  0.07550  Biso   1.000  H
  C708     1.0000 0.83739  0.75421  0.07869  Biso   1.000  C
  H358     1.0000 0.83719  0.80211  0.09380  Biso   1.000  H
  H359     1.0000 0.78720  0.81359  0.23361  Biso   1.000  H
  C709     1.0000 0.83281  0.81029  0.25826  Biso   1.000  C
  H360     1.0000 0.88040  0.80221  0.27351  Biso   1.000  H
  H361     1.0000 0.96341  0.74829  0.16559  Biso   1.000  H
  C710     1.0000 0.95653  0.70017  0.17977  Biso   1.000  C
  H362     1.0000 0.93699  0.65469  0.19341  Biso   1.000  H
  C711     1.0000 0.95583  0.57763  0.55052  Biso   1.000  C
  H363     1.0000 0.95580  0.54169  0.58609  Biso   1.000  H
  H364     1.0000 0.95029  0.60309  0.50639  Biso   1.000  H
  Br13     1.0000 0.83462  0.76282  0.03320  Biso   1.000  Br
  C712     1.0000 0.82336  0.83387  0.28555  Biso   1.000  C
  C713     1.0000 0.99081  0.68924  0.17861  Biso   1.000  C
  C714     1.0000 0.98237  0.60213  0.56472  Biso   1.000  C
  C715     1.0000 0.81480  0.85149  0.30916  Biso   1.000  C
  C716     1.0000 0.02020  0.68015  0.17848  Biso   1.000  C
  C717     1.0000 0.99129  0.59390  0.60175  Biso   1.000  C
  C718     1.0000 0.96958  0.63877  0.56593  Biso   1.000  C
  C719     1.0000 0.01254  0.59765  0.54093  Biso   1.000  C
  C720     1.0000 0.80508  0.87089  0.33690  Biso   1.000  C
  C721     1.0000 0.05369  0.66723  0.17979  Biso   1.000  C
  C722     1.0000 0.96555  0.59334  0.62529  Biso   1.000  C
  C723     1.0000 0.02279  0.59160  0.61308  Biso   1.000  C
  C724     1.0000 0.99204  0.66423  0.57557  Biso   1.000  C
  C725     1.0000 0.93727  0.64794  0.55969  Biso   1.000  C
  C726     1.0000 0.02871  0.56660  0.53995  Biso   1.000  C
  C727     1.0000 0.02201  0.62051  0.51659  Biso   1.000  C
  C728     1.0000 0.78010  0.89514  0.33385  Biso   1.000  C
  C729     1.0000 0.82014  0.86517  0.36769  Biso   1.000  C
  C730     1.0000 0.06376  0.65225  0.20939  Biso   1.000  C
  C731     1.0000 0.07487  0.66801  0.15263  Biso   1.000  C
  H365     1.0000 0.94291  0.59571  0.61789  Biso   1.000  H
  C732     1.0000 0.97210  0.58936  0.65925  Biso   1.000  C
  H366     1.0000 0.04110  0.59201  0.59760  Biso   1.000  H
  C733     1.0000 0.02949  0.58851  0.64860  Biso   1.000  C
  C734     1.0000 0.98240  0.69687  0.57764  Biso   1.000  C
  H367     1.0000 0.01461  0.65839  0.58081  Biso   1.000  H
  H368     1.0000 0.92120  0.63119  0.55400  Biso   1.000  H
  C735     1.0000 0.92737  0.68121  0.56142  Biso   1.000  C
  H369     1.0000 0.02299  0.55020  0.55639  Biso   1.000  H
  C736     1.0000 0.05266  0.55849  0.51621  Biso   1.000  C
  C737     1.0000 0.04593  0.61369  0.49242  Biso   1.000  C
  H370     1.0000 0.01151  0.64200  0.51649  Biso   1.000  H
  H371     1.0000 0.76920  0.89879  0.31291  Biso   1.000  H
  C738     1.0000 0.77129  0.91402  0.36200  Biso   1.000  C
  H372     1.0000 0.83699  0.84830  0.36970  Biso   1.000  H
  C739     1.0000 0.81100  0.88360  0.39540  Biso   1.000  C
  H373     1.0000 0.04891  0.65169  0.22810  Biso   1.000  H
  C740     1.0000 0.09489  0.63834  0.21174  Biso   1.000  C
  C741     1.0000 0.10567  0.65444  0.15444  Biso   1.000  C
  H374     1.0000 0.06759  0.67831  0.13229  Biso   1.000  H
  H375     1.0000 0.95369  0.58790  0.67450  Biso   1.000  H
  C742     1.0000 0.00421  0.58740  0.67131  Biso   1.000  C
  H376     1.0000 0.05210  0.58720  0.65620  Biso   1.000  H
  H377     1.0000 0.99829  0.71339  0.58441  Biso   1.000  H
  C743     1.0000 0.95016  0.70654  0.57023  Biso   1.000  C
  H378     1.0000 0.90471  0.68700  0.55659  Biso   1.000  H
  H379     1.0000 0.06359  0.53721  0.51639  Biso   1.000  H
  C744     1.0000 0.06029  0.58279  0.49174  Biso   1.000  C
  H380     1.0000 0.05220  0.63041  0.47649  Biso   1.000  H
  C745     1.0000 0.78670  0.90833  0.39301  Biso   1.000  C
  H381     1.0000 0.75459  0.93100  0.36001  Biso   1.000  H
  C746     1.0000 0.82722  0.87756  0.42725  Biso   1.000  C
  C747     1.0000 0.11695  0.63948  0.18342  Biso   1.000  C
  C748     1.0000 0.10557  0.62185  0.24139  Biso   1.000  C
  H382     1.0000 0.12000  0.65519  0.13531  Biso   1.000  H
  Br14     1.0000 0.01282  0.58463  0.71680  Biso   1.000  Br
  C749     1.0000 0.93926  0.74079  0.57139  Biso   1.000  C
  C750     1.0000 0.08386  0.57337  0.46445  Biso   1.000  C
  H383     1.0000 0.78050  0.92120  0.41219  Biso   1.000  H
  C751     1.0000 0.84104  0.87084  0.45199  Biso   1.000  C
  H384     1.0000 0.13891  0.63011  0.18460  Biso   1.000  H
  C752     1.0000 0.11227  0.60790  0.26709  Biso   1.000  C
  C753     1.0000 0.93014  0.77020  0.57152  Biso   1.000  C
  C754     1.0000 0.10149  0.56481  0.44084  Biso   1.000  C
  C755     1.0000 0.85789  0.86225  0.48291  Biso   1.000  C
  C756     1.0000 0.12083  0.59105  0.29801  Biso   1.000  C
  C757     1.0000 0.91722  0.80370  0.57021  Biso   1.000  C
  C758     1.0000 0.12088  0.55509  0.41310  Biso   1.000  C
  C759     1.0000 0.87184  0.85557  0.50861  Biso   1.000  C
  C760     1.0000 0.12755  0.57722  0.32275  Biso   1.000  C
  C761     1.0000 0.90224  0.81377  0.54061  Biso   1.000  C
  C762     1.0000 0.91800  0.82488  0.59737  Biso   1.000  C
  C763     1.0000 0.11519  0.57015  0.38231  Biso   1.000  C
  C764     1.0000 0.14513  0.53011  0.41615  Biso   1.000  C
  C765     1.0000 0.88834  0.84487  0.53826  Biso   1.000  C
  C766     1.0000 0.13362  0.56101  0.35460  Biso   1.000  C
  H385     1.0000 0.90171  0.79891  0.52190  Biso   1.000  H
  C767     1.0000 0.90443  0.85565  0.59556  Biso   1.000  C
  H386     1.0000 0.92830  0.81760  0.61771  Biso   1.000  H
  H387     1.0000 0.09829  0.58700  0.38030  Biso   1.000  H
  C768     1.0000 0.16402  0.52129  0.38800  Biso   1.000  C
  H388     1.0000 0.14881  0.51920  0.43709  Biso   1.000  H
  C769     1.0000 0.88947  0.86693  0.56658  Biso   1.000  C
  C770     1.0000 0.15833  0.53668  0.35699  Biso   1.000  C
  H389     1.0000 0.90521  0.87000  0.61469  Biso   1.000  H
  H390     1.0000 0.18099  0.50460  0.38999  Biso   1.000  H
  H391     1.0000 0.88010  0.88889  0.56540  Biso   1.000  H
  H392     1.0000 0.17120  0.53051  0.33781  Biso   1.000  H
  C771     1.0000 0.31539  0.46161  0.69970  Biso   1.000  C
  C772     1.0000 0.28281  0.45589  0.68820  Biso   1.000  C
  H393     1.0000 0.32909  0.47820  0.68931  Biso   1.000  H
  C773     1.0000 0.32791  0.44290  0.72669  Biso   1.000  C
  C774     1.0000 0.26881  0.47609  0.66139  Biso   1.000  C
  C775     1.0000 0.26347  0.43111  0.70199  Biso   1.000  C
  C776     1.0000 0.30779  0.41731  0.74041  Biso   1.000  C
  H394     1.0000 0.34959  0.44740  0.73560  Biso   1.000  H
  C777     1.0000 0.25571  0.49009  0.63911  Biso   1.000  C
  C778     1.0000 0.27611  0.41109  0.72780  Biso   1.000  C
  H395     1.0000 0.24120  0.42741  0.69389  Biso   1.000  H
  H396     1.0000 0.31610  0.40409  0.75861  Biso   1.000  H
  C779     1.0000 0.24010  0.50570  0.61089  Biso   1.000  C
  C780     1.0000 0.25558  0.38500  0.74260  Biso   1.000  C
  C781     1.0000 0.22609  0.51880  0.58861  Biso   1.000  C
  C782     1.0000 0.23788  0.36440  0.75428  Biso   1.000  C
  C783     1.0000 0.20590  0.53280  0.56180  Biso   1.000  C
  C784     1.0000 0.21579  0.34025  0.76913  Biso   1.000  C
  C785     1.0000 0.18109  0.51346  0.54801  Biso   1.000  C
  C786     1.0000 0.21159  0.56539  0.55030  Biso   1.000  C
  C787     1.0000 0.18729  0.33023  0.75383  Biso   1.000  C
  C788     1.0000 0.22418  0.32617  0.80040  Biso   1.000  C
  C789     1.0000 0.16110  0.52610  0.52220  Biso   1.000  C
  H397     1.0000 0.17739  0.49120  0.55611  Biso   1.000  H
  C790     1.0000 0.19290  0.57790  0.52331  Biso   1.000  C
  H398     1.0000 0.22821  0.57909  0.56069  Biso   1.000  H
  C791     1.0000 0.16618  0.30711  0.76843  Biso   1.000  C
  H399     1.0000 0.18170  0.33929  0.73240  Biso   1.000  H
  C792     1.0000 0.20237  0.30366  0.81497  Biso   1.000  C
  H400     1.0000 0.24460  0.33209  0.81130  Biso   1.000  H
  C793     1.0000 0.13501  0.50558  0.50740  Biso   1.000  C
  C794     1.0000 0.16729  0.55781  0.50959  Biso   1.000  C
  H401     1.0000 0.19741  0.59961  0.51440  Biso   1.000  H
  C795     1.0000 0.17238  0.29419  0.80052  Biso   1.000  C
  H402     1.0000 0.14689  0.29971  0.75639  Biso   1.000  H
  H403     1.0000 0.20829  0.29419  0.83609  Biso   1.000  H
  C796     1.0000 0.11441  0.48790  0.49572  Biso   1.000  C
  H404     1.0000 0.15410  0.56609  0.49139  Biso   1.000  H
  C797     1.0000 0.14788  0.26762  0.81472  Biso   1.000  C
  C798     1.0000 0.09026  0.46579  0.48087  Biso   1.000  C
  C799     1.0000 0.15236  0.23745  0.79093  Biso   1.000  C
  C800     1.0000 0.15611  0.25871  0.85175  Biso   1.000  C
  C801     1.0000 0.11121  0.28044  0.81593  Biso   1.000  C
  C802     1.0000 0.08021  0.43728  0.49617  Biso   1.000  C
  C803     1.0000 0.07618  0.47417  0.44960  Biso   1.000  C
  C804     1.0000 0.18341  0.22128  0.78995  Biso   1.000  C
  C805     1.0000 0.12949  0.22798  0.76659  Biso   1.000  C
  C806     1.0000 0.15666  0.28444  0.87529  Biso   1.000  C
  C807     1.0000 0.15840  0.22720  0.86308  Biso   1.000  C
  C808     1.0000 0.08577  0.25798  0.82557  Biso   1.000  C
  C809     1.0000 0.10204  0.31273  0.80969  Biso   1.000  C
  C810     1.0000 0.05709  0.41618  0.48157  Biso   1.000  C
  H405     1.0000 0.08930  0.43169  0.51760  Biso   1.000  H
  C811     1.0000 0.05367  0.45237  0.43503  Biso   1.000  C
  H406     1.0000 0.08210  0.49460  0.43870  Biso   1.000  H
  C812     1.0000 0.19152  0.19734  0.76621  Biso   1.000  C
  H407     1.0000 0.19980  0.22700  0.80639  Biso   1.000  H
  C813     1.0000 0.13632  0.20406  0.74242  Biso   1.000  C
  H408     1.0000 0.10801  0.23851  0.76649  Biso   1.000  H
  H409     1.0000 0.15430  0.30711  0.86789  Biso   1.000  H
  C814     1.0000 0.16062  0.27790  0.90925  Biso   1.000  C
  H410     1.0000 0.15800  0.20889  0.84760  Biso   1.000  H
  C815     1.0000 0.16150  0.22050  0.89860  Biso   1.000  C
  H411     1.0000 0.09159  0.23539  0.83081  Biso   1.000  H
  C816     1.0000 0.05314  0.26760  0.82764  Biso   1.000  C
  H412     1.0000 0.11879  0.32879  0.80400  Biso   1.000  H
  C817     1.0000 0.06880  0.32265  0.81142  Biso   1.000  C
  C818     1.0000 0.04417  0.42237  0.44948  Biso   1.000  C
  H413     1.0000 0.04971  0.39691  0.49361  Biso   1.000  H
  H414     1.0000 0.04420  0.45831  0.41391  Biso   1.000  H
  C819     1.0000 0.16719  0.18971  0.74174  Biso   1.000  C
  H415     1.0000 0.21280  0.18641  0.76639  Biso   1.000  H
  H416     1.0000 0.11960  0.19779  0.72649  Biso   1.000  H
  H417     1.0000 0.16210  0.29631  0.92450  Biso   1.000  H
  C820     1.0000 0.16261  0.24579  0.92131  Biso   1.000  C
  H418     1.0000 0.16281  0.19789  0.90620  Biso   1.000  H
  H419     1.0000 0.03659  0.25171  0.83441  Biso   1.000  H
  C821     1.0000 0.04347  0.29983  0.82023  Biso   1.000  C
  H420     1.0000 0.06301  0.34531  0.80659  Biso   1.000  H
  C822     1.0000 0.01763  0.39787  0.43528  Biso   1.000  C
  C823     1.0000 0.17664  0.16613  0.71445  Biso   1.000  C
  Br15     1.0000 0.16538  0.23718  0.96680  Biso   1.000  Br
  C824     1.0000 0.00919  0.31076  0.82139  Biso   1.000  C
  C825     1.0000 0.03042  0.36123  0.43407  Biso   1.000  C
  C826     1.0000 0.00871  0.40610  0.39825  Biso   1.000  C
  C827     1.0000 0.98746  0.40235  0.45907  Biso   1.000  C
  C828     1.0000 0.18520  0.14851  0.69084  Biso   1.000  C
  C829     1.0000 0.97980  0.31985  0.82152  Biso   1.000  C
  C830     1.0000 0.06273  0.35206  0.44031  Biso   1.000  C
  C831     1.0000 0.00796  0.33577  0.42443  Biso   1.000  C
  C832     1.0000 0.03445  0.40666  0.37471  Biso   1.000  C
  C833     1.0000 0.97721  0.40840  0.38692  Biso   1.000  C
  C834     1.0000 0.97129  0.43340  0.46005  Biso   1.000  C
  C835     1.0000 0.97799  0.37949  0.48341  Biso   1.000  C
  C836     1.0000 0.19492  0.12911  0.66310  Biso   1.000  C
  C837     1.0000 0.94631  0.33277  0.82021  Biso   1.000  C
  C838     1.0000 0.07263  0.31879  0.43858  Biso   1.000  C
  H421     1.0000 0.07880  0.36881  0.44600  Biso   1.000  H
  C839     1.0000 0.01760  0.30313  0.42236  Biso   1.000  C
  H422     1.0000 0.98539  0.34161  0.41919  Biso   1.000  H
  H423     1.0000 0.05709  0.40429  0.38211  Biso   1.000  H
  C840     1.0000 0.02790  0.41064  0.34075  Biso   1.000  C
  H424     1.0000 0.95890  0.40799  0.40240  Biso   1.000  H
  C841     1.0000 0.97051  0.41149  0.35140  Biso   1.000  C
  H425     1.0000 0.97701  0.44980  0.44361  Biso   1.000  H
  C842     1.0000 0.94734  0.44151  0.48379  Biso   1.000  C
  C843     1.0000 0.95407  0.38631  0.50758  Biso   1.000  C
  H426     1.0000 0.98849  0.35800  0.48351  Biso   1.000  H
  C844     1.0000 0.17986  0.13483  0.63231  Biso   1.000  C
  C845     1.0000 0.21990  0.10486  0.66615  Biso   1.000  C
  C846     1.0000 0.93624  0.34775  0.79061  Biso   1.000  C
  C847     1.0000 0.92513  0.33199  0.84737  Biso   1.000  C
  C848     1.0000 0.04984  0.29346  0.42977  Biso   1.000  C
  H427     1.0000 0.09529  0.31300  0.44341  Biso   1.000  H
  H428     1.0000 0.00171  0.28661  0.41559  Biso   1.000  H
  H429     1.0000 0.04631  0.41210  0.32550  Biso   1.000  H
  C849     1.0000 0.99579  0.41260  0.32869  Biso   1.000  C
  H430     1.0000 0.94790  0.41280  0.34380  Biso   1.000  H
  H431     1.0000 0.93641  0.46279  0.48361  Biso   1.000  H
  C850     1.0000 0.93971  0.41721  0.50826  Biso   1.000  C
  H432     1.0000 0.94780  0.36959  0.52351  Biso   1.000  H
  C851     1.0000 0.18900  0.11640  0.60460  Biso   1.000  C
  H433     1.0000 0.16301  0.15170  0.63030  Biso   1.000  H
  C852     1.0000 0.22871  0.08598  0.63800  Biso   1.000  C
  H434     1.0000 0.23080  0.10121  0.68709  Biso   1.000  H
  C853     1.0000 0.90511  0.36166  0.78826  Biso   1.000  C
  H435     1.0000 0.95109  0.34831  0.77190  Biso   1.000  H
  C854     1.0000 0.89433  0.34556  0.84556  Biso   1.000  C
  H436     1.0000 0.93241  0.32169  0.86771  Biso   1.000  H
  C855     1.0000 0.06074  0.25921  0.42861  Biso   1.000  C
  Br16     1.0000 0.98718  0.41537  0.28320  Biso   1.000  Br
  C856     1.0000 0.91614  0.42663  0.53555  Biso   1.000  C
  C857     1.0000 0.17278  0.12244  0.57275  Biso   1.000  C
  C858     1.0000 0.21330  0.09167  0.60699  Biso   1.000  C
  H437     1.0000 0.24541  0.06900  0.63999  Biso   1.000  H
  C859     1.0000 0.89443  0.37815  0.75861  Biso   1.000  C
  C860     1.0000 0.88305  0.36052  0.81658  Biso   1.000  C
  H438     1.0000 0.88000  0.34481  0.86469  Biso   1.000  H
  C861     1.0000 0.06986  0.22980  0.42848  Biso   1.000  C
  C862     1.0000 0.89851  0.43519  0.55916  Biso   1.000  C
  C863     1.0000 0.15896  0.12916  0.54801  Biso   1.000  C
  H439     1.0000 0.21950  0.07880  0.58781  Biso   1.000  H
  C864     1.0000 0.88773  0.39210  0.73291  Biso   1.000  C
  H440     1.0000 0.86109  0.36989  0.81540  Biso   1.000  H
  C865     1.0000 0.08278  0.19630  0.42979  Biso   1.000  C
  C866     1.0000 0.87912  0.44491  0.58690  Biso   1.000  C
  C867     1.0000 0.14211  0.13775  0.51709  Biso   1.000  C
  C868     1.0000 0.87917  0.40895  0.70199  Biso   1.000  C
  C869     1.0000 0.08200  0.17512  0.40263  Biso   1.000  C
  C870     1.0000 0.09776  0.18623  0.45939  Biso   1.000  C
  C871     1.0000 0.85487  0.46989  0.58385  Biso   1.000  C
  C872     1.0000 0.88481  0.42985  0.61769  Biso   1.000  C
  C873     1.0000 0.12816  0.14443  0.49139  Biso   1.000  C
  C874     1.0000 0.87245  0.42278  0.67725  Biso   1.000  C
  C875     1.0000 0.09557  0.14435  0.40444  Biso   1.000  C
  H441     1.0000 0.07170  0.18240  0.38229  Biso   1.000  H
  H442     1.0000 0.09829  0.20109  0.47810  Biso   1.000  H
  C876     1.0000 0.11166  0.15513  0.46174  Biso   1.000  C
  H443     1.0000 0.85119  0.48080  0.56291  Biso   1.000  H
  C877     1.0000 0.83598  0.47871  0.61200  Biso   1.000  C
  H444     1.0000 0.90171  0.41300  0.61970  Biso   1.000  H
  C878     1.0000 0.86638  0.43899  0.64540  Biso   1.000  C
  C879     1.0000 0.11053  0.13307  0.43342  Biso   1.000  C
  H445     1.0000 0.09479  0.13000  0.38531  Biso   1.000  H
  C880     1.0000 0.84167  0.46332  0.64301  Biso   1.000  C
  H446     1.0000 0.81901  0.49540  0.61001  Biso   1.000  H
  H447     1.0000 0.11990  0.11111  0.43460  Biso   1.000  H
  H448     1.0000 0.82880  0.46949  0.66219  Biso   1.000  H
  C881     1.0000 0.66151  0.72049  0.39860  Biso   1.000  C
  C882     1.0000 0.65839  0.72719  0.36308  Biso   1.000  C
  C883     1.0000 0.66260  0.74580  0.42131  Biso   1.000  C
  H449     1.0000 0.66280  0.69790  0.40620  Biso   1.000  H
  C884     1.0000 0.65610  0.75872  0.35175  Biso   1.000  C
  H450     1.0000 0.65801  0.70891  0.34760  Biso   1.000  H
  C885     1.0000 0.66063  0.77791  0.40925  Biso   1.000  C
  Br17     1.0000 0.66537  0.73719  0.46680  Biso   1.000  Br
  C886     1.0000 0.64786  0.76763  0.31472  Biso   1.000  C
  C887     1.0000 0.65668  0.78443  0.37529  Biso   1.000  C
  H451     1.0000 0.66209  0.79629  0.42450  Biso   1.000  H
  C888     1.0000 0.65235  0.73747  0.29093  Biso   1.000  C
  C889     1.0000 0.61122  0.78043  0.31593  Biso   1.000  C
  C890     1.0000 0.67239  0.79418  0.30052  Biso   1.000  C
  H452     1.0000 0.65431  0.80710  0.36789  Biso   1.000  H
  C891     1.0000 0.68340  0.72130  0.28995  Biso   1.000  C
  C892     1.0000 0.62948  0.72800  0.26659  Biso   1.000  C
  C893     1.0000 0.58579  0.75796  0.32557  Biso   1.000  C
  C894     1.0000 0.60205  0.81271  0.30969  Biso   1.000  C
  C895     1.0000 0.66620  0.80710  0.26843  Biso   1.000  C
  C896     1.0000 0.70236  0.80367  0.31497  Biso   1.000  C
  C897     1.0000 0.69153  0.69735  0.26621  Biso   1.000  C
  H453     1.0000 0.69979  0.72699  0.30639  Biso   1.000  H
  C898     1.0000 0.63633  0.70407  0.24242  Biso   1.000  C
  H454     1.0000 0.60800  0.73850  0.26649  Biso   1.000  H
  H455     1.0000 0.59160  0.73540  0.33081  Biso   1.000  H
  C899     1.0000 0.55315  0.76761  0.32764  Biso   1.000  C
  H456     1.0000 0.61880  0.82880  0.30400  Biso   1.000  H
  C900     1.0000 0.56879  0.82263  0.31142  Biso   1.000  C
  H457     1.0000 0.64691  0.79969  0.25639  Biso   1.000  H
  C901     1.0000 0.68730  0.83021  0.25383  Biso   1.000  C
  H458     1.0000 0.70830  0.79420  0.33609  Biso   1.000  H
  C902     1.0000 0.72417  0.82616  0.30040  Biso   1.000  C
  C903     1.0000 0.66720  0.68972  0.24174  Biso   1.000  C
  H459     1.0000 0.71281  0.68639  0.26639  Biso   1.000  H
  H460     1.0000 0.61961  0.69780  0.22649  Biso   1.000  H
  H461     1.0000 0.53660  0.75169  0.33441  Biso   1.000  H
  C904     1.0000 0.54345  0.79984  0.32023  Biso   1.000  C
  H462     1.0000 0.56300  0.84530  0.30659  Biso   1.000  H
  C905     1.0000 0.71581  0.84026  0.26913  Biso   1.000  C
  H463     1.0000 0.68171  0.83931  0.23240  Biso   1.000  H
  H464     1.0000 0.74459  0.83210  0.31130  Biso   1.000  H
  C906     1.0000 0.67662  0.66615  0.21445  Biso   1.000  C
  C907     1.0000 0.50920  0.81075  0.32139  Biso   1.000  C
  C908     1.0000 0.73789  0.86439  0.25428  Biso   1.000  C
  C909     1.0000 0.68518  0.64849  0.19084  Biso   1.000  C
  C910     1.0000 0.47979  0.81984  0.32152  Biso   1.000  C
  C911     1.0000 0.75560  0.88499  0.24260  Biso   1.000  C
  C912     1.0000 0.69493  0.62913  0.16310  Biso   1.000  C
  C913     1.0000 0.44632  0.83276  0.32021  Biso   1.000  C
  C914     1.0000 0.77610  0.91110  0.22780  Biso   1.000  C
  C915     1.0000 0.67987  0.63482  0.13231  Biso   1.000  C
  C916     1.0000 0.71991  0.60485  0.16615  Biso   1.000  C
  C917     1.0000 0.43625  0.84774  0.29061  Biso   1.000  C
  C918     1.0000 0.42512  0.83200  0.34737  Biso   1.000  C
  C919     1.0000 0.80780  0.91730  0.24041  Biso   1.000  C
  C920     1.0000 0.76345  0.93110  0.20199  Biso   1.000  C
  H465     1.0000 0.66300  0.65169  0.13030  Biso   1.000  H
  C921     1.0000 0.68901  0.61638  0.10460  Biso   1.000  C
  H466     1.0000 0.73079  0.60120  0.18709  Biso   1.000  H
  C922     1.0000 0.72870  0.58596  0.13800  Biso   1.000  C
  H467     1.0000 0.45111  0.84830  0.27190  Biso   1.000  H
  C923     1.0000 0.40512  0.86167  0.28826  Biso   1.000  C
  C924     1.0000 0.39434  0.84555  0.34556  Biso   1.000  C
  H468     1.0000 0.43240  0.82170  0.36771  Biso   1.000  H
  H469     1.0000 0.81611  0.90410  0.25861  Biso   1.000  H
  C925     1.0000 0.82790  0.94291  0.22669  Biso   1.000  C
  H470     1.0000 0.74119  0.92740  0.19389  Biso   1.000  H
  C926     1.0000 0.78279  0.95590  0.18820  Biso   1.000  C
  C927     1.0000 0.71331  0.59168  0.10699  Biso   1.000  C
  C928     1.0000 0.67277  0.62245  0.07275  Biso   1.000  C
  H471     1.0000 0.74540  0.56899  0.13999  Biso   1.000  H
  C929     1.0000 0.38306  0.86051  0.31658  Biso   1.000  C
  C930     1.0000 0.39442  0.87814  0.25861  Biso   1.000  C
  H472     1.0000 0.37999  0.84480  0.36469  Biso   1.000  H
  C931     1.0000 0.81541  0.96160  0.19970  Biso   1.000  C
  H473     1.0000 0.84961  0.94739  0.23560  Biso   1.000  H
  C932     1.0000 0.76879  0.97610  0.16139  Biso   1.000  C
  H474     1.0000 0.71951  0.57881  0.08781  Biso   1.000  H
  C933     1.0000 0.65897  0.62915  0.04801  Biso   1.000  C
  H475     1.0000 0.36110  0.86990  0.31540  Biso   1.000  H
  C934     1.0000 0.38775  0.89209  0.23291  Biso   1.000  C
  H476     1.0000 0.82911  0.97819  0.18931  Biso   1.000  H
  C935     1.0000 0.75570  0.99010  0.13911  Biso   1.000  C
  C936     1.0000 0.64210  0.63774  0.01709  Biso   1.000  C
  C937     1.0000 0.37916  0.90896  0.20199  Biso   1.000  C
  C938     1.0000 0.74011  0.00569  0.11089  Biso   1.000  C
  C939     1.0000 0.62814  0.64441  0.99139  Biso   1.000  C
  C940     1.0000 0.37246  0.92279  0.17725  Biso   1.000  C
  C941     1.0000 0.72611  0.01881  0.08861  Biso   1.000  C
  C942     1.0000 0.61165  0.65512  0.96174  Biso   1.000  C
  C943     1.0000 0.36639  0.93901  0.14540  Biso   1.000  C
  C944     1.0000 0.70591  0.03279  0.06180  Biso   1.000  C
  C945     1.0000 0.59775  0.68624  0.95939  Biso   1.000  C
  C946     1.0000 0.61052  0.63306  0.93342  Biso   1.000  C
  C947     1.0000 0.38482  0.92986  0.11769  Biso   1.000  C
  C948     1.0000 0.34166  0.96331  0.14301  Biso   1.000  C
  C949     1.0000 0.68111  0.01345  0.04801  Biso   1.000  C
  C950     1.0000 0.71160  0.06540  0.05030  Biso   1.000  C
  C951     1.0000 0.58276  0.69632  0.92979  Biso   1.000  C
  H477     1.0000 0.59830  0.70110  0.97810  Biso   1.000  H
  H478     1.0000 0.61991  0.61110  0.93460  Biso   1.000  H
  C952     1.0000 0.59556  0.64434  0.90444  Biso   1.000  C
  C953     1.0000 0.37911  0.94492  0.08690  Biso   1.000  C
  H479     1.0000 0.40170  0.91299  0.11970  Biso   1.000  H
  H480     1.0000 0.32879  0.96950  0.16219  Biso   1.000  H
  C954     1.0000 0.33597  0.97872  0.11200  Biso   1.000  C
  C955     1.0000 0.66111  0.02609  0.02220  Biso   1.000  C
  H481     1.0000 0.67740  0.99121  0.05611  Biso   1.000  H
  H482     1.0000 0.72820  0.07910  0.06069  Biso   1.000  H
  C956     1.0000 0.69289  0.07789  0.02331  Biso   1.000  C
  C957     1.0000 0.56985  0.72981  0.92848  Biso   1.000  C
  C958     1.0000 0.58201  0.67511  0.90263  Biso   1.000  C
  H483     1.0000 0.59480  0.63001  0.88531  Biso   1.000  H
  C959     1.0000 0.39850  0.93518  0.05916  Biso   1.000  C
  C960     1.0000 0.35486  0.96991  0.08385  Biso   1.000  C
  H484     1.0000 0.31900  0.99539  0.11001  Biso   1.000  H
  C961     1.0000 0.63499  0.00559  0.00740  Biso   1.000  C
  C962     1.0000 0.66730  0.05780  0.00959  Biso   1.000  C
  H485     1.0000 0.69740  0.09960  0.01440  Biso   1.000  H
  C963     1.0000 0.56075  0.75920  0.92861  Biso   1.000  C
  H486     1.0000 0.57171  0.68239  0.88229  Biso   1.000  H
  C964     1.0000 0.41615  0.92664  0.03555  Biso   1.000  C
  H487     1.0000 0.35121  0.98081  0.06291  Biso   1.000  H
  C965     1.0000 0.61439  0.98789  0.99572  Biso   1.000  C
  H488     1.0000 0.65411  0.06611  0.99139  Biso   1.000  H
  C966     1.0000 0.54985  0.79347  0.92977  Biso   1.000  C
  C967     1.0000 0.43970  0.91720  0.00826  Biso   1.000  C
  C968     1.0000 0.59027  0.96580  0.98087  Biso   1.000  C
  C969     1.0000 0.57264  0.81881  0.93858  Biso   1.000  C
  C970     1.0000 0.51759  0.80314  0.92236  Biso   1.000  C
  C971     1.0000 0.44733  0.94152  0.98379  Biso   1.000  C
  C972     1.0000 0.45408  0.88632  0.00758  Biso   1.000  C
  C973     1.0000 0.58022  0.93729  0.99617  Biso   1.000  C
  C974     1.0000 0.57617  0.97416  0.94960  Biso   1.000  C
  C975     1.0000 0.56272  0.85205  0.94031  Biso   1.000  C
  H489     1.0000 0.59531  0.81299  0.94341  Biso   1.000  H
  C976     1.0000 0.50797  0.83578  0.92443  Biso   1.000  C
  H490     1.0000 0.50170  0.78660  0.91559  Biso   1.000  H
  C977     1.0000 0.47128  0.93339  0.96005  Biso   1.000  C
  H491     1.0000 0.43640  0.96280  0.98361  Biso   1.000  H
  C978     1.0000 0.47800  0.87947  0.98341  Biso   1.000  C
  H492     1.0000 0.44781  0.86960  0.02351  Biso   1.000  H
  C979     1.0000 0.55710  0.91619  0.98157  Biso   1.000  C
  H493     1.0000 0.58931  0.93170  0.01760  Biso   1.000  H
  C980     1.0000 0.55365  0.95235  0.93503  Biso   1.000  C
  H494     1.0000 0.58211  0.99461  0.93870  Biso   1.000  H
  C981     1.0000 0.53043  0.86122  0.93407  Biso   1.000  C
  H495     1.0000 0.57881  0.86880  0.94600  Biso   1.000  H
  H496     1.0000 0.48541  0.84160  0.91919  Biso   1.000  H
  C982     1.0000 0.48747  0.90234  0.95907  Biso   1.000  C
  H497     1.0000 0.47700  0.94981  0.94361  Biso   1.000  H
  H498     1.0000 0.48850  0.85799  0.98351  Biso   1.000  H
  C983     1.0000 0.54418  0.92239  0.94948  Biso   1.000  C
  H499     1.0000 0.54970  0.89690  0.99361  Biso   1.000  H
  H500     1.0000 0.54421  0.95830  0.91391  Biso   1.000  H
  C984     1.0000 0.51764  0.89788  0.93528  Biso   1.000  C
  C985     1.0000 0.50870  0.90609  0.89825  Biso   1.000  C
  C986     1.0000 0.53444  0.90667  0.87471  Biso   1.000  C
  C987     1.0000 0.47720  0.90841  0.88692  Biso   1.000  C
  H501     1.0000 0.55710  0.90430  0.88211  Biso   1.000  H
  C988     1.0000 0.52789  0.91062  0.84075  Biso   1.000  C
  H502     1.0000 0.45889  0.90801  0.90240  Biso   1.000  H
  C989     1.0000 0.47050  0.91151  0.85140  Biso   1.000  C
  H503     1.0000 0.54630  0.91211  0.82550  Biso   1.000  H
  C990     1.0000 0.49581  0.91259  0.82869  Biso   1.000  C
  H504     1.0000 0.44791  0.91279  0.84380  Biso   1.000  H
  Br18     1.0000 0.48717  0.91536  0.78320  Biso   1.000  Br
  C991     1.0000 0.33849  0.27951  0.60140  Biso   1.000  C
  C992     1.0000 0.33740  0.25420  0.57869  Biso   1.000  C
  C993     1.0000 0.34161  0.27281  0.63692  Biso   1.000  C
  H505     1.0000 0.33720  0.30210  0.59380  Biso   1.000  H
  Br19     1.0000 0.33463  0.26281  0.53320  Biso   1.000  Br
  C994     1.0000 0.33937  0.22209  0.59075  Biso   1.000  C
  C995     1.0000 0.34390  0.24128  0.64825  Biso   1.000  C
  H506     1.0000 0.34199  0.29109  0.65240  Biso   1.000  H
  C996     1.0000 0.34332  0.21557  0.62471  Biso   1.000  C
  H507     1.0000 0.33791  0.20371  0.57550  Biso   1.000  H
  C997     1.0000 0.35214  0.23237  0.68528  Biso   1.000  C
  H508     1.0000 0.34569  0.19290  0.63211  Biso   1.000  H
  C998     1.0000 0.34765  0.26253  0.70907  Biso   1.000  C
  C999     1.0000 0.38878  0.21957  0.68407  Biso   1.000  C
  C1000    1.0000 0.32761  0.20582  0.69948  Biso   1.000  C
  C1001    1.0000 0.31660  0.27870  0.71005  Biso   1.000  C
  C1002    1.0000 0.37052  0.27200  0.73341  Biso   1.000  C
  C1003    1.0000 0.41421  0.24204  0.67443  Biso   1.000  C
  C1004    1.0000 0.39795  0.18729  0.69031  Biso   1.000  C
  C1005    1.0000 0.33380  0.19290  0.73157  Biso   1.000  C
  C1006    1.0000 0.29764  0.19633  0.68503  Biso   1.000  C
  H509     1.0000 0.30021  0.27301  0.69361  Biso   1.000  H
  C1007    1.0000 0.30847  0.30265  0.73379  Biso   1.000  C
  C1008    1.0000 0.36367  0.29593  0.75758  Biso   1.000  C
  H510     1.0000 0.39200  0.26150  0.73351  Biso   1.000  H
  H511     1.0000 0.40840  0.26460  0.66919  Biso   1.000  H
  C1009    1.0000 0.44685  0.23239  0.67236  Biso   1.000  C
  H512     1.0000 0.38120  0.17120  0.69600  Biso   1.000  H
  C1010    1.0000 0.43121  0.17737  0.68858  Biso   1.000  C
  H513     1.0000 0.35309  0.20031  0.74361  Biso   1.000  H
  C1011    1.0000 0.31270  0.16979  0.74617  Biso   1.000  C
  H514     1.0000 0.29170  0.20580  0.66391  Biso   1.000  H
  C1012    1.0000 0.27583  0.17384  0.69960  Biso   1.000  C
  H515     1.0000 0.28719  0.31361  0.73361  Biso   1.000  H
  C1013    1.0000 0.33280  0.31028  0.75826  Biso   1.000  C
  H516     1.0000 0.38039  0.30220  0.77351  Biso   1.000  H
  H517     1.0000 0.46340  0.24831  0.66559  Biso   1.000  H
  C1014    1.0000 0.45655  0.20016  0.67977  Biso   1.000  C
  H518     1.0000 0.43700  0.15470  0.69341  Biso   1.000  H
  C1015    1.0000 0.28419  0.15974  0.73087  Biso   1.000  C
  H519     1.0000 0.31829  0.16069  0.76760  Biso   1.000  H
  H520     1.0000 0.25541  0.16790  0.68870  Biso   1.000  H
  C1016    1.0000 0.32338  0.33385  0.78555  Biso   1.000  C
  C1017    1.0000 0.49080  0.18925  0.67861  Biso   1.000  C
  C1018    1.0000 0.26211  0.13561  0.74572  Biso   1.000  C
  C1019    1.0000 0.31482  0.35151  0.80916  Biso   1.000  C
  C1020    1.0000 0.52021  0.18016  0.67848  Biso   1.000  C
  C1021    1.0000 0.24440  0.11501  0.75740  Biso   1.000  C
  C1022    1.0000 0.30507  0.37087  0.83690  Biso   1.000  C
  C1023    1.0000 0.55368  0.16724  0.67979  Biso   1.000  C
  C1024    1.0000 0.22390  0.08890  0.77220  Biso   1.000  C
  C1025    1.0000 0.28009  0.39515  0.83385  Biso   1.000  C
  C1026    1.0000 0.32013  0.36518  0.86769  Biso   1.000  C
  C1027    1.0000 0.56375  0.15226  0.70939  Biso   1.000  C
  C1028    1.0000 0.57488  0.16800  0.65263  Biso   1.000  C
  C1029    1.0000 0.19220  0.08270  0.75959  Biso   1.000  C
  C1030    1.0000 0.23655  0.06890  0.79801  Biso   1.000  C
  H521     1.0000 0.26921  0.39880  0.81291  Biso   1.000  H
  C1031    1.0000 0.27130  0.41404  0.86200  Biso   1.000  C
  H522     1.0000 0.33700  0.34831  0.86970  Biso   1.000  H
  C1032    1.0000 0.31099  0.38362  0.89540  Biso   1.000  C
  H523     1.0000 0.54889  0.15170  0.72810  Biso   1.000  H
  C1033    1.0000 0.59488  0.13833  0.71174  Biso   1.000  C
  C1034    1.0000 0.60566  0.15445  0.65444  Biso   1.000  C
  H524     1.0000 0.56760  0.17830  0.63229  Biso   1.000  H
  H525     1.0000 0.18389  0.09590  0.74139  Biso   1.000  H
  C1035    1.0000 0.17210  0.05709  0.77331  Biso   1.000  C
  H526     1.0000 0.25881  0.07260  0.80611  Biso   1.000  H
  C1036    1.0000 0.21721  0.04410  0.81180  Biso   1.000  C
  C1037    1.0000 0.28669  0.40832  0.89301  Biso   1.000  C
  H527     1.0000 0.25460  0.43101  0.86001  Biso   1.000  H
  C1038    1.0000 0.32723  0.37755  0.92725  Biso   1.000  C
  C1039    1.0000 0.61694  0.13949  0.68342  Biso   1.000  C
  C1040    1.0000 0.60558  0.12186  0.74139  Biso   1.000  C
  H528     1.0000 0.62001  0.15520  0.63531  Biso   1.000  H
  C1041    1.0000 0.18459  0.03840  0.80030  Biso   1.000  C
  H529     1.0000 0.15039  0.05261  0.76440  Biso   1.000  H
  C1042    1.0000 0.23121  0.02390  0.83861  Biso   1.000  C
  H530     1.0000 0.28049  0.42119  0.91219  Biso   1.000  H
  C1043    1.0000 0.34103  0.37085  0.95199  Biso   1.000  C
  H531     1.0000 0.63890  0.13010  0.68460  Biso   1.000  H
  C1044    1.0000 0.61225  0.10791  0.76709  Biso   1.000  C
  H532     1.0000 0.17089  0.02181  0.81069  Biso   1.000  H
  C1045    1.0000 0.24430  0.00990  0.86089  Biso   1.000  C
  C1046    1.0000 0.35790  0.36226  0.98291  Biso   1.000  C
  C1047    1.0000 0.62084  0.09104  0.79801  Biso   1.000  C
  C1048    1.0000 0.25989  0.99431  0.88911  Biso   1.000  C
  C1049    1.0000 0.37186  0.35559  0.00861  Biso   1.000  C
  C1050    1.0000 0.62754  0.07721  0.82275  Biso   1.000  C
  C1051    1.0000 0.27389  0.98119  0.91139  Biso   1.000  C
  C1052    1.0000 0.38835  0.34488  0.03826  Biso   1.000  C
  C1053    1.0000 0.63361  0.06099  0.85460  Biso   1.000  C
  C1054    1.0000 0.29409  0.96721  0.93820  Biso   1.000  C
  C1055    1.0000 0.40225  0.31376  0.04061  Biso   1.000  C
  C1056    1.0000 0.38948  0.36694  0.06658  Biso   1.000  C
  C1057    1.0000 0.61518  0.07014  0.88231  Biso   1.000  C
  C1058    1.0000 0.65834  0.03669  0.85699  Biso   1.000  C
  C1059    1.0000 0.31889  0.98655  0.95199  Biso   1.000  C
  C1060    1.0000 0.28840  0.93460  0.94970  Biso   1.000  C
  C1061    1.0000 0.41724  0.30368  0.07021  Biso   1.000  C
  H533     1.0000 0.40170  0.29890  0.02190  Biso   1.000  H
  H534     1.0000 0.38009  0.38890  0.06540  Biso   1.000  H
  C1062    1.0000 0.40444  0.35566  0.09556  Biso   1.000  C
  C1063    1.0000 0.62089  0.05508  0.91310  Biso   1.000  C
  H535     1.0000 0.59830  0.08701  0.88030  Biso   1.000  H
  H536     1.0000 0.67121  0.03050  0.83781  Biso   1.000  H
  C1064    1.0000 0.66403  0.02128  0.88800  Biso   1.000  C
  H537     1.0000 0.32260  0.00879  0.94389  Biso   1.000  H
  C1065    1.0000 0.33889  0.97391  0.97780  Biso   1.000  C
  H538     1.0000 0.27180  0.92090  0.93931  Biso   1.000  H
  C1066    1.0000 0.30711  0.92211  0.97669  Biso   1.000  C
  C1067    1.0000 0.43015  0.27019  0.07152  Biso   1.000  C
  C1068    1.0000 0.41799  0.32489  0.09737  Biso   1.000  C
  H539     1.0000 0.40520  0.36999  0.11469  Biso   1.000  H
  C1069    1.0000 0.60150  0.06482  0.94084  Biso   1.000  C
  C1070    1.0000 0.64514  0.03009  0.91615  Biso   1.000  C
  H540     1.0000 0.68100  0.00461  0.88999  Biso   1.000  H
  C1071    1.0000 0.36501  0.99441  0.99260  Biso   1.000  C
  C1072    1.0000 0.33270  0.94220  0.99041  Biso   1.000  C
  H541     1.0000 0.30260  0.90040  0.98560  Biso   1.000  H
  C1073    1.0000 0.43925  0.24080  0.07139  Biso   1.000  C
  H542     1.0000 0.42829  0.31761  0.11771  Biso   1.000  H
  C1074    1.0000 0.58385  0.07336  0.96445  Biso   1.000  C
  H543     1.0000 0.64879  0.01919  0.93709  Biso   1.000  H
  C1075    1.0000 0.38561  0.01211  0.00428  Biso   1.000  C
  H544     1.0000 0.34589  0.93389  0.00861  Biso   1.000  H
  C1076    1.0000 0.45015  0.20653  0.07023  Biso   1.000  C
  C1077    1.0000 0.56030  0.08280  0.99174  Biso   1.000  C
  C1078    1.0000 0.40973  0.03420  0.01913  Biso   1.000  C
  C1079    1.0000 0.42736  0.18119  0.06142  Biso   1.000  C
  C1080    1.0000 0.48241  0.19686  0.07764  Biso   1.000  C
  C1081    1.0000 0.54592  0.11368  0.99242  Biso   1.000  C
  C1082    1.0000 0.55267  0.05848  0.01621  Biso   1.000  C
  C1083    1.0000 0.42383  0.02584  0.05040  Biso   1.000  C
  C1084    1.0000 0.41978  0.06271  0.00383  Biso   1.000  C
  C1085    1.0000 0.43728  0.14795  0.05969  Biso   1.000  C
  H545     1.0000 0.40469  0.18701  0.05659  Biso   1.000  H
  C1086    1.0000 0.49203  0.16422  0.07557  Biso   1.000  C
  H546     1.0000 0.49830  0.21340  0.08441  Biso   1.000  H
  H547     1.0000 0.55219  0.13040  0.97649  Biso   1.000  H
  C1087    1.0000 0.52200  0.12053  0.01659  Biso   1.000  C
  C1088    1.0000 0.52872  0.06661  0.03995  Biso   1.000  C
  H548     1.0000 0.56360  0.03720  0.01639  Biso   1.000  H
  C1089    1.0000 0.44635  0.04765  0.06497  Biso   1.000  C
  H549     1.0000 0.41789  0.00539  0.06130  Biso   1.000  H
  H550     1.0000 0.41069  0.06830  0.98240  Biso   1.000  H
  C1090    1.0000 0.44290  0.08381  0.01843  Biso   1.000  C
  C1091    1.0000 0.46957  0.13878  0.06593  Biso   1.000  C
  H551     1.0000 0.42119  0.13120  0.05400  Biso   1.000  H
  H552     1.0000 0.51459  0.15840  0.08081  Biso   1.000  H
  C1092    1.0000 0.51253  0.09766  0.04093  Biso   1.000  C
  H553     1.0000 0.51150  0.14201  0.01649  Biso   1.000  H
  H554     1.0000 0.52300  0.05019  0.05639  Biso   1.000  H
  C1093    1.0000 0.45582  0.07761  0.05052  Biso   1.000  C
  H555     1.0000 0.45579  0.04170  0.08609  Biso   1.000  H
  H556     1.0000 0.45030  0.10310  0.00639  Biso   1.000  H
  C1094    1.0000 0.48236  0.10212  0.06472  Biso   1.000  C
  C1095    1.0000 0.49130  0.09391  0.10175  Biso   1.000  C
  C1096    1.0000 0.46556  0.09333  0.12529  Biso   1.000  C
  C1097    1.0000 0.52280  0.09159  0.11308  Biso   1.000  C
  H557     1.0000 0.44290  0.09570  0.11789  Biso   1.000  H
  C1098    1.0000 0.47211  0.08938  0.15925  Biso   1.000  C
  H558     1.0000 0.54111  0.09199  0.09760  Biso   1.000  H
  C1099    1.0000 0.52950  0.08849  0.14860  Biso   1.000  C
  H559     1.0000 0.45370  0.08789  0.17450  Biso   1.000  H
  C1100    1.0000 0.50419  0.08741  0.17131  Biso   1.000  C
  H560     1.0000 0.55209  0.08721  0.15620  Biso   1.000  H
  Br20     1.0000 0.51283  0.08464  0.21680  Biso   1.000  Br
  C1101    1.0000 0.77129  0.41404  0.63800  Biso   1.000  C
  C1102    1.0000 0.78010  0.39515  0.66615  Biso   1.000  C
  C1103    1.0000 0.78670  0.40832  0.60699  Biso   1.000  C
  H561     1.0000 0.75459  0.43101  0.63999  Biso   1.000  H
  C1104    1.0000 0.80508  0.37087  0.66310  Biso   1.000  C
  H562     1.0000 0.76920  0.39880  0.68709  Biso   1.000  H
  C1105    1.0000 0.81100  0.38362  0.60460  Biso   1.000  C
  H563     1.0000 0.78050  0.42119  0.58781  Biso   1.000  H
  C1106    1.0000 0.81480  0.35151  0.69084  Biso   1.000  C
  C1107    1.0000 0.82014  0.36518  0.63231  Biso   1.000  C
  C1108    1.0000 0.82722  0.37755  0.57275  Biso   1.000  C
  C1109    1.0000 0.82336  0.33385  0.71445  Biso   1.000  C
  H564     1.0000 0.83699  0.34831  0.63030  Biso   1.000  H
  C1110    1.0000 0.84104  0.37085  0.54801  Biso   1.000  C
  C1111    1.0000 0.83281  0.31028  0.74174  Biso   1.000  C
  C1112    1.0000 0.85789  0.36226  0.51709  Biso   1.000  C
  C1113    1.0000 0.80848  0.30265  0.76621  Biso   1.000  C
  C1114    1.0000 0.86368  0.29593  0.74242  Biso   1.000  C
  C1115    1.0000 0.87184  0.35559  0.49139  Biso   1.000  C
  C1116    1.0000 0.81659  0.27870  0.78995  Biso   1.000  C
  H565     1.0000 0.78720  0.31361  0.76639  Biso   1.000  H
  C1117    1.0000 0.87051  0.27200  0.76659  Biso   1.000  C
  H566     1.0000 0.88040  0.30220  0.72649  Biso   1.000  H
  C1118    1.0000 0.88834  0.34488  0.46174  Biso   1.000  C
  C1119    1.0000 0.84764  0.26253  0.79093  Biso   1.000  C
  H567     1.0000 0.80020  0.27301  0.80639  Biso   1.000  H
  H568     1.0000 0.89199  0.26150  0.76649  Biso   1.000  H
  C1120    1.0000 0.90224  0.31376  0.45939  Biso   1.000  C
  C1121    1.0000 0.88947  0.36694  0.43342  Biso   1.000  C
  C1122    1.0000 0.85212  0.23237  0.81472  Biso   1.000  C
  C1123    1.0000 0.91722  0.30368  0.42979  Biso   1.000  C
  H569     1.0000 0.90171  0.29890  0.47810  Biso   1.000  H
  C1124    1.0000 0.90443  0.35566  0.40444  Biso   1.000  C
  H570     1.0000 0.88010  0.38890  0.43460  Biso   1.000  H
  C1125    1.0000 0.82762  0.20582  0.80052  Biso   1.000  C
  C1126    1.0000 0.84389  0.24128  0.85175  Biso   1.000  C
  C1127    1.0000 0.88879  0.21957  0.81593  Biso   1.000  C
  C1128    1.0000 0.93014  0.27019  0.42848  Biso   1.000  C
  C1129    1.0000 0.91800  0.32489  0.40263  Biso   1.000  C
  H571     1.0000 0.90521  0.36999  0.38531  Biso   1.000  H
  C1130    1.0000 0.79763  0.19633  0.81497  Biso   1.000  C
  C1131    1.0000 0.83382  0.19290  0.76843  Biso   1.000  C
  C1132    1.0000 0.84334  0.21557  0.87529  Biso   1.000  C
  C1133    1.0000 0.84160  0.27281  0.86308  Biso   1.000  C
  C1134    1.0000 0.91423  0.24204  0.82557  Biso   1.000  C
  C1135    1.0000 0.89796  0.18729  0.80969  Biso   1.000  C
  C1136    1.0000 0.93926  0.24080  0.42861  Biso   1.000  C
  H572     1.0000 0.92830  0.31761  0.38229  Biso   1.000  H
  C1137    1.0000 0.77582  0.17384  0.80040  Biso   1.000  C
  H573     1.0000 0.79171  0.20580  0.83609  Biso   1.000  H
  C1138    1.0000 0.81271  0.16979  0.75383  Biso   1.000  C
  H574     1.0000 0.85311  0.20031  0.75639  Biso   1.000  H
  H575     1.0000 0.84570  0.19290  0.86789  Biso   1.000  H
  C1139    1.0000 0.83938  0.22209  0.90925  Biso   1.000  C
  H576     1.0000 0.84200  0.29109  0.84760  Biso   1.000  H
  C1140    1.0000 0.83850  0.27951  0.89860  Biso   1.000  C
  H577     1.0000 0.90841  0.26460  0.83081  Biso   1.000  H
  C1141    1.0000 0.94686  0.23239  0.82764  Biso   1.000  C
  H578     1.0000 0.88121  0.17120  0.80400  Biso   1.000  H
  C1142    1.0000 0.93120  0.17737  0.81142  Biso   1.000  C
  C1143    1.0000 0.95016  0.20653  0.42977  Biso   1.000  C
  C1144    1.0000 0.78421  0.15974  0.76913  Biso   1.000  C
  H579     1.0000 0.75540  0.16790  0.81130  Biso   1.000  H
  H580     1.0000 0.81830  0.16069  0.73240  Biso   1.000  H
  H581     1.0000 0.83790  0.20371  0.92450  Biso   1.000  H
  C1145    1.0000 0.83739  0.25420  0.92131  Biso   1.000  C
  H582     1.0000 0.83719  0.30210  0.90620  Biso   1.000  H
  H583     1.0000 0.96341  0.24831  0.83441  Biso   1.000  H
  C1146    1.0000 0.95653  0.20016  0.82023  Biso   1.000  C
  H584     1.0000 0.93699  0.15470  0.80659  Biso   1.000  H
  C1147    1.0000 0.98240  0.19686  0.42236  Biso   1.000  C
  C1148    1.0000 0.92737  0.18119  0.43858  Biso   1.000  C
  C1149    1.0000 0.76212  0.13561  0.75428  Biso   1.000  C
  Br21     1.0000 0.83462  0.26281  0.96680  Biso   1.000  Br
  C1150    1.0000 0.99081  0.18925  0.82139  Biso   1.000  C
  C1151    1.0000 0.99204  0.16422  0.42443  Biso   1.000  C
  H585     1.0000 0.99829  0.21340  0.41559  Biso   1.000  H
  C1152    1.0000 0.93727  0.14795  0.44031  Biso   1.000  C
  H586     1.0000 0.90471  0.18701  0.44341  Biso   1.000  H
  C1153    1.0000 0.74442  0.11501  0.74260  Biso   1.000  C
  C1154    1.0000 0.02020  0.18016  0.82152  Biso   1.000  C
  C1155    1.0000 0.96958  0.13878  0.43407  Biso   1.000  C
  H587     1.0000 0.01461  0.15840  0.41919  Biso   1.000  H
  H588     1.0000 0.92120  0.13120  0.44600  Biso   1.000  H
  C1156    1.0000 0.72389  0.08890  0.72780  Biso   1.000  C
  C1157    1.0000 0.05369  0.16724  0.82021  Biso   1.000  C
  C1158    1.0000 0.98237  0.10212  0.43528  Biso   1.000  C
  C1159    1.0000 0.69221  0.08270  0.74041  Biso   1.000  C
  C1160    1.0000 0.73653  0.06890  0.70199  Biso   1.000  C
  C1161    1.0000 0.06376  0.15226  0.79061  Biso   1.000  C
  C1162    1.0000 0.07487  0.16800  0.84737  Biso   1.000  C
  C1163    1.0000 0.95583  0.07761  0.44948  Biso   1.000  C
  C1164    1.0000 0.99129  0.09391  0.39825  Biso   1.000  C
  C1165    1.0000 0.01254  0.09766  0.45907  Biso   1.000  C
  C1166    1.0000 0.67209  0.05709  0.72669  Biso   1.000  C
  H589     1.0000 0.68390  0.09590  0.75861  Biso   1.000  H
  C1167    1.0000 0.71719  0.04410  0.68820  Biso   1.000  C
  H590     1.0000 0.75880  0.07260  0.69389  Biso   1.000  H
  H591     1.0000 0.04891  0.15170  0.77190  Biso   1.000  H
  C1168    1.0000 0.09489  0.13833  0.78826  Biso   1.000  C
  C1169    1.0000 0.10567  0.15445  0.84556  Biso   1.000  C
  H592     1.0000 0.06759  0.17830  0.86771  Biso   1.000  H
  C1170    1.0000 0.94633  0.04765  0.43503  Biso   1.000  C
  C1171    1.0000 0.94291  0.08381  0.48157  Biso   1.000  C
  C1172    1.0000 0.96555  0.09333  0.37471  Biso   1.000  C
  C1173    1.0000 0.02279  0.09159  0.38692  Biso   1.000  C
  C1174    1.0000 0.02871  0.06661  0.46005  Biso   1.000  C
  C1175    1.0000 0.02201  0.12053  0.48341  Biso   1.000  C
  C1176    1.0000 0.68461  0.03840  0.69970  Biso   1.000  C
  H593     1.0000 0.65041  0.05261  0.73560  Biso   1.000  H
  C1177    1.0000 0.73119  0.02390  0.66139  Biso   1.000  C
  C1178    1.0000 0.11695  0.13949  0.81658  Biso   1.000  C
  C1179    1.0000 0.10557  0.12186  0.75861  Biso   1.000  C
  H594     1.0000 0.12000  0.15520  0.86469  Biso   1.000  H
  C1180    1.0000 0.92382  0.02584  0.44960  Biso   1.000  C
  H595     1.0000 0.95580  0.04170  0.41391  Biso   1.000  H
  C1181    1.0000 0.91979  0.06271  0.49617  Biso   1.000  C
  H596     1.0000 0.95029  0.10310  0.49361  Biso   1.000  H
  H597     1.0000 0.94291  0.09570  0.38211  Biso   1.000  H
  C1182    1.0000 0.97210  0.08938  0.34075  Biso   1.000  C
  H598     1.0000 0.04110  0.09199  0.40240  Biso   1.000  H
  C1183    1.0000 0.02949  0.08849  0.35140  Biso   1.000  C
  H599     1.0000 0.02299  0.05019  0.44361  Biso   1.000  H
  C1184    1.0000 0.05266  0.05848  0.48379  Biso   1.000  C
  C1185    1.0000 0.04593  0.11368  0.50758  Biso   1.000  C
  H600     1.0000 0.01151  0.14201  0.48351  Biso   1.000  H
  H601     1.0000 0.67091  0.02181  0.68931  Biso   1.000  H
  C1186    1.0000 0.74429  0.00990  0.63911  Biso   1.000  C
  H602     1.0000 0.13891  0.13010  0.81540  Biso   1.000  H
  C1187    1.0000 0.11227  0.10791  0.73291  Biso   1.000  C
  C1188    1.0000 0.90974  0.03420  0.48087  Biso   1.000  C
  H603     1.0000 0.91790  0.00539  0.43870  Biso   1.000  H
  H604     1.0000 0.91070  0.06830  0.51760  Biso   1.000  H
  H605     1.0000 0.95369  0.08789  0.32550  Biso   1.000  H
  C1189    1.0000 0.00421  0.08741  0.32869  Biso   1.000  C
  H606     1.0000 0.05210  0.08721  0.34380  Biso   1.000  H
  H607     1.0000 0.06359  0.03720  0.48361  Biso   1.000  H
  C1190    1.0000 0.06029  0.08280  0.50826  Biso   1.000  C
  H608     1.0000 0.05220  0.13040  0.52351  Biso   1.000  H
  C1191    1.0000 0.75990  0.99431  0.61089  Biso   1.000  C
  C1192    1.0000 0.12083  0.09104  0.70199  Biso   1.000  C
  C1193    1.0000 0.88559  0.01211  0.49572  Biso   1.000  C
  Br22     1.0000 0.01282  0.08464  0.28320  Biso   1.000  Br
  C1194    1.0000 0.08386  0.07336  0.53555  Biso   1.000  C
  C1195    1.0000 0.77391  0.98119  0.58861  Biso   1.000  C
  C1196    1.0000 0.12755  0.07721  0.67725  Biso   1.000  C
  C1197    1.0000 0.86499  0.99441  0.50740  Biso   1.000  C
  C1198    1.0000 0.10149  0.06482  0.55916  Biso   1.000  C
  C1199    1.0000 0.79410  0.96721  0.56180  Biso   1.000  C
  C1200    1.0000 0.13362  0.06099  0.64540  Biso   1.000  C
  C1201    1.0000 0.83890  0.97391  0.52220  Biso   1.000  C
  C1202    1.0000 0.12088  0.05508  0.58690  Biso   1.000  C
  C1203    1.0000 0.81891  0.98655  0.54801  Biso   1.000  C
  C1204    1.0000 0.78841  0.93460  0.55030  Biso   1.000  C
  C1205    1.0000 0.11519  0.07014  0.61769  Biso   1.000  C
  C1206    1.0000 0.15833  0.03669  0.64301  Biso   1.000  C
  C1207    1.0000 0.83271  0.94220  0.50959  Biso   1.000  C
  C1208    1.0000 0.14513  0.03009  0.58385  Biso   1.000  C
  H609     1.0000 0.82261  0.00879  0.55611  Biso   1.000  H
  H610     1.0000 0.77179  0.92090  0.56069  Biso   1.000  H
  C1209    1.0000 0.80710  0.92211  0.52331  Biso   1.000  C
  H611     1.0000 0.09829  0.08701  0.61970  Biso   1.000  H
  C1210    1.0000 0.16402  0.02128  0.61200  Biso   1.000  C
  H612     1.0000 0.17120  0.03050  0.66219  Biso   1.000  H
  H613     1.0000 0.84590  0.93389  0.49139  Biso   1.000  H
  H614     1.0000 0.14881  0.01919  0.56291  Biso   1.000  H
  H615     1.0000 0.80259  0.90040  0.51440  Biso   1.000  H
  H616     1.0000 0.18099  0.00461  0.61001  Biso   1.000  H
  C1211    1.0000 0.22871  0.58596  0.36200  Biso   1.000  C
  C1212    1.0000 0.21990  0.60485  0.33385  Biso   1.000  C
  C1213    1.0000 0.21330  0.59168  0.39301  Biso   1.000  C
  H617     1.0000 0.24541  0.56899  0.36001  Biso   1.000  H
  C1214    1.0000 0.19492  0.62913  0.33690  Biso   1.000  C
  H618     1.0000 0.23080  0.60120  0.31291  Biso   1.000  H
  C1215    1.0000 0.18900  0.61638  0.39540  Biso   1.000  C
  H619     1.0000 0.21950  0.57881  0.41219  Biso   1.000  H
  C1216    1.0000 0.18520  0.64849  0.30916  Biso   1.000  C
  C1217    1.0000 0.17986  0.63482  0.36769  Biso   1.000  C
  C1218    1.0000 0.17278  0.62245  0.42725  Biso   1.000  C
  C1219    1.0000 0.17664  0.66615  0.28555  Biso   1.000  C
  H620     1.0000 0.16301  0.65169  0.36970  Biso   1.000  H
  C1220    1.0000 0.15896  0.62915  0.45199  Biso   1.000  C
  C1221    1.0000 0.16719  0.68972  0.25826  Biso   1.000  C
  C1222    1.0000 0.14211  0.63774  0.48291  Biso   1.000  C
  C1223    1.0000 0.19152  0.69735  0.23379  Biso   1.000  C
  C1224    1.0000 0.13632  0.70407  0.25758  Biso   1.000  C
  C1225    1.0000 0.12816  0.64441  0.50861  Biso   1.000  C
  C1226    1.0000 0.18341  0.72130  0.21005  Biso   1.000  C
  H621     1.0000 0.21280  0.68639  0.23361  Biso   1.000  H
  H622     1.0000 0.11960  0.69780  0.27351  Biso   1.000  H
  C1227    1.0000 0.12949  0.72800  0.23341  Biso   1.000  C
  C1228    1.0000 0.11166  0.65512  0.53826  Biso   1.000  C
  C1229    1.0000 0.15236  0.73747  0.20907  Biso   1.000  C
  H623     1.0000 0.19980  0.72699  0.19361  Biso   1.000  H
  H624     1.0000 0.10801  0.73850  0.23351  Biso   1.000  H
  C1230    1.0000 0.09776  0.68624  0.54061  Biso   1.000  C
  C1231    1.0000 0.11053  0.63306  0.56658  Biso   1.000  C
  C1232    1.0000 0.14788  0.76763  0.18528  Biso   1.000  C
  C1233    1.0000 0.08278  0.69632  0.57021  Biso   1.000  C
  H625     1.0000 0.09829  0.70110  0.52190  Biso   1.000  H
  H626     1.0000 0.11990  0.61110  0.56540  Biso   1.000  H
  C1234    1.0000 0.09557  0.64434  0.59556  Biso   1.000  C
  C1235    1.0000 0.15611  0.75872  0.14825  Biso   1.000  C
  C1236    1.0000 0.11121  0.78043  0.18407  Biso   1.000  C
  C1237    1.0000 0.17238  0.79418  0.19948  Biso   1.000  C
  C1238    1.0000 0.06986  0.72981  0.57152  Biso   1.000  C
  C1239    1.0000 0.08200  0.67511  0.59737  Biso   1.000  C
  H627     1.0000 0.09479  0.63001  0.61469  Biso   1.000  H
  C1240    1.0000 0.15666  0.78443  0.12471  Biso   1.000  C
  C1241    1.0000 0.15840  0.72719  0.13692  Biso   1.000  C
  C1242    1.0000 0.08577  0.75796  0.17443  Biso   1.000  C
  C1243    1.0000 0.10204  0.81271  0.19031  Biso   1.000  C
  C1244    1.0000 0.16618  0.80710  0.23157  Biso   1.000  C
  C1245    1.0000 0.20237  0.80367  0.18503  Biso   1.000  C
  C1246    1.0000 0.06074  0.75920  0.57139  Biso   1.000  C
  H628     1.0000 0.07170  0.68239  0.61771  Biso   1.000  H
  H629     1.0000 0.15430  0.80710  0.13211  Biso   1.000  H
  C1247    1.0000 0.16062  0.77791  0.09075  Biso   1.000  C
  H630     1.0000 0.15800  0.70891  0.15240  Biso   1.000  H
  C1248    1.0000 0.16150  0.72049  0.10140  Biso   1.000  C
  H631     1.0000 0.09159  0.73540  0.16919  Biso   1.000  H
  C1249    1.0000 0.05314  0.76761  0.17236  Biso   1.000  C
  H632     1.0000 0.11879  0.82880  0.19600  Biso   1.000  H
  C1250    1.0000 0.06880  0.82263  0.18858  Biso   1.000  C
  H633     1.0000 0.14689  0.79969  0.24361  Biso   1.000  H
  C1251    1.0000 0.18729  0.83021  0.24617  Biso   1.000  C
  H634     1.0000 0.20829  0.79420  0.16391  Biso   1.000  H
  C1252    1.0000 0.22418  0.82616  0.19960  Biso   1.000  C
  C1253    1.0000 0.04984  0.79347  0.57023  Biso   1.000  C
  H635     1.0000 0.16210  0.79629  0.07550  Biso   1.000  H
  C1254    1.0000 0.16261  0.74580  0.07869  Biso   1.000  C
  H636     1.0000 0.16281  0.69790  0.09380  Biso   1.000  H
  H637     1.0000 0.03659  0.75169  0.16559  Biso   1.000  H
  C1255    1.0000 0.04347  0.79984  0.17977  Biso   1.000  C
  H638     1.0000 0.06301  0.84530  0.19341  Biso   1.000  H
  C1256    1.0000 0.21579  0.84026  0.23087  Biso   1.000  C
  H639     1.0000 0.18170  0.83931  0.26760  Biso   1.000  H
  H640     1.0000 0.24460  0.83210  0.18870  Biso   1.000  H
  C1257    1.0000 0.07263  0.81881  0.56142  Biso   1.000  C
  C1258    1.0000 0.01760  0.80314  0.57764  Biso   1.000  C
  Br23     1.0000 0.16538  0.73719  0.03320  Biso   1.000  Br
  C1259    1.0000 0.00919  0.81075  0.17861  Biso   1.000  C
  C1260    1.0000 0.23788  0.86439  0.24572  Biso   1.000  C
  C1261    1.0000 0.06273  0.85205  0.55969  Biso   1.000  C
  H641     1.0000 0.09529  0.81299  0.55659  Biso   1.000  H
  C1262    1.0000 0.00796  0.83578  0.57557  Biso   1.000  C
  H642     1.0000 0.00171  0.78660  0.58441  Biso   1.000  H
  C1263    1.0000 0.97980  0.81984  0.17848  Biso   1.000  C
  C1264    1.0000 0.25558  0.88499  0.25740  Biso   1.000  C
  C1265    1.0000 0.03042  0.86122  0.56593  Biso   1.000  C
  H643     1.0000 0.07880  0.86880  0.55400  Biso   1.000  H
  H644     1.0000 0.98539  0.84160  0.58081  Biso   1.000  H
  C1266    1.0000 0.94631  0.83276  0.17979  Biso   1.000  C
  C1267    1.0000 0.27611  0.91110  0.27220  Biso   1.000  C
  C1268    1.0000 0.01763  0.89788  0.56472  Biso   1.000  C
  C1269    1.0000 0.93624  0.84774  0.20939  Biso   1.000  C
  C1270    1.0000 0.92513  0.83200  0.15263  Biso   1.000  C
  C1271    1.0000 0.30779  0.91730  0.25959  Biso   1.000  C
  C1272    1.0000 0.26347  0.93110  0.29801  Biso   1.000  C
  C1273    1.0000 0.00871  0.90609  0.60175  Biso   1.000  C
  C1274    1.0000 0.04417  0.92239  0.55052  Biso   1.000  C
  C1275    1.0000 0.98746  0.90234  0.54093  Biso   1.000  C
  H645     1.0000 0.95109  0.84830  0.22810  Biso   1.000  H
  C1276    1.0000 0.90511  0.86167  0.21174  Biso   1.000  C
  C1277    1.0000 0.89433  0.84555  0.15444  Biso   1.000  C
  H646     1.0000 0.93241  0.82170  0.13229  Biso   1.000  H
  H647     1.0000 0.31610  0.90410  0.24139  Biso   1.000  H
  C1278    1.0000 0.32791  0.94291  0.27331  Biso   1.000  C
  H648     1.0000 0.24120  0.92740  0.30611  Biso   1.000  H
  C1279    1.0000 0.28281  0.95590  0.31180  Biso   1.000  C
  C1280    1.0000 0.03445  0.90667  0.62529  Biso   1.000  C
  C1281    1.0000 0.97721  0.90841  0.61308  Biso   1.000  C
  C1282    1.0000 0.05709  0.91619  0.51843  Biso   1.000  C
  C1283    1.0000 0.05367  0.95235  0.56497  Biso   1.000  C
  C1284    1.0000 0.97129  0.93339  0.53995  Biso   1.000  C
  C1285    1.0000 0.97799  0.87947  0.51659  Biso   1.000  C
  C1286    1.0000 0.88305  0.86051  0.18342  Biso   1.000  C
  C1287    1.0000 0.89443  0.87814  0.24139  Biso   1.000  C
  H649     1.0000 0.88000  0.84480  0.13531  Biso   1.000  H
  C1288    1.0000 0.31539  0.96160  0.30030  Biso   1.000  C
  H650     1.0000 0.34959  0.94739  0.26440  Biso   1.000  H
  C1289    1.0000 0.26881  0.97610  0.33861  Biso   1.000  C
  H651     1.0000 0.05709  0.90430  0.61789  Biso   1.000  H
  C1290    1.0000 0.02790  0.91062  0.65925  Biso   1.000  C
  H652     1.0000 0.95890  0.90801  0.59760  Biso   1.000  H
  C1291    1.0000 0.97051  0.91151  0.64860  Biso   1.000  C
  H653     1.0000 0.04971  0.89690  0.50639  Biso   1.000  H
  C1292    1.0000 0.08021  0.93729  0.50383  Biso   1.000  C
  H654     1.0000 0.04420  0.95830  0.58609  Biso   1.000  H
  C1293    1.0000 0.07618  0.97416  0.55040  Biso   1.000  C
  H655     1.0000 0.97701  0.94981  0.55639  Biso   1.000  H
  C1294    1.0000 0.94734  0.94152  0.51621  Biso   1.000  C
  C1295    1.0000 0.95407  0.88632  0.49242  Biso   1.000  C
  H656     1.0000 0.98849  0.85799  0.51649  Biso   1.000  H
  H657     1.0000 0.86109  0.86990  0.18460  Biso   1.000  H
  C1296    1.0000 0.88773  0.89209  0.26709  Biso   1.000  C
  H658     1.0000 0.32909  0.97819  0.31069  Biso   1.000  H
  C1297    1.0000 0.25571  0.99010  0.36089  Biso   1.000  C
  H659     1.0000 0.04631  0.91211  0.67450  Biso   1.000  H
  C1298    1.0000 0.99579  0.91259  0.67131  Biso   1.000  C
  H660     1.0000 0.94790  0.91279  0.65620  Biso   1.000  H
  C1299    1.0000 0.09026  0.96580  0.51913  Biso   1.000  C
  H661     1.0000 0.08930  0.93170  0.48240  Biso   1.000  H
  H662     1.0000 0.08210  0.99461  0.56130  Biso   1.000  H
  H663     1.0000 0.93641  0.96280  0.51639  Biso   1.000  H
  C1300    1.0000 0.93971  0.91720  0.49174  Biso   1.000  C
  H664     1.0000 0.94780  0.86960  0.47649  Biso   1.000  H
  C1301    1.0000 0.87917  0.90896  0.29801  Biso   1.000  C
  C1302    1.0000 0.24010  0.00569  0.38911  Biso   1.000  C
  Br24     1.0000 0.98718  0.91536  0.71680  Biso   1.000  Br
  C1303    1.0000 0.11441  0.98789  0.50428  Biso   1.000  C
  C1304    1.0000 0.91614  0.92664  0.46445  Biso   1.000  C
  C1305    1.0000 0.87245  0.92279  0.32275  Biso   1.000  C
  C1306    1.0000 0.22609  0.01881  0.41139  Biso   1.000  C
  C1307    1.0000 0.13501  0.00559  0.49260  Biso   1.000  C
  C1308    1.0000 0.89851  0.93518  0.44084  Biso   1.000  C
  C1309    1.0000 0.86638  0.93901  0.35460  Biso   1.000  C
  C1310    1.0000 0.20590  0.03279  0.43820  Biso   1.000  C
  C1311    1.0000 0.16110  0.02609  0.47780  Biso   1.000  C
  C1312    1.0000 0.87912  0.94492  0.41310  Biso   1.000  C
  C1313    1.0000 0.88481  0.92986  0.38231  Biso   1.000  C
  C1314    1.0000 0.84167  0.96331  0.35699  Biso   1.000  C
  C1315    1.0000 0.18109  0.01345  0.45199  Biso   1.000  C
  C1316    1.0000 0.21159  0.06540  0.44970  Biso   1.000  C
  C1317    1.0000 0.16729  0.05780  0.49041  Biso   1.000  C
  C1318    1.0000 0.85487  0.96991  0.41615  Biso   1.000  C
  H665     1.0000 0.90171  0.91299  0.38030  Biso   1.000  H
  H666     1.0000 0.82880  0.96950  0.33781  Biso   1.000  H
  C1319    1.0000 0.83598  0.97872  0.38800  Biso   1.000  C
  H667     1.0000 0.17739  0.99121  0.44389  Biso   1.000  H
  H668     1.0000 0.22821  0.07910  0.43931  Biso   1.000  H
  C1320    1.0000 0.19290  0.07789  0.47669  Biso   1.000  C
  H669     1.0000 0.15410  0.06611  0.50861  Biso   1.000  H
  H670     1.0000 0.85119  0.98081  0.43709  Biso   1.000  H
  H671     1.0000 0.81901  0.99539  0.38999  Biso   1.000  H
  H672     1.0000 0.19741  0.09960  0.48560  Biso   1.000  H
  C1321    1.0000 0.67209  0.44290  0.22669  Biso   1.000  C
  C1322    1.0000 0.69221  0.41731  0.24041  Biso   1.000  C
  C1323    1.0000 0.68461  0.46161  0.19970  Biso   1.000  C
  H673     1.0000 0.65041  0.44740  0.23560  Biso   1.000  H
  C1324    1.0000 0.72389  0.41109  0.22780  Biso   1.000  C
  H674     1.0000 0.68390  0.40409  0.25861  Biso   1.000  H
  H675     1.0000 0.67091  0.47820  0.18931  Biso   1.000  H
  C1325    1.0000 0.71719  0.45589  0.18820  Biso   1.000  C
  C1326    1.0000 0.74442  0.38500  0.24260  Biso   1.000  C
  C1327    1.0000 0.73653  0.43111  0.20199  Biso   1.000  C
  C1328    1.0000 0.73119  0.47609  0.16139  Biso   1.000  C
  C1329    1.0000 0.76212  0.36440  0.25428  Biso   1.000  C
  H676     1.0000 0.75880  0.42741  0.19389  Biso   1.000  H
  C1330    1.0000 0.74429  0.49009  0.13911  Biso   1.000  C
  C1331    1.0000 0.78421  0.34025  0.26913  Biso   1.000  C
  C1332    1.0000 0.75990  0.50570  0.11089  Biso   1.000  C
  C1333    1.0000 0.77582  0.32617  0.30040  Biso   1.000  C
  C1334    1.0000 0.81271  0.33023  0.25383  Biso   1.000  C
  C1335    1.0000 0.77391  0.51880  0.08861  Biso   1.000  C
  C1336    1.0000 0.79763  0.30366  0.31497  Biso   1.000  C
  H677     1.0000 0.75540  0.33209  0.31130  Biso   1.000  H
  C1337    1.0000 0.83382  0.30711  0.26843  Biso   1.000  C
  H678     1.0000 0.81830  0.33929  0.23240  Biso   1.000  H
  C1338    1.0000 0.79410  0.53280  0.06180  Biso   1.000  C
  C1339    1.0000 0.82762  0.29419  0.30052  Biso   1.000  C
  H679     1.0000 0.79171  0.29419  0.33609  Biso   1.000  H
  H680     1.0000 0.85311  0.29971  0.25639  Biso   1.000  H
  C1340    1.0000 0.81891  0.51346  0.04801  Biso   1.000  C
  C1341    1.0000 0.78841  0.56539  0.05030  Biso   1.000  C
  C1342    1.0000 0.85212  0.26762  0.31472  Biso   1.000  C
  C1343    1.0000 0.83890  0.52610  0.02220  Biso   1.000  C
  H681     1.0000 0.82261  0.49120  0.05611  Biso   1.000  H
  H682     1.0000 0.77179  0.57909  0.06069  Biso   1.000  H
  C1344    1.0000 0.80710  0.57790  0.02331  Biso   1.000  C
  C1345    1.0000 0.84389  0.25871  0.35175  Biso   1.000  C
  C1346    1.0000 0.84764  0.23745  0.29093  Biso   1.000  C
  C1347    1.0000 0.88879  0.28044  0.31593  Biso   1.000  C
  C1348    1.0000 0.86499  0.50558  0.00740  Biso   1.000  C
  C1349    1.0000 0.83271  0.55781  0.00959  Biso   1.000  C
  H683     1.0000 0.80259  0.59961  0.01440  Biso   1.000  H
  C1350    1.0000 0.84334  0.28444  0.37529  Biso   1.000  C
  C1351    1.0000 0.84160  0.22720  0.36308  Biso   1.000  C
  C1352    1.0000 0.81659  0.22128  0.28995  Biso   1.000  C
  C1353    1.0000 0.87051  0.22798  0.26659  Biso   1.000  C
  C1354    1.0000 0.91423  0.25798  0.32557  Biso   1.000  C
  C1355    1.0000 0.89796  0.31273  0.30969  Biso   1.000  C
  C1356    1.0000 0.88559  0.48790  0.99572  Biso   1.000  C
  H684     1.0000 0.84590  0.56609  0.99139  Biso   1.000  H
  H685     1.0000 0.84570  0.30711  0.36789  Biso   1.000  H
  C1357    1.0000 0.83938  0.27790  0.40925  Biso   1.000  C
  H686     1.0000 0.84200  0.20889  0.34760  Biso   1.000  H
  C1358    1.0000 0.83850  0.22050  0.39860  Biso   1.000  C
  H687     1.0000 0.80020  0.22700  0.30639  Biso   1.000  H
  C1359    1.0000 0.80848  0.19734  0.26621  Biso   1.000  C
  C1360    1.0000 0.86368  0.20406  0.24242  Biso   1.000  C
  H688     1.0000 0.89199  0.23851  0.26649  Biso   1.000  H
  H689     1.0000 0.90841  0.23539  0.33081  Biso   1.000  H
  C1361    1.0000 0.94686  0.26760  0.32764  Biso   1.000  C
  H690     1.0000 0.88121  0.32879  0.30400  Biso   1.000  H
  C1362    1.0000 0.93120  0.32265  0.31142  Biso   1.000  C
  C1363    1.0000 0.90974  0.46579  0.98087  Biso   1.000  C
  H691     1.0000 0.83790  0.29631  0.42450  Biso   1.000  H
  C1364    1.0000 0.83739  0.24579  0.42131  Biso   1.000  C
  H692     1.0000 0.83719  0.19789  0.40620  Biso   1.000  H
  H693     1.0000 0.78720  0.18641  0.26639  Biso   1.000  H
  C1365    1.0000 0.83281  0.18971  0.24174  Biso   1.000  C
  H694     1.0000 0.88040  0.19779  0.22649  Biso   1.000  H
  H695     1.0000 0.96341  0.25171  0.33441  Biso   1.000  H
  C1366    1.0000 0.95653  0.29983  0.32023  Biso   1.000  C
  H696     1.0000 0.93699  0.34531  0.30659  Biso   1.000  H
  C1367    1.0000 0.92382  0.47417  0.94960  Biso   1.000  C
  C1368    1.0000 0.91979  0.43728  0.99617  Biso   1.000  C
  Br25     1.0000 0.83462  0.23718  0.46680  Biso   1.000  Br
  C1369    1.0000 0.82336  0.16613  0.21445  Biso   1.000  C
  C1370    1.0000 0.99081  0.31076  0.32139  Biso   1.000  C
  C1371    1.0000 0.94633  0.45237  0.93503  Biso   1.000  C
  H697     1.0000 0.91790  0.49460  0.93870  Biso   1.000  H
  H698     1.0000 0.91070  0.43169  0.01760  Biso   1.000  H
  C1372    1.0000 0.94291  0.41618  0.98157  Biso   1.000  C
  C1373    1.0000 0.81480  0.14851  0.19084  Biso   1.000  C
  C1374    1.0000 0.02020  0.31985  0.32152  Biso   1.000  C
  C1375    1.0000 0.95583  0.42237  0.94948  Biso   1.000  C
  H699     1.0000 0.95580  0.45831  0.91391  Biso   1.000  H
  H700     1.0000 0.95029  0.39691  0.99361  Biso   1.000  H
  C1376    1.0000 0.80508  0.12911  0.16310  Biso   1.000  C
  C1377    1.0000 0.05369  0.33277  0.32021  Biso   1.000  C
  C1378    1.0000 0.98237  0.39787  0.93528  Biso   1.000  C
  C1379    1.0000 0.78010  0.10486  0.16615  Biso   1.000  C
  C1380    1.0000 0.82014  0.13483  0.13231  Biso   1.000  C
  C1381    1.0000 0.06376  0.34775  0.29061  Biso   1.000  C
  C1382    1.0000 0.07487  0.33199  0.34737  Biso   1.000  C
  C1383    1.0000 0.99129  0.40610  0.89825  Biso   1.000  C
  C1384    1.0000 0.96958  0.36123  0.93407  Biso   1.000  C
  C1385    1.0000 0.01254  0.40235  0.95907  Biso   1.000  C
  H701     1.0000 0.76920  0.10121  0.18709  Biso   1.000  H
  C1386    1.0000 0.77129  0.08598  0.13800  Biso   1.000  C
  H702     1.0000 0.83699  0.15170  0.13030  Biso   1.000  H
  C1387    1.0000 0.81100  0.11640  0.10460  Biso   1.000  C
  H703     1.0000 0.04891  0.34831  0.27190  Biso   1.000  H
  C1388    1.0000 0.09489  0.36166  0.28826  Biso   1.000  C
  C1389    1.0000 0.10567  0.34556  0.34556  Biso   1.000  C
  H704     1.0000 0.06759  0.32169  0.36771  Biso   1.000  H
  C1390    1.0000 0.96555  0.40666  0.87471  Biso   1.000  C
  C1391    1.0000 0.02279  0.40840  0.88692  Biso   1.000  C
  C1392    1.0000 0.99204  0.33577  0.92443  Biso   1.000  C
  C1393    1.0000 0.93727  0.35206  0.94031  Biso   1.000  C
  C1394    1.0000 0.02871  0.43340  0.96005  Biso   1.000  C
  C1395    1.0000 0.02201  0.37949  0.98341  Biso   1.000  C
  C1396    1.0000 0.78670  0.09167  0.10699  Biso   1.000  C
  H705     1.0000 0.75459  0.06900  0.13999  Biso   1.000  H
  C1397    1.0000 0.82722  0.12244  0.07275  Biso   1.000  C
  C1398    1.0000 0.11695  0.36052  0.31658  Biso   1.000  C
  C1399    1.0000 0.10557  0.37815  0.25861  Biso   1.000  C
  H706     1.0000 0.12000  0.34481  0.36469  Biso   1.000  H
  H707     1.0000 0.94291  0.40429  0.88211  Biso   1.000  H
  C1400    1.0000 0.97210  0.41064  0.84075  Biso   1.000  C
  H708     1.0000 0.04110  0.40799  0.90240  Biso   1.000  H
  C1401    1.0000 0.02949  0.41149  0.85140  Biso   1.000  C
  C1402    1.0000 0.98240  0.30313  0.92236  Biso   1.000  C
  H709     1.0000 0.01461  0.34161  0.91919  Biso   1.000  H
  H710     1.0000 0.92120  0.36881  0.94600  Biso   1.000  H
  C1403    1.0000 0.92737  0.31879  0.93858  Biso   1.000  C
  H711     1.0000 0.02299  0.44980  0.94361  Biso   1.000  H
  C1404    1.0000 0.05266  0.44151  0.98379  Biso   1.000  C
  H712     1.0000 0.01151  0.35800  0.98351  Biso   1.000  H
  C1405    1.0000 0.04593  0.38631  0.00758  Biso   1.000  C
  H713     1.0000 0.78050  0.07880  0.08781  Biso   1.000  H
  C1406    1.0000 0.84104  0.12916  0.04801  Biso   1.000  C
  H714     1.0000 0.13891  0.36989  0.31540  Biso   1.000  H
  C1407    1.0000 0.11227  0.39210  0.23291  Biso   1.000  C
  H715     1.0000 0.95369  0.41210  0.82550  Biso   1.000  H
  C1408    1.0000 0.00421  0.41260  0.82869  Biso   1.000  C
  H716     1.0000 0.05210  0.41280  0.84380  Biso   1.000  H
  H717     1.0000 0.99829  0.28661  0.91559  Biso   1.000  H
  C1409    1.0000 0.95016  0.29346  0.92977  Biso   1.000  C
  H718     1.0000 0.90471  0.31300  0.94341  Biso   1.000  H
  H719     1.0000 0.06359  0.46279  0.98361  Biso   1.000  H
  C1410    1.0000 0.06029  0.41721  0.00826  Biso   1.000  C
  H720     1.0000 0.05220  0.36959  0.02351  Biso   1.000  H
  C1411    1.0000 0.85789  0.13775  0.01709  Biso   1.000  C
  C1412    1.0000 0.12083  0.40895  0.20199  Biso   1.000  C
  Br26     1.0000 0.01282  0.41537  0.78320  Biso   1.000  Br
  C1413    1.0000 0.93926  0.25921  0.92861  Biso   1.000  C
  C1414    1.0000 0.08386  0.42663  0.03555  Biso   1.000  C
  C1415    1.0000 0.87184  0.14443  0.99139  Biso   1.000  C
  C1416    1.0000 0.12755  0.42278  0.17725  Biso   1.000  C
  C1417    1.0000 0.93014  0.22980  0.92848  Biso   1.000  C
  C1418    1.0000 0.10149  0.43519  0.05916  Biso   1.000  C
  C1419    1.0000 0.88834  0.15513  0.96174  Biso   1.000  C
  C1420    1.0000 0.13362  0.43899  0.14540  Biso   1.000  C
  C1421    1.0000 0.91722  0.19630  0.92979  Biso   1.000  C
  C1422    1.0000 0.12088  0.44491  0.08690  Biso   1.000  C
  C1423    1.0000 0.90224  0.18623  0.95939  Biso   1.000  C
  C1424    1.0000 0.88947  0.13307  0.93342  Biso   1.000  C
  C1425    1.0000 0.11519  0.42985  0.11769  Biso   1.000  C
  C1426    1.0000 0.15833  0.46332  0.14301  Biso   1.000  C
  C1427    1.0000 0.91800  0.17512  0.90263  Biso   1.000  C
  C1428    1.0000 0.14513  0.46989  0.08385  Biso   1.000  C
  H721     1.0000 0.90171  0.20109  0.97810  Biso   1.000  H
  H722     1.0000 0.88010  0.11111  0.93460  Biso   1.000  H
  C1429    1.0000 0.90443  0.14435  0.90444  Biso   1.000  C
  H723     1.0000 0.09829  0.41300  0.11970  Biso   1.000  H
  H724     1.0000 0.17120  0.46949  0.16219  Biso   1.000  H
  C1430    1.0000 0.16402  0.47871  0.11200  Biso   1.000  C
  H725     1.0000 0.92830  0.18240  0.88229  Biso   1.000  H
  H726     1.0000 0.14881  0.48080  0.06291  Biso   1.000  H
  H727     1.0000 0.90521  0.13000  0.88531  Biso   1.000  H
  H728     1.0000 0.18099  0.49540  0.11001  Biso   1.000  H
  C1431    1.0000 0.32791  0.55710  0.77331  Biso   1.000  C
  C1432    1.0000 0.30779  0.58269  0.75959  Biso   1.000  C
  C1433    1.0000 0.31539  0.53839  0.80030  Biso   1.000  C
  H729     1.0000 0.34959  0.55260  0.76440  Biso   1.000  H
  C1434    1.0000 0.27611  0.58891  0.77220  Biso   1.000  C
  H730     1.0000 0.31610  0.59591  0.74139  Biso   1.000  H
  C1435    1.0000 0.28281  0.54411  0.81180  Biso   1.000  C
  H731     1.0000 0.32909  0.52180  0.81069  Biso   1.000  H
  C1436    1.0000 0.25558  0.61500  0.75740  Biso   1.000  C
  C1437    1.0000 0.26347  0.56889  0.79801  Biso   1.000  C
  C1438    1.0000 0.26881  0.52391  0.83861  Biso   1.000  C
  C1439    1.0000 0.23788  0.63560  0.74572  Biso   1.000  C
  H732     1.0000 0.24120  0.57259  0.80611  Biso   1.000  H
  C1440    1.0000 0.25571  0.50991  0.86089  Biso   1.000  C
  C1441    1.0000 0.21579  0.65975  0.73087  Biso   1.000  C
  C1442    1.0000 0.24010  0.49430  0.88911  Biso   1.000  C
  C1443    1.0000 0.18729  0.66977  0.74617  Biso   1.000  C
  C1444    1.0000 0.22418  0.67383  0.69960  Biso   1.000  C
  C1445    1.0000 0.22609  0.48120  0.91139  Biso   1.000  C
  C1446    1.0000 0.16618  0.69289  0.73157  Biso   1.000  C
  H733     1.0000 0.18170  0.66071  0.76760  Biso   1.000  H
  C1447    1.0000 0.20237  0.69634  0.68503  Biso   1.000  C
  H734     1.0000 0.24460  0.66791  0.68870  Biso   1.000  H
  C1448    1.0000 0.20590  0.46720  0.93820  Biso   1.000  C
  C1449    1.0000 0.17238  0.70581  0.69948  Biso   1.000  C
  H735     1.0000 0.14689  0.70029  0.74361  Biso   1.000  H
  H736     1.0000 0.20829  0.70581  0.66391  Biso   1.000  H
  C1450    1.0000 0.18109  0.48654  0.95199  Biso   1.000  C
  C1451    1.0000 0.21159  0.43461  0.94970  Biso   1.000  C
  C1452    1.0000 0.14788  0.73238  0.68528  Biso   1.000  C
  C1453    1.0000 0.16110  0.47390  0.97780  Biso   1.000  C
  H737     1.0000 0.17739  0.50880  0.94389  Biso   1.000  H
  H738     1.0000 0.22821  0.42091  0.93931  Biso   1.000  H
  C1454    1.0000 0.19290  0.42210  0.97669  Biso   1.000  C
  C1455    1.0000 0.15611  0.74129  0.64825  Biso   1.000  C
  C1456    1.0000 0.15236  0.76255  0.70907  Biso   1.000  C
  C1457    1.0000 0.11121  0.71956  0.68407  Biso   1.000  C
  C1458    1.0000 0.13501  0.49442  0.99260  Biso   1.000  C
  C1459    1.0000 0.16729  0.44219  0.99041  Biso   1.000  C
  H739     1.0000 0.19741  0.40039  0.98560  Biso   1.000  H
  C1460    1.0000 0.15666  0.71556  0.62471  Biso   1.000  C
  C1461    1.0000 0.15840  0.77280  0.63692  Biso   1.000  C
  C1462    1.0000 0.18341  0.77872  0.71005  Biso   1.000  C
  C1463    1.0000 0.12949  0.77202  0.73341  Biso   1.000  C
  C1464    1.0000 0.08577  0.74202  0.67443  Biso   1.000  C
  C1465    1.0000 0.10204  0.68727  0.69031  Biso   1.000  C
  C1466    1.0000 0.11441  0.51210  0.00428  Biso   1.000  C
  H740     1.0000 0.15410  0.43391  0.00861  Biso   1.000  H
  C1467    1.0000 0.16062  0.72210  0.59075  Biso   1.000  C
  H741     1.0000 0.15430  0.69289  0.63211  Biso   1.000  H
  C1468    1.0000 0.16150  0.77950  0.60140  Biso   1.000  C
  H742     1.0000 0.15800  0.79111  0.65240  Biso   1.000  H
  H743     1.0000 0.19980  0.77300  0.69361  Biso   1.000  H
  C1469    1.0000 0.19152  0.80266  0.73379  Biso   1.000  C
  C1470    1.0000 0.13632  0.79594  0.75758  Biso   1.000  C
  H744     1.0000 0.10801  0.76149  0.73351  Biso   1.000  H
  H745     1.0000 0.09159  0.76461  0.66919  Biso   1.000  H
  C1471    1.0000 0.05314  0.73240  0.67236  Biso   1.000  C
  H746     1.0000 0.11879  0.67121  0.69600  Biso   1.000  H
  C1472    1.0000 0.06880  0.67735  0.68858  Biso   1.000  C
  C1473    1.0000 0.09026  0.53421  0.01913  Biso   1.000  C
  H747     1.0000 0.16210  0.70369  0.57550  Biso   1.000  H
  C1474    1.0000 0.16261  0.75421  0.57869  Biso   1.000  C
  H748     1.0000 0.16281  0.80211  0.59380  Biso   1.000  H
  H749     1.0000 0.21280  0.81359  0.73361  Biso   1.000  H
  C1475    1.0000 0.16719  0.81029  0.75826  Biso   1.000  C
  H750     1.0000 0.11960  0.80221  0.77351  Biso   1.000  H
  H751     1.0000 0.03659  0.74829  0.66559  Biso   1.000  H
  C1476    1.0000 0.04347  0.70017  0.67977  Biso   1.000  C
  H752     1.0000 0.06301  0.65469  0.69341  Biso   1.000  H
  C1477    1.0000 0.07618  0.52583  0.05040  Biso   1.000  C
  C1478    1.0000 0.08021  0.56272  0.00383  Biso   1.000  C
  Br27     1.0000 0.16538  0.76282  0.53320  Biso   1.000  Br
  C1479    1.0000 0.17664  0.83387  0.78555  Biso   1.000  C
  C1480    1.0000 0.00919  0.68924  0.67861  Biso   1.000  C
  C1481    1.0000 0.05367  0.54763  0.06497  Biso   1.000  C
  H753     1.0000 0.08210  0.50540  0.06130  Biso   1.000  H
  H754     1.0000 0.08930  0.56831  0.98240  Biso   1.000  H
  C1482    1.0000 0.05709  0.58382  0.01843  Biso   1.000  C
  C1483    1.0000 0.18520  0.85149  0.80916  Biso   1.000  C
  C1484    1.0000 0.97980  0.68015  0.67848  Biso   1.000  C
  C1485    1.0000 0.04417  0.57763  0.05052  Biso   1.000  C
  H755     1.0000 0.04420  0.54169  0.08609  Biso   1.000  H
  H756     1.0000 0.04971  0.60309  0.00639  Biso   1.000  H
  C1486    1.0000 0.19492  0.87089  0.83690  Biso   1.000  C
  C1487    1.0000 0.94631  0.66723  0.67979  Biso   1.000  C
  C1488    1.0000 0.01763  0.60213  0.06472  Biso   1.000  C
  C1489    1.0000 0.21990  0.89514  0.83385  Biso   1.000  C
  C1490    1.0000 0.17986  0.86517  0.86769  Biso   1.000  C
  C1491    1.0000 0.93624  0.65225  0.70939  Biso   1.000  C
  C1492    1.0000 0.92513  0.66801  0.65263  Biso   1.000  C
  C1493    1.0000 0.03042  0.63877  0.06593  Biso   1.000  C
  C1494    1.0000 0.98746  0.59765  0.04093  Biso   1.000  C
  C1495    1.0000 0.00871  0.59390  0.10175  Biso   1.000  C
  H757     1.0000 0.23080  0.89879  0.81291  Biso   1.000  H
  C1496    1.0000 0.22871  0.91402  0.86200  Biso   1.000  C
  H758     1.0000 0.16301  0.84830  0.86970  Biso   1.000  H
  C1497    1.0000 0.18900  0.88360  0.89540  Biso   1.000  C
  H759     1.0000 0.95109  0.65169  0.72810  Biso   1.000  H
  C1498    1.0000 0.90511  0.63834  0.71174  Biso   1.000  C
  C1499    1.0000 0.89433  0.65444  0.65444  Biso   1.000  C
  H760     1.0000 0.93241  0.67831  0.63229  Biso   1.000  H
  C1500    1.0000 0.06273  0.64794  0.05969  Biso   1.000  C
  C1501    1.0000 0.00796  0.66423  0.07557  Biso   1.000  C
  C1502    1.0000 0.97799  0.62051  0.01659  Biso   1.000  C
  C1503    1.0000 0.97129  0.56660  0.03995  Biso   1.000  C
  C1504    1.0000 0.97721  0.59160  0.11308  Biso   1.000  C
  C1505    1.0000 0.03445  0.59334  0.12529  Biso   1.000  C
  C1506    1.0000 0.21330  0.90833  0.89301  Biso   1.000  C
  H761     1.0000 0.24541  0.93100  0.86001  Biso   1.000  H
  C1507    1.0000 0.17278  0.87756  0.92725  Biso   1.000  C
  C1508    1.0000 0.88305  0.63948  0.68342  Biso   1.000  C
  C1509    1.0000 0.89443  0.62185  0.74139  Biso   1.000  C
  H762     1.0000 0.88000  0.65519  0.63531  Biso   1.000  H
  C1510    1.0000 0.07263  0.68121  0.06142  Biso   1.000  C
  H763     1.0000 0.07880  0.63119  0.05400  Biso   1.000  H
  C1511    1.0000 0.01760  0.69687  0.07764  Biso   1.000  C
  H764     1.0000 0.98539  0.65839  0.08081  Biso   1.000  H
  C1512    1.0000 0.95407  0.61369  0.99242  Biso   1.000  C
  H765     1.0000 0.98849  0.64200  0.01649  Biso   1.000  H
  C1513    1.0000 0.94734  0.55849  0.01621  Biso   1.000  C
  H766     1.0000 0.97701  0.55020  0.05639  Biso   1.000  H
  H767     1.0000 0.95890  0.59201  0.09760  Biso   1.000  H
  C1514    1.0000 0.97051  0.58851  0.14860  Biso   1.000  C
  H768     1.0000 0.05709  0.59571  0.11789  Biso   1.000  H
  C1515    1.0000 0.02790  0.58936  0.15925  Biso   1.000  C
  H769     1.0000 0.21950  0.92120  0.91219  Biso   1.000  H
  C1516    1.0000 0.15896  0.87084  0.95199  Biso   1.000  C
  H770     1.0000 0.86109  0.63011  0.68460  Biso   1.000  H
  C1517    1.0000 0.88773  0.60790  0.76709  Biso   1.000  C
  C1518    1.0000 0.04984  0.70654  0.07023  Biso   1.000  C
  H771     1.0000 0.09529  0.68700  0.05659  Biso   1.000  H
  H772     1.0000 0.00171  0.71339  0.08441  Biso   1.000  H
  C1519    1.0000 0.93971  0.58279  0.99174  Biso   1.000  C
  H773     1.0000 0.94780  0.63041  0.97649  Biso   1.000  H
  H774     1.0000 0.93641  0.53721  0.01639  Biso   1.000  H
  H775     1.0000 0.94790  0.58720  0.15620  Biso   1.000  H
  C1520    1.0000 0.99579  0.58740  0.17131  Biso   1.000  C
  H776     1.0000 0.04631  0.58790  0.17450  Biso   1.000  H
  C1521    1.0000 0.14211  0.86225  0.98291  Biso   1.000  C
  C1522    1.0000 0.87917  0.59105  0.79801  Biso   1.000  C
  C1523    1.0000 0.06074  0.74079  0.07139  Biso   1.000  C
  C1524    1.0000 0.91614  0.57337  0.96445  Biso   1.000  C
  Br28     1.0000 0.98718  0.58463  0.21680  Biso   1.000  Br
  C1525    1.0000 0.12816  0.85557  0.00861  Biso   1.000  C
  C1526    1.0000 0.87245  0.57722  0.82275  Biso   1.000  C
  C1527    1.0000 0.06986  0.77020  0.07152  Biso   1.000  C
  C1528    1.0000 0.89851  0.56481  0.94084  Biso   1.000  C
  C1529    1.0000 0.11166  0.84487  0.03826  Biso   1.000  C
  C1530    1.0000 0.86638  0.56101  0.85460  Biso   1.000  C
  C1531    1.0000 0.08278  0.80370  0.07021  Biso   1.000  C
  C1532    1.0000 0.87912  0.55509  0.91310  Biso   1.000  C
  C1533    1.0000 0.09776  0.81377  0.04061  Biso   1.000  C
  C1534    1.0000 0.11053  0.86693  0.06658  Biso   1.000  C
  C1535    1.0000 0.88481  0.57015  0.88231  Biso   1.000  C
  C1536    1.0000 0.84167  0.53668  0.85699  Biso   1.000  C
  C1537    1.0000 0.08200  0.82488  0.09737  Biso   1.000  C
  C1538    1.0000 0.85487  0.53011  0.91615  Biso   1.000  C
  H777     1.0000 0.09829  0.79891  0.02190  Biso   1.000  H
  H778     1.0000 0.11990  0.88889  0.06540  Biso   1.000  H
  C1539    1.0000 0.09557  0.85565  0.09556  Biso   1.000  C
  H779     1.0000 0.90171  0.58700  0.88030  Biso   1.000  H
  H780     1.0000 0.82880  0.53051  0.83781  Biso   1.000  H
  C1540    1.0000 0.83598  0.52129  0.88800  Biso   1.000  C
  H781     1.0000 0.07170  0.81760  0.11771  Biso   1.000  H
  H782     1.0000 0.85119  0.51920  0.93709  Biso   1.000  H
  H783     1.0000 0.09479  0.87000  0.11469  Biso   1.000  H
  H784     1.0000 0.81901  0.50460  0.88999  Biso   1.000  H
  C1541    1.0000 0.83850  0.72049  0.60140  Biso   1.000  C
  C1542    1.0000 0.84160  0.72719  0.63692  Biso   1.000  C
  H785     1.0000 0.83719  0.69790  0.59380  Biso   1.000  H
  C1543    1.0000 0.83739  0.74580  0.57869  Biso   1.000  C
  C1544    1.0000 0.84389  0.75872  0.64825  Biso   1.000  C
  H786     1.0000 0.84200  0.70891  0.65240  Biso   1.000  H
  Br29     1.0000 0.83462  0.73719  0.53320  Biso   1.000  Br
  C1545    1.0000 0.83938  0.77791  0.59075  Biso   1.000  C
  C1546    1.0000 0.84334  0.78443  0.62471  Biso   1.000  C
  C1547    1.0000 0.85212  0.76763  0.68528  Biso   1.000  C
  H787     1.0000 0.83790  0.79629  0.57550  Biso   1.000  H
  H788     1.0000 0.84570  0.80710  0.63211  Biso   1.000  H
  C1548    1.0000 0.84764  0.73747  0.70907  Biso   1.000  C
  C1549    1.0000 0.88879  0.78043  0.68407  Biso   1.000  C
  C1550    1.0000 0.82762  0.79418  0.69948  Biso   1.000  C
  C1551    1.0000 0.81659  0.72130  0.71005  Biso   1.000  C
  C1552    1.0000 0.87051  0.72800  0.73341  Biso   1.000  C
  C1553    1.0000 0.91423  0.75796  0.67443  Biso   1.000  C
  C1554    1.0000 0.89796  0.81271  0.69031  Biso   1.000  C
  C1555    1.0000 0.83382  0.80710  0.73157  Biso   1.000  C
  C1556    1.0000 0.79763  0.80367  0.68503  Biso   1.000  C
  H789     1.0000 0.80020  0.72699  0.69361  Biso   1.000  H
  C1557    1.0000 0.80848  0.69735  0.73379  Biso   1.000  C
  C1558    1.0000 0.86368  0.70407  0.75758  Biso   1.000  C
  H790     1.0000 0.89199  0.73850  0.73351  Biso   1.000  H
  H791     1.0000 0.90841  0.73540  0.66919  Biso   1.000  H
  C1559    1.0000 0.94686  0.76761  0.67236  Biso   1.000  C
  H792     1.0000 0.88121  0.82880  0.69600  Biso   1.000  H
  C1560    1.0000 0.93120  0.82263  0.68858  Biso   1.000  C
  H793     1.0000 0.85311  0.79969  0.74361  Biso   1.000  H
  C1561    1.0000 0.81271  0.83021  0.74617  Biso   1.000  C
  H794     1.0000 0.79171  0.79420  0.66391  Biso   1.000  H
  C1562    1.0000 0.77582  0.82616  0.69960  Biso   1.000  C
  H795     1.0000 0.78720  0.68639  0.73361  Biso   1.000  H
  C1563    1.0000 0.83281  0.68972  0.75826  Biso   1.000  C
  H796     1.0000 0.88040  0.69780  0.77351  Biso   1.000  H
  H797     1.0000 0.96341  0.75169  0.66559  Biso   1.000  H
  C1564    1.0000 0.95653  0.79984  0.67977  Biso   1.000  C
  H798     1.0000 0.93699  0.84530  0.69341  Biso   1.000  H
  C1565    1.0000 0.78421  0.84026  0.73087  Biso   1.000  C
  H799     1.0000 0.81830  0.83931  0.76760  Biso   1.000  H
  H800     1.0000 0.75540  0.83210  0.68870  Biso   1.000  H
  C1566    1.0000 0.82336  0.66615  0.78555  Biso   1.000  C
  C1567    1.0000 0.99081  0.81075  0.67861  Biso   1.000  C
  C1568    1.0000 0.76212  0.86439  0.74572  Biso   1.000  C
  C1569    1.0000 0.81480  0.64849  0.80916  Biso   1.000  C
  C1570    1.0000 0.02020  0.81984  0.67848  Biso   1.000  C
  C1571    1.0000 0.74442  0.88499  0.75740  Biso   1.000  C
  C1572    1.0000 0.80508  0.62913  0.83690  Biso   1.000  C
  C1573    1.0000 0.05369  0.83276  0.67979  Biso   1.000  C
  C1574    1.0000 0.72389  0.91110  0.77220  Biso   1.000  C
  C1575    1.0000 0.78010  0.60485  0.83385  Biso   1.000  C
  C1576    1.0000 0.82014  0.63482  0.86769  Biso   1.000  C
  C1577    1.0000 0.06376  0.84774  0.70939  Biso   1.000  C
  C1578    1.0000 0.07487  0.83200  0.65263  Biso   1.000  C
  C1579    1.0000 0.69221  0.91730  0.75959  Biso   1.000  C
  C1580    1.0000 0.73653  0.93110  0.79801  Biso   1.000  C
  H801     1.0000 0.76920  0.60120  0.81291  Biso   1.000  H
  C1581    1.0000 0.77129  0.58596  0.86200  Biso   1.000  C
  H802     1.0000 0.83699  0.65169  0.86970  Biso   1.000  H
  C1582    1.0000 0.81100  0.61638  0.89540  Biso   1.000  C
  H803     1.0000 0.04891  0.84830  0.72810  Biso   1.000  H
  C1583    1.0000 0.09489  0.86167  0.71174  Biso   1.000  C
  C1584    1.0000 0.10567  0.84555  0.65444  Biso   1.000  C
  H804     1.0000 0.06759  0.82170  0.63229  Biso   1.000  H
  H805     1.0000 0.68390  0.90410  0.74139  Biso   1.000  H
  C1585    1.0000 0.67209  0.94291  0.77331  Biso   1.000  C
  H806     1.0000 0.75880  0.92740  0.80611  Biso   1.000  H
  C1586    1.0000 0.71719  0.95590  0.81180  Biso   1.000  C
  C1587    1.0000 0.78670  0.59168  0.89301  Biso   1.000  C
  H807     1.0000 0.75459  0.56899  0.86001  Biso   1.000  H
  C1588    1.0000 0.82722  0.62245  0.92725  Biso   1.000  C
  C1589    1.0000 0.11695  0.86051  0.68342  Biso   1.000  C
  C1590    1.0000 0.10557  0.87814  0.74139  Biso   1.000  C
  H808     1.0000 0.12000  0.84480  0.63531  Biso   1.000  H
  C1591    1.0000 0.68461  0.96160  0.80030  Biso   1.000  C
  H809     1.0000 0.65041  0.94739  0.76440  Biso   1.000  H
  C1592    1.0000 0.73119  0.97610  0.83861  Biso   1.000  C
  H810     1.0000 0.78050  0.57881  0.91219  Biso   1.000  H
  C1593    1.0000 0.84104  0.62915  0.95199  Biso   1.000  C
  H811     1.0000 0.13891  0.86990  0.68460  Biso   1.000  H
  C1594    1.0000 0.11227  0.89209  0.76709  Biso   1.000  C
  H812     1.0000 0.67091  0.97819  0.81069  Biso   1.000  H
  C1595    1.0000 0.74429  0.99010  0.86089  Biso   1.000  C
  C1596    1.0000 0.85789  0.63774  0.98291  Biso   1.000  C
  C1597    1.0000 0.12083  0.90896  0.79801  Biso   1.000  C
  C1598    1.0000 0.75990  0.00569  0.88911  Biso   1.000  C
  C1599    1.0000 0.87184  0.64441  0.00861  Biso   1.000  C
  C1600    1.0000 0.12755  0.92279  0.82275  Biso   1.000  C
  C1601    1.0000 0.77391  0.01881  0.91139  Biso   1.000  C
  C1602    1.0000 0.88834  0.65512  0.03826  Biso   1.000  C
  C1603    1.0000 0.13362  0.93901  0.85460  Biso   1.000  C
  C1604    1.0000 0.79410  0.03279  0.93820  Biso   1.000  C
  C1605    1.0000 0.90224  0.68624  0.04061  Biso   1.000  C
  C1606    1.0000 0.88947  0.63306  0.06658  Biso   1.000  C
  C1607    1.0000 0.11519  0.92986  0.88231  Biso   1.000  C
  C1608    1.0000 0.15833  0.96331  0.85699  Biso   1.000  C
  C1609    1.0000 0.81891  0.01345  0.95199  Biso   1.000  C
  C1610    1.0000 0.78841  0.06540  0.94970  Biso   1.000  C
  C1611    1.0000 0.91722  0.69632  0.07021  Biso   1.000  C
  H813     1.0000 0.90171  0.70110  0.02190  Biso   1.000  H
  H814     1.0000 0.88010  0.61110  0.06540  Biso   1.000  H
  C1612    1.0000 0.90443  0.64434  0.09556  Biso   1.000  C
  C1613    1.0000 0.12088  0.94492  0.91310  Biso   1.000  C
  H815     1.0000 0.09829  0.91299  0.88030  Biso   1.000  H
  H816     1.0000 0.17120  0.96950  0.83781  Biso   1.000  H
  C1614    1.0000 0.16402  0.97872  0.88800  Biso   1.000  C
  H817     1.0000 0.82261  0.99121  0.94389  Biso   1.000  H
  C1615    1.0000 0.83890  0.02609  0.97780  Biso   1.000  C
  H818     1.0000 0.77179  0.07910  0.93931  Biso   1.000  H
  C1616    1.0000 0.80710  0.07789  0.97669  Biso   1.000  C
  C1617    1.0000 0.93014  0.72981  0.07152  Biso   1.000  C
  C1618    1.0000 0.91800  0.67511  0.09737  Biso   1.000  C
  H819     1.0000 0.90521  0.63001  0.11469  Biso   1.000  H
  C1619    1.0000 0.10149  0.93518  0.94084  Biso   1.000  C
  C1620    1.0000 0.14513  0.96991  0.91615  Biso   1.000  C
  H820     1.0000 0.18099  0.99539  0.88999  Biso   1.000  H
  C1621    1.0000 0.86499  0.00559  0.99260  Biso   1.000  C
  C1622    1.0000 0.83271  0.05780  0.99041  Biso   1.000  C
  H821     1.0000 0.80259  0.09960  0.98560  Biso   1.000  H
  C1623    1.0000 0.93926  0.75920  0.07139  Biso   1.000  C
  H822     1.0000 0.92830  0.68239  0.11771  Biso   1.000  H
  C1624    1.0000 0.08386  0.92664  0.96445  Biso   1.000  C
  H823     1.0000 0.14881  0.98081  0.93709  Biso   1.000  H
  C1625    1.0000 0.88559  0.98789  0.00428  Biso   1.000  C
  H824     1.0000 0.84590  0.06611  0.00861  Biso   1.000  H
  C1626    1.0000 0.95016  0.79347  0.07023  Biso   1.000  C
  C1627    1.0000 0.06029  0.91720  0.99174  Biso   1.000  C
  C1628    1.0000 0.90974  0.96580  0.01913  Biso   1.000  C
  C1629    1.0000 0.92737  0.81881  0.06142  Biso   1.000  C
  C1630    1.0000 0.98240  0.80314  0.07764  Biso   1.000  C
  C1631    1.0000 0.04593  0.88632  0.99242  Biso   1.000  C
  C1632    1.0000 0.05266  0.94152  0.01621  Biso   1.000  C
  C1633    1.0000 0.92382  0.97416  0.05040  Biso   1.000  C
  C1634    1.0000 0.91979  0.93729  0.00383  Biso   1.000  C
  C1635    1.0000 0.93727  0.85205  0.05969  Biso   1.000  C
  H825     1.0000 0.90471  0.81299  0.05659  Biso   1.000  H
  C1636    1.0000 0.99204  0.83578  0.07557  Biso   1.000  C
  H826     1.0000 0.99829  0.78660  0.08441  Biso   1.000  H
  H827     1.0000 0.05220  0.86960  0.97649  Biso   1.000  H
  C1637    1.0000 0.02201  0.87947  0.01659  Biso   1.000  C
  C1638    1.0000 0.02871  0.93339  0.03995  Biso   1.000  C
  H828     1.0000 0.06359  0.96280  0.01639  Biso   1.000  H
  C1639    1.0000 0.94633  0.95235  0.06497  Biso   1.000  C
  H829     1.0000 0.91790  0.99461  0.06130  Biso   1.000  H
  H830     1.0000 0.91070  0.93170  0.98240  Biso   1.000  H
  C1640    1.0000 0.94291  0.91619  0.01843  Biso   1.000  C
  C1641    1.0000 0.96958  0.86122  0.06593  Biso   1.000  C
  H831     1.0000 0.92120  0.86880  0.05400  Biso   1.000  H
  H832     1.0000 0.01461  0.84160  0.08081  Biso   1.000  H
  C1642    1.0000 0.01254  0.90234  0.04093  Biso   1.000  C
  H833     1.0000 0.01151  0.85799  0.01649  Biso   1.000  H
  H834     1.0000 0.02299  0.94981  0.05639  Biso   1.000  H
  C1643    1.0000 0.95583  0.92239  0.05052  Biso   1.000  C
  H835     1.0000 0.95580  0.95830  0.08609  Biso   1.000  H
  H836     1.0000 0.95029  0.89690  0.00639  Biso   1.000  H
  C1644    1.0000 0.98237  0.89788  0.06472  Biso   1.000  C
  C1645    1.0000 0.99129  0.90609  0.10175  Biso   1.000  C
  C1646    1.0000 0.96555  0.90667  0.12529  Biso   1.000  C
  C1647    1.0000 0.02279  0.90841  0.11308  Biso   1.000  C
  H837     1.0000 0.94291  0.90430  0.11789  Biso   1.000  H
  C1648    1.0000 0.97210  0.91062  0.15925  Biso   1.000  C
  H838     1.0000 0.04110  0.90801  0.09760  Biso   1.000  H
  C1649    1.0000 0.02949  0.91151  0.14860  Biso   1.000  C
  H839     1.0000 0.95369  0.91211  0.17450  Biso   1.000  H
  C1650    1.0000 0.00421  0.91259  0.17131  Biso   1.000  C
  H840     1.0000 0.05210  0.91279  0.15620  Biso   1.000  H
  Br30     1.0000 0.01282  0.91536  0.21680  Biso   1.000  Br
  C1651    1.0000 0.16150  0.27951  0.39860  Biso   1.000  C
  C1652    1.0000 0.15840  0.27281  0.36308  Biso   1.000  C
  C1653    1.0000 0.16261  0.25420  0.42131  Biso   1.000  C
  H841     1.0000 0.16281  0.30210  0.40620  Biso   1.000  H
  C1654    1.0000 0.15611  0.24128  0.35175  Biso   1.000  C
  H842     1.0000 0.15800  0.29109  0.34760  Biso   1.000  H
  C1655    1.0000 0.16062  0.22209  0.40925  Biso   1.000  C
  Br31     1.0000 0.16538  0.26281  0.46680  Biso   1.000  Br
  C1656    1.0000 0.14788  0.23237  0.31472  Biso   1.000  C
  C1657    1.0000 0.15666  0.21557  0.37529  Biso   1.000  C
  H843     1.0000 0.16210  0.20371  0.42450  Biso   1.000  H
  C1658    1.0000 0.15236  0.26253  0.29093  Biso   1.000  C
  C1659    1.0000 0.11121  0.21957  0.31593  Biso   1.000  C
  C1660    1.0000 0.17238  0.20582  0.30052  Biso   1.000  C
  H844     1.0000 0.15430  0.19290  0.36789  Biso   1.000  H
  C1661    1.0000 0.18341  0.27870  0.28995  Biso   1.000  C
  C1662    1.0000 0.12949  0.27200  0.26659  Biso   1.000  C
  C1663    1.0000 0.08577  0.24204  0.32557  Biso   1.000  C
  C1664    1.0000 0.10204  0.18729  0.30969  Biso   1.000  C
  C1665    1.0000 0.16618  0.19290  0.26843  Biso   1.000  C
  C1666    1.0000 0.20237  0.19633  0.31497  Biso   1.000  C
  C1667    1.0000 0.19152  0.30265  0.26621  Biso   1.000  C
  H845     1.0000 0.19980  0.27301  0.30639  Biso   1.000  H
  C1668    1.0000 0.13632  0.29593  0.24242  Biso   1.000  C
  H846     1.0000 0.10801  0.26150  0.26649  Biso   1.000  H
  H847     1.0000 0.09159  0.26460  0.33081  Biso   1.000  H
  C1669    1.0000 0.05314  0.23239  0.32764  Biso   1.000  C
  H848     1.0000 0.11879  0.17120  0.30400  Biso   1.000  H
  C1670    1.0000 0.06880  0.17737  0.31142  Biso   1.000  C
  H849     1.0000 0.14689  0.20031  0.25639  Biso   1.000  H
  C1671    1.0000 0.18729  0.16979  0.25383  Biso   1.000  C
  H850     1.0000 0.20829  0.20580  0.33609  Biso   1.000  H
  C1672    1.0000 0.22418  0.17384  0.30040  Biso   1.000  C
  H851     1.0000 0.21280  0.31361  0.26639  Biso   1.000  H
  C1673    1.0000 0.16719  0.31028  0.24174  Biso   1.000  C
  H852     1.0000 0.11960  0.30220  0.22649  Biso   1.000  H
  H853     1.0000 0.03659  0.24831  0.33441  Biso   1.000  H
  C1674    1.0000 0.04347  0.20016  0.32023  Biso   1.000  C
  H854     1.0000 0.06301  0.15470  0.30659  Biso   1.000  H
  C1675    1.0000 0.21579  0.15974  0.26913  Biso   1.000  C
  H855     1.0000 0.18170  0.16069  0.23240  Biso   1.000  H
  H856     1.0000 0.24460  0.16790  0.31130  Biso   1.000  H
  C1676    1.0000 0.17664  0.33385  0.21445  Biso   1.000  C
  C1677    1.0000 0.00919  0.18925  0.32139  Biso   1.000  C
  C1678    1.0000 0.23788  0.13561  0.25428  Biso   1.000  C
  C1679    1.0000 0.18520  0.35151  0.19084  Biso   1.000  C
  C1680    1.0000 0.97980  0.18016  0.32152  Biso   1.000  C
  C1681    1.0000 0.25558  0.11501  0.24260  Biso   1.000  C
  C1682    1.0000 0.19492  0.37087  0.16310  Biso   1.000  C
  C1683    1.0000 0.94631  0.16724  0.32021  Biso   1.000  C
  C1684    1.0000 0.27611  0.08890  0.22780  Biso   1.000  C
  C1685    1.0000 0.21990  0.39515  0.16615  Biso   1.000  C
  C1686    1.0000 0.17986  0.36518  0.13231  Biso   1.000  C
  C1687    1.0000 0.93624  0.15226  0.29061  Biso   1.000  C
  C1688    1.0000 0.92513  0.16800  0.34737  Biso   1.000  C
  C1689    1.0000 0.30779  0.08270  0.24041  Biso   1.000  C
  C1690    1.0000 0.26347  0.06890  0.20199  Biso   1.000  C
  H857     1.0000 0.23080  0.39880  0.18709  Biso   1.000  H
  C1691    1.0000 0.22871  0.41404  0.13800  Biso   1.000  C
  H858     1.0000 0.16301  0.34831  0.13030  Biso   1.000  H
  C1692    1.0000 0.18900  0.38362  0.10460  Biso   1.000  C
  H859     1.0000 0.95109  0.15170  0.27190  Biso   1.000  H
  C1693    1.0000 0.90511  0.13833  0.28826  Biso   1.000  C
  C1694    1.0000 0.89433  0.15445  0.34556  Biso   1.000  C
  H860     1.0000 0.93241  0.17830  0.36771  Biso   1.000  H
  H861     1.0000 0.31610  0.09590  0.25861  Biso   1.000  H
  C1695    1.0000 0.32791  0.05709  0.22669  Biso   1.000  C
  H862     1.0000 0.24120  0.07260  0.19389  Biso   1.000  H
  C1696    1.0000 0.28281  0.04410  0.18820  Biso   1.000  C
  C1697    1.0000 0.21330  0.40832  0.10699  Biso   1.000  C
  H863     1.0000 0.24541  0.43101  0.13999  Biso   1.000  H
  C1698    1.0000 0.17278  0.37755  0.07275  Biso   1.000  C
  C1699    1.0000 0.88305  0.13949  0.31658  Biso   1.000  C
  C1700    1.0000 0.89443  0.12186  0.25861  Biso   1.000  C
  H864     1.0000 0.88000  0.15520  0.36469  Biso   1.000  H
  C1701    1.0000 0.31539  0.03840  0.19970  Biso   1.000  C
  H865     1.0000 0.34959  0.05261  0.23560  Biso   1.000  H
  C1702    1.0000 0.26881  0.02390  0.16139  Biso   1.000  C
  H866     1.0000 0.21950  0.42119  0.08781  Biso   1.000  H
  C1703    1.0000 0.15896  0.37085  0.04801  Biso   1.000  C
  H867     1.0000 0.86109  0.13010  0.31540  Biso   1.000  H
  C1704    1.0000 0.88773  0.10791  0.23291  Biso   1.000  C
  H868     1.0000 0.32909  0.02181  0.18931  Biso   1.000  H
  C1705    1.0000 0.25571  0.00990  0.13911  Biso   1.000  C
  C1706    1.0000 0.14211  0.36226  0.01709  Biso   1.000  C
  C1707    1.0000 0.87917  0.09104  0.20199  Biso   1.000  C
  C1708    1.0000 0.24010  0.99431  0.11089  Biso   1.000  C
  C1709    1.0000 0.12816  0.35559  0.99139  Biso   1.000  C
  C1710    1.0000 0.87245  0.07721  0.17725  Biso   1.000  C
  C1711    1.0000 0.22609  0.98119  0.08861  Biso   1.000  C
  C1712    1.0000 0.11166  0.34488  0.96174  Biso   1.000  C
  C1713    1.0000 0.86638  0.06099  0.14540  Biso   1.000  C
  C1714    1.0000 0.20590  0.96721  0.06180  Biso   1.000  C
  C1715    1.0000 0.09776  0.31376  0.95939  Biso   1.000  C
  C1716    1.0000 0.11053  0.36694  0.93342  Biso   1.000  C
  C1717    1.0000 0.88481  0.07014  0.11769  Biso   1.000  C
  C1718    1.0000 0.84167  0.03669  0.14301  Biso   1.000  C
  C1719    1.0000 0.18109  0.98655  0.04801  Biso   1.000  C
  C1720    1.0000 0.21159  0.93460  0.05030  Biso   1.000  C
  C1721    1.0000 0.08278  0.30368  0.92979  Biso   1.000  C
  H869     1.0000 0.09829  0.29890  0.97810  Biso   1.000  H
  H870     1.0000 0.11990  0.38890  0.93460  Biso   1.000  H
  C1722    1.0000 0.09557  0.35566  0.90444  Biso   1.000  C
  C1723    1.0000 0.87912  0.05508  0.08690  Biso   1.000  C
  H871     1.0000 0.90171  0.08701  0.11970  Biso   1.000  H
  H872     1.0000 0.82880  0.03050  0.16219  Biso   1.000  H
  C1724    1.0000 0.83598  0.02128  0.11200  Biso   1.000  C
  H873     1.0000 0.17739  0.00879  0.05611  Biso   1.000  H
  C1725    1.0000 0.16110  0.97391  0.02220  Biso   1.000  C
  H874     1.0000 0.22821  0.92090  0.06069  Biso   1.000  H
  C1726    1.0000 0.19290  0.92211  0.02331  Biso   1.000  C
  C1727    1.0000 0.06986  0.27019  0.92848  Biso   1.000  C
  C1728    1.0000 0.08200  0.32489  0.90263  Biso   1.000  C
  H875     1.0000 0.09479  0.36999  0.88531  Biso   1.000  H
  C1729    1.0000 0.89851  0.06482  0.05916  Biso   1.000  C
  C1730    1.0000 0.85487  0.03009  0.08385  Biso   1.000  C
  H876     1.0000 0.81901  0.00461  0.11001  Biso   1.000  H
  C1731    1.0000 0.13501  0.99441  0.00740  Biso   1.000  C
  C1732    1.0000 0.16729  0.94220  0.00959  Biso   1.000  C
  H877     1.0000 0.19741  0.90040  0.01440  Biso   1.000  H
  C1733    1.0000 0.06074  0.24080  0.92861  Biso   1.000  C
  H878     1.0000 0.07170  0.31761  0.88229  Biso   1.000  H
  C1734    1.0000 0.91614  0.07336  0.03555  Biso   1.000  C
  H879     1.0000 0.85119  0.01919  0.06291  Biso   1.000  H
  C1735    1.0000 0.11441  0.01211  0.99572  Biso   1.000  C
  H880     1.0000 0.15410  0.93389  0.99139  Biso   1.000  H
  C1736    1.0000 0.04984  0.20653  0.92977  Biso   1.000  C
  C1737    1.0000 0.93971  0.08280  0.00826  Biso   1.000  C
  C1738    1.0000 0.09026  0.03420  0.98087  Biso   1.000  C
  C1739    1.0000 0.07263  0.18119  0.93858  Biso   1.000  C
  C1740    1.0000 0.01760  0.19686  0.92236  Biso   1.000  C
  C1741    1.0000 0.94734  0.05848  0.98379  Biso   1.000  C
  C1742    1.0000 0.95407  0.11368  0.00758  Biso   1.000  C
  C1743    1.0000 0.07618  0.02584  0.94960  Biso   1.000  C
  C1744    1.0000 0.08021  0.06271  0.99617  Biso   1.000  C
  C1745    1.0000 0.06273  0.14795  0.94031  Biso   1.000  C
  H881     1.0000 0.09529  0.18701  0.94341  Biso   1.000  H
  C1746    1.0000 0.00796  0.16422  0.92443  Biso   1.000  C
  H882     1.0000 0.00171  0.21340  0.91559  Biso   1.000  H
  C1747    1.0000 0.97129  0.06661  0.96005  Biso   1.000  C
  H883     1.0000 0.93641  0.03720  0.98361  Biso   1.000  H
  C1748    1.0000 0.97799  0.12053  0.98341  Biso   1.000  C
  H884     1.0000 0.94780  0.13040  0.02351  Biso   1.000  H
  C1749    1.0000 0.05367  0.04765  0.93503  Biso   1.000  C
  H885     1.0000 0.08210  0.00539  0.93870  Biso   1.000  H
  C1750    1.0000 0.05709  0.08381  0.98157  Biso   1.000  C
  H886     1.0000 0.08930  0.06830  0.01760  Biso   1.000  H
  C1751    1.0000 0.03042  0.13878  0.93407  Biso   1.000  C
  H887     1.0000 0.07880  0.13120  0.94600  Biso   1.000  H
  H888     1.0000 0.98539  0.15840  0.91919  Biso   1.000  H
  C1752    1.0000 0.98746  0.09766  0.95907  Biso   1.000  C
  H889     1.0000 0.97701  0.05019  0.94361  Biso   1.000  H
  H890     1.0000 0.98849  0.14201  0.98351  Biso   1.000  H
  C1753    1.0000 0.04417  0.07761  0.94948  Biso   1.000  C
  H891     1.0000 0.04420  0.04170  0.91391  Biso   1.000  H
  H892     1.0000 0.04971  0.10310  0.99361  Biso   1.000  H
  C1754    1.0000 0.01763  0.10212  0.93528  Biso   1.000  C
  C1755    1.0000 0.00871  0.09391  0.89825  Biso   1.000  C
  C1756    1.0000 0.97721  0.09159  0.88692  Biso   1.000  C
  C1757    1.0000 0.03445  0.09333  0.87471  Biso   1.000  C
  H893     1.0000 0.95890  0.09199  0.90240  Biso   1.000  H
  C1758    1.0000 0.97051  0.08849  0.85140  Biso   1.000  C
  H894     1.0000 0.05709  0.09570  0.88211  Biso   1.000  H
  C1759    1.0000 0.02790  0.08938  0.84075  Biso   1.000  C
  H895     1.0000 0.94790  0.08721  0.84380  Biso   1.000  H
  C1760    1.0000 0.99579  0.08741  0.82869  Biso   1.000  C
  H896     1.0000 0.04631  0.08789  0.82550  Biso   1.000  H
  Br32     1.0000 0.98718  0.08464  0.78320  Biso   1.000  Br
  Ne1      1.0000 0.41333  0.33667  0.37500  Biso   1.000  Ne
  He1      1.0000 0.36468  0.29729  0.40693  Biso   1.000  He
  He2      1.0000 0.45397  0.27675  0.39129  Biso   1.000  He
  He3      1.0000 0.45415  0.37202  0.34813  Biso   1.000  He
  Ar1      1.0000 0.44374  0.30501  0.37595  Biso   1.000  Ar
  Ne2      1.0000 0.08668  0.16333  0.12500  Biso   1.000  Ne
  He4      1.0000 0.04612  0.12558  0.15280  Biso   1.000  He
  He5      1.0000 0.04374  0.22531  0.10888  Biso   1.000  He
  He6      1.0000 0.15952  0.20022  0.08404  Biso   1.000  He
  Ar2      1.0000 0.05633  0.19675  0.12251  Biso   1.000  Ar
  Ne3      1.0000 0.58667  0.16333  0.37500  Biso   1.000  Ne
  He7      1.0000 0.69238  0.19710  0.42607  Biso   1.000  He
  He8      1.0000 0.54748  0.22204  0.39139  Biso   1.000  He
  He9      1.0000 0.54665  0.12058  0.34530  Biso   1.000  He
  Ar3      1.0000 0.55325  0.19360  0.37257  Biso   1.000  Ar
  Ne4      1.0000 0.08668  0.33667  0.62500  Biso   1.000  Ne
  He10     1.0000 0.04694  0.38212  0.65573  Biso   1.000  He
  He11     1.0000 0.02754  0.29694  0.64136  Biso   1.000  He
  He12     1.0000 0.13693  0.29745  0.59246  Biso   1.000  He
  Ar4      1.0000 0.05640  0.30638  0.62499  Biso   1.000  Ar
  Ne5      1.0000 0.41333  0.66333  0.12500  Biso   1.000  Ne
  He13     1.0000 0.45384  0.62506  0.15299  Biso   1.000  He
  He14     1.0000 0.45320  0.72259  0.10866  Biso   1.000  He
  He15     1.0000 0.36794  0.70306  0.09430  Biso   1.000  He
  Ar5      1.0000 0.44374  0.69499  0.12405  Biso   1.000  Ar
  Ne6      1.0000 0.41333  0.16333  0.87500  Biso   1.000  Ne
  He16     1.0000 0.36786  0.20306  0.90573  Biso   1.000  He
  He17     1.0000 0.47749  0.20864  0.85906  Biso   1.000  He
  He18     1.0000 0.45294  0.11679  0.84386  Biso   1.000  He
  Ar6      1.0000 0.44674  0.19364  0.87259  Biso   1.000  Ar
  Ne7      1.0000 0.08668  0.83667  0.37500  Biso   1.000  Ne
  He19     1.0000 0.13246  0.79697  0.40586  Biso   1.000  He
  He20     1.0000 0.04380  0.77474  0.39112  Biso   1.000  He
  He21     1.0000 0.05007  0.91352  0.33280  Biso   1.000  He
  Ar7      1.0000 0.05633  0.80325  0.37749  Biso   1.000  Ar
  Ne8      1.0000 0.58667  0.66333  0.62500  Biso   1.000  Ne
  He22     1.0000 0.54748  0.61272  0.65767  Biso   1.000  He
  He23     1.0000 0.54376  0.72532  0.60888  Biso   1.000  He
  He24     1.0000 0.63711  0.70253  0.59239  Biso   1.000  He
  Ar8      1.0000 0.55641  0.69362  0.62499  Biso   1.000  Ar
  Ne9      1.0000 0.58667  0.33667  0.87500  Biso   1.000  Ne
  He25     1.0000 0.63669  0.29743  0.90745  Biso   1.000  He
  He26     1.0000 0.54381  0.27473  0.89112  Biso   1.000  He
  He27     1.0000 0.55005  0.41354  0.83280  Biso   1.000  He
  Ar9      1.0000 0.55635  0.30510  0.87595  Biso   1.000  Ar
  Ne10     1.0000 0.41333  0.83667  0.62500  Biso   1.000  Ne
  He28     1.0000 0.45345  0.87852  0.65435  Biso   1.000  He
  He29     1.0000 0.45477  0.77604  0.60877  Biso   1.000  He
  He30     1.0000 0.35550  0.79824  0.58962  Biso   1.000  He
  Ar10     1.0000 0.44674  0.80636  0.62741  Biso   1.000  Ar
  Ne11     1.0000 0.91332  0.33667  0.12500  Biso   1.000  Ne
  He31     1.0000 0.95344  0.37851  0.15435  Biso   1.000  He
  He32     1.0000 0.95780  0.27328  0.10900  Biso   1.000  He
  He33     1.0000 0.84773  0.29905  0.08672  Biso   1.000  He
  Ar11     1.0000 0.94700  0.30103  0.12348  Biso   1.000  Ar
  Ne12     1.0000 0.91332  0.66333  0.37500  Biso   1.000  Ne
  He34     1.0000 0.86788  0.70306  0.40573  Biso   1.000  He
  He35     1.0000 0.95830  0.72718  0.39100  Biso   1.000  He
  He36     1.0000 0.95260  0.61354  0.34263  Biso   1.000  He
  Ar12     1.0000 0.94361  0.69538  0.37637  Biso   1.000  Ar
  Ne13     1.0000 0.58667  0.83667  0.12500  Biso   1.000  Ne
  He37     1.0000 0.54694  0.88214  0.15573  Biso   1.000  He
  He38     1.0000 0.52756  0.79695  0.14135  Biso   1.000  He
  He39     1.0000 0.62486  0.79616  0.09704  Biso   1.000  He
  Ar13     1.0000 0.55326  0.80636  0.12741  Biso   1.000  Ar
  Ne14     1.0000 0.08668  0.66333  0.87500  Biso   1.000  Ne
  He40     1.0000 0.12955  0.70334  0.90475  Biso   1.000  He
  He41     1.0000 0.02897  0.70151  0.85870  Biso   1.000  He
  He42     1.0000 0.04665  0.62059  0.84530  Biso   1.000  He
  Ar14     1.0000 0.05639  0.69539  0.87637  Biso   1.000  Ar
  Ne15     1.0000 0.91332  0.16333  0.62500  Biso   1.000  Ne
  He43     1.0000 0.95382  0.12505  0.65300  Biso   1.000  He
  He44     1.0000 0.95226  0.22183  0.60858  Biso   1.000  He
  He45     1.0000 0.86795  0.20308  0.59430  Biso   1.000  He
  Ar15     1.0000 0.94367  0.19705  0.62237  Biso   1.000  Ar
  Ne16     1.0000 0.91332  0.83667  0.87500  Biso   1.000  Ne
  He46     1.0000 0.86469  0.79727  0.90693  Biso   1.000  He
  He47     1.0000 0.95340  0.77727  0.89133  Biso   1.000  He
  He48     1.0000 0.95414  0.87203  0.84812  Biso   1.000  He
  Ar16     1.0000 0.94367  0.80326  0.87749  Biso   1.000  Ar
