data_image0
_cell_length_a       25.138
_cell_length_b       25.138
_cell_length_c       25.138
_cell_angle_alpha    90
_cell_angle_beta     90
_cell_angle_gamma    90

_symmetry_space_group_name_H-M    "P 1"
_symmetry_int_tables_number       1

loop_
  _symmetry_equiv_pos_as_xyz
  'x, y, z'

loop_
  _atom_site_label
  _atom_site_occupancy
  _atom_site_fract_x
  _atom_site_fract_y
  _atom_site_fract_z
  _atom_site_thermal_displace_type
  _atom_site_B_iso_or_equiv
  _atom_site_type_symbol
  C1       1.0000 0.37899  0.36212  0.30531  Biso   1.000  C
  C2       1.0000 0.39303  0.31789  0.33471  Biso   1.000  C
  H1       1.0000 0.39979  0.37151  0.27620  Biso   1.000  H
  C3       1.0000 0.33471  0.39303  0.31789  Biso   1.000  C
  C4       1.0000 0.36212  0.30531  0.37899  Biso   1.000  C
  C5       1.0000 0.43902  0.28431  0.32210  Biso   1.000  C
  C6       1.0000 0.30531  0.37899  0.36212  Biso   1.000  C
  C7       1.0000 0.32210  0.43902  0.28431  Biso   1.000  C
  C8       1.0000 0.31789  0.33471  0.39303  Biso   1.000  C
  H2       1.0000 0.37151  0.27620  0.39979  Biso   1.000  H
  N1       1.0000 0.47088  0.29549  0.28499  Biso   1.000  N
  H3       1.0000 0.44490  0.25380  0.34219  Biso   1.000  H
  H4       1.0000 0.27620  0.39979  0.37151  Biso   1.000  H
  N2       1.0000 0.28499  0.47088  0.29549  Biso   1.000  N
  H5       1.0000 0.34219  0.44490  0.25380  Biso   1.000  H
  C9       1.0000 0.28431  0.32210  0.43902  Biso   1.000  C
  C10      1.0000 0.51730  0.26156  0.27791  Biso   1.000  C
  C11      1.0000 0.27791  0.51730  0.26156  Biso   1.000  C
  N3       1.0000 0.29549  0.28499  0.47088  Biso   1.000  N
  H6       1.0000 0.25380  0.34219  0.44490  Biso   1.000  H
  C12      1.0000 0.51730  0.23844  0.22209  Biso   1.000  C
  H7       1.0000 0.51532  0.23220  0.30348  Biso   1.000  H
  C13      1.0000 0.56731  0.29239  0.28809  Biso   1.000  C
  C14      1.0000 0.22209  0.51730  0.23844  Biso   1.000  C
  H8       1.0000 0.30348  0.51532  0.23220  Biso   1.000  H
  C15      1.0000 0.28809  0.56731  0.29239  Biso   1.000  C
  C16      1.0000 0.26156  0.27791  0.51730  Biso   1.000  C
  N4       1.0000 0.47088  0.20451  0.21501  Biso   1.000  N
  H9       1.0000 0.51532  0.26780  0.19652  Biso   1.000  H
  C17      1.0000 0.56731  0.20761  0.21191  Biso   1.000  C
  H10      1.0000 0.56779  0.30368  0.32501  Biso   1.000  H
  H11      1.0000 0.56739  0.32401  0.26609  Biso   1.000  H
  C18      1.0000 0.61699  0.26040  0.27679  Biso   1.000  C
  N5       1.0000 0.21501  0.47088  0.20451  Biso   1.000  N
  H12      1.0000 0.19652  0.51532  0.26780  Biso   1.000  H
  C19      1.0000 0.21191  0.56731  0.20761  Biso   1.000  C
  H13      1.0000 0.32501  0.56779  0.30368  Biso   1.000  H
  H14      1.0000 0.26609  0.56739  0.32401  Biso   1.000  H
  C20      1.0000 0.27679  0.61699  0.26040  Biso   1.000  C
  H15      1.0000 0.23220  0.30348  0.51532  Biso   1.000  H
  C21      1.0000 0.29239  0.28809  0.56731  Biso   1.000  C
  C22      1.0000 0.23844  0.22209  0.51730  Biso   1.000  C
  C23      1.0000 0.43902  0.21569  0.17790  Biso   1.000  C
  H16      1.0000 0.56779  0.19632  0.17499  Biso   1.000  H
  H17      1.0000 0.56739  0.17599  0.23391  Biso   1.000  H
  C24      1.0000 0.61699  0.23960  0.22321  Biso   1.000  C
  H18      1.0000 0.64798  0.28280  0.28180  Biso   1.000  H
  H19      1.0000 0.61930  0.23108  0.30181  Biso   1.000  H
  C25      1.0000 0.17790  0.43902  0.21569  Biso   1.000  C
  H20      1.0000 0.17499  0.56779  0.19632  Biso   1.000  H
  H21      1.0000 0.23391  0.56739  0.17599  Biso   1.000  H
  C26      1.0000 0.22321  0.61699  0.23960  Biso   1.000  C
  H22      1.0000 0.28180  0.64798  0.28280  Biso   1.000  H
  H23      1.0000 0.30181  0.61930  0.23108  Biso   1.000  H
  H24      1.0000 0.30368  0.32501  0.56779  Biso   1.000  H
  H25      1.0000 0.32401  0.26609  0.56739  Biso   1.000  H
  C27      1.0000 0.26040  0.27679  0.61699  Biso   1.000  C
  N6       1.0000 0.20451  0.21501  0.47088  Biso   1.000  N
  H26      1.0000 0.26780  0.19652  0.51532  Biso   1.000  H
  C28      1.0000 0.20761  0.21191  0.56731  Biso   1.000  C
  C29      1.0000 0.39303  0.18211  0.16529  Biso   1.000  C
  H27      1.0000 0.44490  0.24620  0.15781  Biso   1.000  H
  H28      1.0000 0.64798  0.21720  0.21820  Biso   1.000  H
  H29      1.0000 0.61930  0.26892  0.19819  Biso   1.000  H
  C30      1.0000 0.16529  0.39303  0.18211  Biso   1.000  C
  H30      1.0000 0.15781  0.44490  0.24620  Biso   1.000  H
  H31      1.0000 0.21820  0.64798  0.21720  Biso   1.000  H
  H32      1.0000 0.19819  0.61930  0.26892  Biso   1.000  H
  H33      1.0000 0.28280  0.28180  0.64798  Biso   1.000  H
  H34      1.0000 0.23108  0.30181  0.61930  Biso   1.000  H
  C31      1.0000 0.23960  0.22321  0.61699  Biso   1.000  C
  C32      1.0000 0.21569  0.17790  0.43902  Biso   1.000  C
  H35      1.0000 0.19632  0.17499  0.56779  Biso   1.000  H
  H36      1.0000 0.17599  0.23391  0.56739  Biso   1.000  H
  C33      1.0000 0.36212  0.19469  0.12101  Biso   1.000  C
  C34      1.0000 0.37899  0.13792  0.19469  Biso   1.000  C
  C35      1.0000 0.19469  0.37899  0.13792  Biso   1.000  C
  C36      1.0000 0.12101  0.36212  0.19469  Biso   1.000  C
  H37      1.0000 0.21720  0.21820  0.64798  Biso   1.000  H
  H38      1.0000 0.26892  0.19819  0.61930  Biso   1.000  H
  C37      1.0000 0.18211  0.16529  0.39303  Biso   1.000  C
  H39      1.0000 0.24620  0.15781  0.44490  Biso   1.000  H
  H40      1.0000 0.37151  0.22380  0.10021  Biso   1.000  H
  C38      1.0000 0.31789  0.16529  0.10697  Biso   1.000  C
  H41      1.0000 0.39979  0.12849  0.22380  Biso   1.000  H
  C39      1.0000 0.33471  0.10697  0.18211  Biso   1.000  C
  H42      1.0000 0.22380  0.39979  0.12849  Biso   1.000  H
  C40      1.0000 0.18211  0.33471  0.10697  Biso   1.000  C
  H43      1.0000 0.10021  0.37151  0.22380  Biso   1.000  H
  C41      1.0000 0.10697  0.31789  0.16529  Biso   1.000  C
  C42      1.0000 0.13792  0.19469  0.37899  Biso   1.000  C
  C43      1.0000 0.19469  0.12101  0.36212  Biso   1.000  C
  C44      1.0000 0.30531  0.12101  0.13792  Biso   1.000  C
  C45      1.0000 0.28431  0.17790  0.06098  Biso   1.000  C
  C46      1.0000 0.32210  0.06098  0.21569  Biso   1.000  C
  C47      1.0000 0.13792  0.30531  0.12101  Biso   1.000  C
  C48      1.0000 0.21569  0.32210  0.06098  Biso   1.000  C
  C49      1.0000 0.06098  0.28431  0.17790  Biso   1.000  C
  H44      1.0000 0.12849  0.22380  0.39979  Biso   1.000  H
  C50      1.0000 0.10697  0.18211  0.33471  Biso   1.000  C
  H45      1.0000 0.22380  0.10021  0.37151  Biso   1.000  H
  C51      1.0000 0.16529  0.10697  0.31789  Biso   1.000  C
  H46      1.0000 0.27620  0.10021  0.12849  Biso   1.000  H
  N7       1.0000 0.29549  0.21501  0.02912  Biso   1.000  N
  H47      1.0000 0.25380  0.15781  0.05510  Biso   1.000  H
  N8       1.0000 0.28499  0.02912  0.20451  Biso   1.000  N
  H48      1.0000 0.34219  0.05510  0.24620  Biso   1.000  H
  H49      1.0000 0.12849  0.27620  0.10021  Biso   1.000  H
  N9       1.0000 0.20451  0.28499  0.02912  Biso   1.000  N
  H50      1.0000 0.24620  0.34219  0.05510  Biso   1.000  H
  N10      1.0000 0.02912  0.29549  0.21501  Biso   1.000  N
  H51      1.0000 0.05510  0.25380  0.15781  Biso   1.000  H
  C52      1.0000 0.12101  0.13792  0.30531  Biso   1.000  C
  C53      1.0000 0.06098  0.21569  0.32210  Biso   1.000  C
  C54      1.0000 0.17790  0.06098  0.28431  Biso   1.000  C
  C55      1.0000 0.26156  0.22209  0.98270  Biso   1.000  C
  C56      1.0000 0.27791  0.98270  0.23844  Biso   1.000  C
  C57      1.0000 0.23844  0.27791  0.98270  Biso   1.000  C
  C58      1.0000 0.98270  0.26156  0.22209  Biso   1.000  C
  H52      1.0000 0.10021  0.12849  0.27620  Biso   1.000  H
  N11      1.0000 0.02912  0.20451  0.28499  Biso   1.000  N
  H53      1.0000 0.05510  0.24620  0.34219  Biso   1.000  H
  N12      1.0000 0.21501  0.02912  0.29549  Biso   1.000  N
  H54      1.0000 0.15781  0.05510  0.25380  Biso   1.000  H
  H55      1.0000 0.23220  0.19652  0.98468  Biso   1.000  H
  C59      1.0000 0.29239  0.21191  0.93269  Biso   1.000  C
  C60      1.0000 0.22209  0.98270  0.26156  Biso   1.000  C
  H56      1.0000 0.30348  0.98468  0.26780  Biso   1.000  H
  C61      1.0000 0.28809  0.93269  0.20761  Biso   1.000  C
  H57      1.0000 0.26780  0.30348  0.98468  Biso   1.000  H
  C62      1.0000 0.20761  0.28809  0.93269  Biso   1.000  C
  C63      1.0000 0.98270  0.23844  0.27791  Biso   1.000  C
  H58      1.0000 0.98468  0.23220  0.19652  Biso   1.000  H
  C64      1.0000 0.93269  0.29239  0.21191  Biso   1.000  C
  H59      1.0000 0.30368  0.17499  0.93221  Biso   1.000  H
  H60      1.0000 0.32401  0.23391  0.93261  Biso   1.000  H
  C65      1.0000 0.26040  0.22321  0.88301  Biso   1.000  C
  H61      1.0000 0.19652  0.98468  0.23220  Biso   1.000  H
  C66      1.0000 0.21191  0.93269  0.29239  Biso   1.000  C
  H62      1.0000 0.32501  0.93221  0.19632  Biso   1.000  H
  H63      1.0000 0.26609  0.93261  0.17599  Biso   1.000  H
  C67      1.0000 0.27679  0.88301  0.23960  Biso   1.000  C
  H64      1.0000 0.19632  0.32501  0.93221  Biso   1.000  H
  H65      1.0000 0.17599  0.26609  0.93261  Biso   1.000  H
  C68      1.0000 0.23960  0.27679  0.88301  Biso   1.000  C
  H66      1.0000 0.98468  0.26780  0.30348  Biso   1.000  H
  C69      1.0000 0.93269  0.20761  0.28809  Biso   1.000  C
  H67      1.0000 0.93221  0.30368  0.17499  Biso   1.000  H
  H68      1.0000 0.93261  0.32401  0.23391  Biso   1.000  H
  C70      1.0000 0.88301  0.26040  0.22321  Biso   1.000  C
  H69      1.0000 0.28280  0.21820  0.85202  Biso   1.000  H
  H70      1.0000 0.23108  0.19819  0.88070  Biso   1.000  H
  H71      1.0000 0.17499  0.93221  0.30368  Biso   1.000  H
  H72      1.0000 0.23391  0.93261  0.32401  Biso   1.000  H
  C71      1.0000 0.22321  0.88301  0.26040  Biso   1.000  C
  H73      1.0000 0.28180  0.85202  0.21720  Biso   1.000  H
  H74      1.0000 0.30181  0.88070  0.26892  Biso   1.000  H
  H75      1.0000 0.21720  0.28180  0.85202  Biso   1.000  H
  H76      1.0000 0.26892  0.30181  0.88070  Biso   1.000  H
  H77      1.0000 0.93221  0.19632  0.32501  Biso   1.000  H
  H78      1.0000 0.93261  0.17599  0.26609  Biso   1.000  H
  C72      1.0000 0.88301  0.23960  0.27679  Biso   1.000  C
  H79      1.0000 0.85202  0.28280  0.21820  Biso   1.000  H
  H80      1.0000 0.88070  0.23108  0.19819  Biso   1.000  H
  H81      1.0000 0.21820  0.85202  0.28280  Biso   1.000  H
  H82      1.0000 0.19819  0.88070  0.23108  Biso   1.000  H
  H83      1.0000 0.85202  0.21720  0.28180  Biso   1.000  H
  H84      1.0000 0.88070  0.26892  0.30181  Biso   1.000  H
  C73      1.0000 0.51038  0.36701  0.47319  Biso   1.000  C
  C74      1.0000 0.54241  0.31729  0.46189  Biso   1.000  C
  C75      1.0000 0.48962  0.36701  0.52681  Biso   1.000  C
  H85      1.0000 0.53282  0.39800  0.46822  Biso   1.000  H
  H86      1.0000 0.48110  0.36932  0.44821  Biso   1.000  H
  C76      1.0000 0.51154  0.26732  0.47211  Biso   1.000  C
  H87      1.0000 0.55370  0.31781  0.42501  Biso   1.000  H
  H88      1.0000 0.57399  0.31741  0.48389  Biso   1.000  H
  C77      1.0000 0.45759  0.31729  0.53811  Biso   1.000  C
  H89      1.0000 0.46722  0.39800  0.53178  Biso   1.000  H
  H90      1.0000 0.51890  0.36932  0.55179  Biso   1.000  H
  N13      1.0000 0.54551  0.22090  0.46503  Biso   1.000  N
  C78      1.0000 0.48846  0.26732  0.52789  Biso   1.000  C
  H91      1.0000 0.48222  0.26530  0.44650  Biso   1.000  H
  H92      1.0000 0.44630  0.31781  0.57499  Biso   1.000  H
  H93      1.0000 0.42601  0.31741  0.51611  Biso   1.000  H
  C79      1.0000 0.53429  0.18900  0.42792  Biso   1.000  C
  N14      1.0000 0.45453  0.22090  0.53497  Biso   1.000  N
  H94      1.0000 0.51782  0.26530  0.55350  Biso   1.000  H
  C80      1.0000 0.56791  0.14305  0.41531  Biso   1.000  C
  H95      1.0000 0.50382  0.19488  0.40779  Biso   1.000  H
  H96      1.0000 0.50382  0.19492  0.40779  Biso   1.000  H
  C81      1.0000 0.46571  0.18900  0.57212  Biso   1.000  C
  C82      1.0000 0.55529  0.11210  0.37099  Biso   1.000  C
  C83      1.0000 0.61210  0.12901  0.44471  Biso   1.000  C
  C84      1.0000 0.43209  0.14305  0.58469  Biso   1.000  C
  H97      1.0000 0.49622  0.19488  0.59221  Biso   1.000  H
  H98      1.0000 0.49622  0.19492  0.59221  Biso   1.000  H
  H99      1.0000 0.52622  0.12149  0.35019  Biso   1.000  H
  C85      1.0000 0.58469  0.06791  0.35695  Biso   1.000  C
  H100     1.0000 0.62149  0.14981  0.47378  Biso   1.000  H
  C86      1.0000 0.64305  0.08469  0.43209  Biso   1.000  C
  C87      1.0000 0.38790  0.12901  0.55529  Biso   1.000  C
  C88      1.0000 0.44471  0.11210  0.62901  Biso   1.000  C
  C89      1.0000 0.62901  0.05529  0.38790  Biso   1.000  C
  C90      1.0000 0.57212  0.03429  0.31100  Biso   1.000  C
  C91      1.0000 0.68900  0.07212  0.46571  Biso   1.000  C
  H101     1.0000 0.37851  0.14981  0.52622  Biso   1.000  H
  C92      1.0000 0.35695  0.08469  0.56791  Biso   1.000  C
  C93      1.0000 0.41531  0.06791  0.64305  Biso   1.000  C
  H102     1.0000 0.47378  0.12149  0.64981  Biso   1.000  H
  H103     1.0000 0.64981  0.02622  0.37851  Biso   1.000  H
  N15      1.0000 0.53497  0.04551  0.27910  Biso   1.000  N
  H104     1.0000 0.59221  0.00382  0.30512  Biso   1.000  H
  N16      1.0000 0.72090  0.03497  0.45453  Biso   1.000  N
  H105     1.0000 0.69488  0.09221  0.49622  Biso   1.000  H
  C94      1.0000 0.37099  0.05529  0.61210  Biso   1.000  C
  C95      1.0000 0.31100  0.07212  0.53429  Biso   1.000  C
  C96      1.0000 0.42792  0.03429  0.68900  Biso   1.000  C
  C97      1.0000 0.52789  0.01154  0.23268  Biso   1.000  C
  C98      1.0000 0.76732  0.02789  0.48846  Biso   1.000  C
  H106     1.0000 0.35019  0.02622  0.62149  Biso   1.000  H
  N17      1.0000 0.27910  0.03497  0.54551  Biso   1.000  N
  H107     1.0000 0.30512  0.09221  0.50382  Biso   1.000  H
  N18      1.0000 0.46503  0.04551  0.72090  Biso   1.000  N
  H108     1.0000 0.40779  0.00382  0.69488  Biso   1.000  H
  C99      1.0000 0.53811  0.04241  0.18271  Biso   1.000  C
  C100     1.0000 0.47211  0.98846  0.23268  Biso   1.000  C
  H109     1.0000 0.55350  0.98222  0.23470  Biso   1.000  H
  H110     1.0000 0.76530  0.05350  0.51782  Biso   1.000  H
  C101     1.0000 0.81729  0.03811  0.45759  Biso   1.000  C
  C102     1.0000 0.76732  0.97211  0.51154  Biso   1.000  C
  C103     1.0000 0.23268  0.02789  0.51154  Biso   1.000  C
  C104     1.0000 0.47211  0.01154  0.76732  Biso   1.000  C
  H111     1.0000 0.57499  0.05370  0.18219  Biso   1.000  H
  H112     1.0000 0.51611  0.07399  0.18259  Biso   1.000  H
  C105     1.0000 0.52681  0.01038  0.13299  Biso   1.000  C
  C106     1.0000 0.52681  0.01042  0.13299  Biso   1.000  C
  C107     1.0000 0.46189  0.95759  0.18271  Biso   1.000  C
  N19      1.0000 0.46503  0.95453  0.27910  Biso   1.000  N
  H113     1.0000 0.44650  0.01778  0.23470  Biso   1.000  H
  H114     1.0000 0.44650  0.01782  0.23470  Biso   1.000  H
  H115     1.0000 0.81781  0.07499  0.44630  Biso   1.000  H
  H116     1.0000 0.81741  0.01611  0.42601  Biso   1.000  H
  C108     1.0000 0.86701  0.02681  0.48962  Biso   1.000  C
  N20      1.0000 0.72090  0.96503  0.54551  Biso   1.000  N
  H117     1.0000 0.76530  0.94650  0.48222  Biso   1.000  H
  C109     1.0000 0.81729  0.96189  0.54241  Biso   1.000  C
  H118     1.0000 0.23470  0.05350  0.48222  Biso   1.000  H
  C110     1.0000 0.18271  0.03811  0.54241  Biso   1.000  C
  C111     1.0000 0.23268  0.97211  0.48846  Biso   1.000  C
  C112     1.0000 0.46189  0.04241  0.81729  Biso   1.000  C
  H119     1.0000 0.44650  0.98222  0.76530  Biso   1.000  H
  C113     1.0000 0.52789  0.98846  0.76732  Biso   1.000  C
  H120     1.0000 0.53178  0.03282  0.10200  Biso   1.000  H
  C114     1.0000 0.47319  0.98962  0.13299  Biso   1.000  C
  H121     1.0000 0.55179  0.98110  0.13072  Biso   1.000  H
  C115     1.0000 0.42792  0.96571  0.31100  Biso   1.000  C
  H122     1.0000 0.42501  0.94630  0.18219  Biso   1.000  H
  H123     1.0000 0.48389  0.92601  0.18259  Biso   1.000  H
  H124     1.0000 0.89800  0.03178  0.46722  Biso   1.000  H
  H125     1.0000 0.86932  0.05179  0.51890  Biso   1.000  H
  C116     1.0000 0.86701  0.97319  0.51038  Biso   1.000  C
  C117     1.0000 0.68900  0.92792  0.53429  Biso   1.000  C
  H126     1.0000 0.81781  0.92501  0.55370  Biso   1.000  H
  H127     1.0000 0.81741  0.98389  0.57399  Biso   1.000  H
  H128     1.0000 0.18219  0.07499  0.55370  Biso   1.000  H
  H129     1.0000 0.18259  0.01611  0.57399  Biso   1.000  H
  C118     1.0000 0.13299  0.02681  0.51038  Biso   1.000  C
  N21      1.0000 0.27910  0.96503  0.45453  Biso   1.000  N
  H130     1.0000 0.23470  0.94650  0.51782  Biso   1.000  H
  C119     1.0000 0.18271  0.96189  0.45759  Biso   1.000  C
  H131     1.0000 0.42501  0.05370  0.81781  Biso   1.000  H
  H132     1.0000 0.48389  0.07399  0.81741  Biso   1.000  H
  C120     1.0000 0.47319  0.01038  0.86701  Biso   1.000  C
  C121     1.0000 0.47319  0.01042  0.86701  Biso   1.000  C
  C122     1.0000 0.53811  0.95759  0.81729  Biso   1.000  C
  N22      1.0000 0.53497  0.95453  0.72090  Biso   1.000  N
  H133     1.0000 0.55350  0.01778  0.76530  Biso   1.000  H
  H134     1.0000 0.55350  0.01782  0.76530  Biso   1.000  H
  H135     1.0000 0.44821  0.01890  0.13072  Biso   1.000  H
  H136     1.0000 0.46822  0.96718  0.10200  Biso   1.000  H
  H137     1.0000 0.46822  0.96722  0.10200  Biso   1.000  H
  C123     1.0000 0.41531  0.93209  0.35695  Biso   1.000  C
  H138     1.0000 0.40779  0.99618  0.30512  Biso   1.000  H
  H139     1.0000 0.40779  0.99622  0.30512  Biso   1.000  H
  H140     1.0000 0.89800  0.96822  0.53282  Biso   1.000  H
  H141     1.0000 0.86932  0.94821  0.48110  Biso   1.000  H
  C124     1.0000 0.64305  0.91531  0.56791  Biso   1.000  C
  H142     1.0000 0.69488  0.90779  0.50382  Biso   1.000  H
  H143     1.0000 0.10200  0.03178  0.53282  Biso   1.000  H
  H144     1.0000 0.13072  0.05179  0.48110  Biso   1.000  H
  C125     1.0000 0.13299  0.97319  0.48962  Biso   1.000  C
  C126     1.0000 0.31100  0.92792  0.46571  Biso   1.000  C
  H145     1.0000 0.18219  0.92501  0.44630  Biso   1.000  H
  H146     1.0000 0.18259  0.98389  0.42601  Biso   1.000  H
  H147     1.0000 0.46822  0.03282  0.89800  Biso   1.000  H
  H148     1.0000 0.44821  0.98110  0.86932  Biso   1.000  H
  C127     1.0000 0.52681  0.98962  0.86701  Biso   1.000  C
  C128     1.0000 0.57212  0.96571  0.68900  Biso   1.000  C
  H149     1.0000 0.57499  0.94630  0.81781  Biso   1.000  H
  H150     1.0000 0.51611  0.92601  0.81741  Biso   1.000  H
  C129     1.0000 0.44471  0.88790  0.37099  Biso   1.000  C
  C130     1.0000 0.37099  0.94471  0.38790  Biso   1.000  C
  C131     1.0000 0.61210  0.87099  0.55529  Biso   1.000  C
  C132     1.0000 0.62901  0.94471  0.61210  Biso   1.000  C
  H151     1.0000 0.10200  0.96822  0.46722  Biso   1.000  H
  H152     1.0000 0.13072  0.94821  0.51890  Biso   1.000  H
  C133     1.0000 0.35695  0.91531  0.43209  Biso   1.000  C
  H153     1.0000 0.30512  0.90779  0.49622  Biso   1.000  H
  H154     1.0000 0.55179  0.01890  0.86932  Biso   1.000  H
  H155     1.0000 0.53178  0.96718  0.89800  Biso   1.000  H
  H156     1.0000 0.53178  0.96722  0.89800  Biso   1.000  H
  C134     1.0000 0.58469  0.93209  0.64305  Biso   1.000  C
  H157     1.0000 0.59221  0.99618  0.69488  Biso   1.000  H
  H158     1.0000 0.59221  0.99622  0.69488  Biso   1.000  H
  H159     1.0000 0.47378  0.87851  0.35019  Biso   1.000  H
  C135     1.0000 0.43209  0.85695  0.41531  Biso   1.000  C
  H160     1.0000 0.35019  0.97378  0.37851  Biso   1.000  H
  H161     1.0000 0.62149  0.85019  0.52622  Biso   1.000  H
  C136     1.0000 0.56791  0.85695  0.58469  Biso   1.000  C
  H162     1.0000 0.64981  0.97378  0.62149  Biso   1.000  H
  C137     1.0000 0.38790  0.87099  0.44471  Biso   1.000  C
  C138     1.0000 0.55529  0.88790  0.62901  Biso   1.000  C
  C139     1.0000 0.46571  0.81100  0.42792  Biso   1.000  C
  C140     1.0000 0.53429  0.81100  0.57212  Biso   1.000  C
  H163     1.0000 0.37851  0.85019  0.47378  Biso   1.000  H
  H164     1.0000 0.52622  0.87851  0.64981  Biso   1.000  H
  N23      1.0000 0.45453  0.77910  0.46503  Biso   1.000  N
  H165     1.0000 0.49622  0.80512  0.40779  Biso   1.000  H
  N24      1.0000 0.54551  0.77910  0.53497  Biso   1.000  N
  H166     1.0000 0.50382  0.80512  0.59221  Biso   1.000  H
  C141     1.0000 0.48846  0.73268  0.47211  Biso   1.000  C
  C142     1.0000 0.51154  0.73268  0.52789  Biso   1.000  C
  H167     1.0000 0.51782  0.73470  0.44650  Biso   1.000  H
  C143     1.0000 0.45759  0.68271  0.46189  Biso   1.000  C
  H168     1.0000 0.48222  0.73470  0.55350  Biso   1.000  H
  C144     1.0000 0.54241  0.68271  0.53811  Biso   1.000  C
  H169     1.0000 0.44630  0.68219  0.42501  Biso   1.000  H
  H170     1.0000 0.42601  0.68259  0.48389  Biso   1.000  H
  C145     1.0000 0.48962  0.63299  0.47319  Biso   1.000  C
  H171     1.0000 0.55370  0.68219  0.57499  Biso   1.000  H
  H172     1.0000 0.57399  0.68259  0.51611  Biso   1.000  H
  C146     1.0000 0.51038  0.63299  0.52681  Biso   1.000  C
  H173     1.0000 0.46722  0.60200  0.46822  Biso   1.000  H
  H174     1.0000 0.51890  0.63068  0.44821  Biso   1.000  H
  H175     1.0000 0.51890  0.63072  0.44821  Biso   1.000  H
  H176     1.0000 0.53282  0.60200  0.53178  Biso   1.000  H
  H177     1.0000 0.48110  0.63068  0.55179  Biso   1.000  H
  H178     1.0000 0.48110  0.63072  0.55179  Biso   1.000  H
  C147     1.0000 0.47319  0.51038  0.36701  Biso   1.000  C
  C148     1.0000 0.46189  0.54241  0.31729  Biso   1.000  C
  C149     1.0000 0.52681  0.48962  0.36701  Biso   1.000  C
  H179     1.0000 0.46822  0.53282  0.39800  Biso   1.000  H
  H180     1.0000 0.44821  0.48110  0.36932  Biso   1.000  H
  C150     1.0000 0.47211  0.51154  0.26732  Biso   1.000  C
  H181     1.0000 0.42501  0.55370  0.31781  Biso   1.000  H
  H182     1.0000 0.48389  0.57399  0.31741  Biso   1.000  H
  C151     1.0000 0.53811  0.45759  0.31729  Biso   1.000  C
  H183     1.0000 0.53178  0.46722  0.39800  Biso   1.000  H
  H184     1.0000 0.55179  0.51890  0.36932  Biso   1.000  H
  N25      1.0000 0.46503  0.54551  0.22090  Biso   1.000  N
  C152     1.0000 0.52789  0.48846  0.26732  Biso   1.000  C
  H185     1.0000 0.44650  0.48222  0.26530  Biso   1.000  H
  H186     1.0000 0.57499  0.44630  0.31781  Biso   1.000  H
  H187     1.0000 0.51611  0.42601  0.31741  Biso   1.000  H
  C153     1.0000 0.42792  0.53429  0.18900  Biso   1.000  C
  N26      1.0000 0.53497  0.45453  0.22090  Biso   1.000  N
  H188     1.0000 0.55350  0.51782  0.26530  Biso   1.000  H
  C154     1.0000 0.41531  0.56791  0.14305  Biso   1.000  C
  H189     1.0000 0.40779  0.50382  0.19488  Biso   1.000  H
  H190     1.0000 0.40779  0.50382  0.19492  Biso   1.000  H
  C155     1.0000 0.57212  0.46571  0.18900  Biso   1.000  C
  C156     1.0000 0.44471  0.61210  0.12901  Biso   1.000  C
  C157     1.0000 0.37099  0.55529  0.11210  Biso   1.000  C
  C158     1.0000 0.58469  0.43209  0.14305  Biso   1.000  C
  H191     1.0000 0.59221  0.49622  0.19488  Biso   1.000  H
  H192     1.0000 0.59221  0.49622  0.19492  Biso   1.000  H
  H193     1.0000 0.47378  0.62149  0.14981  Biso   1.000  H
  C159     1.0000 0.43209  0.64305  0.08469  Biso   1.000  C
  H194     1.0000 0.35019  0.52622  0.12149  Biso   1.000  H
  C160     1.0000 0.35695  0.58469  0.06791  Biso   1.000  C
  C161     1.0000 0.62901  0.44471  0.11210  Biso   1.000  C
  C162     1.0000 0.55529  0.38790  0.12901  Biso   1.000  C
  C163     1.0000 0.38790  0.62901  0.05529  Biso   1.000  C
  C164     1.0000 0.46571  0.68900  0.07212  Biso   1.000  C
  C165     1.0000 0.31100  0.57212  0.03429  Biso   1.000  C
  H195     1.0000 0.64981  0.47378  0.12149  Biso   1.000  H
  C166     1.0000 0.64305  0.41531  0.06791  Biso   1.000  C
  H196     1.0000 0.52622  0.37851  0.14981  Biso   1.000  H
  C167     1.0000 0.56791  0.35695  0.08469  Biso   1.000  C
  H197     1.0000 0.37851  0.64981  0.02622  Biso   1.000  H
  N27      1.0000 0.45453  0.72090  0.03497  Biso   1.000  N
  H198     1.0000 0.49622  0.69488  0.09221  Biso   1.000  H
  N28      1.0000 0.27910  0.53497  0.04551  Biso   1.000  N
  H199     1.0000 0.30512  0.59221  0.00382  Biso   1.000  H
  C168     1.0000 0.61210  0.37099  0.05529  Biso   1.000  C
  C169     1.0000 0.68900  0.42792  0.03429  Biso   1.000  C
  C170     1.0000 0.53429  0.31100  0.07212  Biso   1.000  C
  C171     1.0000 0.48846  0.76732  0.02789  Biso   1.000  C
  C172     1.0000 0.23268  0.52789  0.01154  Biso   1.000  C
  H200     1.0000 0.62149  0.35019  0.02622  Biso   1.000  H
  N29      1.0000 0.72090  0.46503  0.04551  Biso   1.000  N
  H201     1.0000 0.69488  0.40779  0.00382  Biso   1.000  H
  N30      1.0000 0.54551  0.27910  0.03497  Biso   1.000  N
  H202     1.0000 0.50382  0.30512  0.09221  Biso   1.000  H
  H203     1.0000 0.51782  0.76530  0.05350  Biso   1.000  H
  C173     1.0000 0.45759  0.81729  0.03811  Biso   1.000  C
  C174     1.0000 0.51154  0.76732  0.97211  Biso   1.000  C
  C175     1.0000 0.18271  0.53811  0.04241  Biso   1.000  C
  C176     1.0000 0.23268  0.47211  0.98846  Biso   1.000  C
  H204     1.0000 0.23470  0.55350  0.98222  Biso   1.000  H
  C177     1.0000 0.76732  0.47211  0.01154  Biso   1.000  C
  C178     1.0000 0.51154  0.23268  0.02789  Biso   1.000  C
  H205     1.0000 0.44630  0.81781  0.07499  Biso   1.000  H
  H206     1.0000 0.42601  0.81741  0.01611  Biso   1.000  H
  C179     1.0000 0.48962  0.86701  0.02681  Biso   1.000  C
  N31      1.0000 0.54551  0.72090  0.96503  Biso   1.000  N
  H207     1.0000 0.48222  0.76530  0.94650  Biso   1.000  H
  C180     1.0000 0.54241  0.81729  0.96189  Biso   1.000  C
  H208     1.0000 0.18219  0.57499  0.05370  Biso   1.000  H
  H209     1.0000 0.18259  0.51611  0.07399  Biso   1.000  H
  C181     1.0000 0.13299  0.52681  0.01038  Biso   1.000  C
  C182     1.0000 0.13299  0.52681  0.01042  Biso   1.000  C
  C183     1.0000 0.18271  0.46189  0.95759  Biso   1.000  C
  N32      1.0000 0.27910  0.46503  0.95453  Biso   1.000  N
  H210     1.0000 0.23470  0.44650  0.01778  Biso   1.000  H
  H211     1.0000 0.23470  0.44650  0.01782  Biso   1.000  H
  C184     1.0000 0.81729  0.46189  0.04241  Biso   1.000  C
  C185     1.0000 0.76732  0.52789  0.98846  Biso   1.000  C
  H212     1.0000 0.76530  0.44650  0.98222  Biso   1.000  H
  H213     1.0000 0.48222  0.23470  0.05350  Biso   1.000  H
  C186     1.0000 0.54241  0.18271  0.03811  Biso   1.000  C
  C187     1.0000 0.48846  0.23268  0.97211  Biso   1.000  C
  H214     1.0000 0.46722  0.89800  0.03178  Biso   1.000  H
  H215     1.0000 0.51890  0.86932  0.05179  Biso   1.000  H
  C188     1.0000 0.51038  0.86701  0.97319  Biso   1.000  C
  C189     1.0000 0.53429  0.68900  0.92792  Biso   1.000  C
  H216     1.0000 0.55370  0.81781  0.92501  Biso   1.000  H
  H217     1.0000 0.57399  0.81741  0.98389  Biso   1.000  H
  H218     1.0000 0.10200  0.53178  0.03282  Biso   1.000  H
  C190     1.0000 0.13299  0.47319  0.98962  Biso   1.000  C
  H219     1.0000 0.13072  0.55179  0.98110  Biso   1.000  H
  C191     1.0000 0.31100  0.42792  0.96571  Biso   1.000  C
  H220     1.0000 0.18219  0.42501  0.94630  Biso   1.000  H
  H221     1.0000 0.18259  0.48389  0.92601  Biso   1.000  H
  H222     1.0000 0.81781  0.42501  0.05370  Biso   1.000  H
  H223     1.0000 0.81741  0.48389  0.07399  Biso   1.000  H
  C192     1.0000 0.86701  0.47319  0.01038  Biso   1.000  C
  C193     1.0000 0.86701  0.47319  0.01042  Biso   1.000  C
  C194     1.0000 0.81729  0.53811  0.95759  Biso   1.000  C
  N33      1.0000 0.72090  0.53497  0.95453  Biso   1.000  N
  H224     1.0000 0.76530  0.55350  0.01778  Biso   1.000  H
  H225     1.0000 0.76530  0.55350  0.01782  Biso   1.000  H
  H226     1.0000 0.55370  0.18219  0.07499  Biso   1.000  H
  H227     1.0000 0.57399  0.18259  0.01611  Biso   1.000  H
  C195     1.0000 0.51038  0.13299  0.02681  Biso   1.000  C
  N34      1.0000 0.45453  0.27910  0.96503  Biso   1.000  N
  H228     1.0000 0.51782  0.23470  0.94650  Biso   1.000  H
  C196     1.0000 0.45759  0.18271  0.96189  Biso   1.000  C
  H229     1.0000 0.53282  0.89800  0.96822  Biso   1.000  H
  H230     1.0000 0.48110  0.86932  0.94821  Biso   1.000  H
  C197     1.0000 0.56791  0.64305  0.91531  Biso   1.000  C
  H231     1.0000 0.50382  0.69488  0.90779  Biso   1.000  H
  H232     1.0000 0.13072  0.44821  0.01890  Biso   1.000  H
  H233     1.0000 0.10200  0.46822  0.96718  Biso   1.000  H
  H234     1.0000 0.10200  0.46822  0.96722  Biso   1.000  H
  C198     1.0000 0.35695  0.41531  0.93209  Biso   1.000  C
  H235     1.0000 0.30512  0.40779  0.99618  Biso   1.000  H
  H236     1.0000 0.30512  0.40779  0.99622  Biso   1.000  H
  H237     1.0000 0.89800  0.46822  0.03282  Biso   1.000  H
  C199     1.0000 0.86701  0.52681  0.98962  Biso   1.000  C
  H238     1.0000 0.86932  0.44821  0.98110  Biso   1.000  H
  C200     1.0000 0.68900  0.57212  0.96571  Biso   1.000  C
  H239     1.0000 0.81781  0.57499  0.94630  Biso   1.000  H
  H240     1.0000 0.81741  0.51611  0.92601  Biso   1.000  H
  H241     1.0000 0.53282  0.10200  0.03178  Biso   1.000  H
  H242     1.0000 0.48110  0.13072  0.05179  Biso   1.000  H
  C201     1.0000 0.48962  0.13299  0.97319  Biso   1.000  C
  C202     1.0000 0.46571  0.31100  0.92792  Biso   1.000  C
  H243     1.0000 0.44630  0.18219  0.92501  Biso   1.000  H
  H244     1.0000 0.42601  0.18259  0.98389  Biso   1.000  H
  C203     1.0000 0.55529  0.61210  0.87099  Biso   1.000  C
  C204     1.0000 0.61210  0.62901  0.94471  Biso   1.000  C
  C205     1.0000 0.37099  0.44471  0.88790  Biso   1.000  C
  C206     1.0000 0.38790  0.37099  0.94471  Biso   1.000  C
  H245     1.0000 0.86932  0.55179  0.01890  Biso   1.000  H
  H246     1.0000 0.89800  0.53178  0.96718  Biso   1.000  H
  H247     1.0000 0.89800  0.53178  0.96722  Biso   1.000  H
  C207     1.0000 0.64305  0.58469  0.93209  Biso   1.000  C
  H248     1.0000 0.69488  0.59221  0.99618  Biso   1.000  H
  H249     1.0000 0.69488  0.59221  0.99622  Biso   1.000  H
  H250     1.0000 0.46722  0.10200  0.96822  Biso   1.000  H
  H251     1.0000 0.51890  0.13072  0.94821  Biso   1.000  H
  C208     1.0000 0.43209  0.35695  0.91531  Biso   1.000  C
  H252     1.0000 0.49622  0.30512  0.90779  Biso   1.000  H
  H253     1.0000 0.52622  0.62149  0.85019  Biso   1.000  H
  C209     1.0000 0.58469  0.56791  0.85695  Biso   1.000  C
  H254     1.0000 0.62149  0.64981  0.97378  Biso   1.000  H
  H255     1.0000 0.35019  0.47378  0.87851  Biso   1.000  H
  C210     1.0000 0.41531  0.43209  0.85695  Biso   1.000  C
  H256     1.0000 0.37851  0.35019  0.97378  Biso   1.000  H
  C211     1.0000 0.62901  0.55529  0.88790  Biso   1.000  C
  C212     1.0000 0.44471  0.38790  0.87099  Biso   1.000  C
  C213     1.0000 0.57212  0.53429  0.81100  Biso   1.000  C
  C214     1.0000 0.42792  0.46571  0.81100  Biso   1.000  C
  H257     1.0000 0.64981  0.52622  0.87851  Biso   1.000  H
  H258     1.0000 0.47378  0.37851  0.85019  Biso   1.000  H
  N35      1.0000 0.53497  0.54551  0.77910  Biso   1.000  N
  H259     1.0000 0.59221  0.50382  0.80512  Biso   1.000  H
  N36      1.0000 0.46503  0.45453  0.77910  Biso   1.000  N
  H260     1.0000 0.40779  0.49622  0.80512  Biso   1.000  H
  C215     1.0000 0.52789  0.51154  0.73268  Biso   1.000  C
  C216     1.0000 0.47211  0.48846  0.73268  Biso   1.000  C
  H261     1.0000 0.55350  0.48222  0.73470  Biso   1.000  H
  C217     1.0000 0.53811  0.54241  0.68271  Biso   1.000  C
  H262     1.0000 0.44650  0.51782  0.73470  Biso   1.000  H
  C218     1.0000 0.46189  0.45759  0.68271  Biso   1.000  C
  H263     1.0000 0.57499  0.55370  0.68219  Biso   1.000  H
  H264     1.0000 0.51611  0.57399  0.68259  Biso   1.000  H
  C219     1.0000 0.52681  0.51038  0.63299  Biso   1.000  C
  H265     1.0000 0.42501  0.44630  0.68219  Biso   1.000  H
  H266     1.0000 0.48389  0.42601  0.68259  Biso   1.000  H
  C220     1.0000 0.47319  0.48962  0.63299  Biso   1.000  C
  H267     1.0000 0.53178  0.53282  0.60200  Biso   1.000  H
  H268     1.0000 0.55179  0.48110  0.63068  Biso   1.000  H
  H269     1.0000 0.55179  0.48110  0.63072  Biso   1.000  H
  H270     1.0000 0.46822  0.46722  0.60200  Biso   1.000  H
  H271     1.0000 0.44821  0.51890  0.63068  Biso   1.000  H
  H272     1.0000 0.44821  0.51890  0.63072  Biso   1.000  H
  C221     1.0000 0.36701  0.47319  0.51038  Biso   1.000  C
  C222     1.0000 0.31729  0.46189  0.54241  Biso   1.000  C
  C223     1.0000 0.36701  0.52681  0.48962  Biso   1.000  C
  H273     1.0000 0.39800  0.46822  0.53282  Biso   1.000  H
  H274     1.0000 0.36932  0.44821  0.48110  Biso   1.000  H
  C224     1.0000 0.26732  0.47211  0.51154  Biso   1.000  C
  H275     1.0000 0.31781  0.42501  0.55370  Biso   1.000  H
  H276     1.0000 0.31741  0.48389  0.57399  Biso   1.000  H
  C225     1.0000 0.31729  0.53811  0.45759  Biso   1.000  C
  H277     1.0000 0.39800  0.53178  0.46722  Biso   1.000  H
  H278     1.0000 0.36932  0.55179  0.51890  Biso   1.000  H
  N37      1.0000 0.22090  0.46503  0.54551  Biso   1.000  N
  C226     1.0000 0.26732  0.52789  0.48846  Biso   1.000  C
  H279     1.0000 0.26530  0.44650  0.48222  Biso   1.000  H
  H280     1.0000 0.31781  0.57499  0.44630  Biso   1.000  H
  H281     1.0000 0.31741  0.51611  0.42601  Biso   1.000  H
  C227     1.0000 0.18900  0.42792  0.53429  Biso   1.000  C
  N38      1.0000 0.22090  0.53497  0.45453  Biso   1.000  N
  H282     1.0000 0.26530  0.55350  0.51782  Biso   1.000  H
  C228     1.0000 0.14305  0.41531  0.56791  Biso   1.000  C
  H283     1.0000 0.19488  0.40779  0.50382  Biso   1.000  H
  H284     1.0000 0.19492  0.40779  0.50382  Biso   1.000  H
  C229     1.0000 0.18900  0.57212  0.46571  Biso   1.000  C
  C230     1.0000 0.12901  0.44471  0.61210  Biso   1.000  C
  C231     1.0000 0.11210  0.37099  0.55529  Biso   1.000  C
  C232     1.0000 0.14305  0.58469  0.43209  Biso   1.000  C
  H285     1.0000 0.19488  0.59221  0.49622  Biso   1.000  H
  H286     1.0000 0.19492  0.59221  0.49622  Biso   1.000  H
  H287     1.0000 0.14981  0.47378  0.62149  Biso   1.000  H
  C233     1.0000 0.08469  0.43209  0.64305  Biso   1.000  C
  H288     1.0000 0.12149  0.35019  0.52622  Biso   1.000  H
  C234     1.0000 0.06791  0.35695  0.58469  Biso   1.000  C
  C235     1.0000 0.12901  0.55529  0.38790  Biso   1.000  C
  C236     1.0000 0.11210  0.62901  0.44471  Biso   1.000  C
  C237     1.0000 0.05529  0.38790  0.62901  Biso   1.000  C
  C238     1.0000 0.07212  0.46571  0.68900  Biso   1.000  C
  C239     1.0000 0.03429  0.31100  0.57212  Biso   1.000  C
  H289     1.0000 0.14981  0.52622  0.37851  Biso   1.000  H
  C240     1.0000 0.08469  0.56791  0.35695  Biso   1.000  C
  H290     1.0000 0.12149  0.64981  0.47378  Biso   1.000  H
  C241     1.0000 0.06791  0.64305  0.41531  Biso   1.000  C
  H291     1.0000 0.02622  0.37851  0.64981  Biso   1.000  H
  N39      1.0000 0.03497  0.45453  0.72090  Biso   1.000  N
  H292     1.0000 0.09221  0.49622  0.69488  Biso   1.000  H
  N40      1.0000 0.04551  0.27910  0.53497  Biso   1.000  N
  H293     1.0000 0.00382  0.30512  0.59221  Biso   1.000  H
  C242     1.0000 0.05529  0.61210  0.37099  Biso   1.000  C
  C243     1.0000 0.07212  0.53429  0.31100  Biso   1.000  C
  C244     1.0000 0.03429  0.68900  0.42792  Biso   1.000  C
  C245     1.0000 0.02789  0.48846  0.76732  Biso   1.000  C
  C246     1.0000 0.01154  0.23268  0.52789  Biso   1.000  C
  H294     1.0000 0.02622  0.62149  0.35019  Biso   1.000  H
  N41      1.0000 0.03497  0.54551  0.27910  Biso   1.000  N
  H295     1.0000 0.09221  0.50382  0.30512  Biso   1.000  H
  N42      1.0000 0.04551  0.72090  0.46503  Biso   1.000  N
  H296     1.0000 0.00382  0.69488  0.40779  Biso   1.000  H
  H297     1.0000 0.05350  0.51782  0.76530  Biso   1.000  H
  C247     1.0000 0.03811  0.45759  0.81729  Biso   1.000  C
  C248     1.0000 0.97211  0.51154  0.76732  Biso   1.000  C
  C249     1.0000 0.04241  0.18271  0.53811  Biso   1.000  C
  C250     1.0000 0.98846  0.23268  0.47211  Biso   1.000  C
  H298     1.0000 0.98222  0.23470  0.55350  Biso   1.000  H
  C251     1.0000 0.02789  0.51154  0.23268  Biso   1.000  C
  C252     1.0000 0.01154  0.76732  0.47211  Biso   1.000  C
  H299     1.0000 0.07499  0.44630  0.81781  Biso   1.000  H
  H300     1.0000 0.01611  0.42601  0.81741  Biso   1.000  H
  C253     1.0000 0.02681  0.48962  0.86701  Biso   1.000  C
  N43      1.0000 0.96503  0.54551  0.72090  Biso   1.000  N
  H301     1.0000 0.94650  0.48222  0.76530  Biso   1.000  H
  C254     1.0000 0.96189  0.54241  0.81729  Biso   1.000  C
  H302     1.0000 0.05370  0.18219  0.57499  Biso   1.000  H
  H303     1.0000 0.07399  0.18259  0.51611  Biso   1.000  H
  C255     1.0000 0.01038  0.13299  0.52681  Biso   1.000  C
  C256     1.0000 0.01042  0.13299  0.52681  Biso   1.000  C
  C257     1.0000 0.95759  0.18271  0.46189  Biso   1.000  C
  N44      1.0000 0.95453  0.27910  0.46503  Biso   1.000  N
  H304     1.0000 0.01778  0.23470  0.44650  Biso   1.000  H
  H305     1.0000 0.01782  0.23470  0.44650  Biso   1.000  H
  H306     1.0000 0.05350  0.48222  0.23470  Biso   1.000  H
  C258     1.0000 0.03811  0.54241  0.18271  Biso   1.000  C
  C259     1.0000 0.97211  0.48846  0.23268  Biso   1.000  C
  C260     1.0000 0.04241  0.81729  0.46189  Biso   1.000  C
  C261     1.0000 0.98846  0.76732  0.52789  Biso   1.000  C
  H307     1.0000 0.98222  0.76530  0.44650  Biso   1.000  H
  H308     1.0000 0.03178  0.46722  0.89800  Biso   1.000  H
  H309     1.0000 0.05179  0.51890  0.86932  Biso   1.000  H
  C262     1.0000 0.97319  0.51038  0.86701  Biso   1.000  C
  C263     1.0000 0.92792  0.53429  0.68900  Biso   1.000  C
  H310     1.0000 0.92501  0.55370  0.81781  Biso   1.000  H
  H311     1.0000 0.98389  0.57399  0.81741  Biso   1.000  H
  H312     1.0000 0.03282  0.10200  0.53178  Biso   1.000  H
  C264     1.0000 0.98962  0.13299  0.47319  Biso   1.000  C
  H313     1.0000 0.98110  0.13072  0.55179  Biso   1.000  H
  C265     1.0000 0.96571  0.31100  0.42792  Biso   1.000  C
  H314     1.0000 0.94630  0.18219  0.42501  Biso   1.000  H
  H315     1.0000 0.92601  0.18259  0.48389  Biso   1.000  H
  H316     1.0000 0.07499  0.55370  0.18219  Biso   1.000  H
  H317     1.0000 0.01611  0.57399  0.18259  Biso   1.000  H
  C266     1.0000 0.02681  0.51038  0.13299  Biso   1.000  C
  N45      1.0000 0.96503  0.45453  0.27910  Biso   1.000  N
  H318     1.0000 0.94650  0.51782  0.23470  Biso   1.000  H
  C267     1.0000 0.96189  0.45759  0.18271  Biso   1.000  C
  H319     1.0000 0.05370  0.81781  0.42501  Biso   1.000  H
  H320     1.0000 0.07399  0.81741  0.48389  Biso   1.000  H
  C268     1.0000 0.01038  0.86701  0.47319  Biso   1.000  C
  C269     1.0000 0.01042  0.86701  0.47319  Biso   1.000  C
  C270     1.0000 0.95759  0.81729  0.53811  Biso   1.000  C
  N46      1.0000 0.95453  0.72090  0.53497  Biso   1.000  N
  H321     1.0000 0.01778  0.76530  0.55350  Biso   1.000  H
  H322     1.0000 0.01782  0.76530  0.55350  Biso   1.000  H
  H323     1.0000 0.96822  0.53282  0.89800  Biso   1.000  H
  H324     1.0000 0.94821  0.48110  0.86932  Biso   1.000  H
  C271     1.0000 0.91531  0.56791  0.64305  Biso   1.000  C
  H325     1.0000 0.90779  0.50382  0.69488  Biso   1.000  H
  H326     1.0000 0.01890  0.13072  0.44821  Biso   1.000  H
  H327     1.0000 0.96718  0.10200  0.46822  Biso   1.000  H
  H328     1.0000 0.96722  0.10200  0.46822  Biso   1.000  H
  C272     1.0000 0.93209  0.35695  0.41531  Biso   1.000  C
  H329     1.0000 0.99618  0.30512  0.40779  Biso   1.000  H
  H330     1.0000 0.99622  0.30512  0.40779  Biso   1.000  H
  H331     1.0000 0.03178  0.53282  0.10200  Biso   1.000  H
  H332     1.0000 0.05179  0.48110  0.13072  Biso   1.000  H
  C273     1.0000 0.97319  0.48962  0.13299  Biso   1.000  C
  C274     1.0000 0.92792  0.46571  0.31100  Biso   1.000  C
  H333     1.0000 0.92501  0.44630  0.18219  Biso   1.000  H
  H334     1.0000 0.98389  0.42601  0.18259  Biso   1.000  H
  H335     1.0000 0.03282  0.89800  0.46822  Biso   1.000  H
  C275     1.0000 0.98962  0.86701  0.52681  Biso   1.000  C
  H336     1.0000 0.98110  0.86932  0.44821  Biso   1.000  H
  C276     1.0000 0.96571  0.68900  0.57212  Biso   1.000  C
  H337     1.0000 0.94630  0.81781  0.57499  Biso   1.000  H
  H338     1.0000 0.92601  0.81741  0.51611  Biso   1.000  H
  C277     1.0000 0.94471  0.61210  0.62901  Biso   1.000  C
  C278     1.0000 0.87099  0.55529  0.61210  Biso   1.000  C
  C279     1.0000 0.88790  0.37099  0.44471  Biso   1.000  C
  C280     1.0000 0.94471  0.38790  0.37099  Biso   1.000  C
  H339     1.0000 0.96822  0.46722  0.10200  Biso   1.000  H
  H340     1.0000 0.94821  0.51890  0.13072  Biso   1.000  H
  C281     1.0000 0.91531  0.43209  0.35695  Biso   1.000  C
  H341     1.0000 0.90779  0.49622  0.30512  Biso   1.000  H
  H342     1.0000 0.01890  0.86932  0.55179  Biso   1.000  H
  H343     1.0000 0.96718  0.89800  0.53178  Biso   1.000  H
  H344     1.0000 0.96722  0.89800  0.53178  Biso   1.000  H
  C282     1.0000 0.93209  0.64305  0.58469  Biso   1.000  C
  H345     1.0000 0.99618  0.69488  0.59221  Biso   1.000  H
  H346     1.0000 0.99622  0.69488  0.59221  Biso   1.000  H
  H347     1.0000 0.97378  0.62149  0.64981  Biso   1.000  H
  H348     1.0000 0.85019  0.52622  0.62149  Biso   1.000  H
  C283     1.0000 0.85695  0.58469  0.56791  Biso   1.000  C
  H349     1.0000 0.87851  0.35019  0.47378  Biso   1.000  H
  C284     1.0000 0.85695  0.41531  0.43209  Biso   1.000  C
  H350     1.0000 0.97378  0.37851  0.35019  Biso   1.000  H
  C285     1.0000 0.87099  0.44471  0.38790  Biso   1.000  C
  C286     1.0000 0.88790  0.62901  0.55529  Biso   1.000  C
  C287     1.0000 0.81100  0.57212  0.53429  Biso   1.000  C
  C288     1.0000 0.81100  0.42792  0.46571  Biso   1.000  C
  H351     1.0000 0.85019  0.47378  0.37851  Biso   1.000  H
  H352     1.0000 0.87851  0.64981  0.52622  Biso   1.000  H
  N47      1.0000 0.77910  0.53497  0.54551  Biso   1.000  N
  H353     1.0000 0.80512  0.59221  0.50382  Biso   1.000  H
  N48      1.0000 0.77910  0.46503  0.45453  Biso   1.000  N
  H354     1.0000 0.80512  0.40779  0.49622  Biso   1.000  H
  C289     1.0000 0.73268  0.52789  0.51154  Biso   1.000  C
  C290     1.0000 0.73268  0.47211  0.48846  Biso   1.000  C
  H355     1.0000 0.73470  0.55350  0.48222  Biso   1.000  H
  C291     1.0000 0.68271  0.53811  0.54241  Biso   1.000  C
  H356     1.0000 0.73470  0.44650  0.51782  Biso   1.000  H
  C292     1.0000 0.68271  0.46189  0.45759  Biso   1.000  C
  H357     1.0000 0.68219  0.57499  0.55370  Biso   1.000  H
  H358     1.0000 0.68259  0.51611  0.57399  Biso   1.000  H
  C293     1.0000 0.63299  0.52681  0.51038  Biso   1.000  C
  H359     1.0000 0.68219  0.42501  0.44630  Biso   1.000  H
  H360     1.0000 0.68259  0.48389  0.42601  Biso   1.000  H
  C294     1.0000 0.63299  0.47319  0.48962  Biso   1.000  C
  H361     1.0000 0.60200  0.53178  0.53282  Biso   1.000  H
  H362     1.0000 0.63068  0.55179  0.48110  Biso   1.000  H
  H363     1.0000 0.63072  0.55179  0.48110  Biso   1.000  H
  H364     1.0000 0.60200  0.46822  0.46722  Biso   1.000  H
  H365     1.0000 0.63068  0.44821  0.51890  Biso   1.000  H
  H366     1.0000 0.63072  0.44821  0.51890  Biso   1.000  H
  C295     1.0000 0.70761  0.28809  0.43269  Biso   1.000  C
  C296     1.0000 0.73844  0.27791  0.48270  Biso   1.000  C
  H367     1.0000 0.69632  0.32501  0.43221  Biso   1.000  H
  H368     1.0000 0.67599  0.26609  0.43261  Biso   1.000  H
  C297     1.0000 0.73960  0.27679  0.38301  Biso   1.000  C
  N49      1.0000 0.70451  0.28499  0.52912  Biso   1.000  N
  C298     1.0000 0.76156  0.22209  0.48270  Biso   1.000  C
  H369     1.0000 0.76780  0.30348  0.48468  Biso   1.000  H
  C299     1.0000 0.76040  0.22321  0.38301  Biso   1.000  C
  H370     1.0000 0.71720  0.28180  0.35202  Biso   1.000  H
  H371     1.0000 0.76892  0.30181  0.38070  Biso   1.000  H
  C300     1.0000 0.71569  0.32210  0.56098  Biso   1.000  C
  N50      1.0000 0.79549  0.21501  0.52912  Biso   1.000  N
  H372     1.0000 0.73220  0.19652  0.48468  Biso   1.000  H
  C301     1.0000 0.79239  0.21191  0.43269  Biso   1.000  C
  H373     1.0000 0.78280  0.21820  0.35202  Biso   1.000  H
  H374     1.0000 0.73108  0.19819  0.38070  Biso   1.000  H
  C302     1.0000 0.68211  0.33471  0.60697  Biso   1.000  C
  H375     1.0000 0.74620  0.34219  0.55510  Biso   1.000  H
  C303     1.0000 0.78431  0.17790  0.56098  Biso   1.000  C
  H376     1.0000 0.80368  0.17499  0.43221  Biso   1.000  H
  H377     1.0000 0.82401  0.23391  0.43261  Biso   1.000  H
  C304     1.0000 0.63792  0.30531  0.62101  Biso   1.000  C
  C305     1.0000 0.69469  0.37899  0.63792  Biso   1.000  C
  C306     1.0000 0.81789  0.16529  0.60697  Biso   1.000  C
  H378     1.0000 0.75380  0.15781  0.55510  Biso   1.000  H
  H379     1.0000 0.62849  0.27620  0.60021  Biso   1.000  H
  C307     1.0000 0.60697  0.31789  0.66529  Biso   1.000  C
  H380     1.0000 0.72380  0.39979  0.62849  Biso   1.000  H
  C308     1.0000 0.66529  0.39303  0.68211  Biso   1.000  C
  C309     1.0000 0.86212  0.19469  0.62101  Biso   1.000  C
  C310     1.0000 0.80531  0.12101  0.63792  Biso   1.000  C
  C311     1.0000 0.62101  0.36212  0.69469  Biso   1.000  C
  C312     1.0000 0.56098  0.28431  0.67790  Biso   1.000  C
  C313     1.0000 0.67790  0.43902  0.71569  Biso   1.000  C
  H381     1.0000 0.87151  0.22380  0.60021  Biso   1.000  H
  C314     1.0000 0.89303  0.18211  0.66529  Biso   1.000  C
  H382     1.0000 0.77620  0.10021  0.62849  Biso   1.000  H
  C315     1.0000 0.83471  0.10697  0.68211  Biso   1.000  C
  H383     1.0000 0.60021  0.37151  0.72380  Biso   1.000  H
  N51      1.0000 0.52912  0.29549  0.71501  Biso   1.000  N
  H384     1.0000 0.55510  0.25380  0.65781  Biso   1.000  H
  N52      1.0000 0.71501  0.47088  0.70451  Biso   1.000  N
  H385     1.0000 0.65781  0.44490  0.74620  Biso   1.000  H
  C316     1.0000 0.87899  0.13792  0.69469  Biso   1.000  C
  C317     1.0000 0.93902  0.21569  0.67790  Biso   1.000  C
  C318     1.0000 0.82210  0.06098  0.71569  Biso   1.000  C
  C319     1.0000 0.48270  0.26156  0.72209  Biso   1.000  C
  C320     1.0000 0.72209  0.51730  0.73844  Biso   1.000  C
  H386     1.0000 0.89979  0.12849  0.72380  Biso   1.000  H
  N53      1.0000 0.97088  0.20451  0.71501  Biso   1.000  N
  H387     1.0000 0.94490  0.24620  0.65781  Biso   1.000  H
  N54      1.0000 0.78499  0.02912  0.70451  Biso   1.000  N
  H388     1.0000 0.84219  0.05510  0.74620  Biso   1.000  H
  C321     1.0000 0.48270  0.23844  0.77791  Biso   1.000  C
  H389     1.0000 0.48468  0.23220  0.69652  Biso   1.000  H
  C322     1.0000 0.43269  0.29239  0.71191  Biso   1.000  C
  C323     1.0000 0.77791  0.51730  0.76156  Biso   1.000  C
  H390     1.0000 0.69652  0.51532  0.76780  Biso   1.000  H
  C324     1.0000 0.71191  0.56731  0.70761  Biso   1.000  C
  C325     1.0000 0.01730  0.23844  0.72209  Biso   1.000  C
  C326     1.0000 0.77791  0.98270  0.73844  Biso   1.000  C
  N55      1.0000 0.52912  0.20451  0.78499  Biso   1.000  N
  H391     1.0000 0.48468  0.26780  0.80348  Biso   1.000  H
  C327     1.0000 0.43269  0.20761  0.78809  Biso   1.000  C
  H392     1.0000 0.43221  0.30368  0.67499  Biso   1.000  H
  H393     1.0000 0.43261  0.32401  0.73391  Biso   1.000  H
  C328     1.0000 0.38301  0.26040  0.72321  Biso   1.000  C
  N56      1.0000 0.78499  0.47088  0.79549  Biso   1.000  N
  H394     1.0000 0.80348  0.51532  0.73220  Biso   1.000  H
  C329     1.0000 0.78809  0.56731  0.79239  Biso   1.000  C
  H395     1.0000 0.67499  0.56779  0.69632  Biso   1.000  H
  H396     1.0000 0.73391  0.56739  0.67599  Biso   1.000  H
  C330     1.0000 0.72321  0.61699  0.73960  Biso   1.000  C
  C331     1.0000 0.01730  0.26156  0.77791  Biso   1.000  C
  H397     1.0000 0.01532  0.26780  0.69652  Biso   1.000  H
  C332     1.0000 0.06731  0.20761  0.71191  Biso   1.000  C
  C333     1.0000 0.72209  0.98270  0.76156  Biso   1.000  C
  H398     1.0000 0.80348  0.98468  0.76780  Biso   1.000  H
  C334     1.0000 0.78809  0.93269  0.70761  Biso   1.000  C
  C335     1.0000 0.56098  0.21569  0.82210  Biso   1.000  C
  H399     1.0000 0.43221  0.19632  0.82501  Biso   1.000  H
  H400     1.0000 0.43261  0.17599  0.76609  Biso   1.000  H
  C336     1.0000 0.38301  0.23960  0.77679  Biso   1.000  C
  H401     1.0000 0.35202  0.28280  0.71820  Biso   1.000  H
  H402     1.0000 0.38070  0.23108  0.69819  Biso   1.000  H
  C337     1.0000 0.82210  0.43902  0.78431  Biso   1.000  C
  H403     1.0000 0.82501  0.56779  0.80368  Biso   1.000  H
  H404     1.0000 0.76609  0.56739  0.82401  Biso   1.000  H
  C338     1.0000 0.77679  0.61699  0.76040  Biso   1.000  C
  H405     1.0000 0.71820  0.64798  0.71720  Biso   1.000  H
  H406     1.0000 0.69819  0.61930  0.76892  Biso   1.000  H
  N57      1.0000 0.97088  0.29549  0.78499  Biso   1.000  N
  H407     1.0000 0.01532  0.23220  0.80348  Biso   1.000  H
  C339     1.0000 0.06731  0.29239  0.78809  Biso   1.000  C
  H408     1.0000 0.06779  0.19632  0.67499  Biso   1.000  H
  H409     1.0000 0.06739  0.17599  0.73391  Biso   1.000  H
  C340     1.0000 0.11699  0.23960  0.72321  Biso   1.000  C
  N58      1.0000 0.71501  0.02912  0.79549  Biso   1.000  N
  H410     1.0000 0.69652  0.98468  0.73220  Biso   1.000  H
  C341     1.0000 0.71191  0.93269  0.79239  Biso   1.000  C
  H411     1.0000 0.82501  0.93221  0.69632  Biso   1.000  H
  H412     1.0000 0.76609  0.93261  0.67599  Biso   1.000  H
  C342     1.0000 0.77679  0.88301  0.73960  Biso   1.000  C
  C343     1.0000 0.60697  0.18211  0.83471  Biso   1.000  C
  H413     1.0000 0.55510  0.24620  0.84219  Biso   1.000  H
  H414     1.0000 0.35202  0.21720  0.78180  Biso   1.000  H
  H415     1.0000 0.38070  0.26892  0.80181  Biso   1.000  H
  C344     1.0000 0.83471  0.39303  0.81789  Biso   1.000  C
  H416     1.0000 0.84219  0.44490  0.75380  Biso   1.000  H
  H417     1.0000 0.78180  0.64798  0.78280  Biso   1.000  H
  H418     1.0000 0.80181  0.61930  0.73108  Biso   1.000  H
  C345     1.0000 0.93902  0.28431  0.82210  Biso   1.000  C
  H419     1.0000 0.06779  0.30368  0.82501  Biso   1.000  H
  H420     1.0000 0.06739  0.32401  0.76609  Biso   1.000  H
  C346     1.0000 0.11699  0.26040  0.77679  Biso   1.000  C
  H421     1.0000 0.14802  0.21720  0.71820  Biso   1.000  H
  H422     1.0000 0.11930  0.26892  0.69819  Biso   1.000  H
  C347     1.0000 0.67790  0.06098  0.78431  Biso   1.000  C
  H423     1.0000 0.67499  0.93221  0.80368  Biso   1.000  H
  H424     1.0000 0.73391  0.93261  0.82401  Biso   1.000  H
  C348     1.0000 0.72321  0.88301  0.76040  Biso   1.000  C
  H425     1.0000 0.78180  0.85202  0.71720  Biso   1.000  H
  H426     1.0000 0.80181  0.88070  0.76892  Biso   1.000  H
  C349     1.0000 0.62101  0.13792  0.80531  Biso   1.000  C
  C350     1.0000 0.63792  0.19469  0.87899  Biso   1.000  C
  C351     1.0000 0.87899  0.36212  0.80531  Biso   1.000  C
  C352     1.0000 0.80531  0.37899  0.86212  Biso   1.000  C
  C353     1.0000 0.89303  0.31789  0.83471  Biso   1.000  C
  H427     1.0000 0.94490  0.25380  0.84219  Biso   1.000  H
  H428     1.0000 0.14802  0.28280  0.78180  Biso   1.000  H
  H429     1.0000 0.11930  0.23108  0.80181  Biso   1.000  H
  C354     1.0000 0.66529  0.10697  0.81789  Biso   1.000  C
  H430     1.0000 0.65781  0.05510  0.75380  Biso   1.000  H
  H431     1.0000 0.71820  0.85202  0.78280  Biso   1.000  H
  H432     1.0000 0.69819  0.88070  0.73108  Biso   1.000  H
  H433     1.0000 0.60021  0.12849  0.77620  Biso   1.000  H
  C355     1.0000 0.68211  0.16529  0.89303  Biso   1.000  C
  H434     1.0000 0.62849  0.22380  0.89979  Biso   1.000  H
  H435     1.0000 0.89979  0.37151  0.77620  Biso   1.000  H
  H436     1.0000 0.77620  0.39979  0.87151  Biso   1.000  H
  C356     1.0000 0.81789  0.33471  0.89303  Biso   1.000  C
  C357     1.0000 0.86212  0.30531  0.87899  Biso   1.000  C
  C358     1.0000 0.69469  0.12101  0.86212  Biso   1.000  C
  C359     1.0000 0.71569  0.17790  0.93902  Biso   1.000  C
  C360     1.0000 0.78431  0.32210  0.93902  Biso   1.000  C
  H437     1.0000 0.87151  0.27620  0.89979  Biso   1.000  H
  H438     1.0000 0.72380  0.10021  0.87151  Biso   1.000  H
  N59      1.0000 0.70451  0.21501  0.97088  Biso   1.000  N
  H439     1.0000 0.74620  0.15781  0.94490  Biso   1.000  H
  N60      1.0000 0.79549  0.28499  0.97088  Biso   1.000  N
  H440     1.0000 0.75380  0.34219  0.94490  Biso   1.000  H
  C361     1.0000 0.73844  0.22209  0.01730  Biso   1.000  C
  C362     1.0000 0.76156  0.27791  0.01730  Biso   1.000  C
  H441     1.0000 0.76780  0.19652  0.01532  Biso   1.000  H
  C363     1.0000 0.70761  0.21191  0.06731  Biso   1.000  C
  H442     1.0000 0.73220  0.30348  0.01532  Biso   1.000  H
  C364     1.0000 0.79239  0.28809  0.06731  Biso   1.000  C
  H443     1.0000 0.69632  0.17499  0.06779  Biso   1.000  H
  H444     1.0000 0.67599  0.23391  0.06739  Biso   1.000  H
  C365     1.0000 0.73960  0.22321  0.11699  Biso   1.000  C
  H445     1.0000 0.80368  0.32501  0.06779  Biso   1.000  H
  H446     1.0000 0.82401  0.26609  0.06739  Biso   1.000  H
  C366     1.0000 0.76040  0.27679  0.11699  Biso   1.000  C
  H447     1.0000 0.71720  0.21820  0.14802  Biso   1.000  H
  H448     1.0000 0.76892  0.19819  0.11930  Biso   1.000  H
  H449     1.0000 0.78280  0.28180  0.14802  Biso   1.000  H
  H450     1.0000 0.73108  0.30181  0.11930  Biso   1.000  H
  C367     1.0000 0.43269  0.70761  0.28809  Biso   1.000  C
  C368     1.0000 0.48270  0.73844  0.27791  Biso   1.000  C
  H451     1.0000 0.43221  0.69632  0.32501  Biso   1.000  H
  H452     1.0000 0.43261  0.67599  0.26609  Biso   1.000  H
  C369     1.0000 0.38301  0.73960  0.27679  Biso   1.000  C
  N61      1.0000 0.52912  0.70451  0.28499  Biso   1.000  N
  C370     1.0000 0.48270  0.76156  0.22209  Biso   1.000  C
  H453     1.0000 0.48468  0.76780  0.30348  Biso   1.000  H
  C371     1.0000 0.38301  0.76040  0.22321  Biso   1.000  C
  H454     1.0000 0.35202  0.71720  0.28180  Biso   1.000  H
  H455     1.0000 0.38070  0.76892  0.30181  Biso   1.000  H
  C372     1.0000 0.56098  0.71569  0.32210  Biso   1.000  C
  N62      1.0000 0.52912  0.79549  0.21501  Biso   1.000  N
  H456     1.0000 0.48468  0.73220  0.19652  Biso   1.000  H
  C373     1.0000 0.43269  0.79239  0.21191  Biso   1.000  C
  H457     1.0000 0.35202  0.78280  0.21820  Biso   1.000  H
  H458     1.0000 0.38070  0.73108  0.19819  Biso   1.000  H
  C374     1.0000 0.60697  0.68211  0.33471  Biso   1.000  C
  H459     1.0000 0.55510  0.74620  0.34219  Biso   1.000  H
  C375     1.0000 0.56098  0.78431  0.17790  Biso   1.000  C
  H460     1.0000 0.43221  0.80368  0.17499  Biso   1.000  H
  H461     1.0000 0.43261  0.82401  0.23391  Biso   1.000  H
  C376     1.0000 0.62101  0.63792  0.30531  Biso   1.000  C
  C377     1.0000 0.63792  0.69469  0.37899  Biso   1.000  C
  C378     1.0000 0.60697  0.81789  0.16529  Biso   1.000  C
  H462     1.0000 0.55510  0.75380  0.15781  Biso   1.000  H
  C379     1.0000 0.66529  0.60697  0.31789  Biso   1.000  C
  H463     1.0000 0.60021  0.62849  0.27620  Biso   1.000  H
  C380     1.0000 0.68211  0.66529  0.39303  Biso   1.000  C
  H464     1.0000 0.62849  0.72380  0.39979  Biso   1.000  H
  C381     1.0000 0.62101  0.86212  0.19469  Biso   1.000  C
  C382     1.0000 0.63792  0.80531  0.12101  Biso   1.000  C
  C383     1.0000 0.67790  0.56098  0.28431  Biso   1.000  C
  C384     1.0000 0.69469  0.62101  0.36212  Biso   1.000  C
  C385     1.0000 0.71569  0.67790  0.43902  Biso   1.000  C
  H465     1.0000 0.60021  0.87151  0.22380  Biso   1.000  H
  C386     1.0000 0.66529  0.89303  0.18211  Biso   1.000  C
  C387     1.0000 0.68211  0.83471  0.10697  Biso   1.000  C
  H466     1.0000 0.62849  0.77620  0.10021  Biso   1.000  H
  N63      1.0000 0.71501  0.52912  0.29549  Biso   1.000  N
  H467     1.0000 0.65781  0.55510  0.25380  Biso   1.000  H
  H468     1.0000 0.72380  0.60021  0.37151  Biso   1.000  H
  N64      1.0000 0.70451  0.71501  0.47088  Biso   1.000  N
  H469     1.0000 0.74620  0.65781  0.44490  Biso   1.000  H
  C388     1.0000 0.69469  0.87899  0.13792  Biso   1.000  C
  C389     1.0000 0.67790  0.93902  0.21569  Biso   1.000  C
  C390     1.0000 0.71569  0.82210  0.06098  Biso   1.000  C
  C391     1.0000 0.72209  0.48270  0.26156  Biso   1.000  C
  C392     1.0000 0.73844  0.72209  0.51730  Biso   1.000  C
  H470     1.0000 0.72380  0.89979  0.12849  Biso   1.000  H
  N65      1.0000 0.71501  0.97088  0.20451  Biso   1.000  N
  H471     1.0000 0.65781  0.94490  0.24620  Biso   1.000  H
  N66      1.0000 0.70451  0.78499  0.02912  Biso   1.000  N
  H472     1.0000 0.74620  0.84219  0.05510  Biso   1.000  H
  C393     1.0000 0.71191  0.43269  0.29239  Biso   1.000  C
  C394     1.0000 0.77791  0.48270  0.23844  Biso   1.000  C
  H473     1.0000 0.69652  0.48468  0.23220  Biso   1.000  H
  C395     1.0000 0.76156  0.77791  0.51730  Biso   1.000  C
  H474     1.0000 0.76780  0.69652  0.51532  Biso   1.000  H
  C396     1.0000 0.70761  0.71191  0.56731  Biso   1.000  C
  C397     1.0000 0.72209  0.01730  0.23844  Biso   1.000  C
  C398     1.0000 0.73844  0.77791  0.98270  Biso   1.000  C
  C399     1.0000 0.72321  0.38301  0.26040  Biso   1.000  C
  H475     1.0000 0.67499  0.43221  0.30368  Biso   1.000  H
  H476     1.0000 0.73391  0.43261  0.32401  Biso   1.000  H
  C400     1.0000 0.78809  0.43269  0.20761  Biso   1.000  C
  N67      1.0000 0.78499  0.52912  0.20451  Biso   1.000  N
  H477     1.0000 0.80348  0.48468  0.26780  Biso   1.000  H
  N68      1.0000 0.79549  0.78499  0.47088  Biso   1.000  N
  H478     1.0000 0.73220  0.80348  0.51532  Biso   1.000  H
  C401     1.0000 0.79239  0.78809  0.56731  Biso   1.000  C
  H479     1.0000 0.69632  0.67499  0.56779  Biso   1.000  H
  H480     1.0000 0.67599  0.73391  0.56739  Biso   1.000  H
  C402     1.0000 0.73960  0.72321  0.61699  Biso   1.000  C
  C403     1.0000 0.77791  0.01730  0.26156  Biso   1.000  C
  H481     1.0000 0.69652  0.01532  0.26780  Biso   1.000  H
  C404     1.0000 0.71191  0.06731  0.20761  Biso   1.000  C
  C405     1.0000 0.76156  0.72209  0.98270  Biso   1.000  C
  H482     1.0000 0.76780  0.80348  0.98468  Biso   1.000  H
  C406     1.0000 0.70761  0.78809  0.93269  Biso   1.000  C
  C407     1.0000 0.77679  0.38301  0.23960  Biso   1.000  C
  H483     1.0000 0.71820  0.35202  0.28280  Biso   1.000  H
  H484     1.0000 0.69819  0.38070  0.23108  Biso   1.000  H
  H485     1.0000 0.82501  0.43221  0.19632  Biso   1.000  H
  H486     1.0000 0.76609  0.43261  0.17599  Biso   1.000  H
  C408     1.0000 0.82210  0.56098  0.21569  Biso   1.000  C
  C409     1.0000 0.78431  0.82210  0.43902  Biso   1.000  C
  H487     1.0000 0.80368  0.82501  0.56779  Biso   1.000  H
  H488     1.0000 0.82401  0.76609  0.56739  Biso   1.000  H
  C410     1.0000 0.76040  0.77679  0.61699  Biso   1.000  C
  H489     1.0000 0.71720  0.71820  0.64798  Biso   1.000  H
  H490     1.0000 0.76892  0.69819  0.61930  Biso   1.000  H
  N69      1.0000 0.78499  0.97088  0.29549  Biso   1.000  N
  H491     1.0000 0.80348  0.01532  0.23220  Biso   1.000  H
  C411     1.0000 0.78809  0.06731  0.29239  Biso   1.000  C
  H492     1.0000 0.67499  0.06779  0.19632  Biso   1.000  H
  H493     1.0000 0.73391  0.06739  0.17599  Biso   1.000  H
  C412     1.0000 0.72321  0.11699  0.23960  Biso   1.000  C
  N70      1.0000 0.79549  0.71501  0.02912  Biso   1.000  N
  H494     1.0000 0.73220  0.69652  0.98468  Biso   1.000  H
  C413     1.0000 0.79239  0.71191  0.93269  Biso   1.000  C
  C414     1.0000 0.73960  0.77679  0.88301  Biso   1.000  C
  H495     1.0000 0.69632  0.82501  0.93221  Biso   1.000  H
  H496     1.0000 0.67599  0.76609  0.93261  Biso   1.000  H
  H497     1.0000 0.78180  0.35202  0.21720  Biso   1.000  H
  H498     1.0000 0.80181  0.38070  0.26892  Biso   1.000  H
  C415     1.0000 0.83471  0.60697  0.18211  Biso   1.000  C
  H499     1.0000 0.84219  0.55510  0.24620  Biso   1.000  H
  C416     1.0000 0.81789  0.83471  0.39303  Biso   1.000  C
  H500     1.0000 0.75380  0.84219  0.44490  Biso   1.000  H
  H501     1.0000 0.78280  0.78180  0.64798  Biso   1.000  H
  H502     1.0000 0.73108  0.80181  0.61930  Biso   1.000  H
  C417     1.0000 0.82210  0.93902  0.28431  Biso   1.000  C
  H503     1.0000 0.82501  0.06779  0.30368  Biso   1.000  H
  H504     1.0000 0.76609  0.06739  0.32401  Biso   1.000  H
  C418     1.0000 0.77679  0.11699  0.26040  Biso   1.000  C
  H505     1.0000 0.71820  0.14802  0.21720  Biso   1.000  H
  H506     1.0000 0.69819  0.11930  0.26892  Biso   1.000  H
  C419     1.0000 0.78431  0.67790  0.06098  Biso   1.000  C
  H507     1.0000 0.80368  0.67499  0.93221  Biso   1.000  H
  H508     1.0000 0.82401  0.73391  0.93261  Biso   1.000  H
  C420     1.0000 0.76040  0.72321  0.88301  Biso   1.000  C
  H509     1.0000 0.71720  0.78180  0.85202  Biso   1.000  H
  H510     1.0000 0.76892  0.80181  0.88070  Biso   1.000  H
  C421     1.0000 0.80531  0.62101  0.13792  Biso   1.000  C
  C422     1.0000 0.87899  0.63792  0.19469  Biso   1.000  C
  C423     1.0000 0.86212  0.80531  0.37899  Biso   1.000  C
  C424     1.0000 0.80531  0.87899  0.36212  Biso   1.000  C
  C425     1.0000 0.83471  0.89303  0.31789  Biso   1.000  C
  H511     1.0000 0.84219  0.94490  0.25380  Biso   1.000  H
  H512     1.0000 0.78180  0.14802  0.28280  Biso   1.000  H
  H513     1.0000 0.80181  0.11930  0.23108  Biso   1.000  H
  C426     1.0000 0.81789  0.66529  0.10697  Biso   1.000  C
  H514     1.0000 0.75380  0.65781  0.05510  Biso   1.000  H
  H515     1.0000 0.78280  0.71820  0.85202  Biso   1.000  H
  H516     1.0000 0.73108  0.69819  0.88070  Biso   1.000  H
  H517     1.0000 0.77620  0.60021  0.12849  Biso   1.000  H
  H518     1.0000 0.89979  0.62849  0.22380  Biso   1.000  H
  C427     1.0000 0.89303  0.68211  0.16529  Biso   1.000  C
  C428     1.0000 0.89303  0.81789  0.33471  Biso   1.000  C
  H519     1.0000 0.87151  0.77620  0.39979  Biso   1.000  H
  H520     1.0000 0.77620  0.89979  0.37151  Biso   1.000  H
  C429     1.0000 0.87899  0.86212  0.30531  Biso   1.000  C
  C430     1.0000 0.86212  0.69469  0.12101  Biso   1.000  C
  C431     1.0000 0.93902  0.71569  0.17790  Biso   1.000  C
  C432     1.0000 0.93902  0.78431  0.32210  Biso   1.000  C
  H521     1.0000 0.89979  0.87151  0.27620  Biso   1.000  H
  H522     1.0000 0.87151  0.72380  0.10021  Biso   1.000  H
  N71      1.0000 0.97088  0.70451  0.21501  Biso   1.000  N
  H523     1.0000 0.94490  0.74620  0.15781  Biso   1.000  H
  N72      1.0000 0.97088  0.79549  0.28499  Biso   1.000  N
  H524     1.0000 0.94490  0.75380  0.34219  Biso   1.000  H
  C433     1.0000 0.01730  0.73844  0.22209  Biso   1.000  C
  C434     1.0000 0.01730  0.76156  0.27791  Biso   1.000  C
  H525     1.0000 0.01532  0.76780  0.19652  Biso   1.000  H
  C435     1.0000 0.06731  0.70761  0.21191  Biso   1.000  C
  H526     1.0000 0.01532  0.73220  0.30348  Biso   1.000  H
  C436     1.0000 0.06731  0.79239  0.28809  Biso   1.000  C
  H527     1.0000 0.06779  0.69632  0.17499  Biso   1.000  H
  H528     1.0000 0.06739  0.67599  0.23391  Biso   1.000  H
  C437     1.0000 0.11699  0.73960  0.22321  Biso   1.000  C
  H529     1.0000 0.06779  0.80368  0.32501  Biso   1.000  H
  H530     1.0000 0.06739  0.82401  0.26609  Biso   1.000  H
  C438     1.0000 0.11699  0.76040  0.27679  Biso   1.000  C
  H531     1.0000 0.14802  0.71720  0.21820  Biso   1.000  H
  H532     1.0000 0.11930  0.76892  0.19819  Biso   1.000  H
  H533     1.0000 0.14802  0.78280  0.28180  Biso   1.000  H
  H534     1.0000 0.11930  0.73108  0.30181  Biso   1.000  H
  C439     1.0000 0.28809  0.43269  0.70761  Biso   1.000  C
  C440     1.0000 0.27791  0.48270  0.73844  Biso   1.000  C
  H535     1.0000 0.32501  0.43221  0.69632  Biso   1.000  H
  H536     1.0000 0.26609  0.43261  0.67599  Biso   1.000  H
  C441     1.0000 0.27679  0.38301  0.73960  Biso   1.000  C
  N73      1.0000 0.28499  0.52912  0.70451  Biso   1.000  N
  C442     1.0000 0.22209  0.48270  0.76156  Biso   1.000  C
  H537     1.0000 0.30348  0.48468  0.76780  Biso   1.000  H
  C443     1.0000 0.22321  0.38301  0.76040  Biso   1.000  C
  H538     1.0000 0.28180  0.35202  0.71720  Biso   1.000  H
  H539     1.0000 0.30181  0.38070  0.76892  Biso   1.000  H
  C444     1.0000 0.32210  0.56098  0.71569  Biso   1.000  C
  N74      1.0000 0.21501  0.52912  0.79549  Biso   1.000  N
  H540     1.0000 0.19652  0.48468  0.73220  Biso   1.000  H
  C445     1.0000 0.21191  0.43269  0.79239  Biso   1.000  C
  H541     1.0000 0.21820  0.35202  0.78280  Biso   1.000  H
  H542     1.0000 0.19819  0.38070  0.73108  Biso   1.000  H
  C446     1.0000 0.33471  0.60697  0.68211  Biso   1.000  C
  H543     1.0000 0.34219  0.55510  0.74620  Biso   1.000  H
  C447     1.0000 0.17790  0.56098  0.78431  Biso   1.000  C
  H544     1.0000 0.17499  0.43221  0.80368  Biso   1.000  H
  H545     1.0000 0.23391  0.43261  0.82401  Biso   1.000  H
  C448     1.0000 0.30531  0.62101  0.63792  Biso   1.000  C
  C449     1.0000 0.37899  0.63792  0.69469  Biso   1.000  C
  C450     1.0000 0.16529  0.60697  0.81789  Biso   1.000  C
  H546     1.0000 0.15781  0.55510  0.75380  Biso   1.000  H
  C451     1.0000 0.31789  0.66529  0.60697  Biso   1.000  C
  H547     1.0000 0.27620  0.60021  0.62849  Biso   1.000  H
  C452     1.0000 0.39303  0.68211  0.66529  Biso   1.000  C
  H548     1.0000 0.39979  0.62849  0.72380  Biso   1.000  H
  C453     1.0000 0.19469  0.62101  0.86212  Biso   1.000  C
  C454     1.0000 0.12101  0.63792  0.80531  Biso   1.000  C
  C455     1.0000 0.28431  0.67790  0.56098  Biso   1.000  C
  C456     1.0000 0.36212  0.69469  0.62101  Biso   1.000  C
  C457     1.0000 0.43902  0.71569  0.67790  Biso   1.000  C
  H549     1.0000 0.22380  0.60021  0.87151  Biso   1.000  H
  C458     1.0000 0.18211  0.66529  0.89303  Biso   1.000  C
  C459     1.0000 0.10697  0.68211  0.83471  Biso   1.000  C
  H550     1.0000 0.10021  0.62849  0.77620  Biso   1.000  H
  N75      1.0000 0.29549  0.71501  0.52912  Biso   1.000  N
  H551     1.0000 0.25380  0.65781  0.55510  Biso   1.000  H
  H552     1.0000 0.37151  0.72380  0.60021  Biso   1.000  H
  N76      1.0000 0.47088  0.70451  0.71501  Biso   1.000  N
  H553     1.0000 0.44490  0.74620  0.65781  Biso   1.000  H
  C460     1.0000 0.13792  0.69469  0.87899  Biso   1.000  C
  C461     1.0000 0.21569  0.67790  0.93902  Biso   1.000  C
  C462     1.0000 0.06098  0.71569  0.82210  Biso   1.000  C
  C463     1.0000 0.26156  0.72209  0.48270  Biso   1.000  C
  C464     1.0000 0.51730  0.73844  0.72209  Biso   1.000  C
  H554     1.0000 0.12849  0.72380  0.89979  Biso   1.000  H
  N77      1.0000 0.20451  0.71501  0.97088  Biso   1.000  N
  H555     1.0000 0.24620  0.65781  0.94490  Biso   1.000  H
  N78      1.0000 0.02912  0.70451  0.78499  Biso   1.000  N
  H556     1.0000 0.05510  0.74620  0.84219  Biso   1.000  H
  C465     1.0000 0.29239  0.71191  0.43269  Biso   1.000  C
  C466     1.0000 0.23844  0.77791  0.48270  Biso   1.000  C
  H557     1.0000 0.23220  0.69652  0.48468  Biso   1.000  H
  C467     1.0000 0.51730  0.76156  0.77791  Biso   1.000  C
  H558     1.0000 0.51532  0.76780  0.69652  Biso   1.000  H
  C468     1.0000 0.56731  0.70761  0.71191  Biso   1.000  C
  C469     1.0000 0.23844  0.72209  0.01730  Biso   1.000  C
  C470     1.0000 0.98270  0.73844  0.77791  Biso   1.000  C
  C471     1.0000 0.26040  0.72321  0.38301  Biso   1.000  C
  H559     1.0000 0.30368  0.67499  0.43221  Biso   1.000  H
  H560     1.0000 0.32401  0.73391  0.43261  Biso   1.000  H
  C472     1.0000 0.20761  0.78809  0.43269  Biso   1.000  C
  N79      1.0000 0.20451  0.78499  0.52912  Biso   1.000  N
  H561     1.0000 0.26780  0.80348  0.48468  Biso   1.000  H
  N80      1.0000 0.47088  0.79549  0.78499  Biso   1.000  N
  H562     1.0000 0.51532  0.73220  0.80348  Biso   1.000  H
  C473     1.0000 0.56731  0.79239  0.78809  Biso   1.000  C
  H563     1.0000 0.56779  0.69632  0.67499  Biso   1.000  H
  H564     1.0000 0.56739  0.67599  0.73391  Biso   1.000  H
  C474     1.0000 0.61699  0.73960  0.72321  Biso   1.000  C
  C475     1.0000 0.26156  0.77791  0.01730  Biso   1.000  C
  H565     1.0000 0.26780  0.69652  0.01532  Biso   1.000  H
  C476     1.0000 0.20761  0.71191  0.06731  Biso   1.000  C
  C477     1.0000 0.98270  0.76156  0.72209  Biso   1.000  C
  H566     1.0000 0.98468  0.76780  0.80348  Biso   1.000  H
  C478     1.0000 0.93269  0.70761  0.78809  Biso   1.000  C
  C479     1.0000 0.23960  0.77679  0.38301  Biso   1.000  C
  H567     1.0000 0.28280  0.71820  0.35202  Biso   1.000  H
  H568     1.0000 0.23108  0.69819  0.38070  Biso   1.000  H
  H569     1.0000 0.19632  0.82501  0.43221  Biso   1.000  H
  H570     1.0000 0.17599  0.76609  0.43261  Biso   1.000  H
  C480     1.0000 0.21569  0.82210  0.56098  Biso   1.000  C
  C481     1.0000 0.43902  0.78431  0.82210  Biso   1.000  C
  H571     1.0000 0.56779  0.80368  0.82501  Biso   1.000  H
  H572     1.0000 0.56739  0.82401  0.76609  Biso   1.000  H
  C482     1.0000 0.61699  0.76040  0.77679  Biso   1.000  C
  H573     1.0000 0.64798  0.71720  0.71820  Biso   1.000  H
  H574     1.0000 0.61930  0.76892  0.69819  Biso   1.000  H
  N81      1.0000 0.29549  0.78499  0.97088  Biso   1.000  N
  H575     1.0000 0.23220  0.80348  0.01532  Biso   1.000  H
  C483     1.0000 0.29239  0.78809  0.06731  Biso   1.000  C
  H576     1.0000 0.19632  0.67499  0.06779  Biso   1.000  H
  H577     1.0000 0.17599  0.73391  0.06739  Biso   1.000  H
  C484     1.0000 0.23960  0.72321  0.11699  Biso   1.000  C
  N82      1.0000 0.02912  0.79549  0.71501  Biso   1.000  N
  H578     1.0000 0.98468  0.73220  0.69652  Biso   1.000  H
  C485     1.0000 0.93269  0.79239  0.71191  Biso   1.000  C
  H579     1.0000 0.93221  0.69632  0.82501  Biso   1.000  H
  H580     1.0000 0.93261  0.67599  0.76609  Biso   1.000  H
  C486     1.0000 0.88301  0.73960  0.77679  Biso   1.000  C
  H581     1.0000 0.21720  0.78180  0.35202  Biso   1.000  H
  H582     1.0000 0.26892  0.80181  0.38070  Biso   1.000  H
  C487     1.0000 0.18211  0.83471  0.60697  Biso   1.000  C
  H583     1.0000 0.24620  0.84219  0.55510  Biso   1.000  H
  C488     1.0000 0.39303  0.81789  0.83471  Biso   1.000  C
  H584     1.0000 0.44490  0.75380  0.84219  Biso   1.000  H
  H585     1.0000 0.64798  0.78280  0.78180  Biso   1.000  H
  H586     1.0000 0.61930  0.73108  0.80181  Biso   1.000  H
  C489     1.0000 0.28431  0.82210  0.93902  Biso   1.000  C
  H587     1.0000 0.30368  0.82501  0.06779  Biso   1.000  H
  H588     1.0000 0.32401  0.76609  0.06739  Biso   1.000  H
  C490     1.0000 0.26040  0.77679  0.11699  Biso   1.000  C
  H589     1.0000 0.21720  0.71820  0.14802  Biso   1.000  H
  H590     1.0000 0.26892  0.69819  0.11930  Biso   1.000  H
  C491     1.0000 0.06098  0.78431  0.67790  Biso   1.000  C
  H591     1.0000 0.93221  0.80368  0.67499  Biso   1.000  H
  H592     1.0000 0.93261  0.82401  0.73391  Biso   1.000  H
  C492     1.0000 0.88301  0.76040  0.72321  Biso   1.000  C
  H593     1.0000 0.85202  0.71720  0.78180  Biso   1.000  H
  H594     1.0000 0.88070  0.76892  0.80181  Biso   1.000  H
  C493     1.0000 0.19469  0.87899  0.63792  Biso   1.000  C
  C494     1.0000 0.13792  0.80531  0.62101  Biso   1.000  C
  C495     1.0000 0.36212  0.80531  0.87899  Biso   1.000  C
  C496     1.0000 0.37899  0.86212  0.80531  Biso   1.000  C
  C497     1.0000 0.31789  0.83471  0.89303  Biso   1.000  C
  H595     1.0000 0.25380  0.84219  0.94490  Biso   1.000  H
  H596     1.0000 0.28280  0.78180  0.14802  Biso   1.000  H
  H597     1.0000 0.23108  0.80181  0.11930  Biso   1.000  H
  C498     1.0000 0.10697  0.81789  0.66529  Biso   1.000  C
  H598     1.0000 0.05510  0.75380  0.65781  Biso   1.000  H
  H599     1.0000 0.85202  0.78280  0.71820  Biso   1.000  H
  H600     1.0000 0.88070  0.73108  0.69819  Biso   1.000  H
  H601     1.0000 0.22380  0.89979  0.62849  Biso   1.000  H
  C499     1.0000 0.16529  0.89303  0.68211  Biso   1.000  C
  H602     1.0000 0.12849  0.77620  0.60021  Biso   1.000  H
  H603     1.0000 0.37151  0.77620  0.89979  Biso   1.000  H
  C500     1.0000 0.33471  0.89303  0.81789  Biso   1.000  C
  H604     1.0000 0.39979  0.87151  0.77620  Biso   1.000  H
  C501     1.0000 0.30531  0.87899  0.86212  Biso   1.000  C
  C502     1.0000 0.12101  0.86212  0.69469  Biso   1.000  C
  C503     1.0000 0.17790  0.93902  0.71569  Biso   1.000  C
  C504     1.0000 0.32210  0.93902  0.78431  Biso   1.000  C
  H605     1.0000 0.27620  0.89979  0.87151  Biso   1.000  H
  H606     1.0000 0.10021  0.87151  0.72380  Biso   1.000  H
  N83      1.0000 0.21501  0.97088  0.70451  Biso   1.000  N
  H607     1.0000 0.15781  0.94490  0.74620  Biso   1.000  H
  N84      1.0000 0.28499  0.97088  0.79549  Biso   1.000  N
  H608     1.0000 0.34219  0.94490  0.75380  Biso   1.000  H
  C505     1.0000 0.22209  0.01730  0.73844  Biso   1.000  C
  C506     1.0000 0.27791  0.01730  0.76156  Biso   1.000  C
  H609     1.0000 0.19652  0.01532  0.76780  Biso   1.000  H
  C507     1.0000 0.21191  0.06731  0.70761  Biso   1.000  C
  H610     1.0000 0.30348  0.01532  0.73220  Biso   1.000  H
  C508     1.0000 0.28809  0.06731  0.79239  Biso   1.000  C
  H611     1.0000 0.17499  0.06779  0.69632  Biso   1.000  H
  H612     1.0000 0.23391  0.06739  0.67599  Biso   1.000  H
  C509     1.0000 0.22321  0.11699  0.73960  Biso   1.000  C
  H613     1.0000 0.32501  0.06779  0.80368  Biso   1.000  H
  H614     1.0000 0.26609  0.06739  0.82401  Biso   1.000  H
  C510     1.0000 0.27679  0.11699  0.76040  Biso   1.000  C
  H615     1.0000 0.21820  0.14802  0.71720  Biso   1.000  H
  H616     1.0000 0.19819  0.11930  0.76892  Biso   1.000  H
  H617     1.0000 0.28180  0.14802  0.78280  Biso   1.000  H
  H618     1.0000 0.30181  0.11930  0.73108  Biso   1.000  H
  Ne1      1.0000 0.25000  0.25000  0.25000  Biso   1.000  Ne
  He1      1.0000 0.18546  0.31455  0.31454  Biso   1.000  He
  He2      1.0000 0.31404  0.18596  0.31405  Biso   1.000  He
  He3      1.0000 0.31656  0.31655  0.18345  Biso   1.000  He
  He4      1.0000 0.18286  0.18286  0.18286  Biso   1.000  He
  Ar1      1.0000 0.25000  0.25000  0.25000  Biso   1.000  Ar
  Ne2      1.0000 0.50000  0.50000  0.99988  Biso   1.000  Ne
  He5      1.0000 0.43383  0.43383  0.06618  Biso   1.000  He
  He6      1.0000 0.56548  0.56548  0.06547  Biso   1.000  He
  He7      1.0000 0.56217  0.43783  0.93783  Biso   1.000  He
  He8      1.0000 0.43385  0.56615  0.93385  Biso   1.000  He
  Ar2      1.0000 0.50000  0.50000  0.00000  Biso   1.000  Ar
  Ne3      1.0000 0.50000  0.99988  0.50000  Biso   1.000  Ne
  He9      1.0000 0.43383  0.93383  0.56618  Biso   1.000  He
  He10     1.0000 0.56548  0.06548  0.56547  Biso   1.000  He
  He11     1.0000 0.56217  0.93783  0.43783  Biso   1.000  He
  He12     1.0000 0.43385  0.06615  0.43386  Biso   1.000  He
  Ar3      1.0000 0.50000  0.00000  0.50000  Biso   1.000  Ar
  Ne4      1.0000 0.99988  0.50000  0.50000  Biso   1.000  Ne
  He13     1.0000 0.93383  0.43383  0.56618  Biso   1.000  He
  He14     1.0000 0.06548  0.56547  0.56548  Biso   1.000  He
  He15     1.0000 0.06217  0.43783  0.43783  Biso   1.000  He
  He16     1.0000 0.93385  0.56615  0.43385  Biso   1.000  He
  Ar4      1.0000 0.00000  0.50000  0.50000  Biso   1.000  Ar
  Ne5      1.0000 0.75000  0.75000  0.25000  Biso   1.000  Ne
  He17     1.0000 0.68546  0.81456  0.31454  Biso   1.000  He
  He18     1.0000 0.81404  0.68596  0.31405  Biso   1.000  He
  He19     1.0000 0.81656  0.81655  0.18345  Biso   1.000  He
  He20     1.0000 0.68286  0.68286  0.18286  Biso   1.000  He
  Ar5      1.0000 0.75000  0.75000  0.25000  Biso   1.000  Ar
  Ne6      1.0000 0.75000  0.25000  0.75000  Biso   1.000  Ne
  He21     1.0000 0.68546  0.31456  0.81454  Biso   1.000  He
  He22     1.0000 0.81404  0.18596  0.81405  Biso   1.000  He
  He23     1.0000 0.81656  0.31655  0.68345  Biso   1.000  He
  He24     1.0000 0.68286  0.18286  0.68286  Biso   1.000  He
  Ar6      1.0000 0.75000  0.25000  0.75000  Biso   1.000  Ar
  Ne7      1.0000 0.25000  0.75000  0.75000  Biso   1.000  Ne
  He25     1.0000 0.18546  0.81456  0.81454  Biso   1.000  He
  He26     1.0000 0.31404  0.68596  0.81405  Biso   1.000  He
  He27     1.0000 0.31656  0.81655  0.68345  Biso   1.000  He
  He28     1.0000 0.18286  0.68286  0.68286  Biso   1.000  He
  Ar7      1.0000 0.25000  0.75000  0.75000  Biso   1.000  Ar
