data_image0
_cell_length_a       18.971
_cell_length_b       25.275
_cell_length_c       26.578
_cell_angle_alpha    90
_cell_angle_beta     90
_cell_angle_gamma    90

_symmetry_space_group_name_H-M    "P 1"
_symmetry_int_tables_number       1

loop_
  _symmetry_equiv_pos_as_xyz
  'x, y, z'

loop_
  _atom_site_label
  _atom_site_occupancy
  _atom_site_fract_x
  _atom_site_fract_y
  _atom_site_fract_z
  _atom_site_thermal_displace_type
  _atom_site_B_iso_or_equiv
  _atom_site_type_symbol
  C1       1.0000 0.48268  0.78192  0.33701  Biso   1.000  C
  C2       1.0000 0.55580  0.76119  0.32151  Biso   1.000  C
  C3       1.0000 0.54199  0.75889  0.31801  Biso   1.000  C
  H1       1.0000 0.44610  0.76340  0.31710  Biso   1.000  H
  H2       1.0000 0.47451  0.77369  0.37290  Biso   1.000  H
  C4       1.0000 0.47499  0.84190  0.32888  Biso   1.000  C
  C5       1.0000 0.44747  0.83252  0.31951  Biso   1.000  C
  H3       1.0000 0.46281  0.77080  0.37049  Biso   1.000  H
  C6       1.0000 0.56080  0.70061  0.32858  Biso   1.000  C
  H4       1.0000 0.59238  0.77871  0.34209  Biso   1.000  H
  H5       1.0000 0.56470  0.77009  0.28580  Biso   1.000  H
  C7       1.0000 0.46698  0.77500  0.33400  Biso   1.000  C
  H6       1.0000 0.57567  0.78172  0.33641  Biso   1.000  H
  H7       1.0000 0.54741  0.76582  0.28189  Biso   1.000  H
  H8       1.0000 0.48648  0.85009  0.29351  Biso   1.000  H
  H9       1.0000 0.50999  0.86030  0.35040  Biso   1.000  H
  C8       1.0000 0.40172  0.86382  0.34081  Biso   1.000  C
  H10      1.0000 0.45659  0.83731  0.28309  Biso   1.000  H
  C9       1.0000 0.37099  0.84942  0.33031  Biso   1.000  C
  H11      1.0000 0.47947  0.85670  0.33780  Biso   1.000  H
  C10      1.0000 0.63138  0.68012  0.30999  Biso   1.000  C
  N1       1.0000 0.55411  0.68961  0.38197  Biso   1.000  N
  H12      1.0000 0.52169  0.68281  0.30981  Biso   1.000  H
  H13      1.0000 0.52401  0.67881  0.31139  Biso   1.000  H
  H14      1.0000 0.43340  0.75058  0.31759  Biso   1.000  H
  H15      1.0000 0.38838  0.85329  0.37539  Biso   1.000  H
  H16      1.0000 0.40351  0.90299  0.33968  Biso   1.000  H
  C11      1.0000 0.34458  0.84431  0.30371  Biso   1.000  C
  C12      1.0000 0.36398  0.90362  0.29919  Biso   1.000  C
  H17      1.0000 0.36382  0.85531  0.36669  Biso   1.000  H
  H18      1.0000 0.33730  0.82251  0.31820  Biso   1.000  H
  N2       1.0000 0.63629  0.62382  0.32090  Biso   1.000  N
  H19      1.0000 0.66807  0.69780  0.33121  Biso   1.000  H
  C13      1.0000 0.64910  0.69349  0.25551  Biso   1.000  C
  C14      1.0000 0.63597  0.68352  0.25310  Biso   1.000  C
  H20      1.0000 0.67108  0.69990  0.32610  Biso   1.000  H
  C15      1.0000 0.50472  0.65931  0.39661  Biso   1.000  C
  H21      1.0000 0.29877  0.85879  0.31349  Biso   1.000  H
  H22      1.0000 0.34258  0.80550  0.30450  Biso   1.000  H
  H23      1.0000 0.35639  0.85610  0.26958  Biso   1.000  H
  H24      1.0000 0.31538  0.91632  0.30111  Biso   1.000  H
  H25      1.0000 0.37668  0.89729  0.26390  Biso   1.000  H
  H26      1.0000 0.39581  0.93021  0.31349  Biso   1.000  H
  C16      1.0000 0.68431  0.60791  0.34909  Biso   1.000  C
  H27      1.0000 0.64857  0.73250  0.25160  Biso   1.000  H
  H28      1.0000 0.61178  0.67881  0.23361  Biso   1.000  H
  C17      1.0000 0.72268  0.67201  0.23700  Biso   1.000  C
  C18      1.0000 0.70998  0.66370  0.23538  Biso   1.000  C
  H29      1.0000 0.62880  0.72051  0.24208  Biso   1.000  H
  H30      1.0000 0.59860  0.66140  0.23772  Biso   1.000  H
  C19      1.0000 0.48890  0.64910  0.44928  Biso   1.000  C
  H31      1.0000 0.47657  0.64229  0.37181  Biso   1.000  H
  C20      1.0000 0.69791  0.55039  0.35988  Biso   1.000  C
  H32      1.0000 0.71388  0.63339  0.36451  Biso   1.000  H
  H33      1.0000 0.73069  0.63529  0.24870  Biso   1.000  H
  H34      1.0000 0.76169  0.69472  0.24919  Biso   1.000  H
  C21      1.0000 0.71678  0.67430  0.17578  Biso   1.000  C
  C22      1.0000 0.74408  0.68241  0.18568  Biso   1.000  C
  H35      1.0000 0.74350  0.67228  0.26259  Biso   1.000  H
  H36      1.0000 0.70718  0.62461  0.23369  Biso   1.000  H
  C23      1.0000 0.43108  0.61749  0.46249  Biso   1.000  C
  C24      1.0000 0.53049  0.66920  0.48770  Biso   1.000  C
  C25      1.0000 0.65721  0.51039  0.34070  Biso   1.000  C
  C26      1.0000 0.75547  0.53812  0.38991  Biso   1.000  C
  H37      1.0000 0.67719  0.65219  0.16378  Biso   1.000  H
  H38      1.0000 0.70929  0.71110  0.16420  Biso   1.000  H
  C27      1.0000 0.78588  0.65329  0.15678  Biso   1.000  C
  C28      1.0000 0.72068  0.65492  0.14158  Biso   1.000  C
  H39      1.0000 0.73407  0.72059  0.18132  Biso   1.000  H
  H40      1.0000 0.79579  0.67830  0.18861  Biso   1.000  H
  C29      1.0000 0.41537  0.60752  0.51181  Biso   1.000  C
  H41      1.0000 0.40240  0.60281  0.43679  Biso   1.000  H
  C30      1.0000 0.51442  0.66042  0.53800  Biso   1.000  C
  H42      1.0000 0.57098  0.68950  0.47949  Biso   1.000  H
  C31      1.0000 0.67308  0.45899  0.34799  Biso   1.000  C
  H43      1.0000 0.61647  0.51921  0.32169  Biso   1.000  H
  C32      1.0000 0.77239  0.48562  0.40029  Biso   1.000  C
  H44      1.0000 0.78362  0.56570  0.40349  Biso   1.000  H
  H45      1.0000 0.79637  0.66750  0.12288  Biso   1.000  H
  H46      1.0000 0.82479  0.66311  0.17981  Biso   1.000  H
  C33      1.0000 0.77708  0.59430  0.15490  Biso   1.000  C
  C34      1.0000 0.78920  0.65642  0.10351  Biso   1.000  C
  H47      1.0000 0.67967  0.67300  0.12631  Biso   1.000  H
  H48      1.0000 0.70750  0.61800  0.14979  Biso   1.000  H
  C35      1.0000 0.35328  0.57480  0.52589  Biso   1.000  C
  C36      1.0000 0.45738  0.62912  0.54929  Biso   1.000  C
  C37      1.0000 0.55859  0.68621  0.57758  Biso   1.000  C
  C38      1.0000 0.63318  0.41591  0.32320  Biso   1.000  C
  C39      1.0000 0.73170  0.44629  0.37949  Biso   1.000  C
  C40      1.0000 0.83501  0.47169  0.43028  Biso   1.000  C
  H49      1.0000 0.82078  0.57800  0.14271  Biso   1.000  H
  H50      1.0000 0.73839  0.58532  0.13210  Biso   1.000  H
  H51      1.0000 0.76638  0.58101  0.18869  Biso   1.000  H
  H52      1.0000 0.77560  0.64222  0.07058  Biso   1.000  H
  H53      1.0000 0.82732  0.63482  0.11769  Biso   1.000  H
  H54      1.0000 0.80539  0.69302  0.09959  Biso   1.000  H
  N3       1.0000 0.31337  0.55711  0.49421  Biso   1.000  N
  H55      1.0000 0.34447  0.56760  0.56050  Biso   1.000  H
  H56      1.0000 0.44658  0.62200  0.58349  Biso   1.000  H
  N4       1.0000 0.53998  0.68380  0.62330  Biso   1.000  N
  H57      1.0000 0.60060  0.70441  0.56848  Biso   1.000  H
  N5       1.0000 0.64952  0.36878  0.32651  Biso   1.000  N
  H58      1.0000 0.59290  0.42500  0.30371  Biso   1.000  H
  H59      1.0000 0.74271  0.41021  0.38600  Biso   1.000  H
  N6       1.0000 0.87460  0.50580  0.44811  Biso   1.000  N
  H60      1.0000 0.84518  0.43541  0.43611  Biso   1.000  H
  C41      1.0000 0.24991  0.52661  0.51238  Biso   1.000  C
  C42      1.0000 0.58379  0.71189  0.66028  Biso   1.000  C
  C43      1.0000 0.60698  0.32859  0.30021  Biso   1.000  C
  C44      1.0000 0.93970  0.48942  0.47411  Biso   1.000  C
  C45      1.0000 0.24991  0.47339  0.48758  Biso   1.000  C
  H61      1.0000 0.25012  0.52309  0.54989  Biso   1.000  H
  C46      1.0000 0.18650  0.56138  0.49398  Biso   1.000  C
  C47      1.0000 0.18170  0.55921  0.50041  Biso   1.000  C
  H62      1.0000 0.25360  0.52158  0.54970  Biso   1.000  H
  C48      1.0000 0.60698  0.67141  0.69979  Biso   1.000  C
  H63      1.0000 0.62690  0.72499  0.64271  Biso   1.000  H
  C49      1.0000 0.54177  0.76012  0.67861  Biso   1.000  C
  C50      1.0000 0.53687  0.74809  0.69121  Biso   1.000  C
  H64      1.0000 0.62437  0.73100  0.64459  Biso   1.000  H
  C51      1.0000 0.58379  0.28811  0.33968  Biso   1.000  C
  H65      1.0000 0.56518  0.34508  0.28358  Biso   1.000  H
  C52      1.0000 0.65431  0.30129  0.26138  Biso   1.000  C
  C53      1.0000 0.63692  0.30770  0.25088  Biso   1.000  C
  H66      1.0000 0.56270  0.34742  0.29039  Biso   1.000  H
  C54      1.0000 0.93970  0.51058  0.52589  Biso   1.000  C
  H67      1.0000 0.94059  0.44989  0.47588  Biso   1.000  H
  H68      1.0000 0.93817  0.45001  0.47701  Biso   1.000  H
  C55      1.0000 0.00200  0.50801  0.44059  Biso   1.000  C
  C56      1.0000 0.01002  0.50299  0.45150  Biso   1.000  C
  N7       1.0000 0.31337  0.44289  0.50579  Biso   1.000  N
  H69      1.0000 0.25012  0.47691  0.45011  Biso   1.000  H
  C57      1.0000 0.18650  0.43862  0.50598  Biso   1.000  C
  C58      1.0000 0.18170  0.44079  0.49959  Biso   1.000  C
  H70      1.0000 0.25360  0.47842  0.45030  Biso   1.000  H
  H71      1.0000 0.14248  0.54049  0.49488  Biso   1.000  H
  H72      1.0000 0.19472  0.57282  0.45880  Biso   1.000  H
  C59      1.0000 0.17901  0.61179  0.52920  Biso   1.000  C
  C60      1.0000 0.19082  0.61951  0.50771  Biso   1.000  C
  H73      1.0000 0.16762  0.55228  0.46520  Biso   1.000  H
  H74      1.0000 0.14311  0.54671  0.52250  Biso   1.000  H
  N8       1.0000 0.64952  0.63122  0.67349  Biso   1.000  N
  H75      1.0000 0.56518  0.65492  0.71638  Biso   1.000  H
  C61      1.0000 0.65431  0.69871  0.73858  Biso   1.000  C
  C62      1.0000 0.63692  0.69230  0.74908  Biso   1.000  C
  H76      1.0000 0.56270  0.65262  0.70961  Biso   1.000  H
  H77      1.0000 0.57098  0.78022  0.70280  Biso   1.000  H
  H78      1.0000 0.49939  0.74762  0.69670  Biso   1.000  H
  C63      1.0000 0.51790  0.79889  0.63451  Biso   1.000  C
  C64      1.0000 0.51099  0.79102  0.65520  Biso   1.000  C
  H79      1.0000 0.56381  0.76400  0.71928  Biso   1.000  H
  H80      1.0000 0.49649  0.72811  0.70528  Biso   1.000  H
  C65      1.0000 0.54177  0.23988  0.32139  Biso   1.000  C
  C66      1.0000 0.53687  0.25191  0.30879  Biso   1.000  C
  N9       1.0000 0.53998  0.31620  0.37670  Biso   1.000  N
  H81      1.0000 0.62690  0.27501  0.35729  Biso   1.000  H
  H82      1.0000 0.62437  0.26900  0.35541  Biso   1.000  H
  H83      1.0000 0.62769  0.27240  0.24490  Biso   1.000  H
  H84      1.0000 0.69548  0.28550  0.27861  Biso   1.000  H
  C67      1.0000 0.68062  0.34192  0.22018  Biso   1.000  C
  H85      1.0000 0.68120  0.28859  0.25841  Biso   1.000  H
  H86      1.0000 0.60318  0.28150  0.23711  Biso   1.000  H
  C68      1.0000 0.65200  0.34868  0.20980  Biso   1.000  C
  N10      1.0000 0.87460  0.49420  0.55189  Biso   1.000  N
  H87      1.0000 0.94059  0.55011  0.52408  Biso   1.000  H
  H88      1.0000 0.93817  0.54999  0.52299  Biso   1.000  H
  C69      1.0000 0.00200  0.49199  0.55941  Biso   1.000  C
  C70      1.0000 0.01002  0.49701  0.54850  Biso   1.000  C
  H89      1.0000 0.99910  0.54698  0.43709  Biso   1.000  H
  H90      1.0000 0.04649  0.49990  0.45831  Biso   1.000  H
  C71      1.0000 0.00601  0.48439  0.38848  Biso   1.000  C
  C72      1.0000 0.01998  0.47901  0.39980  Biso   1.000  C
  H91      1.0000 0.01381  0.54239  0.44849  Biso   1.000  H
  H92      1.0000 0.04807  0.49132  0.47430  Biso   1.000  H
  C73      1.0000 0.35328  0.42520  0.47411  Biso   1.000  C
  H93      1.0000 0.14248  0.45951  0.50508  Biso   1.000  H
  H94      1.0000 0.19472  0.42722  0.54120  Biso   1.000  H
  C74      1.0000 0.17901  0.38821  0.47080  Biso   1.000  C
  C75      1.0000 0.19082  0.38049  0.49229  Biso   1.000  C
  H95      1.0000 0.16762  0.44772  0.53480  Biso   1.000  H
  H96      1.0000 0.14311  0.45329  0.47750  Biso   1.000  H
  H97      1.0000 0.21670  0.63802  0.52261  Biso   1.000  H
  H98      1.0000 0.17970  0.60190  0.56528  Biso   1.000  H
  C76      1.0000 0.10168  0.63410  0.51208  Biso   1.000  C
  H99      1.0000 0.19308  0.62710  0.54421  Biso   1.000  H
  C77      1.0000 0.13020  0.65409  0.48378  Biso   1.000  C
  H100     1.0000 0.23631  0.63031  0.49270  Biso   1.000  H
  C78      1.0000 0.63318  0.58409  0.67680  Biso   1.000  C
  H101     1.0000 0.62769  0.72760  0.75510  Biso   1.000  H
  H102     1.0000 0.69548  0.71450  0.72139  Biso   1.000  H
  C79      1.0000 0.68062  0.65812  0.77978  Biso   1.000  C
  H103     1.0000 0.68120  0.71141  0.74159  Biso   1.000  H
  H104     1.0000 0.60318  0.71850  0.76289  Biso   1.000  H
  C80      1.0000 0.65200  0.65132  0.79020  Biso   1.000  C
  H105     1.0000 0.55838  0.80491  0.61178  Biso   1.000  H
  H106     1.0000 0.48031  0.78140  0.61468  Biso   1.000  H
  C81      1.0000 0.48922  0.85500  0.65389  Biso   1.000  C
  H107     1.0000 0.47868  0.77492  0.63018  Biso   1.000  H
  H108     1.0000 0.55179  0.80570  0.63669  Biso   1.000  H
  C82      1.0000 0.47119  0.83759  0.68361  Biso   1.000  C
  C83      1.0000 0.51790  0.20111  0.36549  Biso   1.000  C
  C84      1.0000 0.51099  0.20898  0.34480  Biso   1.000  C
  H109     1.0000 0.57098  0.21978  0.29720  Biso   1.000  H
  H110     1.0000 0.49939  0.25238  0.30330  Biso   1.000  H
  H111     1.0000 0.56381  0.23600  0.28068  Biso   1.000  H
  H112     1.0000 0.49649  0.27189  0.29468  Biso   1.000  H
  C85      1.0000 0.55859  0.31379  0.42238  Biso   1.000  C
  H113     1.0000 0.63998  0.35391  0.19979  Biso   1.000  H
  H114     1.0000 0.70139  0.37321  0.23689  Biso   1.000  H
  C86      1.0000 0.73739  0.31561  0.18459  Biso   1.000  C
  C87      1.0000 0.69701  0.32590  0.16491  Biso   1.000  C
  H115     1.0000 0.67809  0.37879  0.22500  Biso   1.000  H
  H116     1.0000 0.60708  0.36229  0.19652  Biso   1.000  H
  C88      1.0000 0.83501  0.52831  0.56968  Biso   1.000  C
  H117     1.0000 0.99910  0.45302  0.56291  Biso   1.000  H
  H118     1.0000 0.04649  0.50010  0.54169  Biso   1.000  H
  C89      1.0000 0.00601  0.51561  0.61148  Biso   1.000  C
  C90      1.0000 0.01998  0.52099  0.60020  Biso   1.000  C
  H119     1.0000 0.01381  0.45761  0.55151  Biso   1.000  H
  H120     1.0000 0.04807  0.50868  0.52570  Biso   1.000  H
  H121     1.0000 0.96600  0.49769  0.36820  Biso   1.000  H
  H122     1.0000 0.98150  0.48981  0.37749  Biso   1.000  H
  H123     1.0000 0.00127  0.44550  0.39100  Biso   1.000  H
  C91      1.0000 0.07427  0.49749  0.36180  Biso   1.000  C
  C92      1.0000 0.09298  0.49401  0.37478  Biso   1.000  C
  H124     1.0000 0.01819  0.43960  0.40312  Biso   1.000  H
  C93      1.0000 0.41537  0.39248  0.48819  Biso   1.000  C
  H125     1.0000 0.34447  0.43240  0.43950  Biso   1.000  H
  H126     1.0000 0.21670  0.36202  0.47739  Biso   1.000  H
  H127     1.0000 0.17970  0.39810  0.43468  Biso   1.000  H
  C94      1.0000 0.10168  0.36590  0.48788  Biso   1.000  C
  H128     1.0000 0.19308  0.37290  0.45579  Biso   1.000  H
  C95      1.0000 0.13020  0.34591  0.51618  Biso   1.000  C
  H129     1.0000 0.23631  0.36969  0.50730  Biso   1.000  H
  H130     1.0000 0.10822  0.67221  0.50508  Biso   1.000  H
  H131     1.0000 0.09119  0.61709  0.47938  Biso   1.000  H
  C96      1.0000 0.04001  0.63011  0.54060  Biso   1.000  C
  H132     1.0000 0.08829  0.65662  0.54541  Biso   1.000  H
  H133     1.0000 0.05208  0.61919  0.50598  Biso   1.000  H
  C97      1.0000 0.07069  0.65551  0.51038  Biso   1.000  C
  H134     1.0000 0.14770  0.69072  0.47961  Biso   1.000  H
  H135     1.0000 0.11950  0.64000  0.44988  Biso   1.000  H
  C98      1.0000 0.67308  0.54101  0.65201  Biso   1.000  C
  H136     1.0000 0.59290  0.57500  0.69629  Biso   1.000  H
  H137     1.0000 0.63998  0.64609  0.80021  Biso   1.000  H
  H138     1.0000 0.70139  0.62679  0.76311  Biso   1.000  H
  C99      1.0000 0.73739  0.68439  0.81541  Biso   1.000  C
  C100     1.0000 0.69701  0.67410  0.83509  Biso   1.000  C
  H139     1.0000 0.67809  0.62121  0.77500  Biso   1.000  H
  H140     1.0000 0.60708  0.63771  0.80348  Biso   1.000  H
  H141     1.0000 0.52401  0.87050  0.67748  Biso   1.000  H
  H142     1.0000 0.48448  0.87929  0.62488  Biso   1.000  H
  C101     1.0000 0.42011  0.85021  0.67970  Biso   1.000  C
  C102     1.0000 0.43962  0.87581  0.64990  Biso   1.000  C
  H143     1.0000 0.47710  0.89341  0.63011  Biso   1.000  H
  H144     1.0000 0.42438  0.82421  0.70739  Biso   1.000  H
  H145     1.0000 0.43387  0.82220  0.70521  Biso   1.000  H
  H146     1.0000 0.50509  0.85598  0.70588  Biso   1.000  H
  C103     1.0000 0.48922  0.14500  0.34611  Biso   1.000  C
  H147     1.0000 0.55838  0.19509  0.38822  Biso   1.000  H
  H148     1.0000 0.48031  0.21860  0.38528  Biso   1.000  H
  H149     1.0000 0.47868  0.22508  0.36978  Biso   1.000  H
  H150     1.0000 0.55179  0.19430  0.36331  Biso   1.000  H
  C104     1.0000 0.47119  0.16241  0.31639  Biso   1.000  C
  C105     1.0000 0.51442  0.33958  0.46200  Biso   1.000  C
  H151     1.0000 0.60060  0.29559  0.43148  Biso   1.000  H
  H152     1.0000 0.77139  0.29428  0.20419  Biso   1.000  H
  H153     1.0000 0.76338  0.34279  0.16529  Biso   1.000  H
  C106     1.0000 0.69311  0.28000  0.14911  Biso   1.000  C
  C107     1.0000 0.66101  0.29670  0.12281  Biso   1.000  C
  H154     1.0000 0.72300  0.35589  0.14971  Biso   1.000  H
  H155     1.0000 0.73280  0.30180  0.17940  Biso   1.000  H
  C108     1.0000 0.77239  0.51442  0.59971  Biso   1.000  C
  H156     1.0000 0.84518  0.56459  0.56389  Biso   1.000  H
  H157     1.0000 0.96600  0.50231  0.63180  Biso   1.000  H
  H158     1.0000 0.98150  0.51019  0.62251  Biso   1.000  H
  H159     1.0000 0.00127  0.55450  0.60900  Biso   1.000  H
  C109     1.0000 0.07427  0.50251  0.63820  Biso   1.000  C
  C110     1.0000 0.09298  0.50599  0.62518  Biso   1.000  C
  H160     1.0000 0.01819  0.56040  0.59688  Biso   1.000  H
  H161     1.0000 0.08039  0.53642  0.36169  Biso   1.000  H
  H162     1.0000 0.11391  0.48222  0.38118  Biso   1.000  H
  C111     1.0000 0.07896  0.47790  0.30841  Biso   1.000  C
  C112     1.0000 0.09599  0.46599  0.32470  Biso   1.000  C
  H163     1.0000 0.09557  0.53321  0.36948  Biso   1.000  H
  H164     1.0000 0.13310  0.48360  0.39649  Biso   1.000  H
  C113     1.0000 0.45738  0.37092  0.45071  Biso   1.000  C
  C114     1.0000 0.43108  0.38251  0.53751  Biso   1.000  C
  H165     1.0000 0.10822  0.32779  0.49488  Biso   1.000  H
  H166     1.0000 0.09119  0.38291  0.52058  Biso   1.000  H
  C115     1.0000 0.04001  0.36989  0.45940  Biso   1.000  C
  H167     1.0000 0.08829  0.34338  0.45459  Biso   1.000  H
  H168     1.0000 0.05208  0.38081  0.49398  Biso   1.000  H
  C116     1.0000 0.07069  0.34449  0.48958  Biso   1.000  C
  H169     1.0000 0.14770  0.30932  0.52039  Biso   1.000  H
  H170     1.0000 0.11950  0.36000  0.55008  Biso   1.000  H
  H171     1.0000 0.05039  0.63521  0.57668  Biso   1.000  H
  H172     1.0000 0.01819  0.59482  0.53601  Biso   1.000  H
  C117     1.0000 0.98872  0.67490  0.52099  Biso   1.000  C
  C118     1.0000 0.00411  0.68831  0.51339  Biso   1.000  C
  C119     1.0000 0.65721  0.48961  0.65930  Biso   1.000  C
  C120     1.0000 0.73170  0.55371  0.62051  Biso   1.000  C
  H173     1.0000 0.77139  0.70572  0.79581  Biso   1.000  H
  H174     1.0000 0.76338  0.65721  0.83468  Biso   1.000  H
  C121     1.0000 0.69311  0.72000  0.85089  Biso   1.000  C
  C122     1.0000 0.66101  0.70330  0.87719  Biso   1.000  C
  H175     1.0000 0.72300  0.64411  0.85029  Biso   1.000  H
  H176     1.0000 0.73280  0.69820  0.82060  Biso   1.000  H
  H177     1.0000 0.38490  0.83640  0.65550  Biso   1.000  H
  C123     1.0000 0.39228  0.90390  0.70190  Biso   1.000  C
  C124     1.0000 0.39618  0.91941  0.68049  Biso   1.000  C
  H178     1.0000 0.40767  0.85741  0.62619  Biso   1.000  H
  C125     1.0000 0.42011  0.14979  0.32030  Biso   1.000  C
  C126     1.0000 0.43962  0.12419  0.35010  Biso   1.000  C
  H179     1.0000 0.52401  0.12950  0.32248  Biso   1.000  H
  H180     1.0000 0.48448  0.12071  0.37508  Biso   1.000  H
  H181     1.0000 0.47710  0.10659  0.36989  Biso   1.000  H
  H182     1.0000 0.42438  0.17579  0.29261  Biso   1.000  H
  H183     1.0000 0.43387  0.17780  0.29479  Biso   1.000  H
  H184     1.0000 0.50509  0.14402  0.29412  Biso   1.000  H
  C127     1.0000 0.53049  0.33080  0.51230  Biso   1.000  C
  H185     1.0000 0.68441  0.24562  0.16581  Biso   1.000  H
  H186     1.0000 0.64678  0.29701  0.14309  Biso   1.000  H
  C128     1.0000 0.73101  0.26959  0.09549  Biso   1.000  C
  H187     1.0000 0.63629  0.26611  0.13771  Biso   1.000  H
  C129     1.0000 0.70898  0.27501  0.07672  Biso   1.000  C
  H188     1.0000 0.62490  0.32051  0.10851  Biso   1.000  H
  C130     1.0000 0.75547  0.46192  0.61009  Biso   1.000  C
  H189     1.0000 0.08039  0.46362  0.63831  Biso   1.000  H
  H190     1.0000 0.11391  0.51778  0.61878  Biso   1.000  H
  C131     1.0000 0.07896  0.52210  0.69159  Biso   1.000  C
  C132     1.0000 0.09599  0.53401  0.67530  Biso   1.000  C
  H191     1.0000 0.09557  0.46679  0.63048  Biso   1.000  H
  H192     1.0000 0.13310  0.51640  0.60351  Biso   1.000  H
  H193     1.0000 0.04560  0.49761  0.28682  Biso   1.000  H
  H194     1.0000 0.06658  0.43992  0.30698  Biso   1.000  H
  C133     1.0000 0.15787  0.48661  0.28889  Biso   1.000  C
  H195     1.0000 0.05767  0.43949  0.32279  Biso   1.000  H
  C134     1.0000 0.16899  0.43699  0.31899  Biso   1.000  C
  H196     1.0000 0.09030  0.49132  0.29690  Biso   1.000  H
  H197     1.0000 0.44658  0.37800  0.41651  Biso   1.000  H
  C135     1.0000 0.48890  0.35090  0.55068  Biso   1.000  C
  H198     1.0000 0.40240  0.39719  0.56321  Biso   1.000  H
  H199     1.0000 0.05039  0.36479  0.42328  Biso   1.000  H
  H200     1.0000 0.01819  0.40518  0.46399  Biso   1.000  H
  C136     1.0000 0.98872  0.32510  0.47901  Biso   1.000  C
  C137     1.0000 0.00411  0.31169  0.48661  Biso   1.000  C
  H201     1.0000 0.01228  0.70932  0.52340  Biso   1.000  H
  H202     1.0000 0.94592  0.67521  0.54169  Biso   1.000  H
  H203     1.0000 0.97612  0.66781  0.48589  Biso   1.000  H
  H204     1.0000 0.96879  0.66940  0.53341  Biso   1.000  H
  H205     1.0000 0.98582  0.69440  0.47938  Biso   1.000  H
  H206     1.0000 0.01471  0.72229  0.52931  Biso   1.000  H
  C138     1.0000 0.69791  0.44961  0.64008  Biso   1.000  C
  H207     1.0000 0.61647  0.48079  0.67831  Biso   1.000  H
  H208     1.0000 0.74271  0.58979  0.61400  Biso   1.000  H
  H209     1.0000 0.68441  0.75442  0.83419  Biso   1.000  H
  H210     1.0000 0.64678  0.70299  0.85691  Biso   1.000  H
  C139     1.0000 0.73101  0.73041  0.90451  Biso   1.000  C
  H211     1.0000 0.63629  0.73389  0.86229  Biso   1.000  H
  C140     1.0000 0.70898  0.72499  0.92328  Biso   1.000  C
  H212     1.0000 0.62490  0.67949  0.89149  Biso   1.000  H
  H213     1.0000 0.34669  0.89812  0.71830  Biso   1.000  H
  H214     1.0000 0.38680  0.92969  0.67469  Biso   1.000  H
  H215     1.0000 0.42607  0.91739  0.72669  Biso   1.000  H
  H216     1.0000 0.42781  0.93761  0.70408  Biso   1.000  H
  H217     1.0000 0.35818  0.90212  0.69941  Biso   1.000  H
  H218     1.0000 0.37610  0.94508  0.65701  Biso   1.000  H
  H219     1.0000 0.38490  0.16360  0.34450  Biso   1.000  H
  C141     1.0000 0.39228  0.09610  0.29810  Biso   1.000  C
  C142     1.0000 0.39618  0.08059  0.31951  Biso   1.000  C
  H220     1.0000 0.40767  0.14259  0.37381  Biso   1.000  H
  H221     1.0000 0.57098  0.31050  0.52051  Biso   1.000  H
  H222     1.0000 0.70297  0.24471  0.07570  Biso   1.000  H
  H223     1.0000 0.77819  0.25460  0.10121  Biso   1.000  H
  H224     1.0000 0.73560  0.30311  0.07721  Biso   1.000  H
  H225     1.0000 0.73749  0.24518  0.08831  Biso   1.000  H
  H226     1.0000 0.73960  0.30338  0.06460  Biso   1.000  H
  H227     1.0000 0.67788  0.26330  0.04929  Biso   1.000  H
  H228     1.0000 0.78362  0.43430  0.59651  Biso   1.000  H
  H229     1.0000 0.04560  0.50239  0.71318  Biso   1.000  H
  H230     1.0000 0.06658  0.56012  0.69298  Biso   1.000  H
  C143     1.0000 0.15787  0.51339  0.71108  Biso   1.000  C
  H231     1.0000 0.05767  0.56051  0.67718  Biso   1.000  H
  C144     1.0000 0.16899  0.56301  0.68098  Biso   1.000  C
  H232     1.0000 0.09030  0.50868  0.70310  Biso   1.000  H
  H233     1.0000 0.16188  0.47391  0.25408  Biso   1.000  H
  H234     1.0000 0.19061  0.46671  0.31029  Biso   1.000  H
  H235     1.0000 0.16968  0.52431  0.29020  Biso   1.000  H
  H236     1.0000 0.17037  0.41879  0.28591  Biso   1.000  H
  H237     1.0000 0.17400  0.41041  0.34559  Biso   1.000  H
  H238     1.0000 0.20711  0.46251  0.32079  Biso   1.000  H
  C145     1.0000 0.50472  0.34069  0.60339  Biso   1.000  C
  H239     1.0000 0.01228  0.29068  0.47660  Biso   1.000  H
  H240     1.0000 0.94592  0.32479  0.45831  Biso   1.000  H
  H241     1.0000 0.97612  0.33219  0.51411  Biso   1.000  H
  H242     1.0000 0.96879  0.33060  0.46659  Biso   1.000  H
  H243     1.0000 0.98582  0.30560  0.52058  Biso   1.000  H
  H244     1.0000 0.01471  0.27771  0.47069  Biso   1.000  H
  C146     1.0000 0.68431  0.39209  0.65088  Biso   1.000  C
  H245     1.0000 0.70297  0.75529  0.92430  Biso   1.000  H
  H246     1.0000 0.77819  0.74540  0.89879  Biso   1.000  H
  H247     1.0000 0.73560  0.69689  0.92279  Biso   1.000  H
  H248     1.0000 0.73749  0.75482  0.91169  Biso   1.000  H
  H249     1.0000 0.73960  0.69662  0.93540  Biso   1.000  H
  H250     1.0000 0.67788  0.73670  0.95071  Biso   1.000  H
  H251     1.0000 0.34669  0.10192  0.28170  Biso   1.000  H
  H252     1.0000 0.38680  0.07031  0.32531  Biso   1.000  H
  H253     1.0000 0.42607  0.08261  0.27331  Biso   1.000  H
  H254     1.0000 0.42781  0.06239  0.29588  Biso   1.000  H
  H255     1.0000 0.35818  0.09788  0.30059  Biso   1.000  H
  H256     1.0000 0.37610  0.05492  0.34299  Biso   1.000  H
  H257     1.0000 0.16188  0.52609  0.74588  Biso   1.000  H
  H258     1.0000 0.19061  0.53329  0.68971  Biso   1.000  H
  H259     1.0000 0.16968  0.47569  0.70980  Biso   1.000  H
  H260     1.0000 0.17037  0.58121  0.71409  Biso   1.000  H
  H261     1.0000 0.17400  0.58959  0.65441  Biso   1.000  H
  H262     1.0000 0.20711  0.53749  0.67921  Biso   1.000  H
  N11      1.0000 0.55411  0.31039  0.61803  Biso   1.000  N
  H263     1.0000 0.47657  0.35771  0.62819  Biso   1.000  H
  N12      1.0000 0.63629  0.37618  0.67910  Biso   1.000  N
  H264     1.0000 0.71388  0.36661  0.63549  Biso   1.000  H
  C147     1.0000 0.56080  0.29939  0.67138  Biso   1.000  C
  C148     1.0000 0.63138  0.31992  0.69001  Biso   1.000  C
  H265     1.0000 0.52169  0.31719  0.69019  Biso   1.000  H
  C149     1.0000 0.55580  0.23881  0.67849  Biso   1.000  C
  C150     1.0000 0.54199  0.24111  0.68199  Biso   1.000  C
  H266     1.0000 0.52401  0.32119  0.68858  Biso   1.000  H
  H267     1.0000 0.66807  0.30220  0.66879  Biso   1.000  H
  C151     1.0000 0.64910  0.30651  0.74449  Biso   1.000  C
  C152     1.0000 0.63597  0.31652  0.74690  Biso   1.000  C
  H268     1.0000 0.67108  0.30010  0.67390  Biso   1.000  H
  H269     1.0000 0.59238  0.22129  0.65791  Biso   1.000  H
  H270     1.0000 0.56470  0.22991  0.71420  Biso   1.000  H
  C153     1.0000 0.48268  0.21808  0.66299  Biso   1.000  C
  C154     1.0000 0.46698  0.22500  0.66600  Biso   1.000  C
  H271     1.0000 0.57567  0.21832  0.66359  Biso   1.000  H
  H272     1.0000 0.54741  0.23418  0.71811  Biso   1.000  H
  H273     1.0000 0.64857  0.26750  0.74840  Biso   1.000  H
  H274     1.0000 0.61178  0.32119  0.76639  Biso   1.000  H
  C155     1.0000 0.72268  0.32799  0.76300  Biso   1.000  C
  C156     1.0000 0.70998  0.33630  0.76458  Biso   1.000  C
  H275     1.0000 0.62880  0.27949  0.75788  Biso   1.000  H
  H276     1.0000 0.59860  0.33860  0.76228  Biso   1.000  H
  H277     1.0000 0.44610  0.23660  0.68290  Biso   1.000  H
  H278     1.0000 0.47451  0.22631  0.62710  Biso   1.000  H
  C157     1.0000 0.47499  0.15810  0.67108  Biso   1.000  C
  C158     1.0000 0.44747  0.16752  0.68049  Biso   1.000  C
  H279     1.0000 0.46281  0.22920  0.62951  Biso   1.000  H
  H280     1.0000 0.43340  0.24942  0.68241  Biso   1.000  H
  H281     1.0000 0.73069  0.36471  0.75130  Biso   1.000  H
  H282     1.0000 0.76169  0.30528  0.75081  Biso   1.000  H
  C159     1.0000 0.71678  0.32570  0.82418  Biso   1.000  C
  C160     1.0000 0.74408  0.31759  0.81428  Biso   1.000  C
  H283     1.0000 0.74350  0.32772  0.73738  Biso   1.000  H
  H284     1.0000 0.70718  0.37539  0.76631  Biso   1.000  H
  H285     1.0000 0.48648  0.14991  0.70649  Biso   1.000  H
  H286     1.0000 0.50999  0.13970  0.64960  Biso   1.000  H
  C161     1.0000 0.40172  0.13618  0.65919  Biso   1.000  C
  H287     1.0000 0.45659  0.16269  0.71691  Biso   1.000  H
  C162     1.0000 0.37099  0.15058  0.66969  Biso   1.000  C
  H288     1.0000 0.47947  0.14330  0.66220  Biso   1.000  H
  H289     1.0000 0.67719  0.34781  0.83618  Biso   1.000  H
  H290     1.0000 0.70929  0.28890  0.83580  Biso   1.000  H
  C163     1.0000 0.78588  0.34671  0.84318  Biso   1.000  C
  C164     1.0000 0.72068  0.34508  0.85838  Biso   1.000  C
  H291     1.0000 0.73407  0.27941  0.81868  Biso   1.000  H
  H292     1.0000 0.79579  0.32170  0.81139  Biso   1.000  H
  H293     1.0000 0.38838  0.14671  0.62458  Biso   1.000  H
  H294     1.0000 0.40351  0.09701  0.66028  Biso   1.000  H
  C165     1.0000 0.34458  0.15569  0.69629  Biso   1.000  C
  C166     1.0000 0.36398  0.09642  0.70081  Biso   1.000  C
  H295     1.0000 0.36382  0.14469  0.63331  Biso   1.000  H
  H296     1.0000 0.33730  0.17749  0.68180  Biso   1.000  H
  H297     1.0000 0.79637  0.33250  0.87708  Biso   1.000  H
  H298     1.0000 0.82479  0.33689  0.82019  Biso   1.000  H
  C167     1.0000 0.77708  0.40570  0.84510  Biso   1.000  C
  C168     1.0000 0.78920  0.34362  0.89649  Biso   1.000  C
  H299     1.0000 0.67967  0.32700  0.87369  Biso   1.000  H
  H300     1.0000 0.70750  0.38200  0.85018  Biso   1.000  H
  H301     1.0000 0.29877  0.14121  0.68651  Biso   1.000  H
  H302     1.0000 0.34258  0.19450  0.69550  Biso   1.000  H
  H303     1.0000 0.35639  0.14390  0.73038  Biso   1.000  H
  H304     1.0000 0.31538  0.08372  0.69889  Biso   1.000  H
  H305     1.0000 0.37668  0.10271  0.73610  Biso   1.000  H
  H306     1.0000 0.39581  0.06979  0.68651  Biso   1.000  H
  H307     1.0000 0.82078  0.42200  0.85729  Biso   1.000  H
  H308     1.0000 0.73839  0.41472  0.86790  Biso   1.000  H
  H309     1.0000 0.76638  0.41899  0.81131  Biso   1.000  H
  H310     1.0000 0.77560  0.35778  0.92938  Biso   1.000  H
  H311     1.0000 0.82732  0.36518  0.88231  Biso   1.000  H
  H312     1.0000 0.80539  0.30698  0.90041  Biso   1.000  H
  C169     1.0000 0.48268  0.78192  0.33701  Biso   1.000  C
  C170     1.0000 0.55580  0.76119  0.32151  Biso   1.000  C
  C171     1.0000 0.54199  0.75889  0.31801  Biso   1.000  C
  H313     1.0000 0.44610  0.76340  0.31710  Biso   1.000  H
  H314     1.0000 0.47451  0.77369  0.37290  Biso   1.000  H
  C172     1.0000 0.47499  0.84190  0.32888  Biso   1.000  C
  C173     1.0000 0.44747  0.83252  0.31951  Biso   1.000  C
  H315     1.0000 0.46281  0.77080  0.37049  Biso   1.000  H
  C174     1.0000 0.56080  0.70061  0.32858  Biso   1.000  C
  H316     1.0000 0.59238  0.77871  0.34209  Biso   1.000  H
  H317     1.0000 0.56470  0.77009  0.28580  Biso   1.000  H
  C175     1.0000 0.46698  0.77500  0.33400  Biso   1.000  C
  H318     1.0000 0.57567  0.78172  0.33641  Biso   1.000  H
  H319     1.0000 0.54741  0.76582  0.28189  Biso   1.000  H
  H320     1.0000 0.48648  0.85009  0.29351  Biso   1.000  H
  H321     1.0000 0.50999  0.86030  0.35040  Biso   1.000  H
  C176     1.0000 0.40172  0.86382  0.34081  Biso   1.000  C
  H322     1.0000 0.45659  0.83731  0.28309  Biso   1.000  H
  C177     1.0000 0.37099  0.84942  0.33031  Biso   1.000  C
  H323     1.0000 0.47947  0.85670  0.33780  Biso   1.000  H
  C178     1.0000 0.63138  0.68012  0.30999  Biso   1.000  C
  N13      1.0000 0.55411  0.68961  0.38197  Biso   1.000  N
  H324     1.0000 0.52169  0.68281  0.30981  Biso   1.000  H
  H325     1.0000 0.52401  0.67881  0.31139  Biso   1.000  H
  H326     1.0000 0.43340  0.75058  0.31759  Biso   1.000  H
  H327     1.0000 0.38838  0.85329  0.37539  Biso   1.000  H
  H328     1.0000 0.40351  0.90299  0.33968  Biso   1.000  H
  C179     1.0000 0.34458  0.84431  0.30371  Biso   1.000  C
  C180     1.0000 0.36398  0.90362  0.29919  Biso   1.000  C
  H329     1.0000 0.36382  0.85531  0.36669  Biso   1.000  H
  H330     1.0000 0.33730  0.82251  0.31820  Biso   1.000  H
  N14      1.0000 0.63629  0.62382  0.32090  Biso   1.000  N
  H331     1.0000 0.66807  0.69780  0.33121  Biso   1.000  H
  C181     1.0000 0.64910  0.69349  0.25551  Biso   1.000  C
  C182     1.0000 0.63597  0.68352  0.25310  Biso   1.000  C
  H332     1.0000 0.67108  0.69990  0.32610  Biso   1.000  H
  C183     1.0000 0.50472  0.65931  0.39661  Biso   1.000  C
  H333     1.0000 0.29877  0.85879  0.31349  Biso   1.000  H
  H334     1.0000 0.34258  0.80550  0.30450  Biso   1.000  H
  H335     1.0000 0.35639  0.85610  0.26958  Biso   1.000  H
  H336     1.0000 0.31538  0.91632  0.30111  Biso   1.000  H
  H337     1.0000 0.37668  0.89729  0.26390  Biso   1.000  H
  H338     1.0000 0.39581  0.93021  0.31349  Biso   1.000  H
  C184     1.0000 0.68431  0.60791  0.34909  Biso   1.000  C
  H339     1.0000 0.64857  0.73250  0.25160  Biso   1.000  H
  H340     1.0000 0.61178  0.67881  0.23361  Biso   1.000  H
  C185     1.0000 0.72268  0.67201  0.23700  Biso   1.000  C
  C186     1.0000 0.70998  0.66370  0.23538  Biso   1.000  C
  H341     1.0000 0.62880  0.72051  0.24208  Biso   1.000  H
  H342     1.0000 0.59860  0.66140  0.23772  Biso   1.000  H
  C187     1.0000 0.48890  0.64910  0.44928  Biso   1.000  C
  H343     1.0000 0.47657  0.64229  0.37181  Biso   1.000  H
  C188     1.0000 0.69791  0.55039  0.35988  Biso   1.000  C
  H344     1.0000 0.71388  0.63339  0.36451  Biso   1.000  H
  H345     1.0000 0.73069  0.63529  0.24870  Biso   1.000  H
  H346     1.0000 0.76169  0.69472  0.24919  Biso   1.000  H
  C189     1.0000 0.71678  0.67430  0.17578  Biso   1.000  C
  C190     1.0000 0.74408  0.68241  0.18568  Biso   1.000  C
  H347     1.0000 0.74350  0.67228  0.26259  Biso   1.000  H
  H348     1.0000 0.70718  0.62461  0.23369  Biso   1.000  H
  C191     1.0000 0.43108  0.61749  0.46249  Biso   1.000  C
  C192     1.0000 0.53049  0.66920  0.48770  Biso   1.000  C
  C193     1.0000 0.65721  0.51039  0.34070  Biso   1.000  C
  C194     1.0000 0.75547  0.53812  0.38991  Biso   1.000  C
  H349     1.0000 0.67719  0.65219  0.16378  Biso   1.000  H
  H350     1.0000 0.70929  0.71110  0.16420  Biso   1.000  H
  C195     1.0000 0.78588  0.65329  0.15678  Biso   1.000  C
  C196     1.0000 0.72068  0.65492  0.14158  Biso   1.000  C
  H351     1.0000 0.73407  0.72059  0.18132  Biso   1.000  H
  H352     1.0000 0.79579  0.67830  0.18861  Biso   1.000  H
  C197     1.0000 0.41537  0.60752  0.51181  Biso   1.000  C
  H353     1.0000 0.40240  0.60281  0.43679  Biso   1.000  H
  C198     1.0000 0.51442  0.66042  0.53800  Biso   1.000  C
  H354     1.0000 0.57098  0.68950  0.47949  Biso   1.000  H
  C199     1.0000 0.67308  0.45899  0.34799  Biso   1.000  C
  H355     1.0000 0.61647  0.51921  0.32169  Biso   1.000  H
  C200     1.0000 0.77239  0.48562  0.40029  Biso   1.000  C
  H356     1.0000 0.78362  0.56570  0.40349  Biso   1.000  H
  H357     1.0000 0.79637  0.66750  0.12288  Biso   1.000  H
  H358     1.0000 0.82479  0.66311  0.17981  Biso   1.000  H
  C201     1.0000 0.77708  0.59430  0.15490  Biso   1.000  C
  C202     1.0000 0.78920  0.65642  0.10351  Biso   1.000  C
  H359     1.0000 0.67967  0.67300  0.12631  Biso   1.000  H
  H360     1.0000 0.70750  0.61800  0.14979  Biso   1.000  H
  C203     1.0000 0.35328  0.57480  0.52589  Biso   1.000  C
  C204     1.0000 0.45738  0.62912  0.54929  Biso   1.000  C
  C205     1.0000 0.55859  0.68621  0.57758  Biso   1.000  C
  C206     1.0000 0.63318  0.41591  0.32320  Biso   1.000  C
  C207     1.0000 0.73170  0.44629  0.37949  Biso   1.000  C
  C208     1.0000 0.83501  0.47169  0.43028  Biso   1.000  C
  H361     1.0000 0.82078  0.57800  0.14271  Biso   1.000  H
  H362     1.0000 0.73839  0.58532  0.13210  Biso   1.000  H
  H363     1.0000 0.76638  0.58101  0.18869  Biso   1.000  H
  H364     1.0000 0.77560  0.64222  0.07058  Biso   1.000  H
  H365     1.0000 0.82732  0.63482  0.11769  Biso   1.000  H
  H366     1.0000 0.80539  0.69302  0.09959  Biso   1.000  H
  N15      1.0000 0.31337  0.55711  0.49421  Biso   1.000  N
  H367     1.0000 0.34447  0.56760  0.56050  Biso   1.000  H
  H368     1.0000 0.44658  0.62200  0.58349  Biso   1.000  H
  N16      1.0000 0.53998  0.68380  0.62330  Biso   1.000  N
  H369     1.0000 0.60060  0.70441  0.56848  Biso   1.000  H
  N17      1.0000 0.64952  0.36878  0.32651  Biso   1.000  N
  H370     1.0000 0.59290  0.42500  0.30371  Biso   1.000  H
  H371     1.0000 0.74271  0.41021  0.38600  Biso   1.000  H
  N18      1.0000 0.87460  0.50580  0.44811  Biso   1.000  N
  H372     1.0000 0.84518  0.43541  0.43611  Biso   1.000  H
  C209     1.0000 0.24991  0.52661  0.51238  Biso   1.000  C
  C210     1.0000 0.58379  0.71189  0.66028  Biso   1.000  C
  C211     1.0000 0.60698  0.32859  0.30021  Biso   1.000  C
  C212     1.0000 0.93970  0.48942  0.47411  Biso   1.000  C
  C213     1.0000 0.24991  0.47339  0.48758  Biso   1.000  C
  H373     1.0000 0.25012  0.52309  0.54989  Biso   1.000  H
  C214     1.0000 0.18650  0.56138  0.49398  Biso   1.000  C
  C215     1.0000 0.18170  0.55921  0.50041  Biso   1.000  C
  H374     1.0000 0.25360  0.52158  0.54970  Biso   1.000  H
  C216     1.0000 0.60698  0.67141  0.69979  Biso   1.000  C
  H375     1.0000 0.62690  0.72499  0.64271  Biso   1.000  H
  C217     1.0000 0.54177  0.76012  0.67861  Biso   1.000  C
  C218     1.0000 0.53687  0.74809  0.69121  Biso   1.000  C
  H376     1.0000 0.62437  0.73100  0.64459  Biso   1.000  H
  C219     1.0000 0.58379  0.28811  0.33968  Biso   1.000  C
  H377     1.0000 0.56518  0.34508  0.28358  Biso   1.000  H
  C220     1.0000 0.65431  0.30129  0.26138  Biso   1.000  C
  C221     1.0000 0.63692  0.30770  0.25088  Biso   1.000  C
  H378     1.0000 0.56270  0.34742  0.29039  Biso   1.000  H
  C222     1.0000 0.93970  0.51058  0.52589  Biso   1.000  C
  H379     1.0000 0.94059  0.44989  0.47588  Biso   1.000  H
  H380     1.0000 0.93817  0.45001  0.47701  Biso   1.000  H
  C223     1.0000 0.00200  0.50801  0.44059  Biso   1.000  C
  C224     1.0000 0.01002  0.50299  0.45150  Biso   1.000  C
  N19      1.0000 0.31337  0.44289  0.50579  Biso   1.000  N
  H381     1.0000 0.25012  0.47691  0.45011  Biso   1.000  H
  C225     1.0000 0.18650  0.43862  0.50598  Biso   1.000  C
  C226     1.0000 0.18170  0.44079  0.49959  Biso   1.000  C
  H382     1.0000 0.25360  0.47842  0.45030  Biso   1.000  H
  H383     1.0000 0.14248  0.54049  0.49488  Biso   1.000  H
  H384     1.0000 0.19472  0.57282  0.45880  Biso   1.000  H
  C227     1.0000 0.17901  0.61179  0.52920  Biso   1.000  C
  C228     1.0000 0.19082  0.61951  0.50771  Biso   1.000  C
  H385     1.0000 0.16762  0.55228  0.46520  Biso   1.000  H
  H386     1.0000 0.14311  0.54671  0.52250  Biso   1.000  H
  N20      1.0000 0.64952  0.63122  0.67349  Biso   1.000  N
  H387     1.0000 0.56518  0.65492  0.71638  Biso   1.000  H
  C229     1.0000 0.65431  0.69871  0.73858  Biso   1.000  C
  C230     1.0000 0.63692  0.69230  0.74908  Biso   1.000  C
  H388     1.0000 0.56270  0.65262  0.70961  Biso   1.000  H
  H389     1.0000 0.57098  0.78022  0.70280  Biso   1.000  H
  H390     1.0000 0.49939  0.74762  0.69670  Biso   1.000  H
  C231     1.0000 0.51790  0.79889  0.63451  Biso   1.000  C
  C232     1.0000 0.51099  0.79102  0.65520  Biso   1.000  C
  H391     1.0000 0.56381  0.76400  0.71928  Biso   1.000  H
  H392     1.0000 0.49649  0.72811  0.70528  Biso   1.000  H
  N21      1.0000 0.53998  0.31620  0.37670  Biso   1.000  N
  H393     1.0000 0.62690  0.27501  0.35729  Biso   1.000  H
  C233     1.0000 0.54177  0.23988  0.32139  Biso   1.000  C
  C234     1.0000 0.53687  0.25191  0.30879  Biso   1.000  C
  H394     1.0000 0.62437  0.26900  0.35541  Biso   1.000  H
  H395     1.0000 0.62769  0.27240  0.24490  Biso   1.000  H
  H396     1.0000 0.69548  0.28550  0.27861  Biso   1.000  H
  C235     1.0000 0.68062  0.34192  0.22018  Biso   1.000  C
  H397     1.0000 0.68120  0.28859  0.25841  Biso   1.000  H
  H398     1.0000 0.60318  0.28150  0.23711  Biso   1.000  H
  C236     1.0000 0.65200  0.34868  0.20980  Biso   1.000  C
  N22      1.0000 0.87460  0.49420  0.55189  Biso   1.000  N
  H399     1.0000 0.94059  0.55011  0.52408  Biso   1.000  H
  H400     1.0000 0.93817  0.54999  0.52299  Biso   1.000  H
  C237     1.0000 0.00200  0.49199  0.55941  Biso   1.000  C
  C238     1.0000 0.01002  0.49701  0.54850  Biso   1.000  C
  H401     1.0000 0.99910  0.54698  0.43709  Biso   1.000  H
  H402     1.0000 0.04649  0.49990  0.45831  Biso   1.000  H
  C239     1.0000 0.00601  0.48439  0.38848  Biso   1.000  C
  C240     1.0000 0.01998  0.47901  0.39980  Biso   1.000  C
  H403     1.0000 0.01381  0.54239  0.44849  Biso   1.000  H
  H404     1.0000 0.04807  0.49132  0.47430  Biso   1.000  H
  C241     1.0000 0.35328  0.42520  0.47411  Biso   1.000  C
  H405     1.0000 0.14248  0.45951  0.50508  Biso   1.000  H
  H406     1.0000 0.19472  0.42722  0.54120  Biso   1.000  H
  C242     1.0000 0.17901  0.38821  0.47080  Biso   1.000  C
  C243     1.0000 0.19082  0.38049  0.49229  Biso   1.000  C
  H407     1.0000 0.16762  0.44772  0.53480  Biso   1.000  H
  H408     1.0000 0.14311  0.45329  0.47750  Biso   1.000  H
  H409     1.0000 0.21670  0.63802  0.52261  Biso   1.000  H
  H410     1.0000 0.17970  0.60190  0.56528  Biso   1.000  H
  C244     1.0000 0.10168  0.63410  0.51208  Biso   1.000  C
  H411     1.0000 0.19308  0.62710  0.54421  Biso   1.000  H
  C245     1.0000 0.13020  0.65409  0.48378  Biso   1.000  C
  H412     1.0000 0.23631  0.63031  0.49270  Biso   1.000  H
  C246     1.0000 0.63318  0.58409  0.67680  Biso   1.000  C
  H413     1.0000 0.62769  0.72760  0.75510  Biso   1.000  H
  H414     1.0000 0.69548  0.71450  0.72139  Biso   1.000  H
  C247     1.0000 0.68062  0.65812  0.77978  Biso   1.000  C
  H415     1.0000 0.68120  0.71141  0.74159  Biso   1.000  H
  H416     1.0000 0.60318  0.71850  0.76289  Biso   1.000  H
  C248     1.0000 0.65200  0.65132  0.79020  Biso   1.000  C
  H417     1.0000 0.55838  0.80491  0.61178  Biso   1.000  H
  H418     1.0000 0.48031  0.78140  0.61468  Biso   1.000  H
  C249     1.0000 0.48922  0.85500  0.65389  Biso   1.000  C
  H419     1.0000 0.47868  0.77492  0.63018  Biso   1.000  H
  H420     1.0000 0.55179  0.80570  0.63669  Biso   1.000  H
  C250     1.0000 0.47119  0.83759  0.68361  Biso   1.000  C
  C251     1.0000 0.55859  0.31379  0.42238  Biso   1.000  C
  H421     1.0000 0.57098  0.21978  0.29720  Biso   1.000  H
  H422     1.0000 0.49939  0.25238  0.30330  Biso   1.000  H
  C252     1.0000 0.51790  0.20111  0.36549  Biso   1.000  C
  C253     1.0000 0.51099  0.20898  0.34480  Biso   1.000  C
  H423     1.0000 0.56381  0.23600  0.28068  Biso   1.000  H
  H424     1.0000 0.49649  0.27189  0.29468  Biso   1.000  H
  H425     1.0000 0.63998  0.35391  0.19979  Biso   1.000  H
  H426     1.0000 0.70139  0.37321  0.23689  Biso   1.000  H
  C254     1.0000 0.73739  0.31561  0.18459  Biso   1.000  C
  C255     1.0000 0.69701  0.32590  0.16491  Biso   1.000  C
  H427     1.0000 0.67809  0.37879  0.22500  Biso   1.000  H
  H428     1.0000 0.60708  0.36229  0.19652  Biso   1.000  H
  C256     1.0000 0.83501  0.52831  0.56968  Biso   1.000  C
  H429     1.0000 0.99910  0.45302  0.56291  Biso   1.000  H
  H430     1.0000 0.04649  0.50010  0.54169  Biso   1.000  H
  C257     1.0000 0.00601  0.51561  0.61148  Biso   1.000  C
  C258     1.0000 0.01998  0.52099  0.60020  Biso   1.000  C
  H431     1.0000 0.01381  0.45761  0.55151  Biso   1.000  H
  H432     1.0000 0.04807  0.50868  0.52570  Biso   1.000  H
  H433     1.0000 0.96600  0.49769  0.36820  Biso   1.000  H
  H434     1.0000 0.98150  0.48981  0.37749  Biso   1.000  H
  H435     1.0000 0.00127  0.44550  0.39100  Biso   1.000  H
  C259     1.0000 0.07427  0.49749  0.36180  Biso   1.000  C
  C260     1.0000 0.09298  0.49401  0.37478  Biso   1.000  C
  H436     1.0000 0.01819  0.43960  0.40312  Biso   1.000  H
  C261     1.0000 0.41537  0.39248  0.48819  Biso   1.000  C
  H437     1.0000 0.34447  0.43240  0.43950  Biso   1.000  H
  H438     1.0000 0.21670  0.36202  0.47739  Biso   1.000  H
  H439     1.0000 0.17970  0.39810  0.43468  Biso   1.000  H
  C262     1.0000 0.10168  0.36590  0.48788  Biso   1.000  C
  H440     1.0000 0.19308  0.37290  0.45579  Biso   1.000  H
  C263     1.0000 0.13020  0.34591  0.51618  Biso   1.000  C
  H441     1.0000 0.23631  0.36969  0.50730  Biso   1.000  H
  H442     1.0000 0.10822  0.67221  0.50508  Biso   1.000  H
  H443     1.0000 0.09119  0.61709  0.47938  Biso   1.000  H
  C264     1.0000 0.04001  0.63011  0.54060  Biso   1.000  C
  H444     1.0000 0.08829  0.65662  0.54541  Biso   1.000  H
  H445     1.0000 0.05208  0.61919  0.50598  Biso   1.000  H
  C265     1.0000 0.07069  0.65551  0.51038  Biso   1.000  C
  H446     1.0000 0.14770  0.69072  0.47961  Biso   1.000  H
  H447     1.0000 0.11950  0.64000  0.44988  Biso   1.000  H
  C266     1.0000 0.67308  0.54101  0.65201  Biso   1.000  C
  H448     1.0000 0.59290  0.57500  0.69629  Biso   1.000  H
  H449     1.0000 0.63998  0.64609  0.80021  Biso   1.000  H
  H450     1.0000 0.70139  0.62679  0.76311  Biso   1.000  H
  C267     1.0000 0.73739  0.68439  0.81541  Biso   1.000  C
  C268     1.0000 0.69701  0.67410  0.83509  Biso   1.000  C
  H451     1.0000 0.67809  0.62121  0.77500  Biso   1.000  H
  H452     1.0000 0.60708  0.63771  0.80348  Biso   1.000  H
  H453     1.0000 0.52401  0.87050  0.67748  Biso   1.000  H
  H454     1.0000 0.48448  0.87929  0.62488  Biso   1.000  H
  C269     1.0000 0.42011  0.85021  0.67970  Biso   1.000  C
  C270     1.0000 0.43962  0.87581  0.64990  Biso   1.000  C
  H455     1.0000 0.47710  0.89341  0.63011  Biso   1.000  H
  H456     1.0000 0.42438  0.82421  0.70739  Biso   1.000  H
  H457     1.0000 0.43387  0.82220  0.70521  Biso   1.000  H
  H458     1.0000 0.50509  0.85598  0.70588  Biso   1.000  H
  C271     1.0000 0.51442  0.33958  0.46200  Biso   1.000  C
  H459     1.0000 0.60060  0.29559  0.43148  Biso   1.000  H
  H460     1.0000 0.55838  0.19509  0.38822  Biso   1.000  H
  H461     1.0000 0.48031  0.21860  0.38528  Biso   1.000  H
  C272     1.0000 0.48922  0.14500  0.34611  Biso   1.000  C
  H462     1.0000 0.47868  0.22508  0.36978  Biso   1.000  H
  H463     1.0000 0.55179  0.19430  0.36331  Biso   1.000  H
  C273     1.0000 0.47119  0.16241  0.31639  Biso   1.000  C
  H464     1.0000 0.77139  0.29428  0.20419  Biso   1.000  H
  H465     1.0000 0.76338  0.34279  0.16529  Biso   1.000  H
  C274     1.0000 0.69311  0.28000  0.14911  Biso   1.000  C
  C275     1.0000 0.66101  0.29670  0.12281  Biso   1.000  C
  H466     1.0000 0.72300  0.35589  0.14971  Biso   1.000  H
  H467     1.0000 0.73280  0.30180  0.17940  Biso   1.000  H
  C276     1.0000 0.77239  0.51442  0.59971  Biso   1.000  C
  H468     1.0000 0.84518  0.56459  0.56389  Biso   1.000  H
  H469     1.0000 0.96600  0.50231  0.63180  Biso   1.000  H
  H470     1.0000 0.98150  0.51019  0.62251  Biso   1.000  H
  H471     1.0000 0.00127  0.55450  0.60900  Biso   1.000  H
  C277     1.0000 0.07427  0.50251  0.63820  Biso   1.000  C
  C278     1.0000 0.09298  0.50599  0.62518  Biso   1.000  C
  H472     1.0000 0.01819  0.56040  0.59688  Biso   1.000  H
  H473     1.0000 0.08039  0.53642  0.36169  Biso   1.000  H
  H474     1.0000 0.11391  0.48222  0.38118  Biso   1.000  H
  C279     1.0000 0.07896  0.47790  0.30841  Biso   1.000  C
  C280     1.0000 0.09599  0.46599  0.32470  Biso   1.000  C
  H475     1.0000 0.09557  0.53321  0.36948  Biso   1.000  H
  H476     1.0000 0.13310  0.48360  0.39649  Biso   1.000  H
  C281     1.0000 0.45738  0.37092  0.45071  Biso   1.000  C
  C282     1.0000 0.43108  0.38251  0.53751  Biso   1.000  C
  H477     1.0000 0.10822  0.32779  0.49488  Biso   1.000  H
  H478     1.0000 0.09119  0.38291  0.52058  Biso   1.000  H
  C283     1.0000 0.04001  0.36989  0.45940  Biso   1.000  C
  H479     1.0000 0.08829  0.34338  0.45459  Biso   1.000  H
  H480     1.0000 0.05208  0.38081  0.49398  Biso   1.000  H
  C284     1.0000 0.07069  0.34449  0.48958  Biso   1.000  C
  H481     1.0000 0.14770  0.30932  0.52039  Biso   1.000  H
  H482     1.0000 0.11950  0.36000  0.55008  Biso   1.000  H
  C285     1.0000 0.98872  0.67490  0.52099  Biso   1.000  C
  H483     1.0000 0.05039  0.63521  0.57668  Biso   1.000  H
  H484     1.0000 0.01819  0.59482  0.53601  Biso   1.000  H
  C286     1.0000 0.00411  0.68831  0.51339  Biso   1.000  C
  C287     1.0000 0.65721  0.48961  0.65930  Biso   1.000  C
  C288     1.0000 0.73170  0.55371  0.62051  Biso   1.000  C
  H485     1.0000 0.77139  0.70572  0.79581  Biso   1.000  H
  H486     1.0000 0.76338  0.65721  0.83468  Biso   1.000  H
  C289     1.0000 0.69311  0.72000  0.85089  Biso   1.000  C
  C290     1.0000 0.66101  0.70330  0.87719  Biso   1.000  C
  H487     1.0000 0.72300  0.64411  0.85029  Biso   1.000  H
  H488     1.0000 0.73280  0.69820  0.82060  Biso   1.000  H
  H489     1.0000 0.38490  0.83640  0.65550  Biso   1.000  H
  C291     1.0000 0.39228  0.90390  0.70190  Biso   1.000  C
  C292     1.0000 0.39618  0.91941  0.68049  Biso   1.000  C
  H490     1.0000 0.40767  0.85741  0.62619  Biso   1.000  H
  C293     1.0000 0.53049  0.33080  0.51230  Biso   1.000  C
  H491     1.0000 0.52401  0.12950  0.32248  Biso   1.000  H
  H492     1.0000 0.48448  0.12071  0.37508  Biso   1.000  H
  C294     1.0000 0.42011  0.14979  0.32030  Biso   1.000  C
  C295     1.0000 0.43962  0.12419  0.35010  Biso   1.000  C
  H493     1.0000 0.47710  0.10659  0.36989  Biso   1.000  H
  H494     1.0000 0.42438  0.17579  0.29261  Biso   1.000  H
  H495     1.0000 0.43387  0.17780  0.29479  Biso   1.000  H
  H496     1.0000 0.50509  0.14402  0.29412  Biso   1.000  H
  H497     1.0000 0.68441  0.24562  0.16581  Biso   1.000  H
  H498     1.0000 0.64678  0.29701  0.14309  Biso   1.000  H
  C296     1.0000 0.73101  0.26959  0.09549  Biso   1.000  C
  H499     1.0000 0.63629  0.26611  0.13771  Biso   1.000  H
  C297     1.0000 0.70898  0.27501  0.07672  Biso   1.000  C
  H500     1.0000 0.62490  0.32051  0.10851  Biso   1.000  H
  C298     1.0000 0.75547  0.46192  0.61009  Biso   1.000  C
  H501     1.0000 0.08039  0.46362  0.63831  Biso   1.000  H
  H502     1.0000 0.11391  0.51778  0.61878  Biso   1.000  H
  C299     1.0000 0.07896  0.52210  0.69159  Biso   1.000  C
  C300     1.0000 0.09599  0.53401  0.67530  Biso   1.000  C
  H503     1.0000 0.09557  0.46679  0.63048  Biso   1.000  H
  H504     1.0000 0.13310  0.51640  0.60351  Biso   1.000  H
  H505     1.0000 0.04560  0.49761  0.28682  Biso   1.000  H
  H506     1.0000 0.06658  0.43992  0.30698  Biso   1.000  H
  C301     1.0000 0.15787  0.48661  0.28889  Biso   1.000  C
  H507     1.0000 0.05767  0.43949  0.32279  Biso   1.000  H
  C302     1.0000 0.16899  0.43699  0.31899  Biso   1.000  C
  H508     1.0000 0.09030  0.49132  0.29690  Biso   1.000  H
  H509     1.0000 0.44658  0.37800  0.41651  Biso   1.000  H
  C303     1.0000 0.48890  0.35090  0.55068  Biso   1.000  C
  H510     1.0000 0.40240  0.39719  0.56321  Biso   1.000  H
  C304     1.0000 0.98872  0.32510  0.47901  Biso   1.000  C
  H511     1.0000 0.05039  0.36479  0.42328  Biso   1.000  H
  H512     1.0000 0.01819  0.40518  0.46399  Biso   1.000  H
  C305     1.0000 0.00411  0.31169  0.48661  Biso   1.000  C
  H513     1.0000 0.94592  0.67521  0.54169  Biso   1.000  H
  H514     1.0000 0.97612  0.66781  0.48589  Biso   1.000  H
  H515     1.0000 0.96879  0.66940  0.53341  Biso   1.000  H
  H516     1.0000 0.98582  0.69440  0.47938  Biso   1.000  H
  H517     1.0000 0.01228  0.70932  0.52340  Biso   1.000  H
  H518     1.0000 0.01471  0.72229  0.52931  Biso   1.000  H
  C306     1.0000 0.69791  0.44961  0.64008  Biso   1.000  C
  H519     1.0000 0.61647  0.48079  0.67831  Biso   1.000  H
  H520     1.0000 0.74271  0.58979  0.61400  Biso   1.000  H
  H521     1.0000 0.68441  0.75442  0.83419  Biso   1.000  H
  H522     1.0000 0.64678  0.70299  0.85691  Biso   1.000  H
  C307     1.0000 0.73101  0.73041  0.90451  Biso   1.000  C
  H523     1.0000 0.63629  0.73389  0.86229  Biso   1.000  H
  C308     1.0000 0.70898  0.72499  0.92328  Biso   1.000  C
  H524     1.0000 0.62490  0.67949  0.89149  Biso   1.000  H
  H525     1.0000 0.34669  0.89812  0.71830  Biso   1.000  H
  H526     1.0000 0.38680  0.92969  0.67469  Biso   1.000  H
  H527     1.0000 0.42607  0.91739  0.72669  Biso   1.000  H
  H528     1.0000 0.42781  0.93761  0.70408  Biso   1.000  H
  H529     1.0000 0.35818  0.90212  0.69941  Biso   1.000  H
  H530     1.0000 0.37610  0.94508  0.65701  Biso   1.000  H
  H531     1.0000 0.57098  0.31050  0.52051  Biso   1.000  H
  H532     1.0000 0.38490  0.16360  0.34450  Biso   1.000  H
  C309     1.0000 0.39228  0.09610  0.29810  Biso   1.000  C
  C310     1.0000 0.39618  0.08059  0.31951  Biso   1.000  C
  H533     1.0000 0.40767  0.14259  0.37381  Biso   1.000  H
  H534     1.0000 0.70297  0.24471  0.07570  Biso   1.000  H
  H535     1.0000 0.77819  0.25460  0.10121  Biso   1.000  H
  H536     1.0000 0.73560  0.30311  0.07721  Biso   1.000  H
  H537     1.0000 0.73749  0.24518  0.08831  Biso   1.000  H
  H538     1.0000 0.73960  0.30338  0.06460  Biso   1.000  H
  H539     1.0000 0.67788  0.26330  0.04929  Biso   1.000  H
  H540     1.0000 0.78362  0.43430  0.59651  Biso   1.000  H
  H541     1.0000 0.04560  0.50239  0.71318  Biso   1.000  H
  H542     1.0000 0.06658  0.56012  0.69298  Biso   1.000  H
  C311     1.0000 0.15787  0.51339  0.71108  Biso   1.000  C
  H543     1.0000 0.05767  0.56051  0.67718  Biso   1.000  H
  C312     1.0000 0.16899  0.56301  0.68098  Biso   1.000  C
  H544     1.0000 0.09030  0.50868  0.70310  Biso   1.000  H
  H545     1.0000 0.16188  0.47391  0.25408  Biso   1.000  H
  H546     1.0000 0.19061  0.46671  0.31029  Biso   1.000  H
  H547     1.0000 0.16968  0.52431  0.29020  Biso   1.000  H
  H548     1.0000 0.17037  0.41879  0.28591  Biso   1.000  H
  H549     1.0000 0.17400  0.41041  0.34559  Biso   1.000  H
  H550     1.0000 0.20711  0.46251  0.32079  Biso   1.000  H
  C313     1.0000 0.50472  0.34069  0.60339  Biso   1.000  C
  H551     1.0000 0.94592  0.32479  0.45831  Biso   1.000  H
  H552     1.0000 0.97612  0.33219  0.51411  Biso   1.000  H
  H553     1.0000 0.96879  0.33060  0.46659  Biso   1.000  H
  H554     1.0000 0.98582  0.30560  0.52058  Biso   1.000  H
  H555     1.0000 0.01228  0.29068  0.47660  Biso   1.000  H
  H556     1.0000 0.01471  0.27771  0.47069  Biso   1.000  H
  C314     1.0000 0.68431  0.39209  0.65088  Biso   1.000  C
  H557     1.0000 0.70297  0.75529  0.92430  Biso   1.000  H
  H558     1.0000 0.77819  0.74540  0.89879  Biso   1.000  H
  H559     1.0000 0.73560  0.69689  0.92279  Biso   1.000  H
  H560     1.0000 0.73749  0.75482  0.91169  Biso   1.000  H
  H561     1.0000 0.73960  0.69662  0.93540  Biso   1.000  H
  H562     1.0000 0.67788  0.73670  0.95071  Biso   1.000  H
  H563     1.0000 0.34669  0.10192  0.28170  Biso   1.000  H
  H564     1.0000 0.38680  0.07031  0.32531  Biso   1.000  H
  H565     1.0000 0.42607  0.08261  0.27331  Biso   1.000  H
  H566     1.0000 0.42781  0.06239  0.29588  Biso   1.000  H
  H567     1.0000 0.35818  0.09788  0.30059  Biso   1.000  H
  H568     1.0000 0.37610  0.05492  0.34299  Biso   1.000  H
  H569     1.0000 0.16188  0.52609  0.74588  Biso   1.000  H
  H570     1.0000 0.19061  0.53329  0.68971  Biso   1.000  H
  H571     1.0000 0.16968  0.47569  0.70980  Biso   1.000  H
  H572     1.0000 0.17037  0.58121  0.71409  Biso   1.000  H
  H573     1.0000 0.17400  0.58959  0.65441  Biso   1.000  H
  H574     1.0000 0.20711  0.53749  0.67921  Biso   1.000  H
  N23      1.0000 0.55411  0.31039  0.61803  Biso   1.000  N
  H575     1.0000 0.47657  0.35771  0.62819  Biso   1.000  H
  N24      1.0000 0.63629  0.37618  0.67910  Biso   1.000  N
  H576     1.0000 0.71388  0.36661  0.63549  Biso   1.000  H
  C315     1.0000 0.56080  0.29939  0.67138  Biso   1.000  C
  C316     1.0000 0.63138  0.31992  0.69001  Biso   1.000  C
  H577     1.0000 0.52169  0.31719  0.69019  Biso   1.000  H
  C317     1.0000 0.55580  0.23881  0.67849  Biso   1.000  C
  C318     1.0000 0.54199  0.24111  0.68199  Biso   1.000  C
  H578     1.0000 0.52401  0.32119  0.68858  Biso   1.000  H
  H579     1.0000 0.66807  0.30220  0.66879  Biso   1.000  H
  C319     1.0000 0.64910  0.30651  0.74449  Biso   1.000  C
  C320     1.0000 0.63597  0.31652  0.74690  Biso   1.000  C
  H580     1.0000 0.67108  0.30010  0.67390  Biso   1.000  H
  H581     1.0000 0.59238  0.22129  0.65791  Biso   1.000  H
  H582     1.0000 0.56470  0.22991  0.71420  Biso   1.000  H
  C321     1.0000 0.48268  0.21808  0.66299  Biso   1.000  C
  C322     1.0000 0.46698  0.22500  0.66600  Biso   1.000  C
  H583     1.0000 0.57567  0.21832  0.66359  Biso   1.000  H
  H584     1.0000 0.54741  0.23418  0.71811  Biso   1.000  H
  H585     1.0000 0.64857  0.26750  0.74840  Biso   1.000  H
  H586     1.0000 0.61178  0.32119  0.76639  Biso   1.000  H
  C323     1.0000 0.72268  0.32799  0.76300  Biso   1.000  C
  C324     1.0000 0.70998  0.33630  0.76458  Biso   1.000  C
  H587     1.0000 0.62880  0.27949  0.75788  Biso   1.000  H
  H588     1.0000 0.59860  0.33860  0.76228  Biso   1.000  H
  H589     1.0000 0.44610  0.23660  0.68290  Biso   1.000  H
  H590     1.0000 0.47451  0.22631  0.62710  Biso   1.000  H
  C325     1.0000 0.47499  0.15810  0.67108  Biso   1.000  C
  C326     1.0000 0.44747  0.16752  0.68049  Biso   1.000  C
  H591     1.0000 0.46281  0.22920  0.62951  Biso   1.000  H
  H592     1.0000 0.43340  0.24942  0.68241  Biso   1.000  H
  H593     1.0000 0.73069  0.36471  0.75130  Biso   1.000  H
  H594     1.0000 0.76169  0.30528  0.75081  Biso   1.000  H
  C327     1.0000 0.71678  0.32570  0.82418  Biso   1.000  C
  C328     1.0000 0.74408  0.31759  0.81428  Biso   1.000  C
  H595     1.0000 0.74350  0.32772  0.73738  Biso   1.000  H
  H596     1.0000 0.70718  0.37539  0.76631  Biso   1.000  H
  H597     1.0000 0.48648  0.14991  0.70649  Biso   1.000  H
  H598     1.0000 0.50999  0.13970  0.64960  Biso   1.000  H
  C329     1.0000 0.40172  0.13618  0.65919  Biso   1.000  C
  H599     1.0000 0.45659  0.16269  0.71691  Biso   1.000  H
  C330     1.0000 0.37099  0.15058  0.66969  Biso   1.000  C
  H600     1.0000 0.47947  0.14330  0.66220  Biso   1.000  H
  H601     1.0000 0.67719  0.34781  0.83618  Biso   1.000  H
  H602     1.0000 0.70929  0.28890  0.83580  Biso   1.000  H
  C331     1.0000 0.78588  0.34671  0.84318  Biso   1.000  C
  C332     1.0000 0.72068  0.34508  0.85838  Biso   1.000  C
  H603     1.0000 0.73407  0.27941  0.81868  Biso   1.000  H
  H604     1.0000 0.79579  0.32170  0.81139  Biso   1.000  H
  H605     1.0000 0.38838  0.14671  0.62458  Biso   1.000  H
  H606     1.0000 0.40351  0.09701  0.66028  Biso   1.000  H
  C333     1.0000 0.34458  0.15569  0.69629  Biso   1.000  C
  C334     1.0000 0.36398  0.09642  0.70081  Biso   1.000  C
  H607     1.0000 0.36382  0.14469  0.63331  Biso   1.000  H
  H608     1.0000 0.33730  0.17749  0.68180  Biso   1.000  H
  H609     1.0000 0.79637  0.33250  0.87708  Biso   1.000  H
  H610     1.0000 0.82479  0.33689  0.82019  Biso   1.000  H
  C335     1.0000 0.77708  0.40570  0.84510  Biso   1.000  C
  C336     1.0000 0.78920  0.34362  0.89649  Biso   1.000  C
  H611     1.0000 0.67967  0.32700  0.87369  Biso   1.000  H
  H612     1.0000 0.70750  0.38200  0.85018  Biso   1.000  H
  H613     1.0000 0.29877  0.14121  0.68651  Biso   1.000  H
  H614     1.0000 0.34258  0.19450  0.69550  Biso   1.000  H
  H615     1.0000 0.35639  0.14390  0.73038  Biso   1.000  H
  H616     1.0000 0.31538  0.08372  0.69889  Biso   1.000  H
  H617     1.0000 0.37668  0.10271  0.73610  Biso   1.000  H
  H618     1.0000 0.39581  0.06979  0.68651  Biso   1.000  H
  H619     1.0000 0.82078  0.42200  0.85729  Biso   1.000  H
  H620     1.0000 0.73839  0.41472  0.86790  Biso   1.000  H
  H621     1.0000 0.76638  0.41899  0.81131  Biso   1.000  H
  H622     1.0000 0.77560  0.35778  0.92938  Biso   1.000  H
  H623     1.0000 0.82732  0.36518  0.88231  Biso   1.000  H
  H624     1.0000 0.80539  0.30698  0.90041  Biso   1.000  H
  C337     1.0000 0.76902  0.76961  0.40451  Biso   1.000  C
  C338     1.0000 0.80692  0.77998  0.35089  Biso   1.000  C
  H625     1.0000 0.79701  0.74469  0.42430  Biso   1.000  H
  H626     1.0000 0.72179  0.75458  0.39879  Biso   1.000  H
  H627     1.0000 0.76438  0.80309  0.42279  Biso   1.000  H
  C339     1.0000 0.80692  0.78002  0.35089  Biso   1.000  C
  H628     1.0000 0.72179  0.75462  0.39879  Biso   1.000  H
  C340     1.0000 0.83902  0.79672  0.37719  Biso   1.000  C
  H629     1.0000 0.76248  0.74520  0.41169  Biso   1.000  H
  H630     1.0000 0.76037  0.80340  0.43540  Biso   1.000  H
  C341     1.0000 0.76258  0.81559  0.31541  Biso   1.000  C
  H631     1.0000 0.81561  0.74560  0.33419  Biso   1.000  H
  H632     1.0000 0.85320  0.79699  0.35691  Biso   1.000  H
  C342     1.0000 0.76258  0.81559  0.31537  Biso   1.000  C
  H633     1.0000 0.85320  0.79699  0.35687  Biso   1.000  H
  C343     1.0000 0.80302  0.82591  0.33509  Biso   1.000  C
  H634     1.0000 0.76717  0.80178  0.32060  Biso   1.000  H
  H635     1.0000 0.86369  0.76609  0.36229  Biso   1.000  H
  C344     1.0000 0.79100  0.77500  0.42328  Biso   1.000  C
  H636     1.0000 0.87507  0.82049  0.39149  Biso   1.000  H
  C345     1.0000 0.81941  0.84190  0.27978  Biso   1.000  C
  H637     1.0000 0.72859  0.79430  0.29581  Biso   1.000  H
  H638     1.0000 0.73660  0.84281  0.33471  Biso   1.000  H
  H639     1.0000 0.73660  0.84281  0.33468  Biso   1.000  H
  C346     1.0000 0.84798  0.84870  0.29020  Biso   1.000  C
  H640     1.0000 0.77698  0.85591  0.35029  Biso   1.000  H
  H641     1.0000 0.82210  0.76328  0.45071  Biso   1.000  H
  C347     1.0000 0.84571  0.80131  0.23858  Biso   1.000  C
  H642     1.0000 0.86000  0.85389  0.30021  Biso   1.000  H
  H643     1.0000 0.79859  0.87319  0.26311  Biso   1.000  H
  H644     1.0000 0.86000  0.85389  0.30017  Biso   1.000  H
  H645     1.0000 0.79859  0.87319  0.26307  Biso   1.000  H
  C348     1.0000 0.86311  0.80772  0.24912  Biso   1.000  C
  H646     1.0000 0.82189  0.87881  0.27500  Biso   1.000  H
  H647     1.0000 0.89289  0.86231  0.30348  Biso   1.000  H
  C349     1.0000 0.89299  0.82861  0.19979  Biso   1.000  C
  H648     1.0000 0.87228  0.77238  0.25510  Biso   1.000  H
  H649     1.0000 0.80449  0.78548  0.22139  Biso   1.000  H
  H650     1.0000 0.80449  0.78552  0.22139  Biso   1.000  H
  H651     1.0000 0.81878  0.78861  0.24159  Biso   1.000  H
  H652     1.0000 0.89679  0.78148  0.26289  Biso   1.000  H
  N25      1.0000 0.85051  0.86880  0.17349  Biso   1.000  N
  H653     1.0000 0.93480  0.84510  0.21638  Biso   1.000  H
  C350     1.0000 0.91619  0.78809  0.16028  Biso   1.000  C
  H654     1.0000 0.93727  0.84740  0.20961  Biso   1.000  H
  C351     1.0000 0.86680  0.91589  0.17680  Biso   1.000  C
  N26      1.0000 0.95999  0.81618  0.12330  Biso   1.000  N
  H655     1.0000 0.87307  0.77500  0.14271  Biso   1.000  H
  C352     1.0000 0.95820  0.73990  0.17861  Biso   1.000  C
  H656     1.0000 0.87307  0.77500  0.14267  Biso   1.000  H
  N27      1.0000 0.95999  0.81622  0.12330  Biso   1.000  N
  C353     1.0000 0.96310  0.75189  0.19117  Biso   1.000  C
  H657     1.0000 0.87560  0.76902  0.14459  Biso   1.000  H
  C354     1.0000 0.82689  0.95901  0.15201  Biso   1.000  C
  H658     1.0000 0.90707  0.92499  0.19629  Biso   1.000  H
  C355     1.0000 0.94138  0.81381  0.07758  Biso   1.000  C
  H659     1.0000 0.92900  0.71980  0.20280  Biso   1.000  H
  C356     1.0000 0.98208  0.70109  0.13451  Biso   1.000  C
  C357     1.0000 0.98898  0.70900  0.15520  Biso   1.000  C
  H660     1.0000 0.93617  0.73598  0.21928  Biso   1.000  H
  H661     1.0000 0.00058  0.75240  0.19670  Biso   1.000  H
  H662     1.0000 0.00348  0.77191  0.20528  Biso   1.000  H
  C358     1.0000 0.76828  0.94631  0.12051  Biso   1.000  C
  C359     1.0000 0.76828  0.94631  0.12048  Biso   1.000  C
  C360     1.0000 0.84281  0.01041  0.15930  Biso   1.000  C
  C361     1.0000 0.98561  0.83960  0.03800  Biso   1.000  C
  H663     1.0000 0.89937  0.79561  0.06852  Biso   1.000  H
  H664     1.0000 0.89937  0.79561  0.06848  Biso   1.000  H
  H665     1.0000 0.94160  0.69511  0.11178  Biso   1.000  H
  H666     1.0000 0.94818  0.69432  0.13669  Biso   1.000  H
  H667     1.0000 0.01971  0.71862  0.11468  Biso   1.000  H
  C362     1.0000 0.01081  0.64499  0.15389  Biso   1.000  C
  H668     1.0000 0.02130  0.72510  0.13018  Biso   1.000  H
  C363     1.0000 0.02878  0.66239  0.18357  Biso   1.000  C
  C364     1.0000 0.72758  0.98560  0.09971  Biso   1.000  C
  H669     1.0000 0.75731  0.91019  0.11400  Biso   1.000  H
  C365     1.0000 0.80207  0.05041  0.14012  Biso   1.000  C
  H670     1.0000 0.88351  0.01919  0.17831  Biso   1.000  H
  C366     1.0000 0.80207  0.05041  0.14008  Biso   1.000  C
  C367     1.0000 0.96948  0.83078  0.98770  Biso   1.000  C
  C368     1.0000 0.96948  0.83082  0.98770  Biso   1.000  C
  C369     1.0000 0.04259  0.87090  0.04929  Biso   1.000  C
  H671     1.0000 0.97602  0.62952  0.17752  Biso   1.000  H
  H672     1.0000 0.97602  0.62952  0.17748  Biso   1.000  H
  H673     1.0000 0.01550  0.62069  0.12492  Biso   1.000  H
  C370     1.0000 0.07991  0.64981  0.17970  Biso   1.000  C
  H674     1.0000 0.01550  0.62069  0.12488  Biso   1.000  H
  C371     1.0000 0.06041  0.62421  0.14990  Biso   1.000  C
  H675     1.0000 0.02288  0.60661  0.13011  Biso   1.000  H
  H676     1.0000 0.99489  0.64400  0.20588  Biso   1.000  H
  H677     1.0000 0.07559  0.67581  0.20739  Biso   1.000  H
  H678     1.0000 0.06610  0.67778  0.20521  Biso   1.000  H
  C372     1.0000 0.66502  0.97171  0.06968  Biso   1.000  C
  C373     1.0000 0.74450  0.03810  0.11009  Biso   1.000  C
  C374     1.0000 0.81567  0.10789  0.15091  Biso   1.000  C
  C375     1.0000 0.81567  0.10789  0.15088  Biso   1.000  C
  H679     1.0000 0.92900  0.81048  0.97949  Biso   1.000  H
  C376     1.0000 0.01107  0.85088  0.94932  Biso   1.000  C
  C377     1.0000 0.01107  0.85088  0.94928  Biso   1.000  C
  C378     1.0000 0.01107  0.85092  0.94932  Biso   1.000  C
  C379     1.0000 0.01107  0.85092  0.94928  Biso   1.000  C
  C380     1.0000 0.08460  0.89250  0.01181  Biso   1.000  C
  H680     1.0000 0.05340  0.87798  0.08349  Biso   1.000  H
  C381     1.0000 0.08460  0.89250  0.01178  Biso   1.000  C
  H681     1.0000 0.05340  0.87802  0.08349  Biso   1.000  H
  H682     1.0000 0.11507  0.66358  0.15550  Biso   1.000  H
  C382     1.0000 0.10769  0.59608  0.20190  Biso   1.000  C
  H683     1.0000 0.11507  0.66362  0.15550  Biso   1.000  H
  C383     1.0000 0.10379  0.58061  0.18049  Biso   1.000  C
  H684     1.0000 0.09230  0.64261  0.12619  Biso   1.000  H
  H685     1.0000 0.65479  0.93539  0.06389  Biso   1.000  H
  N28      1.0000 0.62538  0.00582  0.05189  Biso   1.000  N
  H686     1.0000 0.71641  0.06572  0.09651  Biso   1.000  H
  N29      1.0000 0.86369  0.12380  0.17910  Biso   1.000  N
  H687     1.0000 0.78609  0.13341  0.13549  Biso   1.000  H
  C384     1.0000 0.99531  0.84071  0.89661  Biso   1.000  C
  C385     1.0000 0.06889  0.88249  0.96249  Biso   1.000  C
  C386     1.0000 0.14670  0.92518  0.02589  Biso   1.000  C
  C387     1.0000 0.14670  0.92522  0.02589  Biso   1.000  C
  H688     1.0000 0.15329  0.60190  0.21830  Biso   1.000  H
  H689     1.0000 0.11317  0.57029  0.17469  Biso   1.000  H
  H690     1.0000 0.07390  0.58259  0.22669  Biso   1.000  H
  H691     1.0000 0.07216  0.56241  0.20408  Biso   1.000  H
  H692     1.0000 0.14180  0.59790  0.19938  Biso   1.000  H
  H693     1.0000 0.12387  0.55490  0.15701  Biso   1.000  H
  C388     1.0000 0.56028  0.98940  0.02589  Biso   1.000  C
  C389     1.0000 0.86859  0.18010  0.19001  Biso   1.000  C
  N30      1.0000 0.94586  0.81041  0.88197  Biso   1.000  N
  H694     1.0000 0.02340  0.85769  0.87181  Biso   1.000  H
  H695     1.0000 0.09757  0.89721  0.93679  Biso   1.000  H
  N31      1.0000 0.18660  0.94291  0.99421  Biso   1.000  N
  H696     1.0000 0.15550  0.93238  0.06050  Biso   1.000  H
  H697     1.0000 0.15550  0.93242  0.06050  Biso   1.000  H
  H698     1.0000 0.55938  0.94991  0.02412  Biso   1.000  H
  H699     1.0000 0.55938  0.94991  0.02408  Biso   1.000  H
  H700     1.0000 0.56180  0.94999  0.02299  Biso   1.000  H
  C390     1.0000 0.56028  0.01060  0.97411  Biso   1.000  C
  C391     1.0000 0.56028  0.01060  0.97408  Biso   1.000  C
  C392     1.0000 0.49797  0.00799  0.05941  Biso   1.000  C
  C393     1.0000 0.49001  0.00301  0.04850  Biso   1.000  C
  H701     1.0000 0.83190  0.19778  0.16879  Biso   1.000  H
  C394     1.0000 0.85088  0.19351  0.24449  Biso   1.000  C
  C395     1.0000 0.93917  0.20059  0.17138  Biso   1.000  C
  H702     1.0000 0.83190  0.19782  0.16879  Biso   1.000  H
  C396     1.0000 0.86400  0.18350  0.24690  Biso   1.000  C
  H703     1.0000 0.82890  0.19988  0.17390  Biso   1.000  H
  C397     1.0000 0.93917  0.79941  0.82862  Biso   1.000  C
  C398     1.0000 0.93917  0.79941  0.82858  Biso   1.000  C
  C399     1.0000 0.25007  0.97341  0.01242  Biso   1.000  C
  C400     1.0000 0.25007  0.97341  0.01238  Biso   1.000  C
  N32      1.0000 0.62538  0.99418  0.94811  Biso   1.000  N
  C401     1.0000 0.49797  0.99201  0.94059  Biso   1.000  C
  N33      1.0000 0.62538  0.99418  0.94808  Biso   1.000  N
  N34      1.0000 0.62538  0.99422  0.94811  Biso   1.000  N
  N35      1.0000 0.62538  0.99422  0.94808  Biso   1.000  N
  C402     1.0000 0.49001  0.99699  0.95150  Biso   1.000  C
  H704     1.0000 0.55938  0.05009  0.97588  Biso   1.000  H
  H705     1.0000 0.56180  0.05001  0.97701  Biso   1.000  H
  H706     1.0000 0.45348  0.99988  0.04169  Biso   1.000  H
  C403     1.0000 0.49402  0.98441  0.11148  Biso   1.000  C
  H707     1.0000 0.45348  0.99992  0.04169  Biso   1.000  H
  C404     1.0000 0.48000  0.97899  0.10020  Biso   1.000  C
  H708     1.0000 0.50087  0.04700  0.06291  Biso   1.000  H
  H709     1.0000 0.48622  0.04241  0.05151  Biso   1.000  H
  H710     1.0000 0.45190  0.99130  0.02570  Biso   1.000  H
  H711     1.0000 0.85140  0.23248  0.24840  Biso   1.000  H
  H712     1.0000 0.88820  0.17879  0.26639  Biso   1.000  H
  C405     1.0000 0.77729  0.17199  0.26300  Biso   1.000  C
  H713     1.0000 0.85140  0.23252  0.24840  Biso   1.000  H
  C406     1.0000 0.79000  0.16372  0.26458  Biso   1.000  C
  H714     1.0000 0.87117  0.22049  0.25788  Biso   1.000  H
  N36      1.0000 0.94586  0.18959  0.11803  Biso   1.000  N
  H715     1.0000 0.97828  0.18279  0.19019  Biso   1.000  H
  C407     1.0000 0.94418  0.26121  0.17849  Biso   1.000  C
  C408     1.0000 0.95799  0.25891  0.18199  Biso   1.000  C
  H716     1.0000 0.97602  0.17879  0.18861  Biso   1.000  H
  H717     1.0000 0.90138  0.16138  0.26228  Biso   1.000  H
  C409     1.0000 0.86859  0.81990  0.80999  Biso   1.000  C
  H718     1.0000 0.97828  0.81721  0.80981  Biso   1.000  H
  C410     1.0000 0.94418  0.73879  0.82151  Biso   1.000  C
  C411     1.0000 0.95799  0.74109  0.81801  Biso   1.000  C
  H719     1.0000 0.97602  0.82121  0.81139  Biso   1.000  H
  C412     1.0000 0.31348  0.93860  0.99402  Biso   1.000  C
  C413     1.0000 0.31348  0.93860  0.99398  Biso   1.000  C
  H720     1.0000 0.24991  0.97689  0.04989  Biso   1.000  H
  C414     1.0000 0.31828  0.94081  0.00038  Biso   1.000  C
  H721     1.0000 0.24638  0.97840  0.04970  Biso   1.000  H
  C415     1.0000 0.25007  0.02659  0.98758  Biso   1.000  C
  C416     1.0000 0.66502  0.02829  0.93032  Biso   1.000  C
  C417     1.0000 0.66502  0.02829  0.93028  Biso   1.000  C
  H722     1.0000 0.50087  0.95300  0.93709  Biso   1.000  H
  H723     1.0000 0.48622  0.95759  0.94849  Biso   1.000  H
  H724     1.0000 0.45348  0.00012  0.95831  Biso   1.000  H
  C418     1.0000 0.49402  0.01559  0.88852  Biso   1.000  C
  C419     1.0000 0.49402  0.01559  0.88848  Biso   1.000  C
  C420     1.0000 0.48000  0.02101  0.89980  Biso   1.000  C
  H725     1.0000 0.45190  0.00870  0.97430  Biso   1.000  H
  H726     1.0000 0.49871  0.94552  0.10900  Biso   1.000  H
  H727     1.0000 0.53397  0.99771  0.13180  Biso   1.000  H
  C421     1.0000 0.42570  0.99751  0.13820  Biso   1.000  C
  C422     1.0000 0.40699  0.99399  0.12522  Biso   1.000  C
  H728     1.0000 0.51848  0.98979  0.12251  Biso   1.000  H
  H729     1.0000 0.48179  0.93958  0.09688  Biso   1.000  H
  H730     1.0000 0.76928  0.13531  0.25130  Biso   1.000  H
  H731     1.0000 0.73828  0.19470  0.25081  Biso   1.000  H
  C423     1.0000 0.78320  0.17428  0.32422  Biso   1.000  C
  C424     1.0000 0.78320  0.17428  0.32418  Biso   1.000  C
  C425     1.0000 0.78320  0.17432  0.32422  Biso   1.000  C
  C426     1.0000 0.78320  0.17432  0.32418  Biso   1.000  C
  C427     1.0000 0.75589  0.18239  0.31428  Biso   1.000  C
  H732     1.0000 0.75647  0.17230  0.23741  Biso   1.000  H
  H733     1.0000 0.79279  0.12459  0.26631  Biso   1.000  H
  C428     1.0000 0.99531  0.15929  0.10339  Biso   1.000  C
  H734     1.0000 0.90760  0.27869  0.15791  Biso   1.000  H
  H735     1.0000 0.93527  0.27011  0.21420  Biso   1.000  H
  H736     1.0000 0.90760  0.27869  0.15787  Biso   1.000  H
  H737     1.0000 0.92431  0.28170  0.16359  Biso   1.000  H
  H738     1.0000 0.95261  0.26580  0.21811  Biso   1.000  H
  C429     1.0000 0.01729  0.28190  0.16299  Biso   1.000  C
  C430     1.0000 0.03300  0.27501  0.16600  Biso   1.000  C
  N37      1.0000 0.86369  0.87620  0.82090  Biso   1.000  N
  H739     1.0000 0.83190  0.80222  0.83121  Biso   1.000  H
  C431     1.0000 0.85088  0.80649  0.75551  Biso   1.000  C
  H740     1.0000 0.83190  0.80222  0.83118  Biso   1.000  H
  C432     1.0000 0.86400  0.81650  0.75310  Biso   1.000  C
  H741     1.0000 0.82890  0.80012  0.82610  Biso   1.000  H
  H742     1.0000 0.90760  0.72131  0.84209  Biso   1.000  H
  H743     1.0000 0.93527  0.72989  0.78580  Biso   1.000  H
  H744     1.0000 0.92431  0.71830  0.83641  Biso   1.000  H
  H745     1.0000 0.95261  0.73420  0.78189  Biso   1.000  H
  C433     1.0000 0.01729  0.71810  0.83701  Biso   1.000  C
  C434     1.0000 0.03300  0.72499  0.83400  Biso   1.000  C
  H746     1.0000 0.35749  0.95949  0.99488  Biso   1.000  H
  H747     1.0000 0.30531  0.92720  0.95880  Biso   1.000  H
  H748     1.0000 0.33240  0.94770  0.96520  Biso   1.000  H
  C435     1.0000 0.32096  0.88819  0.02920  Biso   1.000  C
  C436     1.0000 0.30921  0.88051  0.00768  Biso   1.000  C
  H749     1.0000 0.35686  0.95331  0.02250  Biso   1.000  H
  H750     1.0000 0.24991  0.02311  0.95011  Biso   1.000  H
  C437     1.0000 0.31828  0.05919  0.99959  Biso   1.000  C
  H751     1.0000 0.24638  0.02160  0.95030  Biso   1.000  H
  N38      1.0000 0.18660  0.05709  0.00579  Biso   1.000  N
  C438     1.0000 0.31348  0.06140  0.00598  Biso   1.000  C
  C439     1.0000 0.72758  0.01440  0.90029  Biso   1.000  C
  H752     1.0000 0.65479  0.06461  0.93611  Biso   1.000  H
  H753     1.0000 0.65479  0.06461  0.93607  Biso   1.000  H
  H754     1.0000 0.49871  0.05448  0.89100  Biso   1.000  H
  H755     1.0000 0.53397  0.00229  0.86820  Biso   1.000  H
  C440     1.0000 0.42570  0.00249  0.86180  Biso   1.000  C
  H756     1.0000 0.49871  0.05452  0.89100  Biso   1.000  H
  C441     1.0000 0.40699  0.00601  0.87478  Biso   1.000  C
  H757     1.0000 0.51848  0.01021  0.87749  Biso   1.000  H
  H758     1.0000 0.48179  0.06042  0.90308  Biso   1.000  H
  H759     1.0000 0.38612  0.98220  0.11878  Biso   1.000  H
  C442     1.0000 0.42101  0.97788  0.19159  Biso   1.000  C
  C443     1.0000 0.42101  0.97792  0.19159  Biso   1.000  C
  C444     1.0000 0.40399  0.96601  0.17530  Biso   1.000  C
  H760     1.0000 0.41959  0.03640  0.13831  Biso   1.000  H
  H761     1.0000 0.40441  0.03319  0.13048  Biso   1.000  H
  H762     1.0000 0.36688  0.98358  0.10351  Biso   1.000  H
  H763     1.0000 0.82278  0.15221  0.33618  Biso   1.000  H
  H764     1.0000 0.79068  0.21112  0.33580  Biso   1.000  H
  C445     1.0000 0.71409  0.15331  0.34322  Biso   1.000  C
  C446     1.0000 0.71409  0.15331  0.34318  Biso   1.000  C
  C447     1.0000 0.77929  0.15490  0.35838  Biso   1.000  C
  H765     1.0000 0.76591  0.22061  0.31868  Biso   1.000  H
  H766     1.0000 0.70418  0.17832  0.31139  Biso   1.000  H
  C448     1.0000 0.01107  0.14912  0.05068  Biso   1.000  C
  H767     1.0000 0.02340  0.14231  0.12819  Biso   1.000  H
  H768     1.0000 0.05387  0.26338  0.18290  Biso   1.000  H
  H769     1.0000 0.02551  0.27371  0.12710  Biso   1.000  H
  C449     1.0000 0.02499  0.34192  0.17108  Biso   1.000  C
  H770     1.0000 0.05387  0.26342  0.18290  Biso   1.000  H
  C450     1.0000 0.05250  0.33250  0.18049  Biso   1.000  C
  H771     1.0000 0.03721  0.27078  0.12951  Biso   1.000  H
  H772     1.0000 0.06658  0.25060  0.18241  Biso   1.000  H
  C451     1.0000 0.81567  0.89211  0.84909  Biso   1.000  C
  H773     1.0000 0.85140  0.76752  0.75160  Biso   1.000  H
  H774     1.0000 0.88820  0.82121  0.73361  Biso   1.000  H
  C452     1.0000 0.77729  0.82801  0.73700  Biso   1.000  C
  H775     1.0000 0.88820  0.82121  0.73358  Biso   1.000  H
  C453     1.0000 0.79000  0.83632  0.73538  Biso   1.000  C
  H776     1.0000 0.87117  0.77951  0.74208  Biso   1.000  H
  H777     1.0000 0.90138  0.83862  0.73768  Biso   1.000  H
  H778     1.0000 0.05387  0.73662  0.81710  Biso   1.000  H
  H779     1.0000 0.02551  0.72629  0.87290  Biso   1.000  H
  C454     1.0000 0.02499  0.65808  0.82892  Biso   1.000  C
  C455     1.0000 0.02499  0.65808  0.82888  Biso   1.000  C
  C456     1.0000 0.02499  0.65812  0.82892  Biso   1.000  C
  C457     1.0000 0.02499  0.65812  0.82888  Biso   1.000  C
  C458     1.0000 0.05250  0.66750  0.81951  Biso   1.000  C
  H780     1.0000 0.03721  0.72922  0.87049  Biso   1.000  H
  H781     1.0000 0.06658  0.74940  0.81759  Biso   1.000  H
  H782     1.0000 0.28327  0.86200  0.02261  Biso   1.000  H
  H783     1.0000 0.32028  0.89808  0.06532  Biso   1.000  H
  C459     1.0000 0.39829  0.86591  0.01212  Biso   1.000  C
  H784     1.0000 0.28327  0.86200  0.02258  Biso   1.000  H
  H785     1.0000 0.32028  0.89808  0.06528  Biso   1.000  H
  C460     1.0000 0.39829  0.86591  0.01208  Biso   1.000  C
  H786     1.0000 0.32028  0.89812  0.06532  Biso   1.000  H
  H787     1.0000 0.32028  0.89812  0.06528  Biso   1.000  H
  H788     1.0000 0.30689  0.87292  0.04421  Biso   1.000  H
  C461     1.0000 0.36977  0.84590  0.98378  Biso   1.000  C
  H789     1.0000 0.26367  0.86971  0.99270  Biso   1.000  H
  C462     1.0000 0.32096  0.11181  0.97080  Biso   1.000  C
  C463     1.0000 0.30921  0.11949  0.99229  Biso   1.000  C
  H790     1.0000 0.35686  0.04669  0.97750  Biso   1.000  H
  H791     1.0000 0.35749  0.04051  0.00512  Biso   1.000  H
  H792     1.0000 0.30531  0.07280  0.04120  Biso   1.000  H
  H793     1.0000 0.35749  0.04051  0.00508  Biso   1.000  H
  H794     1.0000 0.33240  0.05230  0.03480  Biso   1.000  H
  C464     1.0000 0.14670  0.07482  0.97411  Biso   1.000  C
  C465     1.0000 0.14670  0.07482  0.97408  Biso   1.000  C
  C466     1.0000 0.74450  0.96190  0.88991  Biso   1.000  C
  C467     1.0000 0.76828  0.05369  0.87949  Biso   1.000  C
  H795     1.0000 0.41959  0.96360  0.86169  Biso   1.000  H
  H796     1.0000 0.40441  0.96681  0.86948  Biso   1.000  H
  H797     1.0000 0.38612  0.01780  0.88122  Biso   1.000  H
  C468     1.0000 0.42101  0.02212  0.80841  Biso   1.000  C
  H798     1.0000 0.38612  0.01780  0.88118  Biso   1.000  H
  C469     1.0000 0.42101  0.02212  0.80838  Biso   1.000  C
  C470     1.0000 0.40399  0.03399  0.82470  Biso   1.000  C
  H799     1.0000 0.36688  0.01642  0.89649  Biso   1.000  H
  H800     1.0000 0.45438  0.99759  0.21318  Biso   1.000  H
  H801     1.0000 0.43340  0.93990  0.19302  Biso   1.000  H
  C471     1.0000 0.34210  0.98659  0.21111  Biso   1.000  C
  H802     1.0000 0.43340  0.93990  0.19298  Biso   1.000  H
  C472     1.0000 0.34210  0.98659  0.21108  Biso   1.000  C
  H803     1.0000 0.44231  0.93951  0.17721  Biso   1.000  H
  C473     1.0000 0.33098  0.93701  0.18101  Biso   1.000  C
  H804     1.0000 0.40968  0.99130  0.20310  Biso   1.000  H
  H805     1.0000 0.70360  0.16752  0.37708  Biso   1.000  H
  H806     1.0000 0.67519  0.16309  0.32019  Biso   1.000  H
  C474     1.0000 0.72289  0.09428  0.34510  Biso   1.000  C
  C475     1.0000 0.72289  0.09432  0.34510  Biso   1.000  C
  C476     1.0000 0.71077  0.15640  0.39649  Biso   1.000  C
  H807     1.0000 0.82030  0.17302  0.37369  Biso   1.000  H
  H808     1.0000 0.79247  0.11798  0.35021  Biso   1.000  H
  C477     1.0000 0.96948  0.16922  0.01230  Biso   1.000  C
  C478     1.0000 0.06889  0.11751  0.03751  Biso   1.000  C
  C479     1.0000 0.06889  0.11751  0.03747  Biso   1.000  C
  H809     1.0000 0.98998  0.36032  0.14960  Biso   1.000  H
  H810     1.0000 0.01349  0.35011  0.20649  Biso   1.000  H
  C480     1.0000 0.09831  0.36380  0.15919  Biso   1.000  C
  H811     1.0000 0.04338  0.33729  0.21691  Biso   1.000  H
  C481     1.0000 0.12899  0.34940  0.16969  Biso   1.000  C
  H812     1.0000 0.02050  0.35672  0.16220  Biso   1.000  H
  C482     1.0000 0.80207  0.94959  0.85988  Biso   1.000  C
  H813     1.0000 0.78609  0.86659  0.86451  Biso   1.000  H
  H814     1.0000 0.76928  0.86469  0.74870  Biso   1.000  H
  H815     1.0000 0.73828  0.80530  0.74919  Biso   1.000  H
  C483     1.0000 0.78320  0.82572  0.67578  Biso   1.000  C
  C484     1.0000 0.75589  0.81761  0.68568  Biso   1.000  C
  H816     1.0000 0.75647  0.82770  0.76259  Biso   1.000  H
  H817     1.0000 0.79279  0.87541  0.73369  Biso   1.000  H
  H818     1.0000 0.98998  0.63968  0.85040  Biso   1.000  H
  H819     1.0000 0.01349  0.64989  0.79351  Biso   1.000  H
  C485     1.0000 0.09831  0.63620  0.84081  Biso   1.000  C
  H820     1.0000 0.01349  0.64989  0.79348  Biso   1.000  H
  H821     1.0000 0.04338  0.66271  0.78309  Biso   1.000  H
  C486     1.0000 0.12899  0.65060  0.83031  Biso   1.000  C
  H822     1.0000 0.02050  0.64328  0.83780  Biso   1.000  H
  H823     1.0000 0.40878  0.88289  0.97938  Biso   1.000  H
  H824     1.0000 0.39181  0.82781  0.00512  Biso   1.000  H
  C487     1.0000 0.45997  0.86991  0.04060  Biso   1.000  C
  H825     1.0000 0.39181  0.82781  0.00508  Biso   1.000  H
  H826     1.0000 0.41168  0.84340  0.04538  Biso   1.000  H
  H827     1.0000 0.44789  0.88079  0.00598  Biso   1.000  H
  H828     1.0000 0.35227  0.80930  0.97961  Biso   1.000  H
  H829     1.0000 0.38048  0.86002  0.94988  Biso   1.000  H
  C488     1.0000 0.42929  0.84451  0.01038  Biso   1.000  C
  H830     1.0000 0.28327  0.13800  0.97739  Biso   1.000  H
  H831     1.0000 0.32028  0.10192  0.93468  Biso   1.000  H
  C489     1.0000 0.39829  0.13409  0.98788  Biso   1.000  C
  H832     1.0000 0.30689  0.12708  0.95579  Biso   1.000  H
  C490     1.0000 0.36977  0.15410  0.01622  Biso   1.000  C
  H833     1.0000 0.26367  0.13029  0.00730  Biso   1.000  H
  C491     1.0000 0.08460  0.10750  0.98819  Biso   1.000  C
  H834     1.0000 0.15550  0.06762  0.93950  Biso   1.000  H
  H835     1.0000 0.71641  0.93428  0.90349  Biso   1.000  H
  H836     1.0000 0.71641  0.93432  0.90349  Biso   1.000  H
  H837     1.0000 0.75731  0.08981  0.88600  Biso   1.000  H
  C492     1.0000 0.82689  0.04099  0.84799  Biso   1.000  C
  H838     1.0000 0.45438  0.00241  0.78682  Biso   1.000  H
  H839     1.0000 0.43340  0.06010  0.80698  Biso   1.000  H
  C493     1.0000 0.34210  0.01341  0.78889  Biso   1.000  C
  H840     1.0000 0.45438  0.00241  0.78678  Biso   1.000  H
  H841     1.0000 0.44231  0.06049  0.82279  Biso   1.000  H
  C494     1.0000 0.33098  0.06299  0.81899  Biso   1.000  C
  H842     1.0000 0.40968  0.00870  0.79690  Biso   1.000  H
  H843     1.0000 0.33809  0.97389  0.24588  Biso   1.000  H
  H844     1.0000 0.30942  0.96669  0.18971  Biso   1.000  H
  H845     1.0000 0.33029  0.02429  0.20980  Biso   1.000  H
  H846     1.0000 0.32961  0.91881  0.21409  Biso   1.000  H
  H847     1.0000 0.32597  0.91039  0.15441  Biso   1.000  H
  H848     1.0000 0.29292  0.96249  0.17921  Biso   1.000  H
  H849     1.0000 0.67919  0.07798  0.35729  Biso   1.000  H
  H850     1.0000 0.76158  0.08530  0.36790  Biso   1.000  H
  H851     1.0000 0.73359  0.08099  0.31131  Biso   1.000  H
  H852     1.0000 0.73359  0.08099  0.31127  Biso   1.000  H
  H853     1.0000 0.67919  0.07802  0.35729  Biso   1.000  H
  H854     1.0000 0.72437  0.14220  0.42942  Biso   1.000  H
  H855     1.0000 0.67271  0.13480  0.38231  Biso   1.000  H
  H856     1.0000 0.69459  0.19300  0.40041  Biso   1.000  H
  C495     1.0000 0.98561  0.16040  0.96200  Biso   1.000  C
  H857     1.0000 0.92900  0.18952  0.02051  Biso   1.000  H
  H858     1.0000 0.09757  0.10279  0.06321  Biso   1.000  H
  H859     1.0000 0.11159  0.35331  0.12461  Biso   1.000  H
  H860     1.0000 0.09646  0.40301  0.16028  Biso   1.000  H
  C496     1.0000 0.15540  0.34429  0.19629  Biso   1.000  C
  H861     1.0000 0.11159  0.35331  0.12458  Biso   1.000  H
  C497     1.0000 0.13600  0.40360  0.20081  Biso   1.000  C
  H862     1.0000 0.13621  0.35529  0.13331  Biso   1.000  H
  H863     1.0000 0.16267  0.32249  0.18180  Biso   1.000  H
  C498     1.0000 0.84281  0.98959  0.84070  Biso   1.000  C
  H864     1.0000 0.82278  0.84779  0.66382  Biso   1.000  H
  H865     1.0000 0.79068  0.78888  0.66420  Biso   1.000  H
  C499     1.0000 0.71409  0.84669  0.65678  Biso   1.000  C
  H866     1.0000 0.82278  0.84779  0.66378  Biso   1.000  H
  H867     1.0000 0.79068  0.78892  0.66420  Biso   1.000  H
  C500     1.0000 0.77929  0.84510  0.64158  Biso   1.000  C
  H868     1.0000 0.76591  0.77939  0.68128  Biso   1.000  H
  H869     1.0000 0.70418  0.82172  0.68858  Biso   1.000  H
  H870     1.0000 0.11159  0.64669  0.87539  Biso   1.000  H
  H871     1.0000 0.09646  0.59699  0.83972  Biso   1.000  H
  C501     1.0000 0.15540  0.65571  0.80371  Biso   1.000  C
  H872     1.0000 0.09646  0.59699  0.83968  Biso   1.000  H
  C502     1.0000 0.13600  0.59640  0.79919  Biso   1.000  C
  H873     1.0000 0.13621  0.64471  0.86669  Biso   1.000  H
  H874     1.0000 0.16267  0.67751  0.81820  Biso   1.000  H
  H875     1.0000 0.44958  0.86481  0.07672  Biso   1.000  H
  H876     1.0000 0.48179  0.90520  0.03601  Biso   1.000  H
  C503     1.0000 0.51131  0.82508  0.02099  Biso   1.000  C
  H877     1.0000 0.44958  0.86481  0.07668  Biso   1.000  H
  C504     1.0000 0.49586  0.81171  0.01339  Biso   1.000  C
  H878     1.0000 0.39181  0.17219  0.99488  Biso   1.000  H
  C505     1.0000 0.45997  0.13009  0.95940  Biso   1.000  C
  H879     1.0000 0.41168  0.15660  0.95459  Biso   1.000  H
  H880     1.0000 0.44789  0.11921  0.99402  Biso   1.000  H
  H881     1.0000 0.40878  0.11711  0.02062  Biso   1.000  H
  H882     1.0000 0.40878  0.11711  0.02058  Biso   1.000  H
  C506     1.0000 0.42929  0.15549  0.98962  Biso   1.000  C
  H883     1.0000 0.35227  0.19070  0.02039  Biso   1.000  H
  H884     1.0000 0.38048  0.14002  0.05012  Biso   1.000  H
  C507     1.0000 0.04259  0.12910  0.95071  Biso   1.000  C
  C508     1.0000 0.86680  0.08411  0.82320  Biso   1.000  C
  H885     1.0000 0.33029  0.97571  0.79020  Biso   1.000  H
  H886     1.0000 0.33809  0.02611  0.75412  Biso   1.000  H
  H887     1.0000 0.30942  0.03331  0.81029  Biso   1.000  H
  H888     1.0000 0.33809  0.02611  0.75408  Biso   1.000  H
  H889     1.0000 0.32961  0.08119  0.78588  Biso   1.000  H
  H890     1.0000 0.32597  0.08961  0.84559  Biso   1.000  H
  H891     1.0000 0.29292  0.03751  0.82079  Biso   1.000  H
  C509     1.0000 0.94138  0.18619  0.92242  Biso   1.000  C
  C510     1.0000 0.94138  0.18619  0.92238  Biso   1.000  C
  H892     1.0000 0.20120  0.35881  0.18651  Biso   1.000  H
  H893     1.0000 0.15740  0.30552  0.19550  Biso   1.000  H
  H894     1.0000 0.14359  0.35608  0.23042  Biso   1.000  H
  H895     1.0000 0.14359  0.35608  0.23038  Biso   1.000  H
  H896     1.0000 0.14359  0.35612  0.23042  Biso   1.000  H
  H897     1.0000 0.14359  0.35612  0.23038  Biso   1.000  H
  H898     1.0000 0.18460  0.41630  0.19889  Biso   1.000  H
  H899     1.0000 0.12329  0.39731  0.23610  Biso   1.000  H
  H900     1.0000 0.10421  0.43019  0.18651  Biso   1.000  H
  H901     1.0000 0.88351  0.98081  0.82169  Biso   1.000  H
  H902     1.0000 0.70360  0.83248  0.62292  Biso   1.000  H
  H903     1.0000 0.67519  0.83691  0.67981  Biso   1.000  H
  C511     1.0000 0.72289  0.90572  0.65490  Biso   1.000  C
  H904     1.0000 0.70360  0.83248  0.62288  Biso   1.000  H
  H905     1.0000 0.70360  0.83252  0.62292  Biso   1.000  H
  H906     1.0000 0.70360  0.83252  0.62288  Biso   1.000  H
  C512     1.0000 0.71077  0.84360  0.60351  Biso   1.000  C
  H907     1.0000 0.82030  0.82702  0.62631  Biso   1.000  H
  H908     1.0000 0.79247  0.88202  0.64979  Biso   1.000  H
  H909     1.0000 0.20120  0.64119  0.81349  Biso   1.000  H
  H910     1.0000 0.15740  0.69448  0.80450  Biso   1.000  H
  H911     1.0000 0.14359  0.64392  0.76958  Biso   1.000  H
  H912     1.0000 0.15740  0.69452  0.80450  Biso   1.000  H
  H913     1.0000 0.18460  0.58370  0.80108  Biso   1.000  H
  H914     1.0000 0.12329  0.60269  0.76390  Biso   1.000  H
  H915     1.0000 0.10421  0.56981  0.81349  Biso   1.000  H
  H916     1.0000 0.52390  0.83221  0.98589  Biso   1.000  H
  H917     1.0000 0.51421  0.80562  0.97938  Biso   1.000  H
  H918     1.0000 0.55411  0.82481  0.04169  Biso   1.000  H
  H919     1.0000 0.48769  0.79070  0.02340  Biso   1.000  H
  H920     1.0000 0.53118  0.83058  0.03337  Biso   1.000  H
  H921     1.0000 0.48527  0.77769  0.02931  Biso   1.000  H
  H922     1.0000 0.44958  0.13519  0.92328  Biso   1.000  H
  H923     1.0000 0.48179  0.09480  0.96399  Biso   1.000  H
  C513     1.0000 0.51131  0.17492  0.97901  Biso   1.000  C
  C514     1.0000 0.49586  0.18829  0.98661  Biso   1.000  C
  H924     1.0000 0.05340  0.12202  0.91651  Biso   1.000  H
  N39      1.0000 0.85051  0.13120  0.82651  Biso   1.000  N
  H925     1.0000 0.90707  0.07501  0.80371  Biso   1.000  H
  N40      1.0000 0.95999  0.18382  0.87670  Biso   1.000  N
  H926     1.0000 0.89937  0.20439  0.93148  Biso   1.000  H
  H927     1.0000 0.67919  0.92202  0.64271  Biso   1.000  H
  H928     1.0000 0.76158  0.91470  0.63210  Biso   1.000  H
  H929     1.0000 0.73359  0.91901  0.68869  Biso   1.000  H
  H930     1.0000 0.72437  0.85780  0.57058  Biso   1.000  H
  H931     1.0000 0.67271  0.86520  0.61769  Biso   1.000  H
  H932     1.0000 0.69459  0.80700  0.59959  Biso   1.000  H
  H933     1.0000 0.55411  0.17519  0.95831  Biso   1.000  H
  H934     1.0000 0.48769  0.20930  0.97660  Biso   1.000  H
  H935     1.0000 0.53118  0.16942  0.96659  Biso   1.000  H
  H936     1.0000 0.52390  0.16779  0.01411  Biso   1.000  H
  H937     1.0000 0.51421  0.19438  0.02062  Biso   1.000  H
  H938     1.0000 0.48527  0.22231  0.97069  Biso   1.000  H
  C515     1.0000 0.89299  0.17139  0.80021  Biso   1.000  C
  C516     1.0000 0.91619  0.21191  0.83972  Biso   1.000  C
  C517     1.0000 0.91619  0.21191  0.83968  Biso   1.000  C
  H939     1.0000 0.93480  0.15490  0.78362  Biso   1.000  H
  C518     1.0000 0.84571  0.19869  0.76142  Biso   1.000  C
  H940     1.0000 0.93480  0.15490  0.78358  Biso   1.000  H
  C519     1.0000 0.84571  0.19869  0.76138  Biso   1.000  C
  C520     1.0000 0.86311  0.19232  0.75088  Biso   1.000  C
  H941     1.0000 0.93727  0.15260  0.79039  Biso   1.000  H
  H942     1.0000 0.87307  0.22500  0.85729  Biso   1.000  H
  C521     1.0000 0.95820  0.26010  0.82139  Biso   1.000  C
  C522     1.0000 0.96310  0.24811  0.80879  Biso   1.000  C
  H943     1.0000 0.87560  0.23102  0.85541  Biso   1.000  H
  H944     1.0000 0.87228  0.22762  0.74490  Biso   1.000  H
  H945     1.0000 0.80449  0.21452  0.77861  Biso   1.000  H
  C523     1.0000 0.81941  0.15810  0.72022  Biso   1.000  C
  H946     1.0000 0.80449  0.21452  0.77858  Biso   1.000  H
  C524     1.0000 0.81941  0.15810  0.72018  Biso   1.000  C
  H947     1.0000 0.81878  0.21139  0.75841  Biso   1.000  H
  H948     1.0000 0.89679  0.21852  0.73708  Biso   1.000  H
  C525     1.0000 0.84798  0.15130  0.70980  Biso   1.000  C
  H949     1.0000 0.92900  0.28020  0.79720  Biso   1.000  H
  C526     1.0000 0.98208  0.29891  0.86549  Biso   1.000  C
  C527     1.0000 0.98898  0.29100  0.84480  Biso   1.000  C
  H950     1.0000 0.93617  0.26402  0.78068  Biso   1.000  H
  H951     1.0000 0.00058  0.24760  0.80330  Biso   1.000  H
  H952     1.0000 0.00348  0.22809  0.79472  Biso   1.000  H
  H953     1.0000 0.86000  0.14611  0.69979  Biso   1.000  H
  H954     1.0000 0.79859  0.12681  0.73689  Biso   1.000  H
  C528     1.0000 0.76258  0.18441  0.68459  Biso   1.000  C
  C529     1.0000 0.80302  0.17409  0.66491  Biso   1.000  C
  H955     1.0000 0.82189  0.12119  0.72500  Biso   1.000  H
  H956     1.0000 0.89289  0.13769  0.69648  Biso   1.000  H
  H957     1.0000 0.94160  0.30489  0.88822  Biso   1.000  H
  H958     1.0000 0.94160  0.30489  0.88818  Biso   1.000  H
  H959     1.0000 0.94818  0.30572  0.86331  Biso   1.000  H
  H960     1.0000 0.01971  0.28138  0.88532  Biso   1.000  H
  C530     1.0000 0.01081  0.35501  0.84611  Biso   1.000  C
  H961     1.0000 0.01971  0.28138  0.88528  Biso   1.000  H
  C531     1.0000 0.01081  0.35501  0.84608  Biso   1.000  C
  H962     1.0000 0.01971  0.28142  0.88532  Biso   1.000  H
  H963     1.0000 0.01971  0.28142  0.88528  Biso   1.000  H
  H964     1.0000 0.02130  0.27490  0.86982  Biso   1.000  H
  C532     1.0000 0.02878  0.33761  0.81639  Biso   1.000  C
  H965     1.0000 0.72859  0.20570  0.70419  Biso   1.000  H
  H966     1.0000 0.73660  0.15719  0.66529  Biso   1.000  H
  C533     1.0000 0.80692  0.22002  0.64911  Biso   1.000  C
  C534     1.0000 0.83902  0.20332  0.62281  Biso   1.000  C
  H967     1.0000 0.77698  0.14409  0.64971  Biso   1.000  H
  H968     1.0000 0.76717  0.19822  0.67940  Biso   1.000  H
  H969     1.0000 0.97602  0.37048  0.82248  Biso   1.000  H
  H970     1.0000 0.97602  0.37052  0.82248  Biso   1.000  H
  H971     1.0000 0.01550  0.37931  0.87508  Biso   1.000  H
  C535     1.0000 0.07991  0.35019  0.82030  Biso   1.000  C
  C536     1.0000 0.06041  0.37579  0.85010  Biso   1.000  C
  H972     1.0000 0.02288  0.39339  0.86989  Biso   1.000  H
  H973     1.0000 0.99489  0.35600  0.79412  Biso   1.000  H
  H974     1.0000 0.07559  0.32419  0.79261  Biso   1.000  H
  H975     1.0000 0.06610  0.32222  0.79479  Biso   1.000  H
  H976     1.0000 0.81561  0.25440  0.66581  Biso   1.000  H
  H977     1.0000 0.85320  0.20301  0.64309  Biso   1.000  H
  C537     1.0000 0.76902  0.23039  0.59549  Biso   1.000  C
  H978     1.0000 0.81561  0.25440  0.66578  Biso   1.000  H
  H979     1.0000 0.86369  0.23391  0.63771  Biso   1.000  H
  C538     1.0000 0.79100  0.22500  0.57668  Biso   1.000  C
  H980     1.0000 0.87507  0.17951  0.60851  Biso   1.000  H
  H981     1.0000 0.11507  0.33642  0.84450  Biso   1.000  H
  C539     1.0000 0.10769  0.40392  0.79810  Biso   1.000  C
  C540     1.0000 0.10379  0.41939  0.81951  Biso   1.000  C
  H982     1.0000 0.09230  0.35739  0.87381  Biso   1.000  H
  H983     1.0000 0.79701  0.25531  0.57570  Biso   1.000  H
  H984     1.0000 0.72179  0.24542  0.60121  Biso   1.000  H
  H985     1.0000 0.76438  0.19691  0.57721  Biso   1.000  H
  H986     1.0000 0.76248  0.25480  0.58831  Biso   1.000  H
  H987     1.0000 0.76037  0.19660  0.56460  Biso   1.000  H
  H988     1.0000 0.82210  0.23672  0.54929  Biso   1.000  H
  H989     1.0000 0.15329  0.39810  0.78170  Biso   1.000  H
  H990     1.0000 0.11317  0.42971  0.82531  Biso   1.000  H
  H991     1.0000 0.07390  0.41741  0.77331  Biso   1.000  H
  H992     1.0000 0.07216  0.43759  0.79588  Biso   1.000  H
  H993     1.0000 0.14180  0.40210  0.80059  Biso   1.000  H
  H994     1.0000 0.12387  0.44510  0.84299  Biso   1.000  H
  C541     1.0000 0.76902  0.76961  0.40451  Biso   1.000  C
  C542     1.0000 0.80692  0.77998  0.35089  Biso   1.000  C
  H995     1.0000 0.79701  0.74469  0.42430  Biso   1.000  H
  H996     1.0000 0.72179  0.75458  0.39879  Biso   1.000  H
  H997     1.0000 0.76438  0.80309  0.42279  Biso   1.000  H
  C543     1.0000 0.80692  0.78002  0.35089  Biso   1.000  C
  H998     1.0000 0.72179  0.75462  0.39879  Biso   1.000  H
  C544     1.0000 0.83902  0.79672  0.37719  Biso   1.000  C
  H999     1.0000 0.76248  0.74520  0.41169  Biso   1.000  H
  H1000    1.0000 0.76037  0.80340  0.43540  Biso   1.000  H
  H1001    1.0000 0.81561  0.74560  0.33419  Biso   1.000  H
  C545     1.0000 0.76258  0.81559  0.31541  Biso   1.000  C
  H1002    1.0000 0.85320  0.79699  0.35691  Biso   1.000  H
  C546     1.0000 0.76258  0.81559  0.31537  Biso   1.000  C
  H1003    1.0000 0.85320  0.79699  0.35687  Biso   1.000  H
  C547     1.0000 0.80302  0.82591  0.33509  Biso   1.000  C
  H1004    1.0000 0.76717  0.80178  0.32060  Biso   1.000  H
  H1005    1.0000 0.86369  0.76609  0.36229  Biso   1.000  H
  C548     1.0000 0.79100  0.77500  0.42328  Biso   1.000  C
  H1006    1.0000 0.87507  0.82049  0.39149  Biso   1.000  H
  C549     1.0000 0.81941  0.84190  0.27978  Biso   1.000  C
  H1007    1.0000 0.72859  0.79430  0.29581  Biso   1.000  H
  H1008    1.0000 0.73660  0.84281  0.33471  Biso   1.000  H
  H1009    1.0000 0.73660  0.84281  0.33468  Biso   1.000  H
  C550     1.0000 0.84798  0.84870  0.29020  Biso   1.000  C
  H1010    1.0000 0.77698  0.85591  0.35029  Biso   1.000  H
  H1011    1.0000 0.82210  0.76328  0.45071  Biso   1.000  H
  C551     1.0000 0.84571  0.80131  0.23858  Biso   1.000  C
  H1012    1.0000 0.86000  0.85389  0.30021  Biso   1.000  H
  H1013    1.0000 0.79859  0.87319  0.26311  Biso   1.000  H
  H1014    1.0000 0.86000  0.85389  0.30017  Biso   1.000  H
  H1015    1.0000 0.79859  0.87319  0.26307  Biso   1.000  H
  C552     1.0000 0.86311  0.80772  0.24912  Biso   1.000  C
  H1016    1.0000 0.82189  0.87881  0.27500  Biso   1.000  H
  H1017    1.0000 0.89289  0.86231  0.30348  Biso   1.000  H
  C553     1.0000 0.89299  0.82861  0.19979  Biso   1.000  C
  H1018    1.0000 0.87228  0.77238  0.25510  Biso   1.000  H
  H1019    1.0000 0.80449  0.78548  0.22139  Biso   1.000  H
  H1020    1.0000 0.80449  0.78552  0.22139  Biso   1.000  H
  H1021    1.0000 0.81878  0.78861  0.24159  Biso   1.000  H
  H1022    1.0000 0.89679  0.78148  0.26289  Biso   1.000  H
  N41      1.0000 0.85051  0.86880  0.17349  Biso   1.000  N
  H1023    1.0000 0.93480  0.84510  0.21638  Biso   1.000  H
  C554     1.0000 0.91619  0.78809  0.16028  Biso   1.000  C
  H1024    1.0000 0.93727  0.84740  0.20961  Biso   1.000  H
  C555     1.0000 0.86680  0.91589  0.17680  Biso   1.000  C
  N42      1.0000 0.95999  0.81618  0.12330  Biso   1.000  N
  C556     1.0000 0.95820  0.73990  0.17861  Biso   1.000  C
  H1025    1.0000 0.87307  0.77500  0.14271  Biso   1.000  H
  N43      1.0000 0.95999  0.81622  0.12330  Biso   1.000  N
  H1026    1.0000 0.87307  0.77500  0.14267  Biso   1.000  H
  C557     1.0000 0.96310  0.75189  0.19117  Biso   1.000  C
  H1027    1.0000 0.87560  0.76902  0.14459  Biso   1.000  H
  C558     1.0000 0.82689  0.95901  0.15201  Biso   1.000  C
  H1028    1.0000 0.90707  0.92499  0.19629  Biso   1.000  H
  C559     1.0000 0.94138  0.81381  0.07758  Biso   1.000  C
  H1029    1.0000 0.92900  0.71980  0.20280  Biso   1.000  H
  C560     1.0000 0.98208  0.70109  0.13451  Biso   1.000  C
  C561     1.0000 0.98898  0.70900  0.15520  Biso   1.000  C
  H1030    1.0000 0.93617  0.73598  0.21928  Biso   1.000  H
  H1031    1.0000 0.00058  0.75240  0.19670  Biso   1.000  H
  H1032    1.0000 0.00348  0.77191  0.20528  Biso   1.000  H
  C562     1.0000 0.76828  0.94631  0.12051  Biso   1.000  C
  C563     1.0000 0.76828  0.94631  0.12048  Biso   1.000  C
  C564     1.0000 0.84281  0.01041  0.15930  Biso   1.000  C
  C565     1.0000 0.98561  0.83960  0.03800  Biso   1.000  C
  H1033    1.0000 0.89937  0.79561  0.06852  Biso   1.000  H
  H1034    1.0000 0.89937  0.79561  0.06848  Biso   1.000  H
  H1035    1.0000 0.94160  0.69511  0.11178  Biso   1.000  H
  H1036    1.0000 0.94818  0.69432  0.13669  Biso   1.000  H
  H1037    1.0000 0.01971  0.71862  0.11468  Biso   1.000  H
  C566     1.0000 0.01081  0.64499  0.15389  Biso   1.000  C
  H1038    1.0000 0.02130  0.72510  0.13018  Biso   1.000  H
  C567     1.0000 0.02878  0.66239  0.18357  Biso   1.000  C
  C568     1.0000 0.72758  0.98560  0.09971  Biso   1.000  C
  H1039    1.0000 0.75731  0.91019  0.11400  Biso   1.000  H
  C569     1.0000 0.80207  0.05041  0.14012  Biso   1.000  C
  H1040    1.0000 0.88351  0.01919  0.17831  Biso   1.000  H
  C570     1.0000 0.80207  0.05041  0.14008  Biso   1.000  C
  C571     1.0000 0.96948  0.83078  0.98770  Biso   1.000  C
  C572     1.0000 0.96948  0.83082  0.98770  Biso   1.000  C
  C573     1.0000 0.04259  0.87090  0.04929  Biso   1.000  C
  H1041    1.0000 0.97602  0.62952  0.17752  Biso   1.000  H
  H1042    1.0000 0.97602  0.62952  0.17748  Biso   1.000  H
  H1043    1.0000 0.01550  0.62069  0.12492  Biso   1.000  H
  C574     1.0000 0.07991  0.64981  0.17970  Biso   1.000  C
  H1044    1.0000 0.01550  0.62069  0.12488  Biso   1.000  H
  C575     1.0000 0.06041  0.62421  0.14990  Biso   1.000  C
  H1045    1.0000 0.02288  0.60661  0.13011  Biso   1.000  H
  H1046    1.0000 0.99489  0.64400  0.20588  Biso   1.000  H
  H1047    1.0000 0.07559  0.67581  0.20739  Biso   1.000  H
  H1048    1.0000 0.06610  0.67778  0.20521  Biso   1.000  H
  C576     1.0000 0.66502  0.97171  0.06968  Biso   1.000  C
  C577     1.0000 0.74450  0.03810  0.11009  Biso   1.000  C
  C578     1.0000 0.81567  0.10789  0.15091  Biso   1.000  C
  C579     1.0000 0.81567  0.10789  0.15088  Biso   1.000  C
  H1049    1.0000 0.92900  0.81048  0.97949  Biso   1.000  H
  C580     1.0000 0.01107  0.85088  0.94932  Biso   1.000  C
  C581     1.0000 0.01107  0.85088  0.94928  Biso   1.000  C
  C582     1.0000 0.01107  0.85092  0.94932  Biso   1.000  C
  C583     1.0000 0.01107  0.85092  0.94928  Biso   1.000  C
  C584     1.0000 0.08460  0.89250  0.01181  Biso   1.000  C
  H1050    1.0000 0.05340  0.87798  0.08349  Biso   1.000  H
  C585     1.0000 0.08460  0.89250  0.01178  Biso   1.000  C
  H1051    1.0000 0.05340  0.87802  0.08349  Biso   1.000  H
  H1052    1.0000 0.11507  0.66358  0.15550  Biso   1.000  H
  C586     1.0000 0.10769  0.59608  0.20190  Biso   1.000  C
  H1053    1.0000 0.11507  0.66362  0.15550  Biso   1.000  H
  C587     1.0000 0.10379  0.58061  0.18049  Biso   1.000  C
  H1054    1.0000 0.09230  0.64261  0.12619  Biso   1.000  H
  H1055    1.0000 0.65479  0.93539  0.06389  Biso   1.000  H
  N44      1.0000 0.62538  0.00582  0.05189  Biso   1.000  N
  H1056    1.0000 0.71641  0.06572  0.09651  Biso   1.000  H
  N45      1.0000 0.86369  0.12380  0.17910  Biso   1.000  N
  H1057    1.0000 0.78609  0.13341  0.13549  Biso   1.000  H
  C588     1.0000 0.99531  0.84071  0.89661  Biso   1.000  C
  C589     1.0000 0.06889  0.88249  0.96249  Biso   1.000  C
  C590     1.0000 0.14670  0.92518  0.02589  Biso   1.000  C
  C591     1.0000 0.14670  0.92522  0.02589  Biso   1.000  C
  H1058    1.0000 0.15329  0.60190  0.21830  Biso   1.000  H
  H1059    1.0000 0.11317  0.57029  0.17469  Biso   1.000  H
  H1060    1.0000 0.07390  0.58259  0.22669  Biso   1.000  H
  H1061    1.0000 0.07216  0.56241  0.20408  Biso   1.000  H
  H1062    1.0000 0.14180  0.59790  0.19938  Biso   1.000  H
  H1063    1.0000 0.12387  0.55490  0.15701  Biso   1.000  H
  C592     1.0000 0.56028  0.98940  0.02589  Biso   1.000  C
  C593     1.0000 0.86859  0.18010  0.19001  Biso   1.000  C
  N46      1.0000 0.94586  0.81041  0.88197  Biso   1.000  N
  H1064    1.0000 0.02340  0.85769  0.87181  Biso   1.000  H
  H1065    1.0000 0.09757  0.89721  0.93679  Biso   1.000  H
  N47      1.0000 0.18660  0.94291  0.99421  Biso   1.000  N
  H1066    1.0000 0.15550  0.93238  0.06050  Biso   1.000  H
  H1067    1.0000 0.15550  0.93242  0.06050  Biso   1.000  H
  H1068    1.0000 0.55938  0.94991  0.02412  Biso   1.000  H
  H1069    1.0000 0.55938  0.94991  0.02408  Biso   1.000  H
  H1070    1.0000 0.56180  0.94999  0.02299  Biso   1.000  H
  C594     1.0000 0.56028  0.01060  0.97411  Biso   1.000  C
  C595     1.0000 0.56028  0.01060  0.97408  Biso   1.000  C
  C596     1.0000 0.49797  0.00799  0.05941  Biso   1.000  C
  C597     1.0000 0.49001  0.00301  0.04850  Biso   1.000  C
  H1071    1.0000 0.83190  0.19778  0.16879  Biso   1.000  H
  C598     1.0000 0.85088  0.19351  0.24449  Biso   1.000  C
  C599     1.0000 0.93917  0.20059  0.17138  Biso   1.000  C
  H1072    1.0000 0.83190  0.19782  0.16879  Biso   1.000  H
  C600     1.0000 0.86400  0.18350  0.24690  Biso   1.000  C
  H1073    1.0000 0.82890  0.19988  0.17390  Biso   1.000  H
  C601     1.0000 0.93917  0.79941  0.82862  Biso   1.000  C
  C602     1.0000 0.93917  0.79941  0.82858  Biso   1.000  C
  C603     1.0000 0.25007  0.97341  0.01242  Biso   1.000  C
  C604     1.0000 0.25007  0.97341  0.01238  Biso   1.000  C
  N48      1.0000 0.62538  0.99418  0.94811  Biso   1.000  N
  C605     1.0000 0.49797  0.99201  0.94059  Biso   1.000  C
  N49      1.0000 0.62538  0.99418  0.94808  Biso   1.000  N
  N50      1.0000 0.62538  0.99422  0.94811  Biso   1.000  N
  N51      1.0000 0.62538  0.99422  0.94808  Biso   1.000  N
  C606     1.0000 0.49001  0.99699  0.95150  Biso   1.000  C
  H1074    1.0000 0.55938  0.05009  0.97588  Biso   1.000  H
  H1075    1.0000 0.56180  0.05001  0.97701  Biso   1.000  H
  H1076    1.0000 0.45348  0.99988  0.04169  Biso   1.000  H
  C607     1.0000 0.49402  0.98441  0.11148  Biso   1.000  C
  H1077    1.0000 0.45348  0.99992  0.04169  Biso   1.000  H
  C608     1.0000 0.48000  0.97899  0.10020  Biso   1.000  C
  H1078    1.0000 0.50087  0.04700  0.06291  Biso   1.000  H
  H1079    1.0000 0.48622  0.04241  0.05151  Biso   1.000  H
  H1080    1.0000 0.45190  0.99130  0.02570  Biso   1.000  H
  H1081    1.0000 0.85140  0.23248  0.24840  Biso   1.000  H
  H1082    1.0000 0.88820  0.17879  0.26639  Biso   1.000  H
  C609     1.0000 0.77729  0.17199  0.26300  Biso   1.000  C
  H1083    1.0000 0.85140  0.23252  0.24840  Biso   1.000  H
  C610     1.0000 0.79000  0.16372  0.26458  Biso   1.000  C
  H1084    1.0000 0.87117  0.22049  0.25788  Biso   1.000  H
  N52      1.0000 0.94586  0.18959  0.11803  Biso   1.000  N
  H1085    1.0000 0.97828  0.18279  0.19019  Biso   1.000  H
  C611     1.0000 0.94418  0.26121  0.17849  Biso   1.000  C
  C612     1.0000 0.95799  0.25891  0.18199  Biso   1.000  C
  H1086    1.0000 0.97602  0.17879  0.18861  Biso   1.000  H
  H1087    1.0000 0.90138  0.16138  0.26228  Biso   1.000  H
  C613     1.0000 0.86859  0.81990  0.80999  Biso   1.000  C
  H1088    1.0000 0.97828  0.81721  0.80981  Biso   1.000  H
  C614     1.0000 0.94418  0.73879  0.82151  Biso   1.000  C
  C615     1.0000 0.95799  0.74109  0.81801  Biso   1.000  C
  H1089    1.0000 0.97602  0.82121  0.81139  Biso   1.000  H
  C616     1.0000 0.31348  0.93860  0.99402  Biso   1.000  C
  C617     1.0000 0.31348  0.93860  0.99398  Biso   1.000  C
  H1090    1.0000 0.24991  0.97689  0.04989  Biso   1.000  H
  C618     1.0000 0.31828  0.94081  0.00038  Biso   1.000  C
  H1091    1.0000 0.24638  0.97840  0.04970  Biso   1.000  H
  C619     1.0000 0.25007  0.02659  0.98758  Biso   1.000  C
  C620     1.0000 0.66502  0.02829  0.93032  Biso   1.000  C
  C621     1.0000 0.66502  0.02829  0.93028  Biso   1.000  C
  H1092    1.0000 0.50087  0.95300  0.93709  Biso   1.000  H
  H1093    1.0000 0.48622  0.95759  0.94849  Biso   1.000  H
  H1094    1.0000 0.45348  0.00012  0.95831  Biso   1.000  H
  C622     1.0000 0.49402  0.01559  0.88852  Biso   1.000  C
  C623     1.0000 0.49402  0.01559  0.88848  Biso   1.000  C
  C624     1.0000 0.48000  0.02101  0.89980  Biso   1.000  C
  H1095    1.0000 0.45190  0.00870  0.97430  Biso   1.000  H
  H1096    1.0000 0.49871  0.94552  0.10900  Biso   1.000  H
  H1097    1.0000 0.53397  0.99771  0.13180  Biso   1.000  H
  C625     1.0000 0.42570  0.99751  0.13820  Biso   1.000  C
  C626     1.0000 0.40699  0.99399  0.12522  Biso   1.000  C
  H1098    1.0000 0.51848  0.98979  0.12251  Biso   1.000  H
  H1099    1.0000 0.48179  0.93958  0.09688  Biso   1.000  H
  H1100    1.0000 0.76928  0.13531  0.25130  Biso   1.000  H
  H1101    1.0000 0.73828  0.19470  0.25081  Biso   1.000  H
  C627     1.0000 0.78320  0.17428  0.32422  Biso   1.000  C
  C628     1.0000 0.78320  0.17428  0.32418  Biso   1.000  C
  C629     1.0000 0.78320  0.17432  0.32422  Biso   1.000  C
  C630     1.0000 0.78320  0.17432  0.32418  Biso   1.000  C
  C631     1.0000 0.75589  0.18239  0.31428  Biso   1.000  C
  H1102    1.0000 0.75647  0.17230  0.23741  Biso   1.000  H
  H1103    1.0000 0.79279  0.12459  0.26631  Biso   1.000  H
  C632     1.0000 0.99531  0.15929  0.10339  Biso   1.000  C
  H1104    1.0000 0.90760  0.27869  0.15791  Biso   1.000  H
  H1105    1.0000 0.93527  0.27011  0.21420  Biso   1.000  H
  H1106    1.0000 0.90760  0.27869  0.15787  Biso   1.000  H
  H1107    1.0000 0.92431  0.28170  0.16359  Biso   1.000  H
  H1108    1.0000 0.95261  0.26580  0.21811  Biso   1.000  H
  C633     1.0000 0.01729  0.28190  0.16299  Biso   1.000  C
  C634     1.0000 0.03300  0.27501  0.16600  Biso   1.000  C
  N53      1.0000 0.86369  0.87620  0.82090  Biso   1.000  N
  H1109    1.0000 0.83190  0.80222  0.83121  Biso   1.000  H
  C635     1.0000 0.85088  0.80649  0.75551  Biso   1.000  C
  H1110    1.0000 0.83190  0.80222  0.83118  Biso   1.000  H
  C636     1.0000 0.86400  0.81650  0.75310  Biso   1.000  C
  H1111    1.0000 0.82890  0.80012  0.82610  Biso   1.000  H
  H1112    1.0000 0.90760  0.72131  0.84209  Biso   1.000  H
  H1113    1.0000 0.93527  0.72989  0.78580  Biso   1.000  H
  H1114    1.0000 0.92431  0.71830  0.83641  Biso   1.000  H
  H1115    1.0000 0.95261  0.73420  0.78189  Biso   1.000  H
  C637     1.0000 0.01729  0.71810  0.83701  Biso   1.000  C
  C638     1.0000 0.03300  0.72499  0.83400  Biso   1.000  C
  H1116    1.0000 0.35749  0.95949  0.99488  Biso   1.000  H
  H1117    1.0000 0.30531  0.92720  0.95880  Biso   1.000  H
  H1118    1.0000 0.33240  0.94770  0.96520  Biso   1.000  H
  C639     1.0000 0.32096  0.88819  0.02920  Biso   1.000  C
  C640     1.0000 0.30921  0.88051  0.00768  Biso   1.000  C
  H1119    1.0000 0.35686  0.95331  0.02250  Biso   1.000  H
  H1120    1.0000 0.24991  0.02311  0.95011  Biso   1.000  H
  C641     1.0000 0.31828  0.05919  0.99959  Biso   1.000  C
  H1121    1.0000 0.24638  0.02160  0.95030  Biso   1.000  H
  N54      1.0000 0.18660  0.05709  0.00579  Biso   1.000  N
  C642     1.0000 0.31348  0.06140  0.00598  Biso   1.000  C
  C643     1.0000 0.72758  0.01440  0.90029  Biso   1.000  C
  H1122    1.0000 0.65479  0.06461  0.93611  Biso   1.000  H
  H1123    1.0000 0.65479  0.06461  0.93607  Biso   1.000  H
  H1124    1.0000 0.49871  0.05448  0.89100  Biso   1.000  H
  H1125    1.0000 0.53397  0.00229  0.86820  Biso   1.000  H
  C644     1.0000 0.42570  0.00249  0.86180  Biso   1.000  C
  H1126    1.0000 0.49871  0.05452  0.89100  Biso   1.000  H
  C645     1.0000 0.40699  0.00601  0.87478  Biso   1.000  C
  H1127    1.0000 0.51848  0.01021  0.87749  Biso   1.000  H
  H1128    1.0000 0.48179  0.06042  0.90308  Biso   1.000  H
  H1129    1.0000 0.38612  0.98220  0.11878  Biso   1.000  H
  C646     1.0000 0.42101  0.97788  0.19159  Biso   1.000  C
  C647     1.0000 0.42101  0.97792  0.19159  Biso   1.000  C
  C648     1.0000 0.40399  0.96601  0.17530  Biso   1.000  C
  H1130    1.0000 0.41959  0.03640  0.13831  Biso   1.000  H
  H1131    1.0000 0.40441  0.03319  0.13048  Biso   1.000  H
  H1132    1.0000 0.36688  0.98358  0.10351  Biso   1.000  H
  H1133    1.0000 0.82278  0.15221  0.33618  Biso   1.000  H
  H1134    1.0000 0.79068  0.21112  0.33580  Biso   1.000  H
  C649     1.0000 0.71409  0.15331  0.34322  Biso   1.000  C
  C650     1.0000 0.71409  0.15331  0.34318  Biso   1.000  C
  C651     1.0000 0.77929  0.15490  0.35838  Biso   1.000  C
  H1135    1.0000 0.76591  0.22061  0.31868  Biso   1.000  H
  H1136    1.0000 0.70418  0.17832  0.31139  Biso   1.000  H
  C652     1.0000 0.01107  0.14912  0.05068  Biso   1.000  C
  H1137    1.0000 0.02340  0.14231  0.12819  Biso   1.000  H
  H1138    1.0000 0.05387  0.26338  0.18290  Biso   1.000  H
  H1139    1.0000 0.02551  0.27371  0.12710  Biso   1.000  H
  C653     1.0000 0.02499  0.34192  0.17108  Biso   1.000  C
  H1140    1.0000 0.05387  0.26342  0.18290  Biso   1.000  H
  C654     1.0000 0.05250  0.33250  0.18049  Biso   1.000  C
  H1141    1.0000 0.03721  0.27078  0.12951  Biso   1.000  H
  H1142    1.0000 0.06658  0.25060  0.18241  Biso   1.000  H
  C655     1.0000 0.81567  0.89211  0.84909  Biso   1.000  C
  H1143    1.0000 0.85140  0.76752  0.75160  Biso   1.000  H
  H1144    1.0000 0.88820  0.82121  0.73361  Biso   1.000  H
  C656     1.0000 0.77729  0.82801  0.73700  Biso   1.000  C
  H1145    1.0000 0.88820  0.82121  0.73358  Biso   1.000  H
  C657     1.0000 0.79000  0.83632  0.73538  Biso   1.000  C
  H1146    1.0000 0.87117  0.77951  0.74208  Biso   1.000  H
  H1147    1.0000 0.90138  0.83862  0.73768  Biso   1.000  H
  H1148    1.0000 0.05387  0.73662  0.81710  Biso   1.000  H
  H1149    1.0000 0.02551  0.72629  0.87290  Biso   1.000  H
  C658     1.0000 0.02499  0.65808  0.82892  Biso   1.000  C
  C659     1.0000 0.02499  0.65808  0.82888  Biso   1.000  C
  C660     1.0000 0.02499  0.65812  0.82892  Biso   1.000  C
  C661     1.0000 0.02499  0.65812  0.82888  Biso   1.000  C
  C662     1.0000 0.05250  0.66750  0.81951  Biso   1.000  C
  H1150    1.0000 0.03721  0.72922  0.87049  Biso   1.000  H
  H1151    1.0000 0.06658  0.74940  0.81759  Biso   1.000  H
  H1152    1.0000 0.28327  0.86200  0.02261  Biso   1.000  H
  H1153    1.0000 0.32028  0.89808  0.06532  Biso   1.000  H
  C663     1.0000 0.39829  0.86591  0.01212  Biso   1.000  C
  H1154    1.0000 0.28327  0.86200  0.02258  Biso   1.000  H
  H1155    1.0000 0.32028  0.89808  0.06528  Biso   1.000  H
  C664     1.0000 0.39829  0.86591  0.01208  Biso   1.000  C
  H1156    1.0000 0.32028  0.89812  0.06532  Biso   1.000  H
  H1157    1.0000 0.32028  0.89812  0.06528  Biso   1.000  H
  H1158    1.0000 0.30689  0.87292  0.04421  Biso   1.000  H
  C665     1.0000 0.36977  0.84590  0.98378  Biso   1.000  C
  H1159    1.0000 0.26367  0.86971  0.99270  Biso   1.000  H
  C666     1.0000 0.32096  0.11181  0.97080  Biso   1.000  C
  C667     1.0000 0.30921  0.11949  0.99229  Biso   1.000  C
  H1160    1.0000 0.35686  0.04669  0.97750  Biso   1.000  H
  H1161    1.0000 0.35749  0.04051  0.00512  Biso   1.000  H
  H1162    1.0000 0.30531  0.07280  0.04120  Biso   1.000  H
  H1163    1.0000 0.35749  0.04051  0.00508  Biso   1.000  H
  H1164    1.0000 0.33240  0.05230  0.03480  Biso   1.000  H
  C668     1.0000 0.14670  0.07482  0.97411  Biso   1.000  C
  C669     1.0000 0.14670  0.07482  0.97408  Biso   1.000  C
  C670     1.0000 0.74450  0.96190  0.88991  Biso   1.000  C
  C671     1.0000 0.76828  0.05369  0.87949  Biso   1.000  C
  H1165    1.0000 0.41959  0.96360  0.86169  Biso   1.000  H
  H1166    1.0000 0.40441  0.96681  0.86948  Biso   1.000  H
  H1167    1.0000 0.38612  0.01780  0.88122  Biso   1.000  H
  C672     1.0000 0.42101  0.02212  0.80841  Biso   1.000  C
  H1168    1.0000 0.38612  0.01780  0.88118  Biso   1.000  H
  C673     1.0000 0.42101  0.02212  0.80838  Biso   1.000  C
  C674     1.0000 0.40399  0.03399  0.82470  Biso   1.000  C
  H1169    1.0000 0.36688  0.01642  0.89649  Biso   1.000  H
  H1170    1.0000 0.45438  0.99759  0.21318  Biso   1.000  H
  H1171    1.0000 0.43340  0.93990  0.19302  Biso   1.000  H
  C675     1.0000 0.34210  0.98659  0.21111  Biso   1.000  C
  H1172    1.0000 0.43340  0.93990  0.19298  Biso   1.000  H
  C676     1.0000 0.34210  0.98659  0.21108  Biso   1.000  C
  H1173    1.0000 0.44231  0.93951  0.17721  Biso   1.000  H
  C677     1.0000 0.33098  0.93701  0.18101  Biso   1.000  C
  H1174    1.0000 0.40968  0.99130  0.20310  Biso   1.000  H
  H1175    1.0000 0.70360  0.16752  0.37708  Biso   1.000  H
  H1176    1.0000 0.67519  0.16309  0.32019  Biso   1.000  H
  C678     1.0000 0.72289  0.09428  0.34510  Biso   1.000  C
  C679     1.0000 0.72289  0.09432  0.34510  Biso   1.000  C
  C680     1.0000 0.71077  0.15640  0.39649  Biso   1.000  C
  H1177    1.0000 0.82030  0.17302  0.37369  Biso   1.000  H
  H1178    1.0000 0.79247  0.11798  0.35021  Biso   1.000  H
  C681     1.0000 0.96948  0.16922  0.01230  Biso   1.000  C
  C682     1.0000 0.06889  0.11751  0.03751  Biso   1.000  C
  C683     1.0000 0.06889  0.11751  0.03747  Biso   1.000  C
  H1179    1.0000 0.98998  0.36032  0.14960  Biso   1.000  H
  H1180    1.0000 0.01349  0.35011  0.20649  Biso   1.000  H
  C684     1.0000 0.09831  0.36380  0.15919  Biso   1.000  C
  H1181    1.0000 0.04338  0.33729  0.21691  Biso   1.000  H
  C685     1.0000 0.12899  0.34940  0.16969  Biso   1.000  C
  H1182    1.0000 0.02050  0.35672  0.16220  Biso   1.000  H
  C686     1.0000 0.80207  0.94959  0.85988  Biso   1.000  C
  H1183    1.0000 0.78609  0.86659  0.86451  Biso   1.000  H
  H1184    1.0000 0.76928  0.86469  0.74870  Biso   1.000  H
  H1185    1.0000 0.73828  0.80530  0.74919  Biso   1.000  H
  C687     1.0000 0.78320  0.82572  0.67578  Biso   1.000  C
  C688     1.0000 0.75589  0.81761  0.68568  Biso   1.000  C
  H1186    1.0000 0.75647  0.82770  0.76259  Biso   1.000  H
  H1187    1.0000 0.79279  0.87541  0.73369  Biso   1.000  H
  H1188    1.0000 0.98998  0.63968  0.85040  Biso   1.000  H
  H1189    1.0000 0.01349  0.64989  0.79351  Biso   1.000  H
  C689     1.0000 0.09831  0.63620  0.84081  Biso   1.000  C
  H1190    1.0000 0.01349  0.64989  0.79348  Biso   1.000  H
  H1191    1.0000 0.04338  0.66271  0.78309  Biso   1.000  H
  C690     1.0000 0.12899  0.65060  0.83031  Biso   1.000  C
  H1192    1.0000 0.02050  0.64328  0.83780  Biso   1.000  H
  H1193    1.0000 0.40878  0.88289  0.97938  Biso   1.000  H
  H1194    1.0000 0.39181  0.82781  0.00512  Biso   1.000  H
  C691     1.0000 0.45997  0.86991  0.04060  Biso   1.000  C
  H1195    1.0000 0.39181  0.82781  0.00508  Biso   1.000  H
  H1196    1.0000 0.41168  0.84340  0.04538  Biso   1.000  H
  H1197    1.0000 0.44789  0.88079  0.00598  Biso   1.000  H
  H1198    1.0000 0.35227  0.80930  0.97961  Biso   1.000  H
  H1199    1.0000 0.38048  0.86002  0.94988  Biso   1.000  H
  C692     1.0000 0.42929  0.84451  0.01038  Biso   1.000  C
  H1200    1.0000 0.28327  0.13800  0.97739  Biso   1.000  H
  H1201    1.0000 0.32028  0.10192  0.93468  Biso   1.000  H
  C693     1.0000 0.39829  0.13409  0.98788  Biso   1.000  C
  H1202    1.0000 0.30689  0.12708  0.95579  Biso   1.000  H
  C694     1.0000 0.36977  0.15410  0.01622  Biso   1.000  C
  H1203    1.0000 0.26367  0.13029  0.00730  Biso   1.000  H
  C695     1.0000 0.08460  0.10750  0.98819  Biso   1.000  C
  H1204    1.0000 0.15550  0.06762  0.93950  Biso   1.000  H
  H1205    1.0000 0.71641  0.93428  0.90349  Biso   1.000  H
  H1206    1.0000 0.71641  0.93432  0.90349  Biso   1.000  H
  H1207    1.0000 0.75731  0.08981  0.88600  Biso   1.000  H
  C696     1.0000 0.82689  0.04099  0.84799  Biso   1.000  C
  H1208    1.0000 0.45438  0.00241  0.78682  Biso   1.000  H
  H1209    1.0000 0.43340  0.06010  0.80698  Biso   1.000  H
  C697     1.0000 0.34210  0.01341  0.78889  Biso   1.000  C
  H1210    1.0000 0.45438  0.00241  0.78678  Biso   1.000  H
  H1211    1.0000 0.44231  0.06049  0.82279  Biso   1.000  H
  C698     1.0000 0.33098  0.06299  0.81899  Biso   1.000  C
  H1212    1.0000 0.40968  0.00870  0.79690  Biso   1.000  H
  H1213    1.0000 0.33809  0.97389  0.24588  Biso   1.000  H
  H1214    1.0000 0.30942  0.96669  0.18971  Biso   1.000  H
  H1215    1.0000 0.33029  0.02429  0.20980  Biso   1.000  H
  H1216    1.0000 0.32961  0.91881  0.21409  Biso   1.000  H
  H1217    1.0000 0.32597  0.91039  0.15441  Biso   1.000  H
  H1218    1.0000 0.29292  0.96249  0.17921  Biso   1.000  H
  H1219    1.0000 0.67919  0.07798  0.35729  Biso   1.000  H
  H1220    1.0000 0.76158  0.08530  0.36790  Biso   1.000  H
  H1221    1.0000 0.73359  0.08099  0.31131  Biso   1.000  H
  H1222    1.0000 0.73359  0.08099  0.31127  Biso   1.000  H
  H1223    1.0000 0.67919  0.07802  0.35729  Biso   1.000  H
  H1224    1.0000 0.72437  0.14220  0.42942  Biso   1.000  H
  H1225    1.0000 0.67271  0.13480  0.38231  Biso   1.000  H
  H1226    1.0000 0.69459  0.19300  0.40041  Biso   1.000  H
  C699     1.0000 0.98561  0.16040  0.96200  Biso   1.000  C
  H1227    1.0000 0.92900  0.18952  0.02051  Biso   1.000  H
  H1228    1.0000 0.09757  0.10279  0.06321  Biso   1.000  H
  H1229    1.0000 0.11159  0.35331  0.12461  Biso   1.000  H
  H1230    1.0000 0.09646  0.40301  0.16028  Biso   1.000  H
  C700     1.0000 0.15540  0.34429  0.19629  Biso   1.000  C
  H1231    1.0000 0.11159  0.35331  0.12458  Biso   1.000  H
  C701     1.0000 0.13600  0.40360  0.20081  Biso   1.000  C
  H1232    1.0000 0.13621  0.35529  0.13331  Biso   1.000  H
  H1233    1.0000 0.16267  0.32249  0.18180  Biso   1.000  H
  C702     1.0000 0.84281  0.98959  0.84070  Biso   1.000  C
  H1234    1.0000 0.82278  0.84779  0.66382  Biso   1.000  H
  H1235    1.0000 0.79068  0.78888  0.66420  Biso   1.000  H
  C703     1.0000 0.71409  0.84669  0.65678  Biso   1.000  C
  H1236    1.0000 0.82278  0.84779  0.66378  Biso   1.000  H
  H1237    1.0000 0.79068  0.78892  0.66420  Biso   1.000  H
  C704     1.0000 0.77929  0.84510  0.64158  Biso   1.000  C
  H1238    1.0000 0.76591  0.77939  0.68128  Biso   1.000  H
  H1239    1.0000 0.70418  0.82172  0.68858  Biso   1.000  H
  H1240    1.0000 0.11159  0.64669  0.87539  Biso   1.000  H
  H1241    1.0000 0.09646  0.59699  0.83972  Biso   1.000  H
  C705     1.0000 0.15540  0.65571  0.80371  Biso   1.000  C
  H1242    1.0000 0.09646  0.59699  0.83968  Biso   1.000  H
  C706     1.0000 0.13600  0.59640  0.79919  Biso   1.000  C
  H1243    1.0000 0.13621  0.64471  0.86669  Biso   1.000  H
  H1244    1.0000 0.16267  0.67751  0.81820  Biso   1.000  H
  H1245    1.0000 0.44958  0.86481  0.07672  Biso   1.000  H
  H1246    1.0000 0.48179  0.90520  0.03601  Biso   1.000  H
  C707     1.0000 0.51131  0.82508  0.02099  Biso   1.000  C
  H1247    1.0000 0.44958  0.86481  0.07668  Biso   1.000  H
  C708     1.0000 0.49586  0.81171  0.01339  Biso   1.000  C
  H1248    1.0000 0.39181  0.17219  0.99488  Biso   1.000  H
  C709     1.0000 0.45997  0.13009  0.95940  Biso   1.000  C
  H1249    1.0000 0.41168  0.15660  0.95459  Biso   1.000  H
  H1250    1.0000 0.44789  0.11921  0.99402  Biso   1.000  H
  H1251    1.0000 0.40878  0.11711  0.02062  Biso   1.000  H
  H1252    1.0000 0.40878  0.11711  0.02058  Biso   1.000  H
  C710     1.0000 0.42929  0.15549  0.98962  Biso   1.000  C
  H1253    1.0000 0.35227  0.19070  0.02039  Biso   1.000  H
  H1254    1.0000 0.38048  0.14002  0.05012  Biso   1.000  H
  C711     1.0000 0.04259  0.12910  0.95071  Biso   1.000  C
  C712     1.0000 0.86680  0.08411  0.82320  Biso   1.000  C
  H1255    1.0000 0.33029  0.97571  0.79020  Biso   1.000  H
  H1256    1.0000 0.33809  0.02611  0.75412  Biso   1.000  H
  H1257    1.0000 0.30942  0.03331  0.81029  Biso   1.000  H
  H1258    1.0000 0.33809  0.02611  0.75408  Biso   1.000  H
  H1259    1.0000 0.32961  0.08119  0.78588  Biso   1.000  H
  H1260    1.0000 0.32597  0.08961  0.84559  Biso   1.000  H
  H1261    1.0000 0.29292  0.03751  0.82079  Biso   1.000  H
  C713     1.0000 0.94138  0.18619  0.92242  Biso   1.000  C
  C714     1.0000 0.94138  0.18619  0.92238  Biso   1.000  C
  H1262    1.0000 0.20120  0.35881  0.18651  Biso   1.000  H
  H1263    1.0000 0.15740  0.30552  0.19550  Biso   1.000  H
  H1264    1.0000 0.14359  0.35608  0.23042  Biso   1.000  H
  H1265    1.0000 0.14359  0.35608  0.23038  Biso   1.000  H
  H1266    1.0000 0.14359  0.35612  0.23042  Biso   1.000  H
  H1267    1.0000 0.14359  0.35612  0.23038  Biso   1.000  H
  H1268    1.0000 0.18460  0.41630  0.19889  Biso   1.000  H
  H1269    1.0000 0.12329  0.39731  0.23610  Biso   1.000  H
  H1270    1.0000 0.10421  0.43019  0.18651  Biso   1.000  H
  H1271    1.0000 0.88351  0.98081  0.82169  Biso   1.000  H
  H1272    1.0000 0.70360  0.83248  0.62292  Biso   1.000  H
  H1273    1.0000 0.67519  0.83691  0.67981  Biso   1.000  H
  C715     1.0000 0.72289  0.90572  0.65490  Biso   1.000  C
  H1274    1.0000 0.70360  0.83248  0.62288  Biso   1.000  H
  H1275    1.0000 0.70360  0.83252  0.62292  Biso   1.000  H
  H1276    1.0000 0.70360  0.83252  0.62288  Biso   1.000  H
  C716     1.0000 0.71077  0.84360  0.60351  Biso   1.000  C
  H1277    1.0000 0.82030  0.82702  0.62631  Biso   1.000  H
  H1278    1.0000 0.79247  0.88202  0.64979  Biso   1.000  H
  H1279    1.0000 0.20120  0.64119  0.81349  Biso   1.000  H
  H1280    1.0000 0.15740  0.69448  0.80450  Biso   1.000  H
  H1281    1.0000 0.14359  0.64392  0.76958  Biso   1.000  H
  H1282    1.0000 0.15740  0.69452  0.80450  Biso   1.000  H
  H1283    1.0000 0.18460  0.58370  0.80108  Biso   1.000  H
  H1284    1.0000 0.12329  0.60269  0.76390  Biso   1.000  H
  H1285    1.0000 0.10421  0.56981  0.81349  Biso   1.000  H
  H1286    1.0000 0.52390  0.83221  0.98589  Biso   1.000  H
  H1287    1.0000 0.51421  0.80562  0.97938  Biso   1.000  H
  H1288    1.0000 0.55411  0.82481  0.04169  Biso   1.000  H
  H1289    1.0000 0.48769  0.79070  0.02340  Biso   1.000  H
  H1290    1.0000 0.53118  0.83058  0.03337  Biso   1.000  H
  H1291    1.0000 0.48527  0.77769  0.02931  Biso   1.000  H
  H1292    1.0000 0.44958  0.13519  0.92328  Biso   1.000  H
  H1293    1.0000 0.48179  0.09480  0.96399  Biso   1.000  H
  C717     1.0000 0.51131  0.17492  0.97901  Biso   1.000  C
  C718     1.0000 0.49586  0.18829  0.98661  Biso   1.000  C
  H1294    1.0000 0.05340  0.12202  0.91651  Biso   1.000  H
  N55      1.0000 0.85051  0.13120  0.82651  Biso   1.000  N
  H1295    1.0000 0.90707  0.07501  0.80371  Biso   1.000  H
  N56      1.0000 0.95999  0.18382  0.87670  Biso   1.000  N
  H1296    1.0000 0.89937  0.20439  0.93148  Biso   1.000  H
  H1297    1.0000 0.67919  0.92202  0.64271  Biso   1.000  H
  H1298    1.0000 0.76158  0.91470  0.63210  Biso   1.000  H
  H1299    1.0000 0.73359  0.91901  0.68869  Biso   1.000  H
  H1300    1.0000 0.72437  0.85780  0.57058  Biso   1.000  H
  H1301    1.0000 0.67271  0.86520  0.61769  Biso   1.000  H
  H1302    1.0000 0.69459  0.80700  0.59959  Biso   1.000  H
  H1303    1.0000 0.55411  0.17519  0.95831  Biso   1.000  H
  H1304    1.0000 0.48769  0.20930  0.97660  Biso   1.000  H
  H1305    1.0000 0.53118  0.16942  0.96659  Biso   1.000  H
  H1306    1.0000 0.52390  0.16779  0.01411  Biso   1.000  H
  H1307    1.0000 0.51421  0.19438  0.02062  Biso   1.000  H
  H1308    1.0000 0.48527  0.22231  0.97069  Biso   1.000  H
  C719     1.0000 0.89299  0.17139  0.80021  Biso   1.000  C
  C720     1.0000 0.91619  0.21191  0.83972  Biso   1.000  C
  C721     1.0000 0.91619  0.21191  0.83968  Biso   1.000  C
  H1309    1.0000 0.93480  0.15490  0.78362  Biso   1.000  H
  C722     1.0000 0.84571  0.19869  0.76142  Biso   1.000  C
  H1310    1.0000 0.93480  0.15490  0.78358  Biso   1.000  H
  C723     1.0000 0.84571  0.19869  0.76138  Biso   1.000  C
  C724     1.0000 0.86311  0.19232  0.75088  Biso   1.000  C
  H1311    1.0000 0.93727  0.15260  0.79039  Biso   1.000  H
  H1312    1.0000 0.87307  0.22500  0.85729  Biso   1.000  H
  C725     1.0000 0.95820  0.26010  0.82139  Biso   1.000  C
  C726     1.0000 0.96310  0.24811  0.80879  Biso   1.000  C
  H1313    1.0000 0.87560  0.23102  0.85541  Biso   1.000  H
  H1314    1.0000 0.87228  0.22762  0.74490  Biso   1.000  H
  H1315    1.0000 0.80449  0.21452  0.77861  Biso   1.000  H
  C727     1.0000 0.81941  0.15810  0.72022  Biso   1.000  C
  H1316    1.0000 0.80449  0.21452  0.77858  Biso   1.000  H
  C728     1.0000 0.81941  0.15810  0.72018  Biso   1.000  C
  H1317    1.0000 0.81878  0.21139  0.75841  Biso   1.000  H
  H1318    1.0000 0.89679  0.21852  0.73708  Biso   1.000  H
  C729     1.0000 0.84798  0.15130  0.70980  Biso   1.000  C
  H1319    1.0000 0.92900  0.28020  0.79720  Biso   1.000  H
  C730     1.0000 0.98208  0.29891  0.86549  Biso   1.000  C
  C731     1.0000 0.98898  0.29100  0.84480  Biso   1.000  C
  H1320    1.0000 0.93617  0.26402  0.78068  Biso   1.000  H
  H1321    1.0000 0.00058  0.24760  0.80330  Biso   1.000  H
  H1322    1.0000 0.00348  0.22809  0.79472  Biso   1.000  H
  H1323    1.0000 0.86000  0.14611  0.69979  Biso   1.000  H
  H1324    1.0000 0.79859  0.12681  0.73689  Biso   1.000  H
  C732     1.0000 0.76258  0.18441  0.68459  Biso   1.000  C
  C733     1.0000 0.80302  0.17409  0.66491  Biso   1.000  C
  H1325    1.0000 0.82189  0.12119  0.72500  Biso   1.000  H
  H1326    1.0000 0.89289  0.13769  0.69648  Biso   1.000  H
  H1327    1.0000 0.94160  0.30489  0.88822  Biso   1.000  H
  H1328    1.0000 0.94160  0.30489  0.88818  Biso   1.000  H
  H1329    1.0000 0.94818  0.30572  0.86331  Biso   1.000  H
  H1330    1.0000 0.01971  0.28138  0.88532  Biso   1.000  H
  C734     1.0000 0.01081  0.35501  0.84611  Biso   1.000  C
  H1331    1.0000 0.01971  0.28138  0.88528  Biso   1.000  H
  C735     1.0000 0.01081  0.35501  0.84608  Biso   1.000  C
  H1332    1.0000 0.01971  0.28142  0.88532  Biso   1.000  H
  H1333    1.0000 0.01971  0.28142  0.88528  Biso   1.000  H
  H1334    1.0000 0.02130  0.27490  0.86982  Biso   1.000  H
  C736     1.0000 0.02878  0.33761  0.81639  Biso   1.000  C
  H1335    1.0000 0.72859  0.20570  0.70419  Biso   1.000  H
  H1336    1.0000 0.73660  0.15719  0.66529  Biso   1.000  H
  C737     1.0000 0.80692  0.22002  0.64911  Biso   1.000  C
  C738     1.0000 0.83902  0.20332  0.62281  Biso   1.000  C
  H1337    1.0000 0.77698  0.14409  0.64971  Biso   1.000  H
  H1338    1.0000 0.76717  0.19822  0.67940  Biso   1.000  H
  H1339    1.0000 0.97602  0.37048  0.82248  Biso   1.000  H
  H1340    1.0000 0.97602  0.37052  0.82248  Biso   1.000  H
  H1341    1.0000 0.01550  0.37931  0.87508  Biso   1.000  H
  C739     1.0000 0.07991  0.35019  0.82030  Biso   1.000  C
  C740     1.0000 0.06041  0.37579  0.85010  Biso   1.000  C
  H1342    1.0000 0.02288  0.39339  0.86989  Biso   1.000  H
  H1343    1.0000 0.99489  0.35600  0.79412  Biso   1.000  H
  H1344    1.0000 0.07559  0.32419  0.79261  Biso   1.000  H
  H1345    1.0000 0.06610  0.32222  0.79479  Biso   1.000  H
  H1346    1.0000 0.81561  0.25440  0.66581  Biso   1.000  H
  H1347    1.0000 0.85320  0.20301  0.64309  Biso   1.000  H
  C741     1.0000 0.76902  0.23039  0.59549  Biso   1.000  C
  H1348    1.0000 0.81561  0.25440  0.66578  Biso   1.000  H
  H1349    1.0000 0.86369  0.23391  0.63771  Biso   1.000  H
  C742     1.0000 0.79100  0.22500  0.57668  Biso   1.000  C
  H1350    1.0000 0.87507  0.17951  0.60851  Biso   1.000  H
  H1351    1.0000 0.11507  0.33642  0.84450  Biso   1.000  H
  C743     1.0000 0.10769  0.40392  0.79810  Biso   1.000  C
  C744     1.0000 0.10379  0.41939  0.81951  Biso   1.000  C
  H1352    1.0000 0.09230  0.35739  0.87381  Biso   1.000  H
  H1353    1.0000 0.79701  0.25531  0.57570  Biso   1.000  H
  H1354    1.0000 0.72179  0.24542  0.60121  Biso   1.000  H
  H1355    1.0000 0.76438  0.19691  0.57721  Biso   1.000  H
  H1356    1.0000 0.76248  0.25480  0.58831  Biso   1.000  H
  H1357    1.0000 0.76037  0.19660  0.56460  Biso   1.000  H
  H1358    1.0000 0.82210  0.23672  0.54929  Biso   1.000  H
  H1359    1.0000 0.15329  0.39810  0.78170  Biso   1.000  H
  H1360    1.0000 0.11317  0.42971  0.82531  Biso   1.000  H
  H1361    1.0000 0.07390  0.41741  0.77331  Biso   1.000  H
  H1362    1.0000 0.07216  0.43759  0.79588  Biso   1.000  H
  H1363    1.0000 0.14180  0.40210  0.80059  Biso   1.000  H
  H1364    1.0000 0.12387  0.44510  0.84299  Biso   1.000  H
  C745     1.0000 0.76902  0.76961  0.40451  Biso   1.000  C
  H1365    1.0000 0.79701  0.74469  0.42430  Biso   1.000  H
  H1366    1.0000 0.76438  0.80309  0.42279  Biso   1.000  H
  C746     1.0000 0.80692  0.77998  0.35089  Biso   1.000  C
  H1367    1.0000 0.72179  0.75458  0.39879  Biso   1.000  H
  C747     1.0000 0.80692  0.78002  0.35089  Biso   1.000  C
  H1368    1.0000 0.72179  0.75462  0.39879  Biso   1.000  H
  C748     1.0000 0.83902  0.79672  0.37719  Biso   1.000  C
  H1369    1.0000 0.76248  0.74520  0.41169  Biso   1.000  H
  H1370    1.0000 0.76037  0.80340  0.43540  Biso   1.000  H
  H1371    1.0000 0.81561  0.74560  0.33419  Biso   1.000  H
  C749     1.0000 0.76258  0.81559  0.31541  Biso   1.000  C
  H1372    1.0000 0.85320  0.79699  0.35691  Biso   1.000  H
  C750     1.0000 0.76258  0.81559  0.31537  Biso   1.000  C
  H1373    1.0000 0.85320  0.79699  0.35687  Biso   1.000  H
  C751     1.0000 0.80302  0.82591  0.33509  Biso   1.000  C
  H1374    1.0000 0.76717  0.80178  0.32060  Biso   1.000  H
  H1375    1.0000 0.86369  0.76609  0.36229  Biso   1.000  H
  C752     1.0000 0.79100  0.77500  0.42328  Biso   1.000  C
  H1376    1.0000 0.87507  0.82049  0.39149  Biso   1.000  H
  C753     1.0000 0.81941  0.84190  0.27978  Biso   1.000  C
  H1377    1.0000 0.72859  0.79430  0.29581  Biso   1.000  H
  H1378    1.0000 0.73660  0.84281  0.33471  Biso   1.000  H
  H1379    1.0000 0.73660  0.84281  0.33468  Biso   1.000  H
  C754     1.0000 0.84798  0.84870  0.29020  Biso   1.000  C
  H1380    1.0000 0.77698  0.85591  0.35029  Biso   1.000  H
  H1381    1.0000 0.82210  0.76328  0.45071  Biso   1.000  H
  C755     1.0000 0.84571  0.80131  0.23858  Biso   1.000  C
  H1382    1.0000 0.86000  0.85389  0.30021  Biso   1.000  H
  H1383    1.0000 0.79859  0.87319  0.26311  Biso   1.000  H
  H1384    1.0000 0.86000  0.85389  0.30017  Biso   1.000  H
  H1385    1.0000 0.79859  0.87319  0.26307  Biso   1.000  H
  C756     1.0000 0.86311  0.80772  0.24912  Biso   1.000  C
  H1386    1.0000 0.82189  0.87881  0.27500  Biso   1.000  H
  H1387    1.0000 0.89289  0.86231  0.30348  Biso   1.000  H
  C757     1.0000 0.89299  0.82861  0.19979  Biso   1.000  C
  H1388    1.0000 0.87228  0.77238  0.25510  Biso   1.000  H
  H1389    1.0000 0.80449  0.78548  0.22139  Biso   1.000  H
  H1390    1.0000 0.80449  0.78552  0.22139  Biso   1.000  H
  H1391    1.0000 0.81878  0.78861  0.24159  Biso   1.000  H
  H1392    1.0000 0.89679  0.78148  0.26289  Biso   1.000  H
  N57      1.0000 0.85051  0.86880  0.17349  Biso   1.000  N
  H1393    1.0000 0.93480  0.84510  0.21638  Biso   1.000  H
  C758     1.0000 0.91619  0.78809  0.16028  Biso   1.000  C
  H1394    1.0000 0.93727  0.84740  0.20961  Biso   1.000  H
  C759     1.0000 0.86680  0.91589  0.17680  Biso   1.000  C
  C760     1.0000 0.95820  0.73990  0.17861  Biso   1.000  C
  N58      1.0000 0.95999  0.81618  0.12330  Biso   1.000  N
  H1395    1.0000 0.87307  0.77500  0.14271  Biso   1.000  H
  H1396    1.0000 0.87307  0.77500  0.14267  Biso   1.000  H
  N59      1.0000 0.95999  0.81622  0.12330  Biso   1.000  N
  C761     1.0000 0.96310  0.75189  0.19117  Biso   1.000  C
  H1397    1.0000 0.87560  0.76902  0.14459  Biso   1.000  H
  C762     1.0000 0.82689  0.95901  0.15201  Biso   1.000  C
  H1398    1.0000 0.90707  0.92499  0.19629  Biso   1.000  H
  H1399    1.0000 0.92900  0.71980  0.20280  Biso   1.000  H
  C763     1.0000 0.98208  0.70109  0.13451  Biso   1.000  C
  C764     1.0000 0.98898  0.70900  0.15520  Biso   1.000  C
  H1400    1.0000 0.93617  0.73598  0.21928  Biso   1.000  H
  H1401    1.0000 0.00058  0.75240  0.19670  Biso   1.000  H
  C765     1.0000 0.94138  0.81381  0.07758  Biso   1.000  C
  H1402    1.0000 0.00348  0.77191  0.20528  Biso   1.000  H
  C766     1.0000 0.76828  0.94631  0.12051  Biso   1.000  C
  C767     1.0000 0.76828  0.94631  0.12048  Biso   1.000  C
  C768     1.0000 0.84281  0.01041  0.15930  Biso   1.000  C
  H1403    1.0000 0.94160  0.69511  0.11178  Biso   1.000  H
  H1404    1.0000 0.94818  0.69432  0.13669  Biso   1.000  H
  H1405    1.0000 0.01971  0.71862  0.11468  Biso   1.000  H
  C769     1.0000 0.01081  0.64499  0.15389  Biso   1.000  C
  H1406    1.0000 0.02130  0.72510  0.13018  Biso   1.000  H
  C770     1.0000 0.02878  0.66239  0.18357  Biso   1.000  C
  C771     1.0000 0.98561  0.83960  0.03800  Biso   1.000  C
  H1407    1.0000 0.89937  0.79561  0.06852  Biso   1.000  H
  H1408    1.0000 0.89937  0.79561  0.06848  Biso   1.000  H
  C772     1.0000 0.72758  0.98560  0.09971  Biso   1.000  C
  H1409    1.0000 0.75731  0.91019  0.11400  Biso   1.000  H
  C773     1.0000 0.80207  0.05041  0.14012  Biso   1.000  C
  H1410    1.0000 0.88351  0.01919  0.17831  Biso   1.000  H
  C774     1.0000 0.80207  0.05041  0.14008  Biso   1.000  C
  H1411    1.0000 0.97602  0.62952  0.17752  Biso   1.000  H
  H1412    1.0000 0.97602  0.62952  0.17748  Biso   1.000  H
  H1413    1.0000 0.01550  0.62069  0.12492  Biso   1.000  H
  C775     1.0000 0.07991  0.64981  0.17970  Biso   1.000  C
  H1414    1.0000 0.01550  0.62069  0.12488  Biso   1.000  H
  C776     1.0000 0.06041  0.62421  0.14990  Biso   1.000  C
  H1415    1.0000 0.02288  0.60661  0.13011  Biso   1.000  H
  H1416    1.0000 0.99489  0.64400  0.20588  Biso   1.000  H
  H1417    1.0000 0.07559  0.67581  0.20739  Biso   1.000  H
  H1418    1.0000 0.06610  0.67778  0.20521  Biso   1.000  H
  C777     1.0000 0.96948  0.83078  0.98770  Biso   1.000  C
  C778     1.0000 0.96948  0.83082  0.98770  Biso   1.000  C
  C779     1.0000 0.04259  0.87090  0.04929  Biso   1.000  C
  C780     1.0000 0.66502  0.97171  0.06968  Biso   1.000  C
  C781     1.0000 0.74450  0.03810  0.11009  Biso   1.000  C
  C782     1.0000 0.81567  0.10789  0.15091  Biso   1.000  C
  C783     1.0000 0.81567  0.10789  0.15088  Biso   1.000  C
  H1419    1.0000 0.11507  0.66358  0.15550  Biso   1.000  H
  C784     1.0000 0.10769  0.59608  0.20190  Biso   1.000  C
  H1420    1.0000 0.11507  0.66362  0.15550  Biso   1.000  H
  C785     1.0000 0.10379  0.58061  0.18049  Biso   1.000  C
  H1421    1.0000 0.09230  0.64261  0.12619  Biso   1.000  H
  H1422    1.0000 0.92900  0.81048  0.97949  Biso   1.000  H
  C786     1.0000 0.01107  0.85088  0.94932  Biso   1.000  C
  C787     1.0000 0.01107  0.85088  0.94928  Biso   1.000  C
  C788     1.0000 0.01107  0.85092  0.94932  Biso   1.000  C
  C789     1.0000 0.01107  0.85092  0.94928  Biso   1.000  C
  C790     1.0000 0.08460  0.89250  0.01181  Biso   1.000  C
  H1423    1.0000 0.05340  0.87798  0.08349  Biso   1.000  H
  C791     1.0000 0.08460  0.89250  0.01178  Biso   1.000  C
  H1424    1.0000 0.05340  0.87802  0.08349  Biso   1.000  H
  H1425    1.0000 0.65479  0.93539  0.06389  Biso   1.000  H
  N60      1.0000 0.62538  0.00582  0.05189  Biso   1.000  N
  H1426    1.0000 0.71641  0.06572  0.09651  Biso   1.000  H
  N61      1.0000 0.86369  0.12380  0.17910  Biso   1.000  N
  H1427    1.0000 0.78609  0.13341  0.13549  Biso   1.000  H
  H1428    1.0000 0.15329  0.60190  0.21830  Biso   1.000  H
  H1429    1.0000 0.11317  0.57029  0.17469  Biso   1.000  H
  H1430    1.0000 0.07390  0.58259  0.22669  Biso   1.000  H
  H1431    1.0000 0.07216  0.56241  0.20408  Biso   1.000  H
  H1432    1.0000 0.14180  0.59790  0.19938  Biso   1.000  H
  H1433    1.0000 0.12387  0.55490  0.15701  Biso   1.000  H
  C792     1.0000 0.99531  0.84071  0.89661  Biso   1.000  C
  C793     1.0000 0.06889  0.88249  0.96249  Biso   1.000  C
  C794     1.0000 0.14670  0.92518  0.02589  Biso   1.000  C
  C795     1.0000 0.14670  0.92522  0.02589  Biso   1.000  C
  C796     1.0000 0.56028  0.98940  0.02589  Biso   1.000  C
  C797     1.0000 0.86859  0.18010  0.19001  Biso   1.000  C
  N62      1.0000 0.94586  0.81041  0.88197  Biso   1.000  N
  H1434    1.0000 0.02340  0.85769  0.87181  Biso   1.000  H
  H1435    1.0000 0.09757  0.89721  0.93679  Biso   1.000  H
  N63      1.0000 0.18660  0.94291  0.99421  Biso   1.000  N
  H1436    1.0000 0.15550  0.93238  0.06050  Biso   1.000  H
  H1437    1.0000 0.15550  0.93242  0.06050  Biso   1.000  H
  H1438    1.0000 0.55938  0.94991  0.02412  Biso   1.000  H
  H1439    1.0000 0.55938  0.94991  0.02408  Biso   1.000  H
  H1440    1.0000 0.56180  0.94999  0.02299  Biso   1.000  H
  C798     1.0000 0.56028  0.01060  0.97411  Biso   1.000  C
  C799     1.0000 0.56028  0.01060  0.97408  Biso   1.000  C
  C800     1.0000 0.49797  0.00799  0.05941  Biso   1.000  C
  C801     1.0000 0.49001  0.00301  0.04850  Biso   1.000  C
  H1441    1.0000 0.83190  0.19778  0.16879  Biso   1.000  H
  C802     1.0000 0.85088  0.19351  0.24449  Biso   1.000  C
  C803     1.0000 0.93917  0.20059  0.17138  Biso   1.000  C
  H1442    1.0000 0.83190  0.19782  0.16879  Biso   1.000  H
  C804     1.0000 0.86400  0.18350  0.24690  Biso   1.000  C
  H1443    1.0000 0.82890  0.19988  0.17390  Biso   1.000  H
  C805     1.0000 0.93917  0.79941  0.82862  Biso   1.000  C
  C806     1.0000 0.93917  0.79941  0.82858  Biso   1.000  C
  C807     1.0000 0.25007  0.97341  0.01242  Biso   1.000  C
  C808     1.0000 0.25007  0.97341  0.01238  Biso   1.000  C
  N64      1.0000 0.62538  0.99418  0.94811  Biso   1.000  N
  C809     1.0000 0.49797  0.99201  0.94059  Biso   1.000  C
  N65      1.0000 0.62538  0.99418  0.94808  Biso   1.000  N
  N66      1.0000 0.62538  0.99422  0.94811  Biso   1.000  N
  N67      1.0000 0.62538  0.99422  0.94808  Biso   1.000  N
  C810     1.0000 0.49001  0.99699  0.95150  Biso   1.000  C
  H1444    1.0000 0.55938  0.05009  0.97588  Biso   1.000  H
  H1445    1.0000 0.56180  0.05001  0.97701  Biso   1.000  H
  C811     1.0000 0.49402  0.98441  0.11148  Biso   1.000  C
  H1446    1.0000 0.45348  0.99988  0.04169  Biso   1.000  H
  H1447    1.0000 0.45348  0.99992  0.04169  Biso   1.000  H
  C812     1.0000 0.48000  0.97899  0.10020  Biso   1.000  C
  H1448    1.0000 0.50087  0.04700  0.06291  Biso   1.000  H
  H1449    1.0000 0.48622  0.04241  0.05151  Biso   1.000  H
  H1450    1.0000 0.45190  0.99130  0.02570  Biso   1.000  H
  H1451    1.0000 0.85140  0.23248  0.24840  Biso   1.000  H
  H1452    1.0000 0.88820  0.17879  0.26639  Biso   1.000  H
  C813     1.0000 0.77729  0.17199  0.26300  Biso   1.000  C
  H1453    1.0000 0.85140  0.23252  0.24840  Biso   1.000  H
  C814     1.0000 0.79000  0.16372  0.26458  Biso   1.000  C
  H1454    1.0000 0.87117  0.22049  0.25788  Biso   1.000  H
  N68      1.0000 0.94586  0.18959  0.11803  Biso   1.000  N
  H1455    1.0000 0.97828  0.18279  0.19019  Biso   1.000  H
  C815     1.0000 0.94418  0.26121  0.17849  Biso   1.000  C
  C816     1.0000 0.95799  0.25891  0.18199  Biso   1.000  C
  H1456    1.0000 0.97602  0.17879  0.18861  Biso   1.000  H
  H1457    1.0000 0.90138  0.16138  0.26228  Biso   1.000  H
  C817     1.0000 0.86859  0.81990  0.80999  Biso   1.000  C
  H1458    1.0000 0.97828  0.81721  0.80981  Biso   1.000  H
  C818     1.0000 0.94418  0.73879  0.82151  Biso   1.000  C
  C819     1.0000 0.95799  0.74109  0.81801  Biso   1.000  C
  H1459    1.0000 0.97602  0.82121  0.81139  Biso   1.000  H
  C820     1.0000 0.31348  0.93860  0.99402  Biso   1.000  C
  C821     1.0000 0.31348  0.93860  0.99398  Biso   1.000  C
  H1460    1.0000 0.24991  0.97689  0.04989  Biso   1.000  H
  C822     1.0000 0.31828  0.94081  0.00038  Biso   1.000  C
  H1461    1.0000 0.24638  0.97840  0.04970  Biso   1.000  H
  C823     1.0000 0.25007  0.02659  0.98758  Biso   1.000  C
  C824     1.0000 0.66502  0.02829  0.93032  Biso   1.000  C
  C825     1.0000 0.66502  0.02829  0.93028  Biso   1.000  C
  H1462    1.0000 0.50087  0.95300  0.93709  Biso   1.000  H
  H1463    1.0000 0.48622  0.95759  0.94849  Biso   1.000  H
  H1464    1.0000 0.45348  0.00012  0.95831  Biso   1.000  H
  C826     1.0000 0.49402  0.01559  0.88852  Biso   1.000  C
  C827     1.0000 0.49402  0.01559  0.88848  Biso   1.000  C
  C828     1.0000 0.48000  0.02101  0.89980  Biso   1.000  C
  H1465    1.0000 0.45190  0.00870  0.97430  Biso   1.000  H
  H1466    1.0000 0.49871  0.94552  0.10900  Biso   1.000  H
  H1467    1.0000 0.53397  0.99771  0.13180  Biso   1.000  H
  C829     1.0000 0.42570  0.99751  0.13820  Biso   1.000  C
  C830     1.0000 0.40699  0.99399  0.12522  Biso   1.000  C
  H1468    1.0000 0.51848  0.98979  0.12251  Biso   1.000  H
  H1469    1.0000 0.48179  0.93958  0.09688  Biso   1.000  H
  H1470    1.0000 0.76928  0.13531  0.25130  Biso   1.000  H
  H1471    1.0000 0.73828  0.19470  0.25081  Biso   1.000  H
  C831     1.0000 0.78320  0.17428  0.32422  Biso   1.000  C
  C832     1.0000 0.78320  0.17428  0.32418  Biso   1.000  C
  C833     1.0000 0.78320  0.17432  0.32422  Biso   1.000  C
  C834     1.0000 0.78320  0.17432  0.32418  Biso   1.000  C
  C835     1.0000 0.75589  0.18239  0.31428  Biso   1.000  C
  H1472    1.0000 0.75647  0.17230  0.23741  Biso   1.000  H
  H1473    1.0000 0.79279  0.12459  0.26631  Biso   1.000  H
  C836     1.0000 0.99531  0.15929  0.10339  Biso   1.000  C
  H1474    1.0000 0.90760  0.27869  0.15791  Biso   1.000  H
  H1475    1.0000 0.93527  0.27011  0.21420  Biso   1.000  H
  H1476    1.0000 0.90760  0.27869  0.15787  Biso   1.000  H
  H1477    1.0000 0.92431  0.28170  0.16359  Biso   1.000  H
  H1478    1.0000 0.95261  0.26580  0.21811  Biso   1.000  H
  C837     1.0000 0.01729  0.28190  0.16299  Biso   1.000  C
  C838     1.0000 0.03300  0.27501  0.16600  Biso   1.000  C
  N69      1.0000 0.86369  0.87620  0.82090  Biso   1.000  N
  H1479    1.0000 0.83190  0.80222  0.83121  Biso   1.000  H
  C839     1.0000 0.85088  0.80649  0.75551  Biso   1.000  C
  H1480    1.0000 0.83190  0.80222  0.83118  Biso   1.000  H
  C840     1.0000 0.86400  0.81650  0.75310  Biso   1.000  C
  H1481    1.0000 0.82890  0.80012  0.82610  Biso   1.000  H
  H1482    1.0000 0.90760  0.72131  0.84209  Biso   1.000  H
  H1483    1.0000 0.93527  0.72989  0.78580  Biso   1.000  H
  H1484    1.0000 0.92431  0.71830  0.83641  Biso   1.000  H
  H1485    1.0000 0.95261  0.73420  0.78189  Biso   1.000  H
  C841     1.0000 0.01729  0.71810  0.83701  Biso   1.000  C
  C842     1.0000 0.03300  0.72499  0.83400  Biso   1.000  C
  H1486    1.0000 0.35749  0.95949  0.99488  Biso   1.000  H
  H1487    1.0000 0.30531  0.92720  0.95880  Biso   1.000  H
  H1488    1.0000 0.33240  0.94770  0.96520  Biso   1.000  H
  C843     1.0000 0.32096  0.88819  0.02920  Biso   1.000  C
  C844     1.0000 0.30921  0.88051  0.00768  Biso   1.000  C
  H1489    1.0000 0.35686  0.95331  0.02250  Biso   1.000  H
  H1490    1.0000 0.24991  0.02311  0.95011  Biso   1.000  H
  C845     1.0000 0.31828  0.05919  0.99959  Biso   1.000  C
  H1491    1.0000 0.24638  0.02160  0.95030  Biso   1.000  H
  N70      1.0000 0.18660  0.05709  0.00579  Biso   1.000  N
  C846     1.0000 0.31348  0.06140  0.00598  Biso   1.000  C
  C847     1.0000 0.72758  0.01440  0.90029  Biso   1.000  C
  H1492    1.0000 0.65479  0.06461  0.93611  Biso   1.000  H
  H1493    1.0000 0.65479  0.06461  0.93607  Biso   1.000  H
  H1494    1.0000 0.49871  0.05448  0.89100  Biso   1.000  H
  H1495    1.0000 0.53397  0.00229  0.86820  Biso   1.000  H
  C848     1.0000 0.42570  0.00249  0.86180  Biso   1.000  C
  H1496    1.0000 0.49871  0.05452  0.89100  Biso   1.000  H
  C849     1.0000 0.40699  0.00601  0.87478  Biso   1.000  C
  H1497    1.0000 0.51848  0.01021  0.87749  Biso   1.000  H
  H1498    1.0000 0.48179  0.06042  0.90308  Biso   1.000  H
  H1499    1.0000 0.38612  0.98220  0.11878  Biso   1.000  H
  C850     1.0000 0.42101  0.97788  0.19159  Biso   1.000  C
  C851     1.0000 0.42101  0.97792  0.19159  Biso   1.000  C
  C852     1.0000 0.40399  0.96601  0.17530  Biso   1.000  C
  H1500    1.0000 0.41959  0.03640  0.13831  Biso   1.000  H
  H1501    1.0000 0.40441  0.03319  0.13048  Biso   1.000  H
  H1502    1.0000 0.36688  0.98358  0.10351  Biso   1.000  H
  H1503    1.0000 0.82278  0.15221  0.33618  Biso   1.000  H
  H1504    1.0000 0.79068  0.21112  0.33580  Biso   1.000  H
  C853     1.0000 0.71409  0.15331  0.34322  Biso   1.000  C
  C854     1.0000 0.71409  0.15331  0.34318  Biso   1.000  C
  C855     1.0000 0.77929  0.15490  0.35838  Biso   1.000  C
  H1505    1.0000 0.76591  0.22061  0.31868  Biso   1.000  H
  H1506    1.0000 0.70418  0.17832  0.31139  Biso   1.000  H
  C856     1.0000 0.01107  0.14912  0.05068  Biso   1.000  C
  H1507    1.0000 0.02340  0.14231  0.12819  Biso   1.000  H
  H1508    1.0000 0.05387  0.26338  0.18290  Biso   1.000  H
  H1509    1.0000 0.02551  0.27371  0.12710  Biso   1.000  H
  C857     1.0000 0.02499  0.34192  0.17108  Biso   1.000  C
  H1510    1.0000 0.05387  0.26342  0.18290  Biso   1.000  H
  C858     1.0000 0.05250  0.33250  0.18049  Biso   1.000  C
  H1511    1.0000 0.03721  0.27078  0.12951  Biso   1.000  H
  H1512    1.0000 0.06658  0.25060  0.18241  Biso   1.000  H
  C859     1.0000 0.81567  0.89211  0.84909  Biso   1.000  C
  H1513    1.0000 0.85140  0.76752  0.75160  Biso   1.000  H
  H1514    1.0000 0.88820  0.82121  0.73361  Biso   1.000  H
  C860     1.0000 0.77729  0.82801  0.73700  Biso   1.000  C
  H1515    1.0000 0.88820  0.82121  0.73358  Biso   1.000  H
  C861     1.0000 0.79000  0.83632  0.73538  Biso   1.000  C
  H1516    1.0000 0.87117  0.77951  0.74208  Biso   1.000  H
  H1517    1.0000 0.90138  0.83862  0.73768  Biso   1.000  H
  H1518    1.0000 0.05387  0.73662  0.81710  Biso   1.000  H
  H1519    1.0000 0.02551  0.72629  0.87290  Biso   1.000  H
  C862     1.0000 0.02499  0.65808  0.82892  Biso   1.000  C
  C863     1.0000 0.02499  0.65808  0.82888  Biso   1.000  C
  C864     1.0000 0.02499  0.65812  0.82892  Biso   1.000  C
  C865     1.0000 0.02499  0.65812  0.82888  Biso   1.000  C
  C866     1.0000 0.05250  0.66750  0.81951  Biso   1.000  C
  H1520    1.0000 0.03721  0.72922  0.87049  Biso   1.000  H
  H1521    1.0000 0.06658  0.74940  0.81759  Biso   1.000  H
  H1522    1.0000 0.28327  0.86200  0.02261  Biso   1.000  H
  H1523    1.0000 0.32028  0.89808  0.06532  Biso   1.000  H
  C867     1.0000 0.39829  0.86591  0.01212  Biso   1.000  C
  H1524    1.0000 0.28327  0.86200  0.02258  Biso   1.000  H
  H1525    1.0000 0.32028  0.89808  0.06528  Biso   1.000  H
  C868     1.0000 0.39829  0.86591  0.01208  Biso   1.000  C
  H1526    1.0000 0.32028  0.89812  0.06532  Biso   1.000  H
  H1527    1.0000 0.32028  0.89812  0.06528  Biso   1.000  H
  H1528    1.0000 0.30689  0.87292  0.04421  Biso   1.000  H
  C869     1.0000 0.36977  0.84590  0.98378  Biso   1.000  C
  H1529    1.0000 0.26367  0.86971  0.99270  Biso   1.000  H
  C870     1.0000 0.32096  0.11181  0.97080  Biso   1.000  C
  C871     1.0000 0.30921  0.11949  0.99229  Biso   1.000  C
  H1530    1.0000 0.35686  0.04669  0.97750  Biso   1.000  H
  H1531    1.0000 0.35749  0.04051  0.00512  Biso   1.000  H
  H1532    1.0000 0.30531  0.07280  0.04120  Biso   1.000  H
  H1533    1.0000 0.35749  0.04051  0.00508  Biso   1.000  H
  H1534    1.0000 0.33240  0.05230  0.03480  Biso   1.000  H
  C872     1.0000 0.14670  0.07482  0.97411  Biso   1.000  C
  C873     1.0000 0.14670  0.07482  0.97408  Biso   1.000  C
  C874     1.0000 0.74450  0.96190  0.88991  Biso   1.000  C
  C875     1.0000 0.76828  0.05369  0.87949  Biso   1.000  C
  H1535    1.0000 0.41959  0.96360  0.86169  Biso   1.000  H
  H1536    1.0000 0.40441  0.96681  0.86948  Biso   1.000  H
  H1537    1.0000 0.38612  0.01780  0.88122  Biso   1.000  H
  C876     1.0000 0.42101  0.02212  0.80841  Biso   1.000  C
  H1538    1.0000 0.38612  0.01780  0.88118  Biso   1.000  H
  C877     1.0000 0.42101  0.02212  0.80838  Biso   1.000  C
  C878     1.0000 0.40399  0.03399  0.82470  Biso   1.000  C
  H1539    1.0000 0.36688  0.01642  0.89649  Biso   1.000  H
  H1540    1.0000 0.45438  0.99759  0.21318  Biso   1.000  H
  H1541    1.0000 0.43340  0.93990  0.19302  Biso   1.000  H
  C879     1.0000 0.34210  0.98659  0.21111  Biso   1.000  C
  H1542    1.0000 0.43340  0.93990  0.19298  Biso   1.000  H
  C880     1.0000 0.34210  0.98659  0.21108  Biso   1.000  C
  H1543    1.0000 0.44231  0.93951  0.17721  Biso   1.000  H
  C881     1.0000 0.33098  0.93701  0.18101  Biso   1.000  C
  H1544    1.0000 0.40968  0.99130  0.20310  Biso   1.000  H
  H1545    1.0000 0.70360  0.16752  0.37708  Biso   1.000  H
  H1546    1.0000 0.67519  0.16309  0.32019  Biso   1.000  H
  C882     1.0000 0.72289  0.09428  0.34510  Biso   1.000  C
  C883     1.0000 0.72289  0.09432  0.34510  Biso   1.000  C
  C884     1.0000 0.71077  0.15640  0.39649  Biso   1.000  C
  H1547    1.0000 0.82030  0.17302  0.37369  Biso   1.000  H
  H1548    1.0000 0.79247  0.11798  0.35021  Biso   1.000  H
  C885     1.0000 0.96948  0.16922  0.01230  Biso   1.000  C
  C886     1.0000 0.06889  0.11751  0.03751  Biso   1.000  C
  C887     1.0000 0.06889  0.11751  0.03747  Biso   1.000  C
  H1549    1.0000 0.98998  0.36032  0.14960  Biso   1.000  H
  H1550    1.0000 0.01349  0.35011  0.20649  Biso   1.000  H
  C888     1.0000 0.09831  0.36380  0.15919  Biso   1.000  C
  H1551    1.0000 0.04338  0.33729  0.21691  Biso   1.000  H
  C889     1.0000 0.12899  0.34940  0.16969  Biso   1.000  C
  H1552    1.0000 0.02050  0.35672  0.16220  Biso   1.000  H
  C890     1.0000 0.80207  0.94959  0.85988  Biso   1.000  C
  H1553    1.0000 0.78609  0.86659  0.86451  Biso   1.000  H
  H1554    1.0000 0.76928  0.86469  0.74870  Biso   1.000  H
  H1555    1.0000 0.73828  0.80530  0.74919  Biso   1.000  H
  C891     1.0000 0.78320  0.82572  0.67578  Biso   1.000  C
  C892     1.0000 0.75589  0.81761  0.68568  Biso   1.000  C
  H1556    1.0000 0.75647  0.82770  0.76259  Biso   1.000  H
  H1557    1.0000 0.79279  0.87541  0.73369  Biso   1.000  H
  H1558    1.0000 0.98998  0.63968  0.85040  Biso   1.000  H
  H1559    1.0000 0.01349  0.64989  0.79351  Biso   1.000  H
  C893     1.0000 0.09831  0.63620  0.84081  Biso   1.000  C
  H1560    1.0000 0.01349  0.64989  0.79348  Biso   1.000  H
  H1561    1.0000 0.04338  0.66271  0.78309  Biso   1.000  H
  C894     1.0000 0.12899  0.65060  0.83031  Biso   1.000  C
  H1562    1.0000 0.02050  0.64328  0.83780  Biso   1.000  H
  H1563    1.0000 0.40878  0.88289  0.97938  Biso   1.000  H
  H1564    1.0000 0.39181  0.82781  0.00512  Biso   1.000  H
  C895     1.0000 0.45997  0.86991  0.04060  Biso   1.000  C
  H1565    1.0000 0.39181  0.82781  0.00508  Biso   1.000  H
  H1566    1.0000 0.41168  0.84340  0.04538  Biso   1.000  H
  H1567    1.0000 0.44789  0.88079  0.00598  Biso   1.000  H
  H1568    1.0000 0.35227  0.80930  0.97961  Biso   1.000  H
  H1569    1.0000 0.38048  0.86002  0.94988  Biso   1.000  H
  C896     1.0000 0.42929  0.84451  0.01038  Biso   1.000  C
  H1570    1.0000 0.28327  0.13800  0.97739  Biso   1.000  H
  H1571    1.0000 0.32028  0.10192  0.93468  Biso   1.000  H
  C897     1.0000 0.39829  0.13409  0.98788  Biso   1.000  C
  H1572    1.0000 0.30689  0.12708  0.95579  Biso   1.000  H
  C898     1.0000 0.36977  0.15410  0.01622  Biso   1.000  C
  H1573    1.0000 0.26367  0.13029  0.00730  Biso   1.000  H
  C899     1.0000 0.08460  0.10750  0.98819  Biso   1.000  C
  H1574    1.0000 0.15550  0.06762  0.93950  Biso   1.000  H
  H1575    1.0000 0.71641  0.93428  0.90349  Biso   1.000  H
  H1576    1.0000 0.71641  0.93432  0.90349  Biso   1.000  H
  H1577    1.0000 0.75731  0.08981  0.88600  Biso   1.000  H
  C900     1.0000 0.82689  0.04099  0.84799  Biso   1.000  C
  H1578    1.0000 0.45438  0.00241  0.78682  Biso   1.000  H
  H1579    1.0000 0.43340  0.06010  0.80698  Biso   1.000  H
  C901     1.0000 0.34210  0.01341  0.78889  Biso   1.000  C
  H1580    1.0000 0.45438  0.00241  0.78678  Biso   1.000  H
  H1581    1.0000 0.44231  0.06049  0.82279  Biso   1.000  H
  C902     1.0000 0.33098  0.06299  0.81899  Biso   1.000  C
  H1582    1.0000 0.40968  0.00870  0.79690  Biso   1.000  H
  H1583    1.0000 0.33809  0.97389  0.24588  Biso   1.000  H
  H1584    1.0000 0.30942  0.96669  0.18971  Biso   1.000  H
  H1585    1.0000 0.33029  0.02429  0.20980  Biso   1.000  H
  H1586    1.0000 0.32961  0.91881  0.21409  Biso   1.000  H
  H1587    1.0000 0.32597  0.91039  0.15441  Biso   1.000  H
  H1588    1.0000 0.29292  0.96249  0.17921  Biso   1.000  H
  H1589    1.0000 0.67919  0.07798  0.35729  Biso   1.000  H
  H1590    1.0000 0.76158  0.08530  0.36790  Biso   1.000  H
  H1591    1.0000 0.73359  0.08099  0.31131  Biso   1.000  H
  H1592    1.0000 0.73359  0.08099  0.31127  Biso   1.000  H
  H1593    1.0000 0.67919  0.07802  0.35729  Biso   1.000  H
  H1594    1.0000 0.72437  0.14220  0.42942  Biso   1.000  H
  H1595    1.0000 0.67271  0.13480  0.38231  Biso   1.000  H
  H1596    1.0000 0.69459  0.19300  0.40041  Biso   1.000  H
  C903     1.0000 0.98561  0.16040  0.96200  Biso   1.000  C
  H1597    1.0000 0.92900  0.18952  0.02051  Biso   1.000  H
  H1598    1.0000 0.09757  0.10279  0.06321  Biso   1.000  H
  H1599    1.0000 0.11159  0.35331  0.12461  Biso   1.000  H
  H1600    1.0000 0.09646  0.40301  0.16028  Biso   1.000  H
  C904     1.0000 0.15540  0.34429  0.19629  Biso   1.000  C
  H1601    1.0000 0.11159  0.35331  0.12458  Biso   1.000  H
  C905     1.0000 0.13600  0.40360  0.20081  Biso   1.000  C
  H1602    1.0000 0.13621  0.35529  0.13331  Biso   1.000  H
  H1603    1.0000 0.16267  0.32249  0.18180  Biso   1.000  H
  C906     1.0000 0.84281  0.98959  0.84070  Biso   1.000  C
  H1604    1.0000 0.82278  0.84779  0.66382  Biso   1.000  H
  H1605    1.0000 0.79068  0.78888  0.66420  Biso   1.000  H
  C907     1.0000 0.71409  0.84669  0.65678  Biso   1.000  C
  H1606    1.0000 0.82278  0.84779  0.66378  Biso   1.000  H
  H1607    1.0000 0.79068  0.78892  0.66420  Biso   1.000  H
  C908     1.0000 0.77929  0.84510  0.64158  Biso   1.000  C
  H1608    1.0000 0.76591  0.77939  0.68128  Biso   1.000  H
  H1609    1.0000 0.70418  0.82172  0.68858  Biso   1.000  H
  H1610    1.0000 0.11159  0.64669  0.87539  Biso   1.000  H
  H1611    1.0000 0.09646  0.59699  0.83972  Biso   1.000  H
  C909     1.0000 0.15540  0.65571  0.80371  Biso   1.000  C
  H1612    1.0000 0.09646  0.59699  0.83968  Biso   1.000  H
  C910     1.0000 0.13600  0.59640  0.79919  Biso   1.000  C
  H1613    1.0000 0.13621  0.64471  0.86669  Biso   1.000  H
  H1614    1.0000 0.16267  0.67751  0.81820  Biso   1.000  H
  H1615    1.0000 0.44958  0.86481  0.07672  Biso   1.000  H
  H1616    1.0000 0.48179  0.90520  0.03601  Biso   1.000  H
  C911     1.0000 0.51131  0.82508  0.02099  Biso   1.000  C
  H1617    1.0000 0.44958  0.86481  0.07668  Biso   1.000  H
  C912     1.0000 0.49586  0.81171  0.01339  Biso   1.000  C
  H1618    1.0000 0.39181  0.17219  0.99488  Biso   1.000  H
  C913     1.0000 0.45997  0.13009  0.95940  Biso   1.000  C
  H1619    1.0000 0.41168  0.15660  0.95459  Biso   1.000  H
  H1620    1.0000 0.44789  0.11921  0.99402  Biso   1.000  H
  H1621    1.0000 0.40878  0.11711  0.02062  Biso   1.000  H
  H1622    1.0000 0.40878  0.11711  0.02058  Biso   1.000  H
  C914     1.0000 0.42929  0.15549  0.98962  Biso   1.000  C
  H1623    1.0000 0.35227  0.19070  0.02039  Biso   1.000  H
  H1624    1.0000 0.38048  0.14002  0.05012  Biso   1.000  H
  C915     1.0000 0.04259  0.12910  0.95071  Biso   1.000  C
  C916     1.0000 0.86680  0.08411  0.82320  Biso   1.000  C
  H1625    1.0000 0.33029  0.97571  0.79020  Biso   1.000  H
  H1626    1.0000 0.33809  0.02611  0.75412  Biso   1.000  H
  H1627    1.0000 0.30942  0.03331  0.81029  Biso   1.000  H
  H1628    1.0000 0.33809  0.02611  0.75408  Biso   1.000  H
  H1629    1.0000 0.32961  0.08119  0.78588  Biso   1.000  H
  H1630    1.0000 0.32597  0.08961  0.84559  Biso   1.000  H
  H1631    1.0000 0.29292  0.03751  0.82079  Biso   1.000  H
  C917     1.0000 0.94138  0.18619  0.92242  Biso   1.000  C
  C918     1.0000 0.94138  0.18619  0.92238  Biso   1.000  C
  H1632    1.0000 0.20120  0.35881  0.18651  Biso   1.000  H
  H1633    1.0000 0.15740  0.30552  0.19550  Biso   1.000  H
  H1634    1.0000 0.14359  0.35608  0.23042  Biso   1.000  H
  H1635    1.0000 0.14359  0.35608  0.23038  Biso   1.000  H
  H1636    1.0000 0.14359  0.35612  0.23042  Biso   1.000  H
  H1637    1.0000 0.14359  0.35612  0.23038  Biso   1.000  H
  H1638    1.0000 0.18460  0.41630  0.19889  Biso   1.000  H
  H1639    1.0000 0.12329  0.39731  0.23610  Biso   1.000  H
  H1640    1.0000 0.10421  0.43019  0.18651  Biso   1.000  H
  H1641    1.0000 0.88351  0.98081  0.82169  Biso   1.000  H
  H1642    1.0000 0.70360  0.83248  0.62292  Biso   1.000  H
  H1643    1.0000 0.67519  0.83691  0.67981  Biso   1.000  H
  C919     1.0000 0.72289  0.90572  0.65490  Biso   1.000  C
  H1644    1.0000 0.70360  0.83248  0.62288  Biso   1.000  H
  H1645    1.0000 0.70360  0.83252  0.62292  Biso   1.000  H
  H1646    1.0000 0.70360  0.83252  0.62288  Biso   1.000  H
  C920     1.0000 0.71077  0.84360  0.60351  Biso   1.000  C
  H1647    1.0000 0.82030  0.82702  0.62631  Biso   1.000  H
  H1648    1.0000 0.79247  0.88202  0.64979  Biso   1.000  H
  H1649    1.0000 0.20120  0.64119  0.81349  Biso   1.000  H
  H1650    1.0000 0.15740  0.69448  0.80450  Biso   1.000  H
  H1651    1.0000 0.14359  0.64392  0.76958  Biso   1.000  H
  H1652    1.0000 0.15740  0.69452  0.80450  Biso   1.000  H
  H1653    1.0000 0.18460  0.58370  0.80108  Biso   1.000  H
  H1654    1.0000 0.12329  0.60269  0.76390  Biso   1.000  H
  H1655    1.0000 0.10421  0.56981  0.81349  Biso   1.000  H
  H1656    1.0000 0.52390  0.83221  0.98589  Biso   1.000  H
  H1657    1.0000 0.51421  0.80562  0.97938  Biso   1.000  H
  H1658    1.0000 0.55411  0.82481  0.04169  Biso   1.000  H
  H1659    1.0000 0.48769  0.79070  0.02340  Biso   1.000  H
  H1660    1.0000 0.53118  0.83058  0.03337  Biso   1.000  H
  H1661    1.0000 0.48527  0.77769  0.02931  Biso   1.000  H
  H1662    1.0000 0.44958  0.13519  0.92328  Biso   1.000  H
  H1663    1.0000 0.48179  0.09480  0.96399  Biso   1.000  H
  C921     1.0000 0.51131  0.17492  0.97901  Biso   1.000  C
  C922     1.0000 0.49586  0.18829  0.98661  Biso   1.000  C
  H1664    1.0000 0.05340  0.12202  0.91651  Biso   1.000  H
  N71      1.0000 0.85051  0.13120  0.82651  Biso   1.000  N
  H1665    1.0000 0.90707  0.07501  0.80371  Biso   1.000  H
  N72      1.0000 0.95999  0.18382  0.87670  Biso   1.000  N
  H1666    1.0000 0.89937  0.20439  0.93148  Biso   1.000  H
  H1667    1.0000 0.67919  0.92202  0.64271  Biso   1.000  H
  H1668    1.0000 0.76158  0.91470  0.63210  Biso   1.000  H
  H1669    1.0000 0.73359  0.91901  0.68869  Biso   1.000  H
  H1670    1.0000 0.72437  0.85780  0.57058  Biso   1.000  H
  H1671    1.0000 0.67271  0.86520  0.61769  Biso   1.000  H
  H1672    1.0000 0.69459  0.80700  0.59959  Biso   1.000  H
  H1673    1.0000 0.55411  0.17519  0.95831  Biso   1.000  H
  H1674    1.0000 0.48769  0.20930  0.97660  Biso   1.000  H
  H1675    1.0000 0.53118  0.16942  0.96659  Biso   1.000  H
  H1676    1.0000 0.52390  0.16779  0.01411  Biso   1.000  H
  H1677    1.0000 0.51421  0.19438  0.02062  Biso   1.000  H
  H1678    1.0000 0.48527  0.22231  0.97069  Biso   1.000  H
  C923     1.0000 0.89299  0.17139  0.80021  Biso   1.000  C
  C924     1.0000 0.91619  0.21191  0.83972  Biso   1.000  C
  C925     1.0000 0.91619  0.21191  0.83968  Biso   1.000  C
  H1679    1.0000 0.93480  0.15490  0.78362  Biso   1.000  H
  C926     1.0000 0.84571  0.19869  0.76142  Biso   1.000  C
  H1680    1.0000 0.93480  0.15490  0.78358  Biso   1.000  H
  C927     1.0000 0.84571  0.19869  0.76138  Biso   1.000  C
  C928     1.0000 0.86311  0.19232  0.75088  Biso   1.000  C
  H1681    1.0000 0.93727  0.15260  0.79039  Biso   1.000  H
  H1682    1.0000 0.87307  0.22500  0.85729  Biso   1.000  H
  C929     1.0000 0.95820  0.26010  0.82139  Biso   1.000  C
  C930     1.0000 0.96310  0.24811  0.80879  Biso   1.000  C
  H1683    1.0000 0.87560  0.23102  0.85541  Biso   1.000  H
  H1684    1.0000 0.87228  0.22762  0.74490  Biso   1.000  H
  H1685    1.0000 0.80449  0.21452  0.77861  Biso   1.000  H
  C931     1.0000 0.81941  0.15810  0.72022  Biso   1.000  C
  H1686    1.0000 0.80449  0.21452  0.77858  Biso   1.000  H
  C932     1.0000 0.81941  0.15810  0.72018  Biso   1.000  C
  H1687    1.0000 0.81878  0.21139  0.75841  Biso   1.000  H
  H1688    1.0000 0.89679  0.21852  0.73708  Biso   1.000  H
  C933     1.0000 0.84798  0.15130  0.70980  Biso   1.000  C
  H1689    1.0000 0.92900  0.28020  0.79720  Biso   1.000  H
  C934     1.0000 0.98208  0.29891  0.86549  Biso   1.000  C
  C935     1.0000 0.98898  0.29100  0.84480  Biso   1.000  C
  H1690    1.0000 0.93617  0.26402  0.78068  Biso   1.000  H
  H1691    1.0000 0.00058  0.24760  0.80330  Biso   1.000  H
  H1692    1.0000 0.00348  0.22809  0.79472  Biso   1.000  H
  H1693    1.0000 0.86000  0.14611  0.69979  Biso   1.000  H
  H1694    1.0000 0.79859  0.12681  0.73689  Biso   1.000  H
  C936     1.0000 0.76258  0.18441  0.68459  Biso   1.000  C
  C937     1.0000 0.80302  0.17409  0.66491  Biso   1.000  C
  H1695    1.0000 0.82189  0.12119  0.72500  Biso   1.000  H
  H1696    1.0000 0.89289  0.13769  0.69648  Biso   1.000  H
  H1697    1.0000 0.94160  0.30489  0.88822  Biso   1.000  H
  H1698    1.0000 0.94160  0.30489  0.88818  Biso   1.000  H
  H1699    1.0000 0.94818  0.30572  0.86331  Biso   1.000  H
  H1700    1.0000 0.01971  0.28138  0.88532  Biso   1.000  H
  C938     1.0000 0.01081  0.35501  0.84611  Biso   1.000  C
  H1701    1.0000 0.01971  0.28138  0.88528  Biso   1.000  H
  C939     1.0000 0.01081  0.35501  0.84608  Biso   1.000  C
  H1702    1.0000 0.01971  0.28142  0.88532  Biso   1.000  H
  H1703    1.0000 0.01971  0.28142  0.88528  Biso   1.000  H
  H1704    1.0000 0.02130  0.27490  0.86982  Biso   1.000  H
  C940     1.0000 0.02878  0.33761  0.81639  Biso   1.000  C
  H1705    1.0000 0.72859  0.20570  0.70419  Biso   1.000  H
  H1706    1.0000 0.73660  0.15719  0.66529  Biso   1.000  H
  C941     1.0000 0.80692  0.22002  0.64911  Biso   1.000  C
  C942     1.0000 0.83902  0.20332  0.62281  Biso   1.000  C
  H1707    1.0000 0.77698  0.14409  0.64971  Biso   1.000  H
  H1708    1.0000 0.76717  0.19822  0.67940  Biso   1.000  H
  H1709    1.0000 0.97602  0.37048  0.82248  Biso   1.000  H
  H1710    1.0000 0.97602  0.37052  0.82248  Biso   1.000  H
  H1711    1.0000 0.01550  0.37931  0.87508  Biso   1.000  H
  C943     1.0000 0.07991  0.35019  0.82030  Biso   1.000  C
  C944     1.0000 0.06041  0.37579  0.85010  Biso   1.000  C
  H1712    1.0000 0.02288  0.39339  0.86989  Biso   1.000  H
  H1713    1.0000 0.99489  0.35600  0.79412  Biso   1.000  H
  H1714    1.0000 0.07559  0.32419  0.79261  Biso   1.000  H
  H1715    1.0000 0.06610  0.32222  0.79479  Biso   1.000  H
  H1716    1.0000 0.81561  0.25440  0.66581  Biso   1.000  H
  H1717    1.0000 0.85320  0.20301  0.64309  Biso   1.000  H
  C945     1.0000 0.76902  0.23039  0.59549  Biso   1.000  C
  H1718    1.0000 0.81561  0.25440  0.66578  Biso   1.000  H
  H1719    1.0000 0.86369  0.23391  0.63771  Biso   1.000  H
  C946     1.0000 0.79100  0.22500  0.57668  Biso   1.000  C
  H1720    1.0000 0.87507  0.17951  0.60851  Biso   1.000  H
  H1721    1.0000 0.11507  0.33642  0.84450  Biso   1.000  H
  C947     1.0000 0.10769  0.40392  0.79810  Biso   1.000  C
  C948     1.0000 0.10379  0.41939  0.81951  Biso   1.000  C
  H1722    1.0000 0.09230  0.35739  0.87381  Biso   1.000  H
  H1723    1.0000 0.79701  0.25531  0.57570  Biso   1.000  H
  H1724    1.0000 0.72179  0.24542  0.60121  Biso   1.000  H
  H1725    1.0000 0.76438  0.19691  0.57721  Biso   1.000  H
  H1726    1.0000 0.76248  0.25480  0.58831  Biso   1.000  H
  H1727    1.0000 0.76037  0.19660  0.56460  Biso   1.000  H
  H1728    1.0000 0.82210  0.23672  0.54929  Biso   1.000  H
  H1729    1.0000 0.15329  0.39810  0.78170  Biso   1.000  H
  H1730    1.0000 0.11317  0.42971  0.82531  Biso   1.000  H
  H1731    1.0000 0.07390  0.41741  0.77331  Biso   1.000  H
  H1732    1.0000 0.07216  0.43759  0.79588  Biso   1.000  H
  H1733    1.0000 0.14180  0.40210  0.80059  Biso   1.000  H
  H1734    1.0000 0.12387  0.44510  0.84299  Biso   1.000  H
  C949     1.0000 0.76902  0.76961  0.40451  Biso   1.000  C
  H1735    1.0000 0.79701  0.74469  0.42430  Biso   1.000  H
  H1736    1.0000 0.76438  0.80309  0.42279  Biso   1.000  H
  C950     1.0000 0.80692  0.77998  0.35089  Biso   1.000  C
  H1737    1.0000 0.72179  0.75458  0.39879  Biso   1.000  H
  C951     1.0000 0.80692  0.78002  0.35089  Biso   1.000  C
  H1738    1.0000 0.72179  0.75462  0.39879  Biso   1.000  H
  C952     1.0000 0.83902  0.79672  0.37719  Biso   1.000  C
  H1739    1.0000 0.76248  0.74520  0.41169  Biso   1.000  H
  H1740    1.0000 0.76037  0.80340  0.43540  Biso   1.000  H
  H1741    1.0000 0.81561  0.74560  0.33419  Biso   1.000  H
  C953     1.0000 0.76258  0.81559  0.31541  Biso   1.000  C
  H1742    1.0000 0.85320  0.79699  0.35691  Biso   1.000  H
  C954     1.0000 0.76258  0.81559  0.31537  Biso   1.000  C
  H1743    1.0000 0.85320  0.79699  0.35687  Biso   1.000  H
  C955     1.0000 0.80302  0.82591  0.33509  Biso   1.000  C
  H1744    1.0000 0.76717  0.80178  0.32060  Biso   1.000  H
  H1745    1.0000 0.86369  0.76609  0.36229  Biso   1.000  H
  C956     1.0000 0.79100  0.77500  0.42328  Biso   1.000  C
  H1746    1.0000 0.87507  0.82049  0.39149  Biso   1.000  H
  C957     1.0000 0.81941  0.84190  0.27978  Biso   1.000  C
  H1747    1.0000 0.72859  0.79430  0.29581  Biso   1.000  H
  H1748    1.0000 0.73660  0.84281  0.33471  Biso   1.000  H
  H1749    1.0000 0.73660  0.84281  0.33468  Biso   1.000  H
  C958     1.0000 0.84798  0.84870  0.29020  Biso   1.000  C
  H1750    1.0000 0.77698  0.85591  0.35029  Biso   1.000  H
  H1751    1.0000 0.82210  0.76328  0.45071  Biso   1.000  H
  C959     1.0000 0.84571  0.80131  0.23858  Biso   1.000  C
  H1752    1.0000 0.86000  0.85389  0.30021  Biso   1.000  H
  H1753    1.0000 0.79859  0.87319  0.26311  Biso   1.000  H
  H1754    1.0000 0.86000  0.85389  0.30017  Biso   1.000  H
  H1755    1.0000 0.79859  0.87319  0.26307  Biso   1.000  H
  C960     1.0000 0.86311  0.80772  0.24912  Biso   1.000  C
  H1756    1.0000 0.82189  0.87881  0.27500  Biso   1.000  H
  H1757    1.0000 0.89289  0.86231  0.30348  Biso   1.000  H
  C961     1.0000 0.89299  0.82861  0.19979  Biso   1.000  C
  H1758    1.0000 0.87228  0.77238  0.25510  Biso   1.000  H
  H1759    1.0000 0.80449  0.78548  0.22139  Biso   1.000  H
  H1760    1.0000 0.80449  0.78552  0.22139  Biso   1.000  H
  H1761    1.0000 0.81878  0.78861  0.24159  Biso   1.000  H
  H1762    1.0000 0.89679  0.78148  0.26289  Biso   1.000  H
  N73      1.0000 0.85051  0.86880  0.17349  Biso   1.000  N
  H1763    1.0000 0.93480  0.84510  0.21638  Biso   1.000  H
  C962     1.0000 0.91619  0.78809  0.16028  Biso   1.000  C
  H1764    1.0000 0.93727  0.84740  0.20961  Biso   1.000  H
  C963     1.0000 0.86680  0.91589  0.17680  Biso   1.000  C
  C964     1.0000 0.95820  0.73990  0.17861  Biso   1.000  C
  N74      1.0000 0.95999  0.81618  0.12330  Biso   1.000  N
  H1765    1.0000 0.87307  0.77500  0.14271  Biso   1.000  H
  H1766    1.0000 0.87307  0.77500  0.14267  Biso   1.000  H
  N75      1.0000 0.95999  0.81622  0.12330  Biso   1.000  N
  C965     1.0000 0.96310  0.75189  0.19117  Biso   1.000  C
  H1767    1.0000 0.87560  0.76902  0.14459  Biso   1.000  H
  C966     1.0000 0.82689  0.95901  0.15201  Biso   1.000  C
  H1768    1.0000 0.90707  0.92499  0.19629  Biso   1.000  H
  H1769    1.0000 0.92900  0.71980  0.20280  Biso   1.000  H
  C967     1.0000 0.98208  0.70109  0.13451  Biso   1.000  C
  C968     1.0000 0.98898  0.70900  0.15520  Biso   1.000  C
  H1770    1.0000 0.93617  0.73598  0.21928  Biso   1.000  H
  H1771    1.0000 0.00058  0.75240  0.19670  Biso   1.000  H
  C969     1.0000 0.94138  0.81381  0.07758  Biso   1.000  C
  H1772    1.0000 0.00348  0.77191  0.20528  Biso   1.000  H
  C970     1.0000 0.76828  0.94631  0.12051  Biso   1.000  C
  C971     1.0000 0.76828  0.94631  0.12048  Biso   1.000  C
  C972     1.0000 0.84281  0.01041  0.15930  Biso   1.000  C
  H1773    1.0000 0.94160  0.69511  0.11178  Biso   1.000  H
  H1774    1.0000 0.94818  0.69432  0.13669  Biso   1.000  H
  H1775    1.0000 0.01971  0.71862  0.11468  Biso   1.000  H
  C973     1.0000 0.01081  0.64499  0.15389  Biso   1.000  C
  H1776    1.0000 0.02130  0.72510  0.13018  Biso   1.000  H
  C974     1.0000 0.02878  0.66239  0.18357  Biso   1.000  C
  C975     1.0000 0.98561  0.83960  0.03800  Biso   1.000  C
  H1777    1.0000 0.89937  0.79561  0.06852  Biso   1.000  H
  H1778    1.0000 0.89937  0.79561  0.06848  Biso   1.000  H
  C976     1.0000 0.72758  0.98560  0.09971  Biso   1.000  C
  H1779    1.0000 0.75731  0.91019  0.11400  Biso   1.000  H
  C977     1.0000 0.80207  0.05041  0.14012  Biso   1.000  C
  H1780    1.0000 0.88351  0.01919  0.17831  Biso   1.000  H
  C978     1.0000 0.80207  0.05041  0.14008  Biso   1.000  C
  H1781    1.0000 0.97602  0.62952  0.17752  Biso   1.000  H
  H1782    1.0000 0.97602  0.62952  0.17748  Biso   1.000  H
  H1783    1.0000 0.01550  0.62069  0.12492  Biso   1.000  H
  C979     1.0000 0.07991  0.64981  0.17970  Biso   1.000  C
  H1784    1.0000 0.01550  0.62069  0.12488  Biso   1.000  H
  C980     1.0000 0.06041  0.62421  0.14990  Biso   1.000  C
  H1785    1.0000 0.02288  0.60661  0.13011  Biso   1.000  H
  H1786    1.0000 0.99489  0.64400  0.20588  Biso   1.000  H
  H1787    1.0000 0.07559  0.67581  0.20739  Biso   1.000  H
  H1788    1.0000 0.06610  0.67778  0.20521  Biso   1.000  H
  C981     1.0000 0.96948  0.83078  0.98770  Biso   1.000  C
  C982     1.0000 0.96948  0.83082  0.98770  Biso   1.000  C
  C983     1.0000 0.04259  0.87090  0.04929  Biso   1.000  C
  C984     1.0000 0.66502  0.97171  0.06968  Biso   1.000  C
  C985     1.0000 0.74450  0.03810  0.11009  Biso   1.000  C
  C986     1.0000 0.81567  0.10789  0.15091  Biso   1.000  C
  C987     1.0000 0.81567  0.10789  0.15088  Biso   1.000  C
  H1789    1.0000 0.11507  0.66358  0.15550  Biso   1.000  H
  C988     1.0000 0.10769  0.59608  0.20190  Biso   1.000  C
  H1790    1.0000 0.11507  0.66362  0.15550  Biso   1.000  H
  C989     1.0000 0.10379  0.58061  0.18049  Biso   1.000  C
  H1791    1.0000 0.09230  0.64261  0.12619  Biso   1.000  H
  H1792    1.0000 0.92900  0.81048  0.97949  Biso   1.000  H
  C990     1.0000 0.01107  0.85088  0.94932  Biso   1.000  C
  C991     1.0000 0.01107  0.85088  0.94928  Biso   1.000  C
  C992     1.0000 0.01107  0.85092  0.94932  Biso   1.000  C
  C993     1.0000 0.01107  0.85092  0.94928  Biso   1.000  C
  C994     1.0000 0.08460  0.89250  0.01181  Biso   1.000  C
  H1793    1.0000 0.05340  0.87798  0.08349  Biso   1.000  H
  C995     1.0000 0.08460  0.89250  0.01178  Biso   1.000  C
  H1794    1.0000 0.05340  0.87802  0.08349  Biso   1.000  H
  H1795    1.0000 0.65479  0.93539  0.06389  Biso   1.000  H
  N76      1.0000 0.62538  0.00582  0.05189  Biso   1.000  N
  H1796    1.0000 0.71641  0.06572  0.09651  Biso   1.000  H
  N77      1.0000 0.86369  0.12380  0.17910  Biso   1.000  N
  H1797    1.0000 0.78609  0.13341  0.13549  Biso   1.000  H
  H1798    1.0000 0.15329  0.60190  0.21830  Biso   1.000  H
  H1799    1.0000 0.11317  0.57029  0.17469  Biso   1.000  H
  H1800    1.0000 0.07390  0.58259  0.22669  Biso   1.000  H
  H1801    1.0000 0.07216  0.56241  0.20408  Biso   1.000  H
  H1802    1.0000 0.14180  0.59790  0.19938  Biso   1.000  H
  H1803    1.0000 0.12387  0.55490  0.15701  Biso   1.000  H
  C996     1.0000 0.99531  0.84071  0.89661  Biso   1.000  C
  C997     1.0000 0.06889  0.88249  0.96249  Biso   1.000  C
  C998     1.0000 0.14670  0.92518  0.02589  Biso   1.000  C
  C999     1.0000 0.14670  0.92522  0.02589  Biso   1.000  C
  C1000    1.0000 0.56028  0.98940  0.02589  Biso   1.000  C
  C1001    1.0000 0.86859  0.18010  0.19001  Biso   1.000  C
  N78      1.0000 0.94586  0.81041  0.88197  Biso   1.000  N
  H1804    1.0000 0.02340  0.85769  0.87181  Biso   1.000  H
  H1805    1.0000 0.09757  0.89721  0.93679  Biso   1.000  H
  N79      1.0000 0.18660  0.94291  0.99421  Biso   1.000  N
  H1806    1.0000 0.15550  0.93238  0.06050  Biso   1.000  H
  H1807    1.0000 0.15550  0.93242  0.06050  Biso   1.000  H
  H1808    1.0000 0.55938  0.94991  0.02412  Biso   1.000  H
  H1809    1.0000 0.55938  0.94991  0.02408  Biso   1.000  H
  H1810    1.0000 0.56180  0.94999  0.02299  Biso   1.000  H
  C1002    1.0000 0.56028  0.01060  0.97411  Biso   1.000  C
  C1003    1.0000 0.56028  0.01060  0.97408  Biso   1.000  C
  C1004    1.0000 0.49797  0.00799  0.05941  Biso   1.000  C
  C1005    1.0000 0.49001  0.00301  0.04850  Biso   1.000  C
  H1811    1.0000 0.83190  0.19778  0.16879  Biso   1.000  H
  C1006    1.0000 0.85088  0.19351  0.24449  Biso   1.000  C
  C1007    1.0000 0.93917  0.20059  0.17138  Biso   1.000  C
  H1812    1.0000 0.83190  0.19782  0.16879  Biso   1.000  H
  C1008    1.0000 0.86400  0.18350  0.24690  Biso   1.000  C
  H1813    1.0000 0.82890  0.19988  0.17390  Biso   1.000  H
  C1009    1.0000 0.93917  0.79941  0.82862  Biso   1.000  C
  C1010    1.0000 0.93917  0.79941  0.82858  Biso   1.000  C
  C1011    1.0000 0.25007  0.97341  0.01242  Biso   1.000  C
  C1012    1.0000 0.25007  0.97341  0.01238  Biso   1.000  C
  N80      1.0000 0.62538  0.99418  0.94811  Biso   1.000  N
  C1013    1.0000 0.49797  0.99201  0.94059  Biso   1.000  C
  N81      1.0000 0.62538  0.99418  0.94808  Biso   1.000  N
  N82      1.0000 0.62538  0.99422  0.94811  Biso   1.000  N
  N83      1.0000 0.62538  0.99422  0.94808  Biso   1.000  N
  C1014    1.0000 0.49001  0.99699  0.95150  Biso   1.000  C
  H1814    1.0000 0.55938  0.05009  0.97588  Biso   1.000  H
  H1815    1.0000 0.56180  0.05001  0.97701  Biso   1.000  H
  C1015    1.0000 0.49402  0.98441  0.11148  Biso   1.000  C
  H1816    1.0000 0.45348  0.99988  0.04169  Biso   1.000  H
  H1817    1.0000 0.45348  0.99992  0.04169  Biso   1.000  H
  C1016    1.0000 0.48000  0.97899  0.10020  Biso   1.000  C
  H1818    1.0000 0.50087  0.04700  0.06291  Biso   1.000  H
  H1819    1.0000 0.48622  0.04241  0.05151  Biso   1.000  H
  H1820    1.0000 0.45190  0.99130  0.02570  Biso   1.000  H
  H1821    1.0000 0.85140  0.23248  0.24840  Biso   1.000  H
  H1822    1.0000 0.88820  0.17879  0.26639  Biso   1.000  H
  C1017    1.0000 0.77729  0.17199  0.26300  Biso   1.000  C
  H1823    1.0000 0.85140  0.23252  0.24840  Biso   1.000  H
  C1018    1.0000 0.79000  0.16372  0.26458  Biso   1.000  C
  H1824    1.0000 0.87117  0.22049  0.25788  Biso   1.000  H
  N84      1.0000 0.94586  0.18959  0.11803  Biso   1.000  N
  H1825    1.0000 0.97828  0.18279  0.19019  Biso   1.000  H
  C1019    1.0000 0.94418  0.26121  0.17849  Biso   1.000  C
  C1020    1.0000 0.95799  0.25891  0.18199  Biso   1.000  C
  H1826    1.0000 0.97602  0.17879  0.18861  Biso   1.000  H
  H1827    1.0000 0.90138  0.16138  0.26228  Biso   1.000  H
  C1021    1.0000 0.86859  0.81990  0.80999  Biso   1.000  C
  H1828    1.0000 0.97828  0.81721  0.80981  Biso   1.000  H
  C1022    1.0000 0.94418  0.73879  0.82151  Biso   1.000  C
  C1023    1.0000 0.95799  0.74109  0.81801  Biso   1.000  C
  H1829    1.0000 0.97602  0.82121  0.81139  Biso   1.000  H
  C1024    1.0000 0.31348  0.93860  0.99402  Biso   1.000  C
  C1025    1.0000 0.31348  0.93860  0.99398  Biso   1.000  C
  H1830    1.0000 0.24991  0.97689  0.04989  Biso   1.000  H
  C1026    1.0000 0.31828  0.94081  0.00038  Biso   1.000  C
  H1831    1.0000 0.24638  0.97840  0.04970  Biso   1.000  H
  C1027    1.0000 0.25007  0.02659  0.98758  Biso   1.000  C
  C1028    1.0000 0.66502  0.02829  0.93032  Biso   1.000  C
  C1029    1.0000 0.66502  0.02829  0.93028  Biso   1.000  C
  H1832    1.0000 0.50087  0.95300  0.93709  Biso   1.000  H
  H1833    1.0000 0.48622  0.95759  0.94849  Biso   1.000  H
  H1834    1.0000 0.45348  0.00012  0.95831  Biso   1.000  H
  C1030    1.0000 0.49402  0.01559  0.88852  Biso   1.000  C
  C1031    1.0000 0.49402  0.01559  0.88848  Biso   1.000  C
  C1032    1.0000 0.48000  0.02101  0.89980  Biso   1.000  C
  H1835    1.0000 0.45190  0.00870  0.97430  Biso   1.000  H
  H1836    1.0000 0.49871  0.94552  0.10900  Biso   1.000  H
  H1837    1.0000 0.53397  0.99771  0.13180  Biso   1.000  H
  C1033    1.0000 0.42570  0.99751  0.13820  Biso   1.000  C
  C1034    1.0000 0.40699  0.99399  0.12522  Biso   1.000  C
  H1838    1.0000 0.51848  0.98979  0.12251  Biso   1.000  H
  H1839    1.0000 0.48179  0.93958  0.09688  Biso   1.000  H
  H1840    1.0000 0.76928  0.13531  0.25130  Biso   1.000  H
  H1841    1.0000 0.73828  0.19470  0.25081  Biso   1.000  H
  C1035    1.0000 0.78320  0.17428  0.32422  Biso   1.000  C
  C1036    1.0000 0.78320  0.17428  0.32418  Biso   1.000  C
  C1037    1.0000 0.78320  0.17432  0.32422  Biso   1.000  C
  C1038    1.0000 0.78320  0.17432  0.32418  Biso   1.000  C
  C1039    1.0000 0.75589  0.18239  0.31428  Biso   1.000  C
  H1842    1.0000 0.75647  0.17230  0.23741  Biso   1.000  H
  H1843    1.0000 0.79279  0.12459  0.26631  Biso   1.000  H
  C1040    1.0000 0.99531  0.15929  0.10339  Biso   1.000  C
  H1844    1.0000 0.90760  0.27869  0.15791  Biso   1.000  H
  H1845    1.0000 0.93527  0.27011  0.21420  Biso   1.000  H
  H1846    1.0000 0.90760  0.27869  0.15787  Biso   1.000  H
  H1847    1.0000 0.92431  0.28170  0.16359  Biso   1.000  H
  H1848    1.0000 0.95261  0.26580  0.21811  Biso   1.000  H
  C1041    1.0000 0.01729  0.28190  0.16299  Biso   1.000  C
  C1042    1.0000 0.03300  0.27501  0.16600  Biso   1.000  C
  N85      1.0000 0.86369  0.87620  0.82090  Biso   1.000  N
  H1849    1.0000 0.83190  0.80222  0.83121  Biso   1.000  H
  C1043    1.0000 0.85088  0.80649  0.75551  Biso   1.000  C
  H1850    1.0000 0.83190  0.80222  0.83118  Biso   1.000  H
  C1044    1.0000 0.86400  0.81650  0.75310  Biso   1.000  C
  H1851    1.0000 0.82890  0.80012  0.82610  Biso   1.000  H
  H1852    1.0000 0.90760  0.72131  0.84209  Biso   1.000  H
  H1853    1.0000 0.93527  0.72989  0.78580  Biso   1.000  H
  H1854    1.0000 0.92431  0.71830  0.83641  Biso   1.000  H
  H1855    1.0000 0.95261  0.73420  0.78189  Biso   1.000  H
  C1045    1.0000 0.01729  0.71810  0.83701  Biso   1.000  C
  C1046    1.0000 0.03300  0.72499  0.83400  Biso   1.000  C
  H1856    1.0000 0.35749  0.95949  0.99488  Biso   1.000  H
  H1857    1.0000 0.30531  0.92720  0.95880  Biso   1.000  H
  H1858    1.0000 0.33240  0.94770  0.96520  Biso   1.000  H
  C1047    1.0000 0.32096  0.88819  0.02920  Biso   1.000  C
  C1048    1.0000 0.30921  0.88051  0.00768  Biso   1.000  C
  H1859    1.0000 0.35686  0.95331  0.02250  Biso   1.000  H
  H1860    1.0000 0.24991  0.02311  0.95011  Biso   1.000  H
  C1049    1.0000 0.31828  0.05919  0.99959  Biso   1.000  C
  H1861    1.0000 0.24638  0.02160  0.95030  Biso   1.000  H
  N86      1.0000 0.18660  0.05709  0.00579  Biso   1.000  N
  C1050    1.0000 0.31348  0.06140  0.00598  Biso   1.000  C
  C1051    1.0000 0.72758  0.01440  0.90029  Biso   1.000  C
  H1862    1.0000 0.65479  0.06461  0.93611  Biso   1.000  H
  H1863    1.0000 0.65479  0.06461  0.93607  Biso   1.000  H
  H1864    1.0000 0.49871  0.05448  0.89100  Biso   1.000  H
  H1865    1.0000 0.53397  0.00229  0.86820  Biso   1.000  H
  C1052    1.0000 0.42570  0.00249  0.86180  Biso   1.000  C
  H1866    1.0000 0.49871  0.05452  0.89100  Biso   1.000  H
  C1053    1.0000 0.40699  0.00601  0.87478  Biso   1.000  C
  H1867    1.0000 0.51848  0.01021  0.87749  Biso   1.000  H
  H1868    1.0000 0.48179  0.06042  0.90308  Biso   1.000  H
  H1869    1.0000 0.38612  0.98220  0.11878  Biso   1.000  H
  C1054    1.0000 0.42101  0.97788  0.19159  Biso   1.000  C
  C1055    1.0000 0.42101  0.97792  0.19159  Biso   1.000  C
  C1056    1.0000 0.40399  0.96601  0.17530  Biso   1.000  C
  H1870    1.0000 0.41959  0.03640  0.13831  Biso   1.000  H
  H1871    1.0000 0.40441  0.03319  0.13048  Biso   1.000  H
  H1872    1.0000 0.36688  0.98358  0.10351  Biso   1.000  H
  H1873    1.0000 0.82278  0.15221  0.33618  Biso   1.000  H
  H1874    1.0000 0.79068  0.21112  0.33580  Biso   1.000  H
  C1057    1.0000 0.71409  0.15331  0.34322  Biso   1.000  C
  C1058    1.0000 0.71409  0.15331  0.34318  Biso   1.000  C
  C1059    1.0000 0.77929  0.15490  0.35838  Biso   1.000  C
  H1875    1.0000 0.76591  0.22061  0.31868  Biso   1.000  H
  H1876    1.0000 0.70418  0.17832  0.31139  Biso   1.000  H
  C1060    1.0000 0.01107  0.14912  0.05068  Biso   1.000  C
  H1877    1.0000 0.02340  0.14231  0.12819  Biso   1.000  H
  H1878    1.0000 0.05387  0.26338  0.18290  Biso   1.000  H
  H1879    1.0000 0.02551  0.27371  0.12710  Biso   1.000  H
  C1061    1.0000 0.02499  0.34192  0.17108  Biso   1.000  C
  H1880    1.0000 0.05387  0.26342  0.18290  Biso   1.000  H
  C1062    1.0000 0.05250  0.33250  0.18049  Biso   1.000  C
  H1881    1.0000 0.03721  0.27078  0.12951  Biso   1.000  H
  H1882    1.0000 0.06658  0.25060  0.18241  Biso   1.000  H
  C1063    1.0000 0.81567  0.89211  0.84909  Biso   1.000  C
  H1883    1.0000 0.85140  0.76752  0.75160  Biso   1.000  H
  H1884    1.0000 0.88820  0.82121  0.73361  Biso   1.000  H
  C1064    1.0000 0.77729  0.82801  0.73700  Biso   1.000  C
  H1885    1.0000 0.88820  0.82121  0.73358  Biso   1.000  H
  C1065    1.0000 0.79000  0.83632  0.73538  Biso   1.000  C
  H1886    1.0000 0.87117  0.77951  0.74208  Biso   1.000  H
  H1887    1.0000 0.90138  0.83862  0.73768  Biso   1.000  H
  H1888    1.0000 0.05387  0.73662  0.81710  Biso   1.000  H
  H1889    1.0000 0.02551  0.72629  0.87290  Biso   1.000  H
  C1066    1.0000 0.02499  0.65808  0.82892  Biso   1.000  C
  C1067    1.0000 0.02499  0.65808  0.82888  Biso   1.000  C
  C1068    1.0000 0.02499  0.65812  0.82892  Biso   1.000  C
  C1069    1.0000 0.02499  0.65812  0.82888  Biso   1.000  C
  C1070    1.0000 0.05250  0.66750  0.81951  Biso   1.000  C
  H1890    1.0000 0.03721  0.72922  0.87049  Biso   1.000  H
  H1891    1.0000 0.06658  0.74940  0.81759  Biso   1.000  H
  H1892    1.0000 0.28327  0.86200  0.02261  Biso   1.000  H
  H1893    1.0000 0.32028  0.89808  0.06532  Biso   1.000  H
  C1071    1.0000 0.39829  0.86591  0.01212  Biso   1.000  C
  H1894    1.0000 0.28327  0.86200  0.02258  Biso   1.000  H
  H1895    1.0000 0.32028  0.89808  0.06528  Biso   1.000  H
  C1072    1.0000 0.39829  0.86591  0.01208  Biso   1.000  C
  H1896    1.0000 0.32028  0.89812  0.06532  Biso   1.000  H
  H1897    1.0000 0.32028  0.89812  0.06528  Biso   1.000  H
  H1898    1.0000 0.30689  0.87292  0.04421  Biso   1.000  H
  C1073    1.0000 0.36977  0.84590  0.98378  Biso   1.000  C
  H1899    1.0000 0.26367  0.86971  0.99270  Biso   1.000  H
  C1074    1.0000 0.32096  0.11181  0.97080  Biso   1.000  C
  C1075    1.0000 0.30921  0.11949  0.99229  Biso   1.000  C
  H1900    1.0000 0.35686  0.04669  0.97750  Biso   1.000  H
  H1901    1.0000 0.35749  0.04051  0.00512  Biso   1.000  H
  H1902    1.0000 0.30531  0.07280  0.04120  Biso   1.000  H
  H1903    1.0000 0.35749  0.04051  0.00508  Biso   1.000  H
  H1904    1.0000 0.33240  0.05230  0.03480  Biso   1.000  H
  C1076    1.0000 0.14670  0.07482  0.97411  Biso   1.000  C
  C1077    1.0000 0.14670  0.07482  0.97408  Biso   1.000  C
  C1078    1.0000 0.74450  0.96190  0.88991  Biso   1.000  C
  C1079    1.0000 0.76828  0.05369  0.87949  Biso   1.000  C
  H1905    1.0000 0.41959  0.96360  0.86169  Biso   1.000  H
  H1906    1.0000 0.40441  0.96681  0.86948  Biso   1.000  H
  H1907    1.0000 0.38612  0.01780  0.88122  Biso   1.000  H
  C1080    1.0000 0.42101  0.02212  0.80841  Biso   1.000  C
  H1908    1.0000 0.38612  0.01780  0.88118  Biso   1.000  H
  C1081    1.0000 0.42101  0.02212  0.80838  Biso   1.000  C
  C1082    1.0000 0.40399  0.03399  0.82470  Biso   1.000  C
  H1909    1.0000 0.36688  0.01642  0.89649  Biso   1.000  H
  H1910    1.0000 0.45438  0.99759  0.21318  Biso   1.000  H
  H1911    1.0000 0.43340  0.93990  0.19302  Biso   1.000  H
  C1083    1.0000 0.34210  0.98659  0.21111  Biso   1.000  C
  H1912    1.0000 0.43340  0.93990  0.19298  Biso   1.000  H
  C1084    1.0000 0.34210  0.98659  0.21108  Biso   1.000  C
  H1913    1.0000 0.44231  0.93951  0.17721  Biso   1.000  H
  C1085    1.0000 0.33098  0.93701  0.18101  Biso   1.000  C
  H1914    1.0000 0.40968  0.99130  0.20310  Biso   1.000  H
  H1915    1.0000 0.70360  0.16752  0.37708  Biso   1.000  H
  H1916    1.0000 0.67519  0.16309  0.32019  Biso   1.000  H
  C1086    1.0000 0.72289  0.09428  0.34510  Biso   1.000  C
  C1087    1.0000 0.72289  0.09432  0.34510  Biso   1.000  C
  C1088    1.0000 0.71077  0.15640  0.39649  Biso   1.000  C
  H1917    1.0000 0.82030  0.17302  0.37369  Biso   1.000  H
  H1918    1.0000 0.79247  0.11798  0.35021  Biso   1.000  H
  C1089    1.0000 0.96948  0.16922  0.01230  Biso   1.000  C
  C1090    1.0000 0.06889  0.11751  0.03751  Biso   1.000  C
  C1091    1.0000 0.06889  0.11751  0.03747  Biso   1.000  C
  H1919    1.0000 0.98998  0.36032  0.14960  Biso   1.000  H
  H1920    1.0000 0.01349  0.35011  0.20649  Biso   1.000  H
  C1092    1.0000 0.09831  0.36380  0.15919  Biso   1.000  C
  H1921    1.0000 0.04338  0.33729  0.21691  Biso   1.000  H
  C1093    1.0000 0.12899  0.34940  0.16969  Biso   1.000  C
  H1922    1.0000 0.02050  0.35672  0.16220  Biso   1.000  H
  C1094    1.0000 0.80207  0.94959  0.85988  Biso   1.000  C
  H1923    1.0000 0.78609  0.86659  0.86451  Biso   1.000  H
  H1924    1.0000 0.76928  0.86469  0.74870  Biso   1.000  H
  H1925    1.0000 0.73828  0.80530  0.74919  Biso   1.000  H
  C1095    1.0000 0.78320  0.82572  0.67578  Biso   1.000  C
  C1096    1.0000 0.75589  0.81761  0.68568  Biso   1.000  C
  H1926    1.0000 0.75647  0.82770  0.76259  Biso   1.000  H
  H1927    1.0000 0.79279  0.87541  0.73369  Biso   1.000  H
  H1928    1.0000 0.98998  0.63968  0.85040  Biso   1.000  H
  H1929    1.0000 0.01349  0.64989  0.79351  Biso   1.000  H
  C1097    1.0000 0.09831  0.63620  0.84081  Biso   1.000  C
  H1930    1.0000 0.01349  0.64989  0.79348  Biso   1.000  H
  H1931    1.0000 0.04338  0.66271  0.78309  Biso   1.000  H
  C1098    1.0000 0.12899  0.65060  0.83031  Biso   1.000  C
  H1932    1.0000 0.02050  0.64328  0.83780  Biso   1.000  H
  H1933    1.0000 0.40878  0.88289  0.97938  Biso   1.000  H
  H1934    1.0000 0.39181  0.82781  0.00512  Biso   1.000  H
  C1099    1.0000 0.45997  0.86991  0.04060  Biso   1.000  C
  H1935    1.0000 0.39181  0.82781  0.00508  Biso   1.000  H
  H1936    1.0000 0.41168  0.84340  0.04538  Biso   1.000  H
  H1937    1.0000 0.44789  0.88079  0.00598  Biso   1.000  H
  H1938    1.0000 0.35227  0.80930  0.97961  Biso   1.000  H
  H1939    1.0000 0.38048  0.86002  0.94988  Biso   1.000  H
  C1100    1.0000 0.42929  0.84451  0.01038  Biso   1.000  C
  H1940    1.0000 0.28327  0.13800  0.97739  Biso   1.000  H
  H1941    1.0000 0.32028  0.10192  0.93468  Biso   1.000  H
  C1101    1.0000 0.39829  0.13409  0.98788  Biso   1.000  C
  H1942    1.0000 0.30689  0.12708  0.95579  Biso   1.000  H
  C1102    1.0000 0.36977  0.15410  0.01622  Biso   1.000  C
  H1943    1.0000 0.26367  0.13029  0.00730  Biso   1.000  H
  C1103    1.0000 0.08460  0.10750  0.98819  Biso   1.000  C
  H1944    1.0000 0.15550  0.06762  0.93950  Biso   1.000  H
  H1945    1.0000 0.71641  0.93428  0.90349  Biso   1.000  H
  H1946    1.0000 0.71641  0.93432  0.90349  Biso   1.000  H
  H1947    1.0000 0.75731  0.08981  0.88600  Biso   1.000  H
  C1104    1.0000 0.82689  0.04099  0.84799  Biso   1.000  C
  H1948    1.0000 0.45438  0.00241  0.78682  Biso   1.000  H
  H1949    1.0000 0.43340  0.06010  0.80698  Biso   1.000  H
  C1105    1.0000 0.34210  0.01341  0.78889  Biso   1.000  C
  H1950    1.0000 0.45438  0.00241  0.78678  Biso   1.000  H
  H1951    1.0000 0.44231  0.06049  0.82279  Biso   1.000  H
  C1106    1.0000 0.33098  0.06299  0.81899  Biso   1.000  C
  H1952    1.0000 0.40968  0.00870  0.79690  Biso   1.000  H
  H1953    1.0000 0.33809  0.97389  0.24588  Biso   1.000  H
  H1954    1.0000 0.30942  0.96669  0.18971  Biso   1.000  H
  H1955    1.0000 0.33029  0.02429  0.20980  Biso   1.000  H
  H1956    1.0000 0.32961  0.91881  0.21409  Biso   1.000  H
  H1957    1.0000 0.32597  0.91039  0.15441  Biso   1.000  H
  H1958    1.0000 0.29292  0.96249  0.17921  Biso   1.000  H
  H1959    1.0000 0.67919  0.07798  0.35729  Biso   1.000  H
  H1960    1.0000 0.76158  0.08530  0.36790  Biso   1.000  H
  H1961    1.0000 0.73359  0.08099  0.31131  Biso   1.000  H
  H1962    1.0000 0.73359  0.08099  0.31127  Biso   1.000  H
  H1963    1.0000 0.67919  0.07802  0.35729  Biso   1.000  H
  H1964    1.0000 0.72437  0.14220  0.42942  Biso   1.000  H
  H1965    1.0000 0.67271  0.13480  0.38231  Biso   1.000  H
  H1966    1.0000 0.69459  0.19300  0.40041  Biso   1.000  H
  C1107    1.0000 0.98561  0.16040  0.96200  Biso   1.000  C
  H1967    1.0000 0.92900  0.18952  0.02051  Biso   1.000  H
  H1968    1.0000 0.09757  0.10279  0.06321  Biso   1.000  H
  H1969    1.0000 0.11159  0.35331  0.12461  Biso   1.000  H
  H1970    1.0000 0.09646  0.40301  0.16028  Biso   1.000  H
  C1108    1.0000 0.15540  0.34429  0.19629  Biso   1.000  C
  H1971    1.0000 0.11159  0.35331  0.12458  Biso   1.000  H
  C1109    1.0000 0.13600  0.40360  0.20081  Biso   1.000  C
  H1972    1.0000 0.13621  0.35529  0.13331  Biso   1.000  H
  H1973    1.0000 0.16267  0.32249  0.18180  Biso   1.000  H
  C1110    1.0000 0.84281  0.98959  0.84070  Biso   1.000  C
  H1974    1.0000 0.82278  0.84779  0.66382  Biso   1.000  H
  H1975    1.0000 0.79068  0.78888  0.66420  Biso   1.000  H
  C1111    1.0000 0.71409  0.84669  0.65678  Biso   1.000  C
  H1976    1.0000 0.82278  0.84779  0.66378  Biso   1.000  H
  H1977    1.0000 0.79068  0.78892  0.66420  Biso   1.000  H
  C1112    1.0000 0.77929  0.84510  0.64158  Biso   1.000  C
  H1978    1.0000 0.76591  0.77939  0.68128  Biso   1.000  H
  H1979    1.0000 0.70418  0.82172  0.68858  Biso   1.000  H
  H1980    1.0000 0.11159  0.64669  0.87539  Biso   1.000  H
  H1981    1.0000 0.09646  0.59699  0.83972  Biso   1.000  H
  C1113    1.0000 0.15540  0.65571  0.80371  Biso   1.000  C
  H1982    1.0000 0.09646  0.59699  0.83968  Biso   1.000  H
  C1114    1.0000 0.13600  0.59640  0.79919  Biso   1.000  C
  H1983    1.0000 0.13621  0.64471  0.86669  Biso   1.000  H
  H1984    1.0000 0.16267  0.67751  0.81820  Biso   1.000  H
  H1985    1.0000 0.44958  0.86481  0.07672  Biso   1.000  H
  H1986    1.0000 0.48179  0.90520  0.03601  Biso   1.000  H
  C1115    1.0000 0.51131  0.82508  0.02099  Biso   1.000  C
  H1987    1.0000 0.44958  0.86481  0.07668  Biso   1.000  H
  C1116    1.0000 0.49586  0.81171  0.01339  Biso   1.000  C
  H1988    1.0000 0.39181  0.17219  0.99488  Biso   1.000  H
  C1117    1.0000 0.45997  0.13009  0.95940  Biso   1.000  C
  H1989    1.0000 0.41168  0.15660  0.95459  Biso   1.000  H
  H1990    1.0000 0.44789  0.11921  0.99402  Biso   1.000  H
  H1991    1.0000 0.40878  0.11711  0.02062  Biso   1.000  H
  H1992    1.0000 0.40878  0.11711  0.02058  Biso   1.000  H
  C1118    1.0000 0.42929  0.15549  0.98962  Biso   1.000  C
  H1993    1.0000 0.35227  0.19070  0.02039  Biso   1.000  H
  H1994    1.0000 0.38048  0.14002  0.05012  Biso   1.000  H
  C1119    1.0000 0.04259  0.12910  0.95071  Biso   1.000  C
  C1120    1.0000 0.86680  0.08411  0.82320  Biso   1.000  C
  H1995    1.0000 0.33029  0.97571  0.79020  Biso   1.000  H
  H1996    1.0000 0.33809  0.02611  0.75412  Biso   1.000  H
  H1997    1.0000 0.30942  0.03331  0.81029  Biso   1.000  H
  H1998    1.0000 0.33809  0.02611  0.75408  Biso   1.000  H
  H1999    1.0000 0.32961  0.08119  0.78588  Biso   1.000  H
  H2000    1.0000 0.32597  0.08961  0.84559  Biso   1.000  H
  H2001    1.0000 0.29292  0.03751  0.82079  Biso   1.000  H
  C1121    1.0000 0.94138  0.18619  0.92242  Biso   1.000  C
  C1122    1.0000 0.94138  0.18619  0.92238  Biso   1.000  C
  H2002    1.0000 0.20120  0.35881  0.18651  Biso   1.000  H
  H2003    1.0000 0.15740  0.30552  0.19550  Biso   1.000  H
  H2004    1.0000 0.14359  0.35608  0.23042  Biso   1.000  H
  H2005    1.0000 0.14359  0.35608  0.23038  Biso   1.000  H
  H2006    1.0000 0.14359  0.35612  0.23042  Biso   1.000  H
  H2007    1.0000 0.14359  0.35612  0.23038  Biso   1.000  H
  H2008    1.0000 0.18460  0.41630  0.19889  Biso   1.000  H
  H2009    1.0000 0.12329  0.39731  0.23610  Biso   1.000  H
  H2010    1.0000 0.10421  0.43019  0.18651  Biso   1.000  H
  H2011    1.0000 0.88351  0.98081  0.82169  Biso   1.000  H
  H2012    1.0000 0.70360  0.83248  0.62292  Biso   1.000  H
  H2013    1.0000 0.67519  0.83691  0.67981  Biso   1.000  H
  C1123    1.0000 0.72289  0.90572  0.65490  Biso   1.000  C
  H2014    1.0000 0.70360  0.83248  0.62288  Biso   1.000  H
  H2015    1.0000 0.70360  0.83252  0.62292  Biso   1.000  H
  H2016    1.0000 0.70360  0.83252  0.62288  Biso   1.000  H
  C1124    1.0000 0.71077  0.84360  0.60351  Biso   1.000  C
  H2017    1.0000 0.82030  0.82702  0.62631  Biso   1.000  H
  H2018    1.0000 0.79247  0.88202  0.64979  Biso   1.000  H
  H2019    1.0000 0.20120  0.64119  0.81349  Biso   1.000  H
  H2020    1.0000 0.15740  0.69448  0.80450  Biso   1.000  H
  H2021    1.0000 0.14359  0.64392  0.76958  Biso   1.000  H
  H2022    1.0000 0.15740  0.69452  0.80450  Biso   1.000  H
  H2023    1.0000 0.18460  0.58370  0.80108  Biso   1.000  H
  H2024    1.0000 0.12329  0.60269  0.76390  Biso   1.000  H
  H2025    1.0000 0.10421  0.56981  0.81349  Biso   1.000  H
  H2026    1.0000 0.52390  0.83221  0.98589  Biso   1.000  H
  H2027    1.0000 0.51421  0.80562  0.97938  Biso   1.000  H
  H2028    1.0000 0.55411  0.82481  0.04169  Biso   1.000  H
  H2029    1.0000 0.48769  0.79070  0.02340  Biso   1.000  H
  H2030    1.0000 0.53118  0.83058  0.03337  Biso   1.000  H
  H2031    1.0000 0.48527  0.77769  0.02931  Biso   1.000  H
  H2032    1.0000 0.44958  0.13519  0.92328  Biso   1.000  H
  H2033    1.0000 0.48179  0.09480  0.96399  Biso   1.000  H
  C1125    1.0000 0.51131  0.17492  0.97901  Biso   1.000  C
  C1126    1.0000 0.49586  0.18829  0.98661  Biso   1.000  C
  H2034    1.0000 0.05340  0.12202  0.91651  Biso   1.000  H
  N87      1.0000 0.85051  0.13120  0.82651  Biso   1.000  N
  H2035    1.0000 0.90707  0.07501  0.80371  Biso   1.000  H
  N88      1.0000 0.95999  0.18382  0.87670  Biso   1.000  N
  H2036    1.0000 0.89937  0.20439  0.93148  Biso   1.000  H
  H2037    1.0000 0.67919  0.92202  0.64271  Biso   1.000  H
  H2038    1.0000 0.76158  0.91470  0.63210  Biso   1.000  H
  H2039    1.0000 0.73359  0.91901  0.68869  Biso   1.000  H
  H2040    1.0000 0.72437  0.85780  0.57058  Biso   1.000  H
  H2041    1.0000 0.67271  0.86520  0.61769  Biso   1.000  H
  H2042    1.0000 0.69459  0.80700  0.59959  Biso   1.000  H
  H2043    1.0000 0.55411  0.17519  0.95831  Biso   1.000  H
  H2044    1.0000 0.48769  0.20930  0.97660  Biso   1.000  H
  H2045    1.0000 0.53118  0.16942  0.96659  Biso   1.000  H
  H2046    1.0000 0.52390  0.16779  0.01411  Biso   1.000  H
  H2047    1.0000 0.51421  0.19438  0.02062  Biso   1.000  H
  H2048    1.0000 0.48527  0.22231  0.97069  Biso   1.000  H
  C1127    1.0000 0.89299  0.17139  0.80021  Biso   1.000  C
  C1128    1.0000 0.91619  0.21191  0.83972  Biso   1.000  C
  C1129    1.0000 0.91619  0.21191  0.83968  Biso   1.000  C
  H2049    1.0000 0.93480  0.15490  0.78362  Biso   1.000  H
  C1130    1.0000 0.84571  0.19869  0.76142  Biso   1.000  C
  H2050    1.0000 0.93480  0.15490  0.78358  Biso   1.000  H
  C1131    1.0000 0.84571  0.19869  0.76138  Biso   1.000  C
  C1132    1.0000 0.86311  0.19232  0.75088  Biso   1.000  C
  H2051    1.0000 0.93727  0.15260  0.79039  Biso   1.000  H
  H2052    1.0000 0.87307  0.22500  0.85729  Biso   1.000  H
  C1133    1.0000 0.95820  0.26010  0.82139  Biso   1.000  C
  C1134    1.0000 0.96310  0.24811  0.80879  Biso   1.000  C
  H2053    1.0000 0.87560  0.23102  0.85541  Biso   1.000  H
  H2054    1.0000 0.87228  0.22762  0.74490  Biso   1.000  H
  H2055    1.0000 0.80449  0.21452  0.77861  Biso   1.000  H
  C1135    1.0000 0.81941  0.15810  0.72022  Biso   1.000  C
  H2056    1.0000 0.80449  0.21452  0.77858  Biso   1.000  H
  C1136    1.0000 0.81941  0.15810  0.72018  Biso   1.000  C
  H2057    1.0000 0.81878  0.21139  0.75841  Biso   1.000  H
  H2058    1.0000 0.89679  0.21852  0.73708  Biso   1.000  H
  C1137    1.0000 0.84798  0.15130  0.70980  Biso   1.000  C
  H2059    1.0000 0.92900  0.28020  0.79720  Biso   1.000  H
  C1138    1.0000 0.98208  0.29891  0.86549  Biso   1.000  C
  C1139    1.0000 0.98898  0.29100  0.84480  Biso   1.000  C
  H2060    1.0000 0.93617  0.26402  0.78068  Biso   1.000  H
  H2061    1.0000 0.00058  0.24760  0.80330  Biso   1.000  H
  H2062    1.0000 0.00348  0.22809  0.79472  Biso   1.000  H
  H2063    1.0000 0.86000  0.14611  0.69979  Biso   1.000  H
  H2064    1.0000 0.79859  0.12681  0.73689  Biso   1.000  H
  C1140    1.0000 0.76258  0.18441  0.68459  Biso   1.000  C
  C1141    1.0000 0.80302  0.17409  0.66491  Biso   1.000  C
  H2065    1.0000 0.82189  0.12119  0.72500  Biso   1.000  H
  H2066    1.0000 0.89289  0.13769  0.69648  Biso   1.000  H
  H2067    1.0000 0.94160  0.30489  0.88822  Biso   1.000  H
  H2068    1.0000 0.94160  0.30489  0.88818  Biso   1.000  H
  H2069    1.0000 0.94818  0.30572  0.86331  Biso   1.000  H
  H2070    1.0000 0.01971  0.28138  0.88532  Biso   1.000  H
  C1142    1.0000 0.01081  0.35501  0.84611  Biso   1.000  C
  H2071    1.0000 0.01971  0.28138  0.88528  Biso   1.000  H
  C1143    1.0000 0.01081  0.35501  0.84608  Biso   1.000  C
  H2072    1.0000 0.01971  0.28142  0.88532  Biso   1.000  H
  H2073    1.0000 0.01971  0.28142  0.88528  Biso   1.000  H
  H2074    1.0000 0.02130  0.27490  0.86982  Biso   1.000  H
  C1144    1.0000 0.02878  0.33761  0.81639  Biso   1.000  C
  H2075    1.0000 0.72859  0.20570  0.70419  Biso   1.000  H
  H2076    1.0000 0.73660  0.15719  0.66529  Biso   1.000  H
  C1145    1.0000 0.80692  0.22002  0.64911  Biso   1.000  C
  C1146    1.0000 0.83902  0.20332  0.62281  Biso   1.000  C
  H2077    1.0000 0.77698  0.14409  0.64971  Biso   1.000  H
  H2078    1.0000 0.76717  0.19822  0.67940  Biso   1.000  H
  H2079    1.0000 0.97602  0.37048  0.82248  Biso   1.000  H
  H2080    1.0000 0.97602  0.37052  0.82248  Biso   1.000  H
  H2081    1.0000 0.01550  0.37931  0.87508  Biso   1.000  H
  C1147    1.0000 0.07991  0.35019  0.82030  Biso   1.000  C
  C1148    1.0000 0.06041  0.37579  0.85010  Biso   1.000  C
  H2082    1.0000 0.02288  0.39339  0.86989  Biso   1.000  H
  H2083    1.0000 0.99489  0.35600  0.79412  Biso   1.000  H
  H2084    1.0000 0.07559  0.32419  0.79261  Biso   1.000  H
  H2085    1.0000 0.06610  0.32222  0.79479  Biso   1.000  H
  H2086    1.0000 0.81561  0.25440  0.66581  Biso   1.000  H
  H2087    1.0000 0.85320  0.20301  0.64309  Biso   1.000  H
  C1149    1.0000 0.76902  0.23039  0.59549  Biso   1.000  C
  H2088    1.0000 0.81561  0.25440  0.66578  Biso   1.000  H
  H2089    1.0000 0.86369  0.23391  0.63771  Biso   1.000  H
  C1150    1.0000 0.79100  0.22500  0.57668  Biso   1.000  C
  H2090    1.0000 0.87507  0.17951  0.60851  Biso   1.000  H
  H2091    1.0000 0.11507  0.33642  0.84450  Biso   1.000  H
  C1151    1.0000 0.10769  0.40392  0.79810  Biso   1.000  C
  C1152    1.0000 0.10379  0.41939  0.81951  Biso   1.000  C
  H2092    1.0000 0.09230  0.35739  0.87381  Biso   1.000  H
  H2093    1.0000 0.79701  0.25531  0.57570  Biso   1.000  H
  H2094    1.0000 0.72179  0.24542  0.60121  Biso   1.000  H
  H2095    1.0000 0.76438  0.19691  0.57721  Biso   1.000  H
  H2096    1.0000 0.76248  0.25480  0.58831  Biso   1.000  H
  H2097    1.0000 0.76037  0.19660  0.56460  Biso   1.000  H
  H2098    1.0000 0.82210  0.23672  0.54929  Biso   1.000  H
  H2099    1.0000 0.15329  0.39810  0.78170  Biso   1.000  H
  H2100    1.0000 0.11317  0.42971  0.82531  Biso   1.000  H
  H2101    1.0000 0.07390  0.41741  0.77331  Biso   1.000  H
  H2102    1.0000 0.07216  0.43759  0.79588  Biso   1.000  H
  H2103    1.0000 0.14180  0.40210  0.80059  Biso   1.000  H
  H2104    1.0000 0.12387  0.44510  0.84299  Biso   1.000  H
  C1153    1.0000 0.76902  0.76961  0.40451  Biso   1.000  C
  C1154    1.0000 0.80692  0.77998  0.35089  Biso   1.000  C
  C1155    1.0000 0.80692  0.78002  0.35089  Biso   1.000  C
  C1156    1.0000 0.83902  0.79672  0.37719  Biso   1.000  C
  H2105    1.0000 0.79701  0.74469  0.42430  Biso   1.000  H
  H2106    1.0000 0.72179  0.75458  0.39879  Biso   1.000  H
  H2107    1.0000 0.76438  0.80309  0.42279  Biso   1.000  H
  H2108    1.0000 0.72179  0.75462  0.39879  Biso   1.000  H
  H2109    1.0000 0.76248  0.74520  0.41169  Biso   1.000  H
  H2110    1.0000 0.76037  0.80340  0.43540  Biso   1.000  H
  C1157    1.0000 0.76258  0.81559  0.31541  Biso   1.000  C
  C1158    1.0000 0.76258  0.81559  0.31537  Biso   1.000  C
  C1159    1.0000 0.80302  0.82591  0.33509  Biso   1.000  C
  H2111    1.0000 0.76717  0.80178  0.32060  Biso   1.000  H
  H2112    1.0000 0.81561  0.74560  0.33419  Biso   1.000  H
  H2113    1.0000 0.85320  0.79699  0.35691  Biso   1.000  H
  H2114    1.0000 0.85320  0.79699  0.35687  Biso   1.000  H
  H2115    1.0000 0.86369  0.76609  0.36229  Biso   1.000  H
  C1160    1.0000 0.79100  0.77500  0.42328  Biso   1.000  C
  H2116    1.0000 0.87507  0.82049  0.39149  Biso   1.000  H
  C1161    1.0000 0.81941  0.84190  0.27978  Biso   1.000  C
  H2117    1.0000 0.72859  0.79430  0.29581  Biso   1.000  H
  H2118    1.0000 0.73660  0.84281  0.33471  Biso   1.000  H
  H2119    1.0000 0.73660  0.84281  0.33468  Biso   1.000  H
  C1162    1.0000 0.84798  0.84870  0.29020  Biso   1.000  C
  H2120    1.0000 0.77698  0.85591  0.35029  Biso   1.000  H
  H2121    1.0000 0.82210  0.76328  0.45071  Biso   1.000  H
  C1163    1.0000 0.84571  0.80131  0.23858  Biso   1.000  C
  C1164    1.0000 0.86311  0.80772  0.24912  Biso   1.000  C
  H2122    1.0000 0.86000  0.85389  0.30021  Biso   1.000  H
  H2123    1.0000 0.79859  0.87319  0.26311  Biso   1.000  H
  H2124    1.0000 0.86000  0.85389  0.30017  Biso   1.000  H
  H2125    1.0000 0.79859  0.87319  0.26307  Biso   1.000  H
  H2126    1.0000 0.82189  0.87881  0.27500  Biso   1.000  H
  H2127    1.0000 0.89289  0.86231  0.30348  Biso   1.000  H
  C1165    1.0000 0.89299  0.82861  0.19979  Biso   1.000  C
  H2128    1.0000 0.87228  0.77238  0.25510  Biso   1.000  H
  H2129    1.0000 0.80449  0.78548  0.22139  Biso   1.000  H
  H2130    1.0000 0.80449  0.78552  0.22139  Biso   1.000  H
  H2131    1.0000 0.81878  0.78861  0.24159  Biso   1.000  H
  H2132    1.0000 0.89679  0.78148  0.26289  Biso   1.000  H
  C1166    1.0000 0.91619  0.78809  0.16028  Biso   1.000  C
  N89      1.0000 0.85051  0.86880  0.17349  Biso   1.000  N
  H2133    1.0000 0.93480  0.84510  0.21638  Biso   1.000  H
  H2134    1.0000 0.93727  0.84740  0.20961  Biso   1.000  H
  N90      1.0000 0.95999  0.81618  0.12330  Biso   1.000  N
  H2135    1.0000 0.87307  0.77500  0.14271  Biso   1.000  H
  C1167    1.0000 0.95820  0.73990  0.17861  Biso   1.000  C
  H2136    1.0000 0.87307  0.77500  0.14267  Biso   1.000  H
  N91      1.0000 0.95999  0.81622  0.12330  Biso   1.000  N
  C1168    1.0000 0.96310  0.75189  0.19117  Biso   1.000  C
  H2137    1.0000 0.87560  0.76902  0.14459  Biso   1.000  H
  C1169    1.0000 0.86680  0.91589  0.17680  Biso   1.000  C
  C1170    1.0000 0.94138  0.81381  0.07758  Biso   1.000  C
  H2138    1.0000 0.92900  0.71980  0.20280  Biso   1.000  H
  C1171    1.0000 0.98208  0.70109  0.13451  Biso   1.000  C
  C1172    1.0000 0.98898  0.70900  0.15520  Biso   1.000  C
  H2139    1.0000 0.93617  0.73598  0.21928  Biso   1.000  H
  H2140    1.0000 0.00058  0.75240  0.19670  Biso   1.000  H
  H2141    1.0000 0.00348  0.77191  0.20528  Biso   1.000  H
  C1173    1.0000 0.82689  0.95901  0.15201  Biso   1.000  C
  H2142    1.0000 0.90707  0.92499  0.19629  Biso   1.000  H
  C1174    1.0000 0.98561  0.83960  0.03800  Biso   1.000  C
  H2143    1.0000 0.89937  0.79561  0.06852  Biso   1.000  H
  H2144    1.0000 0.89937  0.79561  0.06848  Biso   1.000  H
  H2145    1.0000 0.94160  0.69511  0.11178  Biso   1.000  H
  H2146    1.0000 0.94818  0.69432  0.13669  Biso   1.000  H
  H2147    1.0000 0.01971  0.71862  0.11468  Biso   1.000  H
  C1175    1.0000 0.01081  0.64499  0.15389  Biso   1.000  C
  H2148    1.0000 0.02130  0.72510  0.13018  Biso   1.000  H
  C1176    1.0000 0.02878  0.66239  0.18357  Biso   1.000  C
  C1177    1.0000 0.76828  0.94631  0.12051  Biso   1.000  C
  C1178    1.0000 0.76828  0.94631  0.12048  Biso   1.000  C
  C1179    1.0000 0.84281  0.01041  0.15930  Biso   1.000  C
  C1180    1.0000 0.96948  0.83078  0.98770  Biso   1.000  C
  C1181    1.0000 0.96948  0.83082  0.98770  Biso   1.000  C
  C1182    1.0000 0.04259  0.87090  0.04929  Biso   1.000  C
  H2149    1.0000 0.97602  0.62952  0.17752  Biso   1.000  H
  H2150    1.0000 0.97602  0.62952  0.17748  Biso   1.000  H
  H2151    1.0000 0.01550  0.62069  0.12492  Biso   1.000  H
  C1183    1.0000 0.07991  0.64981  0.17970  Biso   1.000  C
  H2152    1.0000 0.01550  0.62069  0.12488  Biso   1.000  H
  C1184    1.0000 0.06041  0.62421  0.14990  Biso   1.000  C
  H2153    1.0000 0.02288  0.60661  0.13011  Biso   1.000  H
  H2154    1.0000 0.99489  0.64400  0.20588  Biso   1.000  H
  H2155    1.0000 0.07559  0.67581  0.20739  Biso   1.000  H
  H2156    1.0000 0.06610  0.67778  0.20521  Biso   1.000  H
  C1185    1.0000 0.72758  0.98560  0.09971  Biso   1.000  C
  H2157    1.0000 0.75731  0.91019  0.11400  Biso   1.000  H
  C1186    1.0000 0.80207  0.05041  0.14012  Biso   1.000  C
  H2158    1.0000 0.88351  0.01919  0.17831  Biso   1.000  H
  C1187    1.0000 0.80207  0.05041  0.14008  Biso   1.000  C
  H2159    1.0000 0.92900  0.81048  0.97949  Biso   1.000  H
  C1188    1.0000 0.01107  0.85088  0.94932  Biso   1.000  C
  C1189    1.0000 0.01107  0.85088  0.94928  Biso   1.000  C
  C1190    1.0000 0.01107  0.85092  0.94932  Biso   1.000  C
  C1191    1.0000 0.01107  0.85092  0.94928  Biso   1.000  C
  C1192    1.0000 0.08460  0.89250  0.01181  Biso   1.000  C
  H2160    1.0000 0.05340  0.87798  0.08349  Biso   1.000  H
  C1193    1.0000 0.08460  0.89250  0.01178  Biso   1.000  C
  H2161    1.0000 0.05340  0.87802  0.08349  Biso   1.000  H
  H2162    1.0000 0.11507  0.66358  0.15550  Biso   1.000  H
  C1194    1.0000 0.10769  0.59608  0.20190  Biso   1.000  C
  H2163    1.0000 0.11507  0.66362  0.15550  Biso   1.000  H
  C1195    1.0000 0.10379  0.58061  0.18049  Biso   1.000  C
  H2164    1.0000 0.09230  0.64261  0.12619  Biso   1.000  H
  C1196    1.0000 0.66502  0.97171  0.06968  Biso   1.000  C
  C1197    1.0000 0.74450  0.03810  0.11009  Biso   1.000  C
  C1198    1.0000 0.81567  0.10789  0.15091  Biso   1.000  C
  C1199    1.0000 0.81567  0.10789  0.15088  Biso   1.000  C
  C1200    1.0000 0.99531  0.84071  0.89661  Biso   1.000  C
  C1201    1.0000 0.06889  0.88249  0.96249  Biso   1.000  C
  C1202    1.0000 0.14670  0.92518  0.02589  Biso   1.000  C
  C1203    1.0000 0.14670  0.92522  0.02589  Biso   1.000  C
  H2165    1.0000 0.15329  0.60190  0.21830  Biso   1.000  H
  H2166    1.0000 0.11317  0.57029  0.17469  Biso   1.000  H
  H2167    1.0000 0.07390  0.58259  0.22669  Biso   1.000  H
  H2168    1.0000 0.07216  0.56241  0.20408  Biso   1.000  H
  H2169    1.0000 0.14180  0.59790  0.19938  Biso   1.000  H
  H2170    1.0000 0.12387  0.55490  0.15701  Biso   1.000  H
  H2171    1.0000 0.65479  0.93539  0.06389  Biso   1.000  H
  N92      1.0000 0.62538  0.00582  0.05189  Biso   1.000  N
  H2172    1.0000 0.71641  0.06572  0.09651  Biso   1.000  H
  N93      1.0000 0.86369  0.12380  0.17910  Biso   1.000  N
  H2173    1.0000 0.78609  0.13341  0.13549  Biso   1.000  H
  N94      1.0000 0.94586  0.81041  0.88197  Biso   1.000  N
  H2174    1.0000 0.02340  0.85769  0.87181  Biso   1.000  H
  H2175    1.0000 0.09757  0.89721  0.93679  Biso   1.000  H
  N95      1.0000 0.18660  0.94291  0.99421  Biso   1.000  N
  H2176    1.0000 0.15550  0.93238  0.06050  Biso   1.000  H
  H2177    1.0000 0.15550  0.93242  0.06050  Biso   1.000  H
  C1204    1.0000 0.56028  0.98940  0.02589  Biso   1.000  C
  C1205    1.0000 0.86859  0.18010  0.19001  Biso   1.000  C
  C1206    1.0000 0.93917  0.79941  0.82862  Biso   1.000  C
  C1207    1.0000 0.93917  0.79941  0.82858  Biso   1.000  C
  C1208    1.0000 0.25007  0.97341  0.01242  Biso   1.000  C
  C1209    1.0000 0.25007  0.97341  0.01238  Biso   1.000  C
  H2178    1.0000 0.55938  0.94991  0.02412  Biso   1.000  H
  H2179    1.0000 0.55938  0.94991  0.02408  Biso   1.000  H
  H2180    1.0000 0.56180  0.94999  0.02299  Biso   1.000  H
  C1210    1.0000 0.56028  0.01060  0.97411  Biso   1.000  C
  C1211    1.0000 0.56028  0.01060  0.97408  Biso   1.000  C
  C1212    1.0000 0.49797  0.00799  0.05941  Biso   1.000  C
  C1213    1.0000 0.49001  0.00301  0.04850  Biso   1.000  C
  H2181    1.0000 0.83190  0.19778  0.16879  Biso   1.000  H
  C1214    1.0000 0.85088  0.19351  0.24449  Biso   1.000  C
  C1215    1.0000 0.93917  0.20059  0.17138  Biso   1.000  C
  H2182    1.0000 0.83190  0.19782  0.16879  Biso   1.000  H
  C1216    1.0000 0.86400  0.18350  0.24690  Biso   1.000  C
  H2183    1.0000 0.82890  0.19988  0.17390  Biso   1.000  H
  C1217    1.0000 0.86859  0.81990  0.80999  Biso   1.000  C
  H2184    1.0000 0.97828  0.81721  0.80981  Biso   1.000  H
  C1218    1.0000 0.94418  0.73879  0.82151  Biso   1.000  C
  C1219    1.0000 0.95799  0.74109  0.81801  Biso   1.000  C
  H2185    1.0000 0.97602  0.82121  0.81139  Biso   1.000  H
  C1220    1.0000 0.31348  0.93860  0.99402  Biso   1.000  C
  C1221    1.0000 0.31348  0.93860  0.99398  Biso   1.000  C
  H2186    1.0000 0.24991  0.97689  0.04989  Biso   1.000  H
  C1222    1.0000 0.31828  0.94081  0.00038  Biso   1.000  C
  H2187    1.0000 0.24638  0.97840  0.04970  Biso   1.000  H
  C1223    1.0000 0.25007  0.02659  0.98758  Biso   1.000  C
  N96      1.0000 0.62538  0.99418  0.94811  Biso   1.000  N
  C1224    1.0000 0.49797  0.99201  0.94059  Biso   1.000  C
  N97      1.0000 0.62538  0.99418  0.94808  Biso   1.000  N
  N98      1.0000 0.62538  0.99422  0.94811  Biso   1.000  N
  N99      1.0000 0.62538  0.99422  0.94808  Biso   1.000  N
  C1225    1.0000 0.49001  0.99699  0.95150  Biso   1.000  C
  H2188    1.0000 0.55938  0.05009  0.97588  Biso   1.000  H
  H2189    1.0000 0.56180  0.05001  0.97701  Biso   1.000  H
  H2190    1.0000 0.45348  0.99988  0.04169  Biso   1.000  H
  C1226    1.0000 0.49402  0.98441  0.11148  Biso   1.000  C
  H2191    1.0000 0.45348  0.99992  0.04169  Biso   1.000  H
  C1227    1.0000 0.48000  0.97899  0.10020  Biso   1.000  C
  H2192    1.0000 0.50087  0.04700  0.06291  Biso   1.000  H
  H2193    1.0000 0.48622  0.04241  0.05151  Biso   1.000  H
  H2194    1.0000 0.45190  0.99130  0.02570  Biso   1.000  H
  H2195    1.0000 0.85140  0.23248  0.24840  Biso   1.000  H
  H2196    1.0000 0.88820  0.17879  0.26639  Biso   1.000  H
  C1228    1.0000 0.77729  0.17199  0.26300  Biso   1.000  C
  H2197    1.0000 0.85140  0.23252  0.24840  Biso   1.000  H
  C1229    1.0000 0.79000  0.16372  0.26458  Biso   1.000  C
  H2198    1.0000 0.87117  0.22049  0.25788  Biso   1.000  H
  N100     1.0000 0.94586  0.18959  0.11803  Biso   1.000  N
  H2199    1.0000 0.97828  0.18279  0.19019  Biso   1.000  H
  C1230    1.0000 0.94418  0.26121  0.17849  Biso   1.000  C
  C1231    1.0000 0.95799  0.25891  0.18199  Biso   1.000  C
  H2200    1.0000 0.97602  0.17879  0.18861  Biso   1.000  H
  H2201    1.0000 0.90138  0.16138  0.26228  Biso   1.000  H
  N101     1.0000 0.86369  0.87620  0.82090  Biso   1.000  N
  H2202    1.0000 0.83190  0.80222  0.83121  Biso   1.000  H
  C1232    1.0000 0.85088  0.80649  0.75551  Biso   1.000  C
  H2203    1.0000 0.83190  0.80222  0.83118  Biso   1.000  H
  C1233    1.0000 0.86400  0.81650  0.75310  Biso   1.000  C
  H2204    1.0000 0.82890  0.80012  0.82610  Biso   1.000  H
  H2205    1.0000 0.90760  0.72131  0.84209  Biso   1.000  H
  H2206    1.0000 0.93527  0.72989  0.78580  Biso   1.000  H
  H2207    1.0000 0.92431  0.71830  0.83641  Biso   1.000  H
  H2208    1.0000 0.95261  0.73420  0.78189  Biso   1.000  H
  C1234    1.0000 0.01729  0.71810  0.83701  Biso   1.000  C
  C1235    1.0000 0.03300  0.72499  0.83400  Biso   1.000  C
  H2209    1.0000 0.35749  0.95949  0.99488  Biso   1.000  H
  H2210    1.0000 0.30531  0.92720  0.95880  Biso   1.000  H
  H2211    1.0000 0.33240  0.94770  0.96520  Biso   1.000  H
  C1236    1.0000 0.32096  0.88819  0.02920  Biso   1.000  C
  C1237    1.0000 0.30921  0.88051  0.00768  Biso   1.000  C
  H2212    1.0000 0.35686  0.95331  0.02250  Biso   1.000  H
  H2213    1.0000 0.24991  0.02311  0.95011  Biso   1.000  H
  C1238    1.0000 0.31828  0.05919  0.99959  Biso   1.000  C
  H2214    1.0000 0.24638  0.02160  0.95030  Biso   1.000  H
  N102     1.0000 0.18660  0.05709  0.00579  Biso   1.000  N
  C1239    1.0000 0.31348  0.06140  0.00598  Biso   1.000  C
  C1240    1.0000 0.66502  0.02829  0.93032  Biso   1.000  C
  C1241    1.0000 0.66502  0.02829  0.93028  Biso   1.000  C
  H2215    1.0000 0.50087  0.95300  0.93709  Biso   1.000  H
  H2216    1.0000 0.48622  0.95759  0.94849  Biso   1.000  H
  H2217    1.0000 0.45348  0.00012  0.95831  Biso   1.000  H
  C1242    1.0000 0.49402  0.01559  0.88852  Biso   1.000  C
  C1243    1.0000 0.49402  0.01559  0.88848  Biso   1.000  C
  C1244    1.0000 0.48000  0.02101  0.89980  Biso   1.000  C
  H2218    1.0000 0.45190  0.00870  0.97430  Biso   1.000  H
  H2219    1.0000 0.49871  0.94552  0.10900  Biso   1.000  H
  H2220    1.0000 0.53397  0.99771  0.13180  Biso   1.000  H
  C1245    1.0000 0.42570  0.99751  0.13820  Biso   1.000  C
  C1246    1.0000 0.40699  0.99399  0.12522  Biso   1.000  C
  H2221    1.0000 0.51848  0.98979  0.12251  Biso   1.000  H
  H2222    1.0000 0.48179  0.93958  0.09688  Biso   1.000  H
  H2223    1.0000 0.76928  0.13531  0.25130  Biso   1.000  H
  H2224    1.0000 0.73828  0.19470  0.25081  Biso   1.000  H
  C1247    1.0000 0.78320  0.17428  0.32422  Biso   1.000  C
  C1248    1.0000 0.78320  0.17428  0.32418  Biso   1.000  C
  C1249    1.0000 0.78320  0.17432  0.32422  Biso   1.000  C
  C1250    1.0000 0.78320  0.17432  0.32418  Biso   1.000  C
  C1251    1.0000 0.75589  0.18239  0.31428  Biso   1.000  C
  H2225    1.0000 0.75647  0.17230  0.23741  Biso   1.000  H
  H2226    1.0000 0.79279  0.12459  0.26631  Biso   1.000  H
  C1252    1.0000 0.99531  0.15929  0.10339  Biso   1.000  C
  H2227    1.0000 0.90760  0.27869  0.15791  Biso   1.000  H
  H2228    1.0000 0.93527  0.27011  0.21420  Biso   1.000  H
  H2229    1.0000 0.90760  0.27869  0.15787  Biso   1.000  H
  H2230    1.0000 0.92431  0.28170  0.16359  Biso   1.000  H
  H2231    1.0000 0.95261  0.26580  0.21811  Biso   1.000  H
  C1253    1.0000 0.01729  0.28190  0.16299  Biso   1.000  C
  C1254    1.0000 0.03300  0.27501  0.16600  Biso   1.000  C
  C1255    1.0000 0.81567  0.89211  0.84909  Biso   1.000  C
  H2232    1.0000 0.85140  0.76752  0.75160  Biso   1.000  H
  H2233    1.0000 0.88820  0.82121  0.73361  Biso   1.000  H
  C1256    1.0000 0.77729  0.82801  0.73700  Biso   1.000  C
  H2234    1.0000 0.88820  0.82121  0.73358  Biso   1.000  H
  C1257    1.0000 0.79000  0.83632  0.73538  Biso   1.000  C
  H2235    1.0000 0.87117  0.77951  0.74208  Biso   1.000  H
  H2236    1.0000 0.90138  0.83862  0.73768  Biso   1.000  H
  H2237    1.0000 0.05387  0.73662  0.81710  Biso   1.000  H
  H2238    1.0000 0.02551  0.72629  0.87290  Biso   1.000  H
  C1258    1.0000 0.02499  0.65808  0.82892  Biso   1.000  C
  C1259    1.0000 0.02499  0.65808  0.82888  Biso   1.000  C
  C1260    1.0000 0.02499  0.65812  0.82892  Biso   1.000  C
  C1261    1.0000 0.02499  0.65812  0.82888  Biso   1.000  C
  C1262    1.0000 0.05250  0.66750  0.81951  Biso   1.000  C
  H2239    1.0000 0.03721  0.72922  0.87049  Biso   1.000  H
  H2240    1.0000 0.06658  0.74940  0.81759  Biso   1.000  H
  H2241    1.0000 0.28327  0.86200  0.02261  Biso   1.000  H
  H2242    1.0000 0.32028  0.89808  0.06532  Biso   1.000  H
  C1263    1.0000 0.39829  0.86591  0.01212  Biso   1.000  C
  H2243    1.0000 0.28327  0.86200  0.02258  Biso   1.000  H
  H2244    1.0000 0.32028  0.89808  0.06528  Biso   1.000  H
  C1264    1.0000 0.39829  0.86591  0.01208  Biso   1.000  C
  H2245    1.0000 0.32028  0.89812  0.06532  Biso   1.000  H
  H2246    1.0000 0.32028  0.89812  0.06528  Biso   1.000  H
  H2247    1.0000 0.30689  0.87292  0.04421  Biso   1.000  H
  C1265    1.0000 0.36977  0.84590  0.98378  Biso   1.000  C
  H2248    1.0000 0.26367  0.86971  0.99270  Biso   1.000  H
  C1266    1.0000 0.32096  0.11181  0.97080  Biso   1.000  C
  C1267    1.0000 0.30921  0.11949  0.99229  Biso   1.000  C
  H2249    1.0000 0.35686  0.04669  0.97750  Biso   1.000  H
  H2250    1.0000 0.35749  0.04051  0.00512  Biso   1.000  H
  H2251    1.0000 0.30531  0.07280  0.04120  Biso   1.000  H
  H2252    1.0000 0.35749  0.04051  0.00508  Biso   1.000  H
  H2253    1.0000 0.33240  0.05230  0.03480  Biso   1.000  H
  C1268    1.0000 0.14670  0.07482  0.97411  Biso   1.000  C
  C1269    1.0000 0.14670  0.07482  0.97408  Biso   1.000  C
  C1270    1.0000 0.72758  0.01440  0.90029  Biso   1.000  C
  H2254    1.0000 0.65479  0.06461  0.93611  Biso   1.000  H
  H2255    1.0000 0.65479  0.06461  0.93607  Biso   1.000  H
  H2256    1.0000 0.49871  0.05448  0.89100  Biso   1.000  H
  H2257    1.0000 0.53397  0.00229  0.86820  Biso   1.000  H
  C1271    1.0000 0.42570  0.00249  0.86180  Biso   1.000  C
  H2258    1.0000 0.49871  0.05452  0.89100  Biso   1.000  H
  C1272    1.0000 0.40699  0.00601  0.87478  Biso   1.000  C
  H2259    1.0000 0.51848  0.01021  0.87749  Biso   1.000  H
  H2260    1.0000 0.48179  0.06042  0.90308  Biso   1.000  H
  H2261    1.0000 0.38612  0.98220  0.11878  Biso   1.000  H
  C1273    1.0000 0.42101  0.97788  0.19159  Biso   1.000  C
  C1274    1.0000 0.42101  0.97792  0.19159  Biso   1.000  C
  C1275    1.0000 0.40399  0.96601  0.17530  Biso   1.000  C
  H2262    1.0000 0.41959  0.03640  0.13831  Biso   1.000  H
  H2263    1.0000 0.40441  0.03319  0.13048  Biso   1.000  H
  H2264    1.0000 0.36688  0.98358  0.10351  Biso   1.000  H
  H2265    1.0000 0.82278  0.15221  0.33618  Biso   1.000  H
  H2266    1.0000 0.79068  0.21112  0.33580  Biso   1.000  H
  C1276    1.0000 0.71409  0.15331  0.34322  Biso   1.000  C
  C1277    1.0000 0.71409  0.15331  0.34318  Biso   1.000  C
  C1278    1.0000 0.77929  0.15490  0.35838  Biso   1.000  C
  H2267    1.0000 0.76591  0.22061  0.31868  Biso   1.000  H
  H2268    1.0000 0.70418  0.17832  0.31139  Biso   1.000  H
  C1279    1.0000 0.01107  0.14912  0.05068  Biso   1.000  C
  H2269    1.0000 0.02340  0.14231  0.12819  Biso   1.000  H
  H2270    1.0000 0.05387  0.26338  0.18290  Biso   1.000  H
  H2271    1.0000 0.02551  0.27371  0.12710  Biso   1.000  H
  C1280    1.0000 0.02499  0.34192  0.17108  Biso   1.000  C
  H2272    1.0000 0.05387  0.26342  0.18290  Biso   1.000  H
  C1281    1.0000 0.05250  0.33250  0.18049  Biso   1.000  C
  H2273    1.0000 0.03721  0.27078  0.12951  Biso   1.000  H
  H2274    1.0000 0.06658  0.25060  0.18241  Biso   1.000  H
  C1282    1.0000 0.80207  0.94959  0.85988  Biso   1.000  C
  H2275    1.0000 0.78609  0.86659  0.86451  Biso   1.000  H
  H2276    1.0000 0.76928  0.86469  0.74870  Biso   1.000  H
  H2277    1.0000 0.73828  0.80530  0.74919  Biso   1.000  H
  C1283    1.0000 0.78320  0.82572  0.67578  Biso   1.000  C
  C1284    1.0000 0.75589  0.81761  0.68568  Biso   1.000  C
  H2278    1.0000 0.75647  0.82770  0.76259  Biso   1.000  H
  H2279    1.0000 0.79279  0.87541  0.73369  Biso   1.000  H
  H2280    1.0000 0.98998  0.63968  0.85040  Biso   1.000  H
  H2281    1.0000 0.01349  0.64989  0.79351  Biso   1.000  H
  C1285    1.0000 0.09831  0.63620  0.84081  Biso   1.000  C
  H2282    1.0000 0.01349  0.64989  0.79348  Biso   1.000  H
  H2283    1.0000 0.04338  0.66271  0.78309  Biso   1.000  H
  C1286    1.0000 0.12899  0.65060  0.83031  Biso   1.000  C
  H2284    1.0000 0.02050  0.64328  0.83780  Biso   1.000  H
  H2285    1.0000 0.40878  0.88289  0.97938  Biso   1.000  H
  H2286    1.0000 0.39181  0.82781  0.00512  Biso   1.000  H
  C1287    1.0000 0.45997  0.86991  0.04060  Biso   1.000  C
  H2287    1.0000 0.39181  0.82781  0.00508  Biso   1.000  H
  H2288    1.0000 0.41168  0.84340  0.04538  Biso   1.000  H
  H2289    1.0000 0.44789  0.88079  0.00598  Biso   1.000  H
  H2290    1.0000 0.35227  0.80930  0.97961  Biso   1.000  H
  H2291    1.0000 0.38048  0.86002  0.94988  Biso   1.000  H
  C1288    1.0000 0.42929  0.84451  0.01038  Biso   1.000  C
  H2292    1.0000 0.28327  0.13800  0.97739  Biso   1.000  H
  H2293    1.0000 0.32028  0.10192  0.93468  Biso   1.000  H
  C1289    1.0000 0.39829  0.13409  0.98788  Biso   1.000  C
  H2294    1.0000 0.30689  0.12708  0.95579  Biso   1.000  H
  C1290    1.0000 0.36977  0.15410  0.01622  Biso   1.000  C
  H2295    1.0000 0.26367  0.13029  0.00730  Biso   1.000  H
  C1291    1.0000 0.08460  0.10750  0.98819  Biso   1.000  C
  H2296    1.0000 0.15550  0.06762  0.93950  Biso   1.000  H
  C1292    1.0000 0.74450  0.96190  0.88991  Biso   1.000  C
  C1293    1.0000 0.76828  0.05369  0.87949  Biso   1.000  C
  H2297    1.0000 0.41959  0.96360  0.86169  Biso   1.000  H
  H2298    1.0000 0.40441  0.96681  0.86948  Biso   1.000  H
  H2299    1.0000 0.38612  0.01780  0.88122  Biso   1.000  H
  C1294    1.0000 0.42101  0.02212  0.80841  Biso   1.000  C
  H2300    1.0000 0.38612  0.01780  0.88118  Biso   1.000  H
  C1295    1.0000 0.42101  0.02212  0.80838  Biso   1.000  C
  C1296    1.0000 0.40399  0.03399  0.82470  Biso   1.000  C
  H2301    1.0000 0.36688  0.01642  0.89649  Biso   1.000  H
  H2302    1.0000 0.45438  0.99759  0.21318  Biso   1.000  H
  H2303    1.0000 0.43340  0.93990  0.19302  Biso   1.000  H
  C1297    1.0000 0.34210  0.98659  0.21111  Biso   1.000  C
  H2304    1.0000 0.43340  0.93990  0.19298  Biso   1.000  H
  C1298    1.0000 0.34210  0.98659  0.21108  Biso   1.000  C
  H2305    1.0000 0.44231  0.93951  0.17721  Biso   1.000  H
  C1299    1.0000 0.33098  0.93701  0.18101  Biso   1.000  C
  H2306    1.0000 0.40968  0.99130  0.20310  Biso   1.000  H
  H2307    1.0000 0.70360  0.16752  0.37708  Biso   1.000  H
  H2308    1.0000 0.67519  0.16309  0.32019  Biso   1.000  H
  C1300    1.0000 0.72289  0.09428  0.34510  Biso   1.000  C
  C1301    1.0000 0.72289  0.09432  0.34510  Biso   1.000  C
  C1302    1.0000 0.71077  0.15640  0.39649  Biso   1.000  C
  H2309    1.0000 0.82030  0.17302  0.37369  Biso   1.000  H
  H2310    1.0000 0.79247  0.11798  0.35021  Biso   1.000  H
  C1303    1.0000 0.06889  0.11751  0.03751  Biso   1.000  C
  C1304    1.0000 0.06889  0.11751  0.03747  Biso   1.000  C
  C1305    1.0000 0.96948  0.16922  0.01230  Biso   1.000  C
  H2311    1.0000 0.98998  0.36032  0.14960  Biso   1.000  H
  H2312    1.0000 0.01349  0.35011  0.20649  Biso   1.000  H
  C1306    1.0000 0.09831  0.36380  0.15919  Biso   1.000  C
  H2313    1.0000 0.04338  0.33729  0.21691  Biso   1.000  H
  C1307    1.0000 0.12899  0.34940  0.16969  Biso   1.000  C
  H2314    1.0000 0.02050  0.35672  0.16220  Biso   1.000  H
  C1308    1.0000 0.84281  0.98959  0.84070  Biso   1.000  C
  H2315    1.0000 0.82278  0.84779  0.66382  Biso   1.000  H
  H2316    1.0000 0.79068  0.78888  0.66420  Biso   1.000  H
  C1309    1.0000 0.71409  0.84669  0.65678  Biso   1.000  C
  H2317    1.0000 0.82278  0.84779  0.66378  Biso   1.000  H
  H2318    1.0000 0.79068  0.78892  0.66420  Biso   1.000  H
  C1310    1.0000 0.77929  0.84510  0.64158  Biso   1.000  C
  H2319    1.0000 0.76591  0.77939  0.68128  Biso   1.000  H
  H2320    1.0000 0.70418  0.82172  0.68858  Biso   1.000  H
  H2321    1.0000 0.11159  0.64669  0.87539  Biso   1.000  H
  H2322    1.0000 0.09646  0.59699  0.83972  Biso   1.000  H
  C1311    1.0000 0.15540  0.65571  0.80371  Biso   1.000  C
  H2323    1.0000 0.09646  0.59699  0.83968  Biso   1.000  H
  C1312    1.0000 0.13600  0.59640  0.79919  Biso   1.000  C
  H2324    1.0000 0.13621  0.64471  0.86669  Biso   1.000  H
  H2325    1.0000 0.16267  0.67751  0.81820  Biso   1.000  H
  H2326    1.0000 0.44958  0.86481  0.07672  Biso   1.000  H
  H2327    1.0000 0.48179  0.90520  0.03601  Biso   1.000  H
  C1313    1.0000 0.51131  0.82508  0.02099  Biso   1.000  C
  H2328    1.0000 0.44958  0.86481  0.07668  Biso   1.000  H
  C1314    1.0000 0.49586  0.81171  0.01339  Biso   1.000  C
  H2329    1.0000 0.39181  0.17219  0.99488  Biso   1.000  H
  C1315    1.0000 0.45997  0.13009  0.95940  Biso   1.000  C
  H2330    1.0000 0.41168  0.15660  0.95459  Biso   1.000  H
  H2331    1.0000 0.44789  0.11921  0.99402  Biso   1.000  H
  H2332    1.0000 0.40878  0.11711  0.02062  Biso   1.000  H
  H2333    1.0000 0.40878  0.11711  0.02058  Biso   1.000  H
  C1316    1.0000 0.42929  0.15549  0.98962  Biso   1.000  C
  H2334    1.0000 0.35227  0.19070  0.02039  Biso   1.000  H
  H2335    1.0000 0.38048  0.14002  0.05012  Biso   1.000  H
  C1317    1.0000 0.04259  0.12910  0.95071  Biso   1.000  C
  H2336    1.0000 0.71641  0.93428  0.90349  Biso   1.000  H
  H2337    1.0000 0.71641  0.93432  0.90349  Biso   1.000  H
  C1318    1.0000 0.82689  0.04099  0.84799  Biso   1.000  C
  H2338    1.0000 0.75731  0.08981  0.88600  Biso   1.000  H
  H2339    1.0000 0.45438  0.00241  0.78682  Biso   1.000  H
  H2340    1.0000 0.43340  0.06010  0.80698  Biso   1.000  H
  C1319    1.0000 0.34210  0.01341  0.78889  Biso   1.000  C
  H2341    1.0000 0.45438  0.00241  0.78678  Biso   1.000  H
  H2342    1.0000 0.44231  0.06049  0.82279  Biso   1.000  H
  C1320    1.0000 0.33098  0.06299  0.81899  Biso   1.000  C
  H2343    1.0000 0.40968  0.00870  0.79690  Biso   1.000  H
  H2344    1.0000 0.33809  0.97389  0.24588  Biso   1.000  H
  H2345    1.0000 0.30942  0.96669  0.18971  Biso   1.000  H
  H2346    1.0000 0.33029  0.02429  0.20980  Biso   1.000  H
  H2347    1.0000 0.32961  0.91881  0.21409  Biso   1.000  H
  H2348    1.0000 0.32597  0.91039  0.15441  Biso   1.000  H
  H2349    1.0000 0.29292  0.96249  0.17921  Biso   1.000  H
  H2350    1.0000 0.67919  0.07798  0.35729  Biso   1.000  H
  H2351    1.0000 0.76158  0.08530  0.36790  Biso   1.000  H
  H2352    1.0000 0.73359  0.08099  0.31131  Biso   1.000  H
  H2353    1.0000 0.73359  0.08099  0.31127  Biso   1.000  H
  H2354    1.0000 0.67919  0.07802  0.35729  Biso   1.000  H
  H2355    1.0000 0.72437  0.14220  0.42942  Biso   1.000  H
  H2356    1.0000 0.67271  0.13480  0.38231  Biso   1.000  H
  H2357    1.0000 0.69459  0.19300  0.40041  Biso   1.000  H
  H2358    1.0000 0.09757  0.10279  0.06321  Biso   1.000  H
  C1321    1.0000 0.98561  0.16040  0.96200  Biso   1.000  C
  H2359    1.0000 0.92900  0.18952  0.02051  Biso   1.000  H
  H2360    1.0000 0.11159  0.35331  0.12461  Biso   1.000  H
  H2361    1.0000 0.09646  0.40301  0.16028  Biso   1.000  H
  C1322    1.0000 0.15540  0.34429  0.19629  Biso   1.000  C
  H2362    1.0000 0.11159  0.35331  0.12458  Biso   1.000  H
  C1323    1.0000 0.13600  0.40360  0.20081  Biso   1.000  C
  H2363    1.0000 0.13621  0.35529  0.13331  Biso   1.000  H
  H2364    1.0000 0.16267  0.32249  0.18180  Biso   1.000  H
  H2365    1.0000 0.88351  0.98081  0.82169  Biso   1.000  H
  H2366    1.0000 0.70360  0.83248  0.62292  Biso   1.000  H
  H2367    1.0000 0.67519  0.83691  0.67981  Biso   1.000  H
  C1324    1.0000 0.72289  0.90572  0.65490  Biso   1.000  C
  H2368    1.0000 0.70360  0.83248  0.62288  Biso   1.000  H
  H2369    1.0000 0.70360  0.83252  0.62292  Biso   1.000  H
  H2370    1.0000 0.70360  0.83252  0.62288  Biso   1.000  H
  C1325    1.0000 0.71077  0.84360  0.60351  Biso   1.000  C
  H2371    1.0000 0.82030  0.82702  0.62631  Biso   1.000  H
  H2372    1.0000 0.79247  0.88202  0.64979  Biso   1.000  H
  H2373    1.0000 0.20120  0.64119  0.81349  Biso   1.000  H
  H2374    1.0000 0.15740  0.69448  0.80450  Biso   1.000  H
  H2375    1.0000 0.14359  0.64392  0.76958  Biso   1.000  H
  H2376    1.0000 0.15740  0.69452  0.80450  Biso   1.000  H
  H2377    1.0000 0.18460  0.58370  0.80108  Biso   1.000  H
  H2378    1.0000 0.12329  0.60269  0.76390  Biso   1.000  H
  H2379    1.0000 0.10421  0.56981  0.81349  Biso   1.000  H
  H2380    1.0000 0.52390  0.83221  0.98589  Biso   1.000  H
  H2381    1.0000 0.51421  0.80562  0.97938  Biso   1.000  H
  H2382    1.0000 0.55411  0.82481  0.04169  Biso   1.000  H
  H2383    1.0000 0.48769  0.79070  0.02340  Biso   1.000  H
  H2384    1.0000 0.53118  0.83058  0.03337  Biso   1.000  H
  H2385    1.0000 0.48527  0.77769  0.02931  Biso   1.000  H
  H2386    1.0000 0.44958  0.13519  0.92328  Biso   1.000  H
  H2387    1.0000 0.48179  0.09480  0.96399  Biso   1.000  H
  C1326    1.0000 0.51131  0.17492  0.97901  Biso   1.000  C
  C1327    1.0000 0.49586  0.18829  0.98661  Biso   1.000  C
  H2388    1.0000 0.05340  0.12202  0.91651  Biso   1.000  H
  C1328    1.0000 0.86680  0.08411  0.82320  Biso   1.000  C
  H2389    1.0000 0.33029  0.97571  0.79020  Biso   1.000  H
  H2390    1.0000 0.33809  0.02611  0.75412  Biso   1.000  H
  H2391    1.0000 0.30942  0.03331  0.81029  Biso   1.000  H
  H2392    1.0000 0.33809  0.02611  0.75408  Biso   1.000  H
  H2393    1.0000 0.32961  0.08119  0.78588  Biso   1.000  H
  H2394    1.0000 0.32597  0.08961  0.84559  Biso   1.000  H
  H2395    1.0000 0.29292  0.03751  0.82079  Biso   1.000  H
  C1329    1.0000 0.94138  0.18619  0.92242  Biso   1.000  C
  C1330    1.0000 0.94138  0.18619  0.92238  Biso   1.000  C
  H2396    1.0000 0.20120  0.35881  0.18651  Biso   1.000  H
  H2397    1.0000 0.15740  0.30552  0.19550  Biso   1.000  H
  H2398    1.0000 0.14359  0.35608  0.23042  Biso   1.000  H
  H2399    1.0000 0.14359  0.35608  0.23038  Biso   1.000  H
  H2400    1.0000 0.14359  0.35612  0.23042  Biso   1.000  H
  H2401    1.0000 0.14359  0.35612  0.23038  Biso   1.000  H
  H2402    1.0000 0.18460  0.41630  0.19889  Biso   1.000  H
  H2403    1.0000 0.12329  0.39731  0.23610  Biso   1.000  H
  H2404    1.0000 0.10421  0.43019  0.18651  Biso   1.000  H
  H2405    1.0000 0.67919  0.92202  0.64271  Biso   1.000  H
  H2406    1.0000 0.76158  0.91470  0.63210  Biso   1.000  H
  H2407    1.0000 0.73359  0.91901  0.68869  Biso   1.000  H
  H2408    1.0000 0.72437  0.85780  0.57058  Biso   1.000  H
  H2409    1.0000 0.67271  0.86520  0.61769  Biso   1.000  H
  H2410    1.0000 0.69459  0.80700  0.59959  Biso   1.000  H
  H2411    1.0000 0.55411  0.17519  0.95831  Biso   1.000  H
  H2412    1.0000 0.48769  0.20930  0.97660  Biso   1.000  H
  H2413    1.0000 0.53118  0.16942  0.96659  Biso   1.000  H
  H2414    1.0000 0.52390  0.16779  0.01411  Biso   1.000  H
  H2415    1.0000 0.51421  0.19438  0.02062  Biso   1.000  H
  H2416    1.0000 0.48527  0.22231  0.97069  Biso   1.000  H
  N103     1.0000 0.85051  0.13120  0.82651  Biso   1.000  N
  H2417    1.0000 0.90707  0.07501  0.80371  Biso   1.000  H
  N104     1.0000 0.95999  0.18382  0.87670  Biso   1.000  N
  H2418    1.0000 0.89937  0.20439  0.93148  Biso   1.000  H
  C1331    1.0000 0.89299  0.17139  0.80021  Biso   1.000  C
  C1332    1.0000 0.91619  0.21191  0.83972  Biso   1.000  C
  C1333    1.0000 0.91619  0.21191  0.83968  Biso   1.000  C
  H2419    1.0000 0.93480  0.15490  0.78362  Biso   1.000  H
  C1334    1.0000 0.84571  0.19869  0.76142  Biso   1.000  C
  H2420    1.0000 0.93480  0.15490  0.78358  Biso   1.000  H
  C1335    1.0000 0.84571  0.19869  0.76138  Biso   1.000  C
  C1336    1.0000 0.86311  0.19232  0.75088  Biso   1.000  C
  H2421    1.0000 0.93727  0.15260  0.79039  Biso   1.000  H
  H2422    1.0000 0.87307  0.22500  0.85729  Biso   1.000  H
  C1337    1.0000 0.95820  0.26010  0.82139  Biso   1.000  C
  C1338    1.0000 0.96310  0.24811  0.80879  Biso   1.000  C
  H2423    1.0000 0.87560  0.23102  0.85541  Biso   1.000  H
  H2424    1.0000 0.87228  0.22762  0.74490  Biso   1.000  H
  H2425    1.0000 0.80449  0.21452  0.77861  Biso   1.000  H
  C1339    1.0000 0.81941  0.15810  0.72022  Biso   1.000  C
  H2426    1.0000 0.80449  0.21452  0.77858  Biso   1.000  H
  C1340    1.0000 0.81941  0.15810  0.72018  Biso   1.000  C
  H2427    1.0000 0.81878  0.21139  0.75841  Biso   1.000  H
  H2428    1.0000 0.89679  0.21852  0.73708  Biso   1.000  H
  C1341    1.0000 0.84798  0.15130  0.70980  Biso   1.000  C
  H2429    1.0000 0.92900  0.28020  0.79720  Biso   1.000  H
  C1342    1.0000 0.98208  0.29891  0.86549  Biso   1.000  C
  C1343    1.0000 0.98898  0.29100  0.84480  Biso   1.000  C
  H2430    1.0000 0.93617  0.26402  0.78068  Biso   1.000  H
  H2431    1.0000 0.00058  0.24760  0.80330  Biso   1.000  H
  H2432    1.0000 0.00348  0.22809  0.79472  Biso   1.000  H
  H2433    1.0000 0.86000  0.14611  0.69979  Biso   1.000  H
  H2434    1.0000 0.79859  0.12681  0.73689  Biso   1.000  H
  C1344    1.0000 0.76258  0.18441  0.68459  Biso   1.000  C
  C1345    1.0000 0.80302  0.17409  0.66491  Biso   1.000  C
  H2435    1.0000 0.82189  0.12119  0.72500  Biso   1.000  H
  H2436    1.0000 0.89289  0.13769  0.69648  Biso   1.000  H
  H2437    1.0000 0.94160  0.30489  0.88822  Biso   1.000  H
  H2438    1.0000 0.94160  0.30489  0.88818  Biso   1.000  H
  H2439    1.0000 0.94818  0.30572  0.86331  Biso   1.000  H
  H2440    1.0000 0.01971  0.28138  0.88532  Biso   1.000  H
  C1346    1.0000 0.01081  0.35501  0.84611  Biso   1.000  C
  H2441    1.0000 0.01971  0.28138  0.88528  Biso   1.000  H
  C1347    1.0000 0.01081  0.35501  0.84608  Biso   1.000  C
  H2442    1.0000 0.01971  0.28142  0.88532  Biso   1.000  H
  H2443    1.0000 0.01971  0.28142  0.88528  Biso   1.000  H
  H2444    1.0000 0.02130  0.27490  0.86982  Biso   1.000  H
  C1348    1.0000 0.02878  0.33761  0.81639  Biso   1.000  C
  H2445    1.0000 0.72859  0.20570  0.70419  Biso   1.000  H
  H2446    1.0000 0.73660  0.15719  0.66529  Biso   1.000  H
  C1349    1.0000 0.80692  0.22002  0.64911  Biso   1.000  C
  C1350    1.0000 0.83902  0.20332  0.62281  Biso   1.000  C
  H2447    1.0000 0.77698  0.14409  0.64971  Biso   1.000  H
  H2448    1.0000 0.76717  0.19822  0.67940  Biso   1.000  H
  H2449    1.0000 0.97602  0.37048  0.82248  Biso   1.000  H
  H2450    1.0000 0.97602  0.37052  0.82248  Biso   1.000  H
  H2451    1.0000 0.01550  0.37931  0.87508  Biso   1.000  H
  C1351    1.0000 0.07991  0.35019  0.82030  Biso   1.000  C
  C1352    1.0000 0.06041  0.37579  0.85010  Biso   1.000  C
  H2452    1.0000 0.02288  0.39339  0.86989  Biso   1.000  H
  H2453    1.0000 0.99489  0.35600  0.79412  Biso   1.000  H
  H2454    1.0000 0.07559  0.32419  0.79261  Biso   1.000  H
  H2455    1.0000 0.06610  0.32222  0.79479  Biso   1.000  H
  H2456    1.0000 0.81561  0.25440  0.66581  Biso   1.000  H
  H2457    1.0000 0.85320  0.20301  0.64309  Biso   1.000  H
  C1353    1.0000 0.76902  0.23039  0.59549  Biso   1.000  C
  H2458    1.0000 0.81561  0.25440  0.66578  Biso   1.000  H
  H2459    1.0000 0.86369  0.23391  0.63771  Biso   1.000  H
  C1354    1.0000 0.79100  0.22500  0.57668  Biso   1.000  C
  H2460    1.0000 0.87507  0.17951  0.60851  Biso   1.000  H
  H2461    1.0000 0.11507  0.33642  0.84450  Biso   1.000  H
  C1355    1.0000 0.10769  0.40392  0.79810  Biso   1.000  C
  C1356    1.0000 0.10379  0.41939  0.81951  Biso   1.000  C
  H2462    1.0000 0.09230  0.35739  0.87381  Biso   1.000  H
  H2463    1.0000 0.79701  0.25531  0.57570  Biso   1.000  H
  H2464    1.0000 0.72179  0.24542  0.60121  Biso   1.000  H
  H2465    1.0000 0.76438  0.19691  0.57721  Biso   1.000  H
  H2466    1.0000 0.76248  0.25480  0.58831  Biso   1.000  H
  H2467    1.0000 0.76037  0.19660  0.56460  Biso   1.000  H
  H2468    1.0000 0.82210  0.23672  0.54929  Biso   1.000  H
  H2469    1.0000 0.15329  0.39810  0.78170  Biso   1.000  H
  H2470    1.0000 0.11317  0.42971  0.82531  Biso   1.000  H
  H2471    1.0000 0.07390  0.41741  0.77331  Biso   1.000  H
  H2472    1.0000 0.07216  0.43759  0.79588  Biso   1.000  H
  H2473    1.0000 0.14180  0.40210  0.80059  Biso   1.000  H
  H2474    1.0000 0.12387  0.44510  0.84299  Biso   1.000  H
  C1357    1.0000 0.52000  0.97899  0.39980  Biso   1.000  C
  C1358    1.0000 0.50198  0.00799  0.44059  Biso   1.000  C
  C1359    1.0000 0.50999  0.00301  0.45150  Biso   1.000  C
  H2475    1.0000 0.50129  0.94552  0.39100  Biso   1.000  H
  C1360    1.0000 0.57430  0.99751  0.36180  Biso   1.000  C
  C1361    1.0000 0.59301  0.99399  0.37478  Biso   1.000  C
  H2476    1.0000 0.48147  0.98979  0.37749  Biso   1.000  H
  H2477    1.0000 0.51821  0.93958  0.40312  Biso   1.000  H
  C1362    1.0000 0.43967  0.98940  0.47411  Biso   1.000  C
  H2478    1.0000 0.54652  0.99988  0.45831  Biso   1.000  H
  C1363    1.0000 0.50598  0.98441  0.38848  Biso   1.000  C
  H2479    1.0000 0.54652  0.99992  0.45831  Biso   1.000  H
  H2480    1.0000 0.49908  0.04700  0.43709  Biso   1.000  H
  H2481    1.0000 0.51378  0.04241  0.44849  Biso   1.000  H
  H2482    1.0000 0.54810  0.99130  0.47430  Biso   1.000  H
  H2483    1.0000 0.61388  0.98220  0.38118  Biso   1.000  H
  C1364    1.0000 0.57899  0.97788  0.30841  Biso   1.000  C
  C1365    1.0000 0.57899  0.97792  0.30841  Biso   1.000  C
  C1366    1.0000 0.59601  0.96601  0.32470  Biso   1.000  C
  H2484    1.0000 0.58041  0.03640  0.36169  Biso   1.000  H
  H2485    1.0000 0.59559  0.03319  0.36948  Biso   1.000  H
  H2486    1.0000 0.63307  0.98358  0.39649  Biso   1.000  H
  N105     1.0000 0.37457  0.00582  0.44811  Biso   1.000  N
  H2487    1.0000 0.44062  0.94991  0.47588  Biso   1.000  H
  H2488    1.0000 0.43820  0.94999  0.47701  Biso   1.000  H
  C1367    1.0000 0.43967  0.01060  0.52589  Biso   1.000  C
  H2489    1.0000 0.46597  0.99771  0.36820  Biso   1.000  H
  H2490    1.0000 0.54557  0.99759  0.28682  Biso   1.000  H
  H2491    1.0000 0.56660  0.93990  0.30698  Biso   1.000  H
  C1368    1.0000 0.65790  0.98659  0.28889  Biso   1.000  C
  H2492    1.0000 0.55769  0.93951  0.32279  Biso   1.000  H
  C1369    1.0000 0.66897  0.93701  0.31899  Biso   1.000  C
  H2493    1.0000 0.59027  0.99130  0.29690  Biso   1.000  H
  C1370    1.0000 0.33498  0.97171  0.43028  Biso   1.000  C
  N106     1.0000 0.37457  0.99418  0.55189  Biso   1.000  N
  C1371    1.0000 0.50198  0.99201  0.55941  Biso   1.000  C
  N107     1.0000 0.37457  0.99422  0.55189  Biso   1.000  N
  C1372    1.0000 0.50999  0.99699  0.54850  Biso   1.000  C
  H2494    1.0000 0.44062  0.05009  0.52408  Biso   1.000  H
  H2495    1.0000 0.43820  0.05001  0.52299  Biso   1.000  H
  H2496    1.0000 0.66191  0.97389  0.25408  Biso   1.000  H
  H2497    1.0000 0.69058  0.96669  0.31029  Biso   1.000  H
  H2498    1.0000 0.66971  0.02429  0.29020  Biso   1.000  H
  H2499    1.0000 0.67039  0.91881  0.28591  Biso   1.000  H
  H2500    1.0000 0.67398  0.91039  0.34559  Biso   1.000  H
  H2501    1.0000 0.70708  0.96249  0.32079  Biso   1.000  H
  C1373    1.0000 0.27242  0.98560  0.40029  Biso   1.000  C
  H2502    1.0000 0.34521  0.93539  0.43611  Biso   1.000  H
  C1374    1.0000 0.33498  0.02829  0.56968  Biso   1.000  C
  H2503    1.0000 0.49908  0.95300  0.56291  Biso   1.000  H
  H2504    1.0000 0.51378  0.95759  0.55151  Biso   1.000  H
  H2505    1.0000 0.54652  0.00012  0.54169  Biso   1.000  H
  C1375    1.0000 0.50598  0.01559  0.61148  Biso   1.000  C
  C1376    1.0000 0.52000  0.02101  0.60020  Biso   1.000  C
  H2506    1.0000 0.54810  0.00870  0.52570  Biso   1.000  H
  C1377    1.0000 0.23172  0.94631  0.37949  Biso   1.000  C
  C1378    1.0000 0.25550  0.03810  0.38991  Biso   1.000  C
  C1379    1.0000 0.27242  0.01440  0.59971  Biso   1.000  C
  H2507    1.0000 0.34521  0.06461  0.56389  Biso   1.000  H
  H2508    1.0000 0.50129  0.05448  0.60900  Biso   1.000  H
  H2509    1.0000 0.46597  0.00229  0.63180  Biso   1.000  H
  C1380    1.0000 0.57430  0.00249  0.63820  Biso   1.000  C
  H2510    1.0000 0.50129  0.05452  0.60900  Biso   1.000  H
  C1381    1.0000 0.59301  0.00601  0.62518  Biso   1.000  C
  H2511    1.0000 0.48147  0.01021  0.62251  Biso   1.000  H
  H2512    1.0000 0.51821  0.06042  0.59688  Biso   1.000  H
  C1382    1.0000 0.17311  0.95901  0.34799  Biso   1.000  C
  H2513    1.0000 0.24269  0.91019  0.38600  Biso   1.000  H
  C1383    1.0000 0.19788  0.05041  0.35988  Biso   1.000  C
  H2514    1.0000 0.28359  0.06572  0.40349  Biso   1.000  H
  C1384    1.0000 0.25550  0.96190  0.61009  Biso   1.000  C
  C1385    1.0000 0.23172  0.05369  0.62051  Biso   1.000  C
  H2515    1.0000 0.58041  0.96360  0.63831  Biso   1.000  H
  H2516    1.0000 0.59559  0.96681  0.63048  Biso   1.000  H
  H2517    1.0000 0.61388  0.01780  0.61878  Biso   1.000  H
  C1386    1.0000 0.57899  0.02212  0.69159  Biso   1.000  C
  C1387    1.0000 0.59601  0.03399  0.67530  Biso   1.000  C
  H2518    1.0000 0.63307  0.01642  0.60351  Biso   1.000  H
  C1388    1.0000 0.13320  0.91589  0.32320  Biso   1.000  C
  C1389    1.0000 0.15719  0.01041  0.34070  Biso   1.000  C
  C1390    1.0000 0.18428  0.10789  0.34909  Biso   1.000  C
  C1391    1.0000 0.19788  0.94959  0.64008  Biso   1.000  C
  H2519    1.0000 0.28359  0.93428  0.59651  Biso   1.000  H
  H2520    1.0000 0.28359  0.93432  0.59651  Biso   1.000  H
  C1392    1.0000 0.17311  0.04099  0.65201  Biso   1.000  C
  H2521    1.0000 0.24269  0.08981  0.61400  Biso   1.000  H
  H2522    1.0000 0.54557  0.00241  0.71318  Biso   1.000  H
  H2523    1.0000 0.56660  0.06010  0.69298  Biso   1.000  H
  C1393    1.0000 0.65790  0.01341  0.71108  Biso   1.000  C
  H2524    1.0000 0.55769  0.06049  0.67718  Biso   1.000  H
  C1394    1.0000 0.66897  0.06299  0.68098  Biso   1.000  C
  H2525    1.0000 0.59027  0.00870  0.70310  Biso   1.000  H
  N108     1.0000 0.14949  0.86880  0.32651  Biso   1.000  N
  H2526    1.0000 0.09288  0.92499  0.30371  Biso   1.000  H
  H2527    1.0000 0.11649  0.01919  0.32169  Biso   1.000  H
  N109     1.0000 0.13631  0.12380  0.32090  Biso   1.000  N
  H2528    1.0000 0.21391  0.13341  0.36451  Biso   1.000  H
  C1395    1.0000 0.18428  0.89211  0.65088  Biso   1.000  C
  C1396    1.0000 0.15719  0.98959  0.65930  Biso   1.000  C
  C1397    1.0000 0.13320  0.08411  0.67680  Biso   1.000  C
  H2529    1.0000 0.66971  0.97571  0.70980  Biso   1.000  H
  H2530    1.0000 0.66191  0.02611  0.74588  Biso   1.000  H
  H2531    1.0000 0.69058  0.03331  0.68971  Biso   1.000  H
  H2532    1.0000 0.67039  0.08119  0.71409  Biso   1.000  H
  H2533    1.0000 0.67398  0.08961  0.65441  Biso   1.000  H
  H2534    1.0000 0.70708  0.03751  0.67921  Biso   1.000  H
  C1398    1.0000 0.10701  0.82861  0.30021  Biso   1.000  C
  C1399    1.0000 0.13141  0.18010  0.30999  Biso   1.000  C
  N110     1.0000 0.13631  0.87620  0.67910  Biso   1.000  N
  H2535    1.0000 0.21391  0.86659  0.63549  Biso   1.000  H
  H2536    1.0000 0.11649  0.98081  0.67831  Biso   1.000  H
  N111     1.0000 0.14949  0.13120  0.67349  Biso   1.000  N
  H2537    1.0000 0.09288  0.07501  0.69629  Biso   1.000  H
  C1400    1.0000 0.08381  0.78809  0.33968  Biso   1.000  C
  H2538    1.0000 0.06520  0.84510  0.28358  Biso   1.000  H
  C1401    1.0000 0.15429  0.80131  0.26138  Biso   1.000  C
  C1402    1.0000 0.13689  0.80772  0.25088  Biso   1.000  C
  H2539    1.0000 0.06267  0.84740  0.29039  Biso   1.000  H
  H2540    1.0000 0.16810  0.19778  0.33121  Biso   1.000  H
  C1403    1.0000 0.14912  0.19351  0.25551  Biso   1.000  C
  C1404    1.0000 0.06078  0.20059  0.32858  Biso   1.000  C
  H2541    1.0000 0.16810  0.19782  0.33121  Biso   1.000  H
  C1405    1.0000 0.13600  0.18350  0.25310  Biso   1.000  C
  H2542    1.0000 0.17110  0.19988  0.32610  Biso   1.000  H
  C1406    1.0000 0.13141  0.81990  0.69001  Biso   1.000  C
  C1407    1.0000 0.10701  0.17139  0.69979  Biso   1.000  C
  C1408    1.0000 0.04180  0.73990  0.32139  Biso   1.000  C
  N112     1.0000 0.04001  0.81618  0.37670  Biso   1.000  N
  H2543    1.0000 0.12688  0.77500  0.35729  Biso   1.000  H
  N113     1.0000 0.04001  0.81622  0.37670  Biso   1.000  N
  C1409    1.0000 0.03690  0.75189  0.30879  Biso   1.000  C
  H2544    1.0000 0.12440  0.76902  0.35541  Biso   1.000  H
  H2545    1.0000 0.12772  0.77238  0.24490  Biso   1.000  H
  H2546    1.0000 0.19551  0.78548  0.27861  Biso   1.000  H
  C1410    1.0000 0.18059  0.84190  0.22018  Biso   1.000  C
  H2547    1.0000 0.19551  0.78552  0.27861  Biso   1.000  H
  H2548    1.0000 0.18122  0.78861  0.25841  Biso   1.000  H
  H2549    1.0000 0.10321  0.78148  0.23711  Biso   1.000  H
  C1411    1.0000 0.15202  0.84870  0.20980  Biso   1.000  C
  H2550    1.0000 0.14860  0.23248  0.25160  Biso   1.000  H
  H2551    1.0000 0.11180  0.17879  0.23361  Biso   1.000  H
  C1412    1.0000 0.22271  0.17199  0.23700  Biso   1.000  C
  H2552    1.0000 0.14860  0.23252  0.25160  Biso   1.000  H
  C1413    1.0000 0.21000  0.16372  0.23538  Biso   1.000  C
  H2553    1.0000 0.12878  0.22049  0.24208  Biso   1.000  H
  N114     1.0000 0.05408  0.18959  0.38197  Biso   1.000  N
  H2554    1.0000 0.02172  0.18279  0.30981  Biso   1.000  H
  C1414    1.0000 0.05582  0.26121  0.32151  Biso   1.000  C
  C1415    1.0000 0.04201  0.25891  0.31801  Biso   1.000  C
  H2555    1.0000 0.02398  0.17879  0.31139  Biso   1.000  H
  H2556    1.0000 0.09862  0.16138  0.23772  Biso   1.000  H
  C1416    1.0000 0.06078  0.79941  0.67138  Biso   1.000  C
  H2557    1.0000 0.16810  0.80222  0.66879  Biso   1.000  H
  C1417    1.0000 0.14912  0.80649  0.74449  Biso   1.000  C
  C1418    1.0000 0.13600  0.81650  0.74690  Biso   1.000  C
  H2558    1.0000 0.17110  0.80012  0.67390  Biso   1.000  H
  C1419    1.0000 0.08381  0.21191  0.66028  Biso   1.000  C
  H2559    1.0000 0.06520  0.15490  0.71638  Biso   1.000  H
  C1420    1.0000 0.15429  0.19869  0.73858  Biso   1.000  C
  C1421    1.0000 0.13689  0.19232  0.74908  Biso   1.000  C
  H2560    1.0000 0.06267  0.15260  0.70961  Biso   1.000  H
  C1422    1.0000 0.01792  0.70109  0.36549  Biso   1.000  C
  H2561    1.0000 0.07100  0.71980  0.29720  Biso   1.000  H
  C1423    1.0000 0.01102  0.70900  0.34480  Biso   1.000  C
  H2562    1.0000 0.06378  0.73598  0.28068  Biso   1.000  H
  H2563    1.0000 0.99942  0.75240  0.30330  Biso   1.000  H
  C1424    1.0000 0.05862  0.81381  0.42238  Biso   1.000  C
  H2564    1.0000 0.99652  0.77191  0.29468  Biso   1.000  H
  H2565    1.0000 0.14000  0.85389  0.19979  Biso   1.000  H
  H2566    1.0000 0.20141  0.87319  0.23689  Biso   1.000  H
  C1425    1.0000 0.23742  0.81559  0.18459  Biso   1.000  C
  C1426    1.0000 0.19698  0.82591  0.16491  Biso   1.000  C
  H2567    1.0000 0.17811  0.87881  0.22500  Biso   1.000  H
  H2568    1.0000 0.10711  0.86231  0.19652  Biso   1.000  H
  H2569    1.0000 0.23072  0.13531  0.24870  Biso   1.000  H
  H2570    1.0000 0.26172  0.19470  0.24919  Biso   1.000  H
  C1427    1.0000 0.21680  0.17428  0.17578  Biso   1.000  C
  C1428    1.0000 0.21680  0.17432  0.17578  Biso   1.000  C
  C1429    1.0000 0.24411  0.18239  0.18568  Biso   1.000  C
  H2571    1.0000 0.24348  0.17230  0.26259  Biso   1.000  H
  H2572    1.0000 0.20721  0.12459  0.23369  Biso   1.000  H
  C1430    1.0000 0.00469  0.15929  0.39661  Biso   1.000  C
  C1431    1.0000 0.98271  0.28190  0.33701  Biso   1.000  C
  C1432    1.0000 0.96700  0.27501  0.33400  Biso   1.000  C
  H2573    1.0000 0.09240  0.27869  0.34209  Biso   1.000  H
  H2574    1.0000 0.06468  0.27011  0.28580  Biso   1.000  H
  H2575    1.0000 0.07569  0.28170  0.33641  Biso   1.000  H
  H2576    1.0000 0.04739  0.26580  0.28189  Biso   1.000  H
  N115     1.0000 0.05408  0.81041  0.61803  Biso   1.000  N
  H2577    1.0000 0.02172  0.81721  0.69019  Biso   1.000  H
  C1433    1.0000 0.05582  0.73879  0.67849  Biso   1.000  C
  C1434    1.0000 0.04201  0.74109  0.68199  Biso   1.000  C
  H2578    1.0000 0.02398  0.82121  0.68858  Biso   1.000  H
  H2579    1.0000 0.14860  0.76752  0.74840  Biso   1.000  H
  H2580    1.0000 0.11180  0.82121  0.76639  Biso   1.000  H
  C1435    1.0000 0.22271  0.82801  0.76300  Biso   1.000  C
  C1436    1.0000 0.21000  0.83632  0.76458  Biso   1.000  C
  H2581    1.0000 0.12878  0.77951  0.75788  Biso   1.000  H
  H2582    1.0000 0.09862  0.83862  0.76228  Biso   1.000  H
  N116     1.0000 0.04001  0.18382  0.62330  Biso   1.000  N
  H2583    1.0000 0.12688  0.22500  0.64271  Biso   1.000  H
  C1437    1.0000 0.04180  0.26010  0.67861  Biso   1.000  C
  C1438    1.0000 0.03690  0.24811  0.69121  Biso   1.000  C
  H2584    1.0000 0.12440  0.23102  0.64459  Biso   1.000  H
  H2585    1.0000 0.12772  0.22762  0.75510  Biso   1.000  H
  H2586    1.0000 0.19551  0.21452  0.72139  Biso   1.000  H
  C1439    1.0000 0.18059  0.15810  0.77978  Biso   1.000  C
  H2587    1.0000 0.18122  0.21139  0.74159  Biso   1.000  H
  H2588    1.0000 0.10321  0.21852  0.76289  Biso   1.000  H
  C1440    1.0000 0.15202  0.15130  0.79020  Biso   1.000  C
  H2589    1.0000 0.05840  0.69511  0.38822  Biso   1.000  H
  H2590    1.0000 0.05182  0.69432  0.36331  Biso   1.000  H
  H2591    1.0000 0.98029  0.71862  0.38528  Biso   1.000  H
  C1441    1.0000 0.98919  0.64499  0.34611  Biso   1.000  C
  H2592    1.0000 0.97870  0.72510  0.36978  Biso   1.000  H
  C1442    1.0000 0.97122  0.66239  0.31639  Biso   1.000  C
  C1443    1.0000 0.01439  0.83960  0.46200  Biso   1.000  C
  H2593    1.0000 0.10057  0.79561  0.43148  Biso   1.000  H
  H2594    1.0000 0.27141  0.79430  0.20419  Biso   1.000  H
  H2595    1.0000 0.26340  0.84281  0.16529  Biso   1.000  H
  C1444    1.0000 0.19308  0.77998  0.14911  Biso   1.000  C
  C1445    1.0000 0.19308  0.78002  0.14911  Biso   1.000  C
  C1446    1.0000 0.16098  0.79672  0.12281  Biso   1.000  C
  H2596    1.0000 0.22297  0.85591  0.14971  Biso   1.000  H
  H2597    1.0000 0.23278  0.80178  0.17940  Biso   1.000  H
  H2598    1.0000 0.17722  0.15221  0.16378  Biso   1.000  H
  H2599    1.0000 0.20932  0.21112  0.16420  Biso   1.000  H
  C1447    1.0000 0.28591  0.15331  0.15678  Biso   1.000  C
  C1448    1.0000 0.22071  0.15490  0.14158  Biso   1.000  C
  H2600    1.0000 0.23409  0.22061  0.18132  Biso   1.000  H
  H2601    1.0000 0.29582  0.17832  0.18861  Biso   1.000  H
  C1449    1.0000 0.98888  0.14912  0.44928  Biso   1.000  C
  H2602    1.0000 0.97660  0.14231  0.37181  Biso   1.000  H
  H2603    1.0000 0.94608  0.26338  0.31710  Biso   1.000  H
  H2604    1.0000 0.97449  0.27371  0.37290  Biso   1.000  H
  C1450    1.0000 0.97501  0.34192  0.32888  Biso   1.000  C
  H2605    1.0000 0.94608  0.26342  0.31710  Biso   1.000  H
  C1451    1.0000 0.94750  0.33250  0.31951  Biso   1.000  C
  H2606    1.0000 0.96279  0.27078  0.37049  Biso   1.000  H
  H2607    1.0000 0.93342  0.25060  0.31759  Biso   1.000  H
  C1452    1.0000 0.00469  0.84071  0.60339  Biso   1.000  C
  H2608    1.0000 0.09240  0.72131  0.65791  Biso   1.000  H
  H2609    1.0000 0.06468  0.72989  0.71420  Biso   1.000  H
  H2610    1.0000 0.07569  0.71830  0.66359  Biso   1.000  H
  H2611    1.0000 0.04739  0.73420  0.71811  Biso   1.000  H
  C1453    1.0000 0.98271  0.71810  0.66299  Biso   1.000  C
  C1454    1.0000 0.96700  0.72499  0.66600  Biso   1.000  C
  H2612    1.0000 0.23072  0.86469  0.75130  Biso   1.000  H
  H2613    1.0000 0.26172  0.80530  0.75081  Biso   1.000  H
  C1455    1.0000 0.21680  0.82572  0.82418  Biso   1.000  C
  C1456    1.0000 0.24411  0.81761  0.81428  Biso   1.000  C
  H2614    1.0000 0.24348  0.82770  0.73738  Biso   1.000  H
  H2615    1.0000 0.20721  0.87541  0.76631  Biso   1.000  H
  C1457    1.0000 0.05862  0.18619  0.57758  Biso   1.000  C
  H2616    1.0000 0.99942  0.24760  0.69670  Biso   1.000  H
  H2617    1.0000 0.07100  0.28020  0.70280  Biso   1.000  H
  C1458    1.0000 0.01792  0.29891  0.63451  Biso   1.000  C
  C1459    1.0000 0.01102  0.29100  0.65520  Biso   1.000  C
  H2618    1.0000 0.06378  0.26402  0.71928  Biso   1.000  H
  H2619    1.0000 0.99652  0.22809  0.70528  Biso   1.000  H
  H2620    1.0000 0.14000  0.14611  0.80021  Biso   1.000  H
  H2621    1.0000 0.20141  0.12681  0.76311  Biso   1.000  H
  C1460    1.0000 0.23742  0.18441  0.81541  Biso   1.000  C
  C1461    1.0000 0.19698  0.17409  0.83509  Biso   1.000  C
  H2622    1.0000 0.17811  0.12119  0.77500  Biso   1.000  H
  H2623    1.0000 0.10711  0.13769  0.80348  Biso   1.000  H
  H2624    1.0000 0.02398  0.62952  0.32248  Biso   1.000  H
  H2625    1.0000 0.98450  0.62069  0.37508  Biso   1.000  H
  C1462    1.0000 0.92009  0.64981  0.32030  Biso   1.000  C
  C1463    1.0000 0.93959  0.62421  0.35010  Biso   1.000  C
  H2626    1.0000 0.97712  0.60661  0.36989  Biso   1.000  H
  H2627    1.0000 0.92441  0.67581  0.29261  Biso   1.000  H
  H2628    1.0000 0.93390  0.67778  0.29479  Biso   1.000  H
  H2629    1.0000 0.00511  0.64400  0.29412  Biso   1.000  H
  C1464    1.0000 0.03052  0.83078  0.51230  Biso   1.000  C
  C1465    1.0000 0.03052  0.83082  0.51230  Biso   1.000  C
  C1466    1.0000 0.95741  0.87090  0.45071  Biso   1.000  C
  H2630    1.0000 0.18439  0.74560  0.16581  Biso   1.000  H
  H2631    1.0000 0.14680  0.79699  0.14309  Biso   1.000  H
  C1467    1.0000 0.23098  0.76961  0.09549  Biso   1.000  C
  H2632    1.0000 0.13631  0.76609  0.13771  Biso   1.000  H
  C1468    1.0000 0.20900  0.77500  0.07672  Biso   1.000  C
  H2633    1.0000 0.12487  0.82049  0.10851  Biso   1.000  H
  H2634    1.0000 0.29640  0.16752  0.12288  Biso   1.000  H
  H2635    1.0000 0.32481  0.16309  0.17981  Biso   1.000  H
  C1469    1.0000 0.27711  0.09428  0.15490  Biso   1.000  C
  C1470    1.0000 0.27711  0.09432  0.15490  Biso   1.000  C
  C1471    1.0000 0.28918  0.15640  0.10351  Biso   1.000  C
  H2636    1.0000 0.17970  0.17302  0.12631  Biso   1.000  H
  H2637    1.0000 0.20747  0.11798  0.14979  Biso   1.000  H
  C1472    1.0000 0.93111  0.11751  0.46249  Biso   1.000  C
  C1473    1.0000 0.03052  0.16922  0.48770  Biso   1.000  C
  H2638    1.0000 0.98651  0.35011  0.29351  Biso   1.000  H
  C1474    1.0000 0.90169  0.36380  0.34081  Biso   1.000  C
  H2639    1.0000 0.95662  0.33729  0.28309  Biso   1.000  H
  H2640    1.0000 0.01002  0.36032  0.35040  Biso   1.000  H
  C1475    1.0000 0.87101  0.34940  0.33031  Biso   1.000  C
  H2641    1.0000 0.97950  0.35672  0.33780  Biso   1.000  H
  C1476    1.0000 0.98888  0.85088  0.55068  Biso   1.000  C
  C1477    1.0000 0.98888  0.85092  0.55068  Biso   1.000  C
  H2642    1.0000 0.97660  0.85769  0.62819  Biso   1.000  H
  H2643    1.0000 0.94608  0.73662  0.68290  Biso   1.000  H
  H2644    1.0000 0.97449  0.72629  0.62710  Biso   1.000  H
  C1478    1.0000 0.97501  0.65808  0.67108  Biso   1.000  C
  C1479    1.0000 0.97501  0.65812  0.67108  Biso   1.000  C
  C1480    1.0000 0.94750  0.66750  0.68049  Biso   1.000  C
  H2645    1.0000 0.96279  0.72922  0.62951  Biso   1.000  H
  H2646    1.0000 0.93342  0.74940  0.68241  Biso   1.000  H
  H2647    1.0000 0.17722  0.84779  0.83618  Biso   1.000  H
  H2648    1.0000 0.20932  0.78888  0.83580  Biso   1.000  H
  C1481    1.0000 0.28591  0.84669  0.84318  Biso   1.000  C
  H2649    1.0000 0.20932  0.78892  0.83580  Biso   1.000  H
  C1482    1.0000 0.22071  0.84510  0.85838  Biso   1.000  C
  H2650    1.0000 0.23409  0.77939  0.81868  Biso   1.000  H
  H2651    1.0000 0.29582  0.82172  0.81139  Biso   1.000  H
  C1483    1.0000 0.01439  0.16040  0.53800  Biso   1.000  C
  H2652    1.0000 0.10057  0.20439  0.56848  Biso   1.000  H
  H2653    1.0000 0.98029  0.28138  0.61468  Biso   1.000  H
  C1484    1.0000 0.98919  0.35501  0.65389  Biso   1.000  C
  H2654    1.0000 0.98029  0.28142  0.61468  Biso   1.000  H
  H2655    1.0000 0.97870  0.27490  0.63018  Biso   1.000  H
  H2656    1.0000 0.05840  0.30489  0.61178  Biso   1.000  H
  H2657    1.0000 0.05182  0.30572  0.63669  Biso   1.000  H
  C1485    1.0000 0.97122  0.33761  0.68361  Biso   1.000  C
  H2658    1.0000 0.27141  0.20570  0.79581  Biso   1.000  H
  H2659    1.0000 0.26340  0.15719  0.83468  Biso   1.000  H
  C1486    1.0000 0.19308  0.22002  0.85089  Biso   1.000  C
  C1487    1.0000 0.16098  0.20332  0.87719  Biso   1.000  C
  H2660    1.0000 0.22297  0.14409  0.85029  Biso   1.000  H
  H2661    1.0000 0.23278  0.19822  0.82060  Biso   1.000  H
  H2662    1.0000 0.88488  0.66358  0.34450  Biso   1.000  H
  C1488    1.0000 0.89231  0.59608  0.29810  Biso   1.000  C
  H2663    1.0000 0.88488  0.66362  0.34450  Biso   1.000  H
  C1489    1.0000 0.89621  0.58061  0.31951  Biso   1.000  C
  H2664    1.0000 0.90770  0.64261  0.37381  Biso   1.000  H
  H2665    1.0000 0.07100  0.81048  0.52051  Biso   1.000  H
  C1490    1.0000 0.91540  0.89250  0.48819  Biso   1.000  C
  H2666    1.0000 0.94660  0.87798  0.41651  Biso   1.000  H
  H2667    1.0000 0.94660  0.87802  0.41651  Biso   1.000  H
  H2668    1.0000 0.20299  0.74469  0.07570  Biso   1.000  H
  H2669    1.0000 0.27821  0.75458  0.10121  Biso   1.000  H
  H2670    1.0000 0.23562  0.80309  0.07721  Biso   1.000  H
  H2671    1.0000 0.27821  0.75462  0.10121  Biso   1.000  H
  H2672    1.0000 0.23752  0.74520  0.08831  Biso   1.000  H
  H2673    1.0000 0.23958  0.80340  0.06460  Biso   1.000  H
  H2674    1.0000 0.17790  0.76328  0.04929  Biso   1.000  H
  H2675    1.0000 0.32081  0.07798  0.14271  Biso   1.000  H
  H2676    1.0000 0.23842  0.08530  0.13210  Biso   1.000  H
  H2677    1.0000 0.26641  0.08099  0.18869  Biso   1.000  H
  H2678    1.0000 0.32081  0.07802  0.14271  Biso   1.000  H
  H2679    1.0000 0.27558  0.14220  0.07058  Biso   1.000  H
  H2680    1.0000 0.32729  0.13480  0.11769  Biso   1.000  H
  H2681    1.0000 0.30541  0.19300  0.09959  Biso   1.000  H
  C1491    1.0000 0.91540  0.10750  0.51181  Biso   1.000  C
  H2682    1.0000 0.90238  0.10279  0.43679  Biso   1.000  H
  H2683    1.0000 0.07100  0.18952  0.47949  Biso   1.000  H
  H2684    1.0000 0.88841  0.35331  0.37539  Biso   1.000  H
  H2685    1.0000 0.90348  0.40301  0.33968  Biso   1.000  H
  C1492    1.0000 0.84460  0.34429  0.30371  Biso   1.000  C
  C1493    1.0000 0.86400  0.40360  0.29919  Biso   1.000  C
  H2686    1.0000 0.86379  0.35529  0.36669  Biso   1.000  H
  H2687    1.0000 0.83728  0.32249  0.31820  Biso   1.000  H
  C1494    1.0000 0.93111  0.88249  0.53751  Biso   1.000  C
  H2688    1.0000 0.01002  0.63968  0.64960  Biso   1.000  H
  H2689    1.0000 0.98651  0.64989  0.70649  Biso   1.000  H
  C1495    1.0000 0.90169  0.63620  0.65919  Biso   1.000  C
  H2690    1.0000 0.95662  0.66271  0.71691  Biso   1.000  H
  C1496    1.0000 0.87101  0.65060  0.66969  Biso   1.000  C
  H2691    1.0000 0.97950  0.64328  0.66220  Biso   1.000  H
  H2692    1.0000 0.29640  0.83248  0.87708  Biso   1.000  H
  H2693    1.0000 0.32481  0.83691  0.82019  Biso   1.000  H
  C1497    1.0000 0.27711  0.90572  0.84510  Biso   1.000  C
  H2694    1.0000 0.29640  0.83252  0.87708  Biso   1.000  H
  C1498    1.0000 0.28918  0.84360  0.89649  Biso   1.000  C
  H2695    1.0000 0.17970  0.82702  0.87369  Biso   1.000  H
  H2696    1.0000 0.20747  0.88202  0.85018  Biso   1.000  H
  C1499    1.0000 0.95741  0.12910  0.54929  Biso   1.000  C
  H2697    1.0000 0.98450  0.37931  0.62488  Biso   1.000  H
  C1500    1.0000 0.92009  0.35019  0.67970  Biso   1.000  C
  C1501    1.0000 0.93959  0.37579  0.64990  Biso   1.000  C
  H2698    1.0000 0.97712  0.39339  0.63011  Biso   1.000  H
  H2699    1.0000 0.02398  0.37048  0.67748  Biso   1.000  H
  H2700    1.0000 0.02398  0.37052  0.67748  Biso   1.000  H
  H2701    1.0000 0.92441  0.32419  0.70739  Biso   1.000  H
  H2702    1.0000 0.93390  0.32222  0.70521  Biso   1.000  H
  H2703    1.0000 0.00511  0.35600  0.70588  Biso   1.000  H
  H2704    1.0000 0.18439  0.25440  0.83419  Biso   1.000  H
  H2705    1.0000 0.14680  0.20301  0.85691  Biso   1.000  H
  C1502    1.0000 0.23098  0.23039  0.90451  Biso   1.000  C
  H2706    1.0000 0.13631  0.23391  0.86229  Biso   1.000  H
  C1503    1.0000 0.20900  0.22500  0.92328  Biso   1.000  C
  H2707    1.0000 0.12487  0.17951  0.89149  Biso   1.000  H
  H2708    1.0000 0.84671  0.60190  0.28170  Biso   1.000  H
  H2709    1.0000 0.88683  0.57029  0.32531  Biso   1.000  H
  H2710    1.0000 0.92610  0.58259  0.27331  Biso   1.000  H
  H2711    1.0000 0.92778  0.56241  0.29588  Biso   1.000  H
  H2712    1.0000 0.85820  0.59790  0.30059  Biso   1.000  H
  H2713    1.0000 0.87613  0.55490  0.34299  Biso   1.000  H
  C1504    1.0000 0.85330  0.92518  0.47411  Biso   1.000  C
  C1505    1.0000 0.85330  0.92522  0.47411  Biso   1.000  C
  C1506    1.0000 0.85330  0.07482  0.52589  Biso   1.000  C
  H2714    1.0000 0.79880  0.35881  0.31349  Biso   1.000  H
  H2715    1.0000 0.84260  0.30552  0.30450  Biso   1.000  H
  H2716    1.0000 0.85641  0.35608  0.26958  Biso   1.000  H
  H2717    1.0000 0.85641  0.35612  0.26958  Biso   1.000  H
  H2718    1.0000 0.81540  0.41630  0.30111  Biso   1.000  H
  H2719    1.0000 0.87671  0.39731  0.26390  Biso   1.000  H
  H2720    1.0000 0.89579  0.43019  0.31349  Biso   1.000  H
  H2721    1.0000 0.90238  0.89721  0.56321  Biso   1.000  H
  H2722    1.0000 0.88841  0.64669  0.62458  Biso   1.000  H
  H2723    1.0000 0.90348  0.59699  0.66028  Biso   1.000  H
  C1507    1.0000 0.84460  0.65571  0.69629  Biso   1.000  C
  C1508    1.0000 0.86400  0.59640  0.70081  Biso   1.000  C
  H2724    1.0000 0.86379  0.64471  0.63331  Biso   1.000  H
  H2725    1.0000 0.83728  0.67751  0.68180  Biso   1.000  H
  H2726    1.0000 0.32081  0.92202  0.85729  Biso   1.000  H
  H2727    1.0000 0.23842  0.91470  0.86790  Biso   1.000  H
  H2728    1.0000 0.26641  0.91901  0.81131  Biso   1.000  H
  H2729    1.0000 0.27558  0.85780  0.92938  Biso   1.000  H
  H2730    1.0000 0.32729  0.86520  0.88231  Biso   1.000  H
  H2731    1.0000 0.30541  0.80700  0.90041  Biso   1.000  H
  H2732    1.0000 0.94660  0.12202  0.58349  Biso   1.000  H
  H2733    1.0000 0.88488  0.33642  0.65550  Biso   1.000  H
  C1509    1.0000 0.89231  0.40392  0.70190  Biso   1.000  C
  C1510    1.0000 0.89621  0.41939  0.68049  Biso   1.000  C
  H2734    1.0000 0.90770  0.35739  0.62619  Biso   1.000  H
  H2735    1.0000 0.20299  0.25531  0.92430  Biso   1.000  H
  H2736    1.0000 0.27821  0.24542  0.89879  Biso   1.000  H
  H2737    1.0000 0.23562  0.19691  0.92279  Biso   1.000  H
  H2738    1.0000 0.23752  0.25480  0.91169  Biso   1.000  H
  H2739    1.0000 0.23958  0.19660  0.93540  Biso   1.000  H
  H2740    1.0000 0.17790  0.23672  0.95071  Biso   1.000  H
  N117     1.0000 0.81340  0.94291  0.50579  Biso   1.000  N
  H2741    1.0000 0.84450  0.93238  0.43950  Biso   1.000  H
  H2742    1.0000 0.84450  0.93242  0.43950  Biso   1.000  H
  N118     1.0000 0.81340  0.05709  0.49421  Biso   1.000  N
  H2743    1.0000 0.84450  0.06762  0.56050  Biso   1.000  H
  H2744    1.0000 0.79880  0.64119  0.68651  Biso   1.000  H
  H2745    1.0000 0.84260  0.69448  0.69550  Biso   1.000  H
  H2746    1.0000 0.85641  0.64392  0.73038  Biso   1.000  H
  H2747    1.0000 0.84260  0.69452  0.69550  Biso   1.000  H
  H2748    1.0000 0.81540  0.58370  0.69889  Biso   1.000  H
  H2749    1.0000 0.87671  0.60269  0.73610  Biso   1.000  H
  H2750    1.0000 0.89579  0.56981  0.68651  Biso   1.000  H
  H2751    1.0000 0.84671  0.39810  0.71830  Biso   1.000  H
  H2752    1.0000 0.88683  0.42971  0.67469  Biso   1.000  H
  H2753    1.0000 0.92610  0.41741  0.72669  Biso   1.000  H
  H2754    1.0000 0.92778  0.43759  0.70408  Biso   1.000  H
  H2755    1.0000 0.85820  0.40210  0.69941  Biso   1.000  H
  H2756    1.0000 0.87613  0.44510  0.65701  Biso   1.000  H
  C1511    1.0000 0.74988  0.97341  0.48758  Biso   1.000  C
  C1512    1.0000 0.74988  0.02659  0.51238  Biso   1.000  C
  H2757    1.0000 0.75009  0.97689  0.45011  Biso   1.000  H
  C1513    1.0000 0.68652  0.93860  0.50598  Biso   1.000  C
  C1514    1.0000 0.68172  0.94081  0.49959  Biso   1.000  C
  H2758    1.0000 0.75362  0.97840  0.45030  Biso   1.000  H
  H2759    1.0000 0.75009  0.02311  0.54989  Biso   1.000  H
  C1515    1.0000 0.68652  0.06140  0.49398  Biso   1.000  C
  C1516    1.0000 0.68172  0.05919  0.50041  Biso   1.000  C
  H2760    1.0000 0.75362  0.02160  0.54970  Biso   1.000  H
  H2761    1.0000 0.64251  0.95949  0.50508  Biso   1.000  H
  H2762    1.0000 0.69469  0.92720  0.54120  Biso   1.000  H
  C1517    1.0000 0.67898  0.88819  0.47080  Biso   1.000  C
  C1518    1.0000 0.69079  0.88051  0.49229  Biso   1.000  C
  H2763    1.0000 0.66760  0.94770  0.53480  Biso   1.000  H
  H2764    1.0000 0.64309  0.95331  0.47750  Biso   1.000  H
  H2765    1.0000 0.64251  0.04051  0.49488  Biso   1.000  H
  H2766    1.0000 0.69469  0.07280  0.45880  Biso   1.000  H
  C1519    1.0000 0.67898  0.11181  0.52920  Biso   1.000  C
  C1520    1.0000 0.69079  0.11949  0.50771  Biso   1.000  C
  H2767    1.0000 0.66760  0.05230  0.46520  Biso   1.000  H
  H2768    1.0000 0.64309  0.04669  0.52250  Biso   1.000  H
  H2769    1.0000 0.71673  0.86200  0.47739  Biso   1.000  H
  H2770    1.0000 0.67972  0.89808  0.43468  Biso   1.000  H
  C1521    1.0000 0.60171  0.86591  0.48788  Biso   1.000  C
  H2771    1.0000 0.67972  0.89812  0.43468  Biso   1.000  H
  H2772    1.0000 0.69311  0.87292  0.45579  Biso   1.000  H
  C1522    1.0000 0.63023  0.84590  0.51618  Biso   1.000  C
  H2773    1.0000 0.73628  0.86971  0.50730  Biso   1.000  H
  H2774    1.0000 0.71673  0.13800  0.52261  Biso   1.000  H
  H2775    1.0000 0.67972  0.10192  0.56528  Biso   1.000  H
  C1523    1.0000 0.60171  0.13409  0.51208  Biso   1.000  C
  H2776    1.0000 0.69311  0.12708  0.54421  Biso   1.000  H
  C1524    1.0000 0.63023  0.15410  0.48378  Biso   1.000  C
  H2777    1.0000 0.73628  0.13029  0.49270  Biso   1.000  H
  H2778    1.0000 0.60819  0.82781  0.49488  Biso   1.000  H
  H2779    1.0000 0.59122  0.88289  0.52058  Biso   1.000  H
  C1525    1.0000 0.53998  0.86991  0.45940  Biso   1.000  C
  H2780    1.0000 0.58832  0.84340  0.45459  Biso   1.000  H
  H2781    1.0000 0.55211  0.88079  0.49398  Biso   1.000  H
  C1526    1.0000 0.57071  0.84451  0.48958  Biso   1.000  C
  H2782    1.0000 0.64773  0.80930  0.52039  Biso   1.000  H
  H2783    1.0000 0.61952  0.86002  0.55008  Biso   1.000  H
  H2784    1.0000 0.60819  0.17219  0.50508  Biso   1.000  H
  H2785    1.0000 0.59122  0.11711  0.47938  Biso   1.000  H
  C1527    1.0000 0.53998  0.13009  0.54060  Biso   1.000  C
  H2786    1.0000 0.58832  0.15660  0.54541  Biso   1.000  H
  H2787    1.0000 0.55211  0.11921  0.50598  Biso   1.000  H
  C1528    1.0000 0.57071  0.15549  0.51038  Biso   1.000  C
  H2788    1.0000 0.64773  0.19070  0.47961  Biso   1.000  H
  H2789    1.0000 0.61952  0.14002  0.44988  Biso   1.000  H
  H2790    1.0000 0.55042  0.86481  0.42328  Biso   1.000  H
  H2791    1.0000 0.51821  0.90520  0.46399  Biso   1.000  H
  C1529    1.0000 0.48869  0.82508  0.47901  Biso   1.000  C
  C1530    1.0000 0.50409  0.81171  0.48661  Biso   1.000  C
  H2792    1.0000 0.55042  0.13519  0.57668  Biso   1.000  H
  H2793    1.0000 0.51821  0.09480  0.53601  Biso   1.000  H
  C1531    1.0000 0.48869  0.17492  0.52099  Biso   1.000  C
  C1532    1.0000 0.50409  0.18829  0.51339  Biso   1.000  C
  H2794    1.0000 0.44589  0.82481  0.45831  Biso   1.000  H
  H2795    1.0000 0.47610  0.83221  0.51411  Biso   1.000  H
  H2796    1.0000 0.51231  0.79070  0.47660  Biso   1.000  H
  H2797    1.0000 0.46882  0.83058  0.46659  Biso   1.000  H
  H2798    1.0000 0.48579  0.80562  0.52058  Biso   1.000  H
  H2799    1.0000 0.51468  0.77769  0.47069  Biso   1.000  H
  H2800    1.0000 0.44589  0.17519  0.54169  Biso   1.000  H
  H2801    1.0000 0.47610  0.16779  0.48589  Biso   1.000  H
  H2802    1.0000 0.51231  0.20930  0.52340  Biso   1.000  H
  H2803    1.0000 0.46882  0.16942  0.53341  Biso   1.000  H
  H2804    1.0000 0.48579  0.19438  0.47938  Biso   1.000  H
  H2805    1.0000 0.51468  0.22231  0.52931  Biso   1.000  H
  C1533    1.0000 0.52000  0.97899  0.39980  Biso   1.000  C
  C1534    1.0000 0.50198  0.00799  0.44059  Biso   1.000  C
  C1535    1.0000 0.50999  0.00301  0.45150  Biso   1.000  C
  H2806    1.0000 0.50129  0.94552  0.39100  Biso   1.000  H
  C1536    1.0000 0.57430  0.99751  0.36180  Biso   1.000  C
  C1537    1.0000 0.59301  0.99399  0.37478  Biso   1.000  C
  H2807    1.0000 0.48147  0.98979  0.37749  Biso   1.000  H
  H2808    1.0000 0.51821  0.93958  0.40312  Biso   1.000  H
  C1538    1.0000 0.43967  0.98940  0.47411  Biso   1.000  C
  C1539    1.0000 0.50598  0.98441  0.38848  Biso   1.000  C
  H2809    1.0000 0.54652  0.99988  0.45831  Biso   1.000  H
  H2810    1.0000 0.54652  0.99992  0.45831  Biso   1.000  H
  H2811    1.0000 0.49908  0.04700  0.43709  Biso   1.000  H
  H2812    1.0000 0.51378  0.04241  0.44849  Biso   1.000  H
  H2813    1.0000 0.54810  0.99130  0.47430  Biso   1.000  H
  H2814    1.0000 0.61388  0.98220  0.38118  Biso   1.000  H
  C1540    1.0000 0.57899  0.97788  0.30841  Biso   1.000  C
  C1541    1.0000 0.57899  0.97792  0.30841  Biso   1.000  C
  C1542    1.0000 0.59601  0.96601  0.32470  Biso   1.000  C
  H2815    1.0000 0.58041  0.03640  0.36169  Biso   1.000  H
  H2816    1.0000 0.59559  0.03319  0.36948  Biso   1.000  H
  H2817    1.0000 0.63307  0.98358  0.39649  Biso   1.000  H
  N119     1.0000 0.37457  0.00582  0.44811  Biso   1.000  N
  H2818    1.0000 0.44062  0.94991  0.47588  Biso   1.000  H
  H2819    1.0000 0.43820  0.94999  0.47701  Biso   1.000  H
  C1543    1.0000 0.43967  0.01060  0.52589  Biso   1.000  C
  H2820    1.0000 0.46597  0.99771  0.36820  Biso   1.000  H
  H2821    1.0000 0.54557  0.99759  0.28682  Biso   1.000  H
  H2822    1.0000 0.56660  0.93990  0.30698  Biso   1.000  H
  C1544    1.0000 0.65790  0.98659  0.28889  Biso   1.000  C
  H2823    1.0000 0.55769  0.93951  0.32279  Biso   1.000  H
  C1545    1.0000 0.66897  0.93701  0.31899  Biso   1.000  C
  H2824    1.0000 0.59027  0.99130  0.29690  Biso   1.000  H
  C1546    1.0000 0.33498  0.97171  0.43028  Biso   1.000  C
  C1547    1.0000 0.50198  0.99201  0.55941  Biso   1.000  C
  N120     1.0000 0.37457  0.99418  0.55189  Biso   1.000  N
  N121     1.0000 0.37457  0.99422  0.55189  Biso   1.000  N
  C1548    1.0000 0.50999  0.99699  0.54850  Biso   1.000  C
  H2825    1.0000 0.44062  0.05009  0.52408  Biso   1.000  H
  H2826    1.0000 0.43820  0.05001  0.52299  Biso   1.000  H
  H2827    1.0000 0.66191  0.97389  0.25408  Biso   1.000  H
  H2828    1.0000 0.69058  0.96669  0.31029  Biso   1.000  H
  H2829    1.0000 0.66971  0.02429  0.29020  Biso   1.000  H
  H2830    1.0000 0.67039  0.91881  0.28591  Biso   1.000  H
  H2831    1.0000 0.67398  0.91039  0.34559  Biso   1.000  H
  H2832    1.0000 0.70708  0.96249  0.32079  Biso   1.000  H
  C1549    1.0000 0.27242  0.98560  0.40029  Biso   1.000  C
  H2833    1.0000 0.34521  0.93539  0.43611  Biso   1.000  H
  H2834    1.0000 0.49908  0.95300  0.56291  Biso   1.000  H
  H2835    1.0000 0.51378  0.95759  0.55151  Biso   1.000  H
  H2836    1.0000 0.54652  0.00012  0.54169  Biso   1.000  H
  C1550    1.0000 0.50598  0.01559  0.61148  Biso   1.000  C
  C1551    1.0000 0.52000  0.02101  0.60020  Biso   1.000  C
  C1552    1.0000 0.33498  0.02829  0.56968  Biso   1.000  C
  H2837    1.0000 0.54810  0.00870  0.52570  Biso   1.000  H
  C1553    1.0000 0.23172  0.94631  0.37949  Biso   1.000  C
  C1554    1.0000 0.25550  0.03810  0.38991  Biso   1.000  C
  H2838    1.0000 0.50129  0.05448  0.60900  Biso   1.000  H
  H2839    1.0000 0.46597  0.00229  0.63180  Biso   1.000  H
  C1555    1.0000 0.57430  0.00249  0.63820  Biso   1.000  C
  H2840    1.0000 0.50129  0.05452  0.60900  Biso   1.000  H
  C1556    1.0000 0.59301  0.00601  0.62518  Biso   1.000  C
  H2841    1.0000 0.48147  0.01021  0.62251  Biso   1.000  H
  H2842    1.0000 0.51821  0.06042  0.59688  Biso   1.000  H
  C1557    1.0000 0.27242  0.01440  0.59971  Biso   1.000  C
  H2843    1.0000 0.34521  0.06461  0.56389  Biso   1.000  H
  C1558    1.0000 0.17311  0.95901  0.34799  Biso   1.000  C
  H2844    1.0000 0.24269  0.91019  0.38600  Biso   1.000  H
  C1559    1.0000 0.19788  0.05041  0.35988  Biso   1.000  C
  H2845    1.0000 0.28359  0.06572  0.40349  Biso   1.000  H
  H2846    1.0000 0.58041  0.96360  0.63831  Biso   1.000  H
  H2847    1.0000 0.59559  0.96681  0.63048  Biso   1.000  H
  H2848    1.0000 0.61388  0.01780  0.61878  Biso   1.000  H
  C1560    1.0000 0.57899  0.02212  0.69159  Biso   1.000  C
  C1561    1.0000 0.59601  0.03399  0.67530  Biso   1.000  C
  H2849    1.0000 0.63307  0.01642  0.60351  Biso   1.000  H
  C1562    1.0000 0.25550  0.96190  0.61009  Biso   1.000  C
  C1563    1.0000 0.23172  0.05369  0.62051  Biso   1.000  C
  C1564    1.0000 0.13320  0.91589  0.32320  Biso   1.000  C
  C1565    1.0000 0.15719  0.01041  0.34070  Biso   1.000  C
  C1566    1.0000 0.18428  0.10789  0.34909  Biso   1.000  C
  H2850    1.0000 0.54557  0.00241  0.71318  Biso   1.000  H
  H2851    1.0000 0.56660  0.06010  0.69298  Biso   1.000  H
  C1567    1.0000 0.65790  0.01341  0.71108  Biso   1.000  C
  H2852    1.0000 0.55769  0.06049  0.67718  Biso   1.000  H
  C1568    1.0000 0.66897  0.06299  0.68098  Biso   1.000  C
  H2853    1.0000 0.59027  0.00870  0.70310  Biso   1.000  H
  C1569    1.0000 0.19788  0.94959  0.64008  Biso   1.000  C
  H2854    1.0000 0.28359  0.93428  0.59651  Biso   1.000  H
  H2855    1.0000 0.28359  0.93432  0.59651  Biso   1.000  H
  C1570    1.0000 0.17311  0.04099  0.65201  Biso   1.000  C
  H2856    1.0000 0.24269  0.08981  0.61400  Biso   1.000  H
  N122     1.0000 0.14949  0.86880  0.32651  Biso   1.000  N
  H2857    1.0000 0.09288  0.92499  0.30371  Biso   1.000  H
  H2858    1.0000 0.11649  0.01919  0.32169  Biso   1.000  H
  N123     1.0000 0.13631  0.12380  0.32090  Biso   1.000  N
  H2859    1.0000 0.21391  0.13341  0.36451  Biso   1.000  H
  H2860    1.0000 0.66971  0.97571  0.70980  Biso   1.000  H
  H2861    1.0000 0.66191  0.02611  0.74588  Biso   1.000  H
  H2862    1.0000 0.69058  0.03331  0.68971  Biso   1.000  H
  H2863    1.0000 0.67039  0.08119  0.71409  Biso   1.000  H
  H2864    1.0000 0.67398  0.08961  0.65441  Biso   1.000  H
  H2865    1.0000 0.70708  0.03751  0.67921  Biso   1.000  H
  C1571    1.0000 0.18428  0.89211  0.65088  Biso   1.000  C
  C1572    1.0000 0.15719  0.98959  0.65930  Biso   1.000  C
  C1573    1.0000 0.13320  0.08411  0.67680  Biso   1.000  C
  C1574    1.0000 0.10701  0.82861  0.30021  Biso   1.000  C
  C1575    1.0000 0.13141  0.18010  0.30999  Biso   1.000  C
  N124     1.0000 0.13631  0.87620  0.67910  Biso   1.000  N
  H2866    1.0000 0.21391  0.86659  0.63549  Biso   1.000  H
  H2867    1.0000 0.11649  0.98081  0.67831  Biso   1.000  H
  N125     1.0000 0.14949  0.13120  0.67349  Biso   1.000  N
  H2868    1.0000 0.09288  0.07501  0.69629  Biso   1.000  H
  C1576    1.0000 0.08381  0.78809  0.33968  Biso   1.000  C
  H2869    1.0000 0.06520  0.84510  0.28358  Biso   1.000  H
  C1577    1.0000 0.15429  0.80131  0.26138  Biso   1.000  C
  C1578    1.0000 0.13689  0.80772  0.25088  Biso   1.000  C
  H2870    1.0000 0.06267  0.84740  0.29039  Biso   1.000  H
  H2871    1.0000 0.16810  0.19778  0.33121  Biso   1.000  H
  C1579    1.0000 0.14912  0.19351  0.25551  Biso   1.000  C
  C1580    1.0000 0.06078  0.20059  0.32858  Biso   1.000  C
  H2872    1.0000 0.16810  0.19782  0.33121  Biso   1.000  H
  C1581    1.0000 0.13600  0.18350  0.25310  Biso   1.000  C
  H2873    1.0000 0.17110  0.19988  0.32610  Biso   1.000  H
  C1582    1.0000 0.13141  0.81990  0.69001  Biso   1.000  C
  C1583    1.0000 0.10701  0.17139  0.69979  Biso   1.000  C
  C1584    1.0000 0.04180  0.73990  0.32139  Biso   1.000  C
  H2874    1.0000 0.12688  0.77500  0.35729  Biso   1.000  H
  N126     1.0000 0.04001  0.81618  0.37670  Biso   1.000  N
  N127     1.0000 0.04001  0.81622  0.37670  Biso   1.000  N
  C1585    1.0000 0.03690  0.75189  0.30879  Biso   1.000  C
  H2875    1.0000 0.12440  0.76902  0.35541  Biso   1.000  H
  H2876    1.0000 0.12772  0.77238  0.24490  Biso   1.000  H
  C1586    1.0000 0.18059  0.84190  0.22018  Biso   1.000  C
  H2877    1.0000 0.19551  0.78548  0.27861  Biso   1.000  H
  H2878    1.0000 0.19551  0.78552  0.27861  Biso   1.000  H
  H2879    1.0000 0.18122  0.78861  0.25841  Biso   1.000  H
  H2880    1.0000 0.10321  0.78148  0.23711  Biso   1.000  H
  C1587    1.0000 0.15202  0.84870  0.20980  Biso   1.000  C
  H2881    1.0000 0.14860  0.23248  0.25160  Biso   1.000  H
  H2882    1.0000 0.11180  0.17879  0.23361  Biso   1.000  H
  C1588    1.0000 0.22271  0.17199  0.23700  Biso   1.000  C
  H2883    1.0000 0.14860  0.23252  0.25160  Biso   1.000  H
  C1589    1.0000 0.21000  0.16372  0.23538  Biso   1.000  C
  H2884    1.0000 0.12878  0.22049  0.24208  Biso   1.000  H
  N128     1.0000 0.05408  0.18959  0.38197  Biso   1.000  N
  H2885    1.0000 0.02172  0.18279  0.30981  Biso   1.000  H
  C1590    1.0000 0.05582  0.26121  0.32151  Biso   1.000  C
  C1591    1.0000 0.04201  0.25891  0.31801  Biso   1.000  C
  H2886    1.0000 0.02398  0.17879  0.31139  Biso   1.000  H
  H2887    1.0000 0.09862  0.16138  0.23772  Biso   1.000  H
  C1592    1.0000 0.06078  0.79941  0.67138  Biso   1.000  C
  H2888    1.0000 0.16810  0.80222  0.66879  Biso   1.000  H
  C1593    1.0000 0.14912  0.80649  0.74449  Biso   1.000  C
  C1594    1.0000 0.13600  0.81650  0.74690  Biso   1.000  C
  H2889    1.0000 0.17110  0.80012  0.67390  Biso   1.000  H
  C1595    1.0000 0.08381  0.21191  0.66028  Biso   1.000  C
  H2890    1.0000 0.06520  0.15490  0.71638  Biso   1.000  H
  C1596    1.0000 0.15429  0.19869  0.73858  Biso   1.000  C
  C1597    1.0000 0.13689  0.19232  0.74908  Biso   1.000  C
  H2891    1.0000 0.06267  0.15260  0.70961  Biso   1.000  H
  C1598    1.0000 0.01792  0.70109  0.36549  Biso   1.000  C
  H2892    1.0000 0.07100  0.71980  0.29720  Biso   1.000  H
  H2893    1.0000 0.99942  0.75240  0.30330  Biso   1.000  H
  C1599    1.0000 0.01102  0.70900  0.34480  Biso   1.000  C
  H2894    1.0000 0.06378  0.73598  0.28068  Biso   1.000  H
  C1600    1.0000 0.05862  0.81381  0.42238  Biso   1.000  C
  H2895    1.0000 0.99652  0.77191  0.29468  Biso   1.000  H
  H2896    1.0000 0.14000  0.85389  0.19979  Biso   1.000  H
  H2897    1.0000 0.20141  0.87319  0.23689  Biso   1.000  H
  C1601    1.0000 0.23742  0.81559  0.18459  Biso   1.000  C
  C1602    1.0000 0.19698  0.82591  0.16491  Biso   1.000  C
  H2898    1.0000 0.17811  0.87881  0.22500  Biso   1.000  H
  H2899    1.0000 0.10711  0.86231  0.19652  Biso   1.000  H
  H2900    1.0000 0.23072  0.13531  0.24870  Biso   1.000  H
  H2901    1.0000 0.26172  0.19470  0.24919  Biso   1.000  H
  C1603    1.0000 0.21680  0.17428  0.17578  Biso   1.000  C
  C1604    1.0000 0.21680  0.17432  0.17578  Biso   1.000  C
  C1605    1.0000 0.24411  0.18239  0.18568  Biso   1.000  C
  H2902    1.0000 0.24348  0.17230  0.26259  Biso   1.000  H
  H2903    1.0000 0.20721  0.12459  0.23369  Biso   1.000  H
  C1606    1.0000 0.00469  0.15929  0.39661  Biso   1.000  C
  C1607    1.0000 0.98271  0.28190  0.33701  Biso   1.000  C
  C1608    1.0000 0.96700  0.27501  0.33400  Biso   1.000  C
  H2904    1.0000 0.09240  0.27869  0.34209  Biso   1.000  H
  H2905    1.0000 0.06468  0.27011  0.28580  Biso   1.000  H
  H2906    1.0000 0.07569  0.28170  0.33641  Biso   1.000  H
  H2907    1.0000 0.04739  0.26580  0.28189  Biso   1.000  H
  N129     1.0000 0.05408  0.81041  0.61803  Biso   1.000  N
  H2908    1.0000 0.02172  0.81721  0.69019  Biso   1.000  H
  C1609    1.0000 0.05582  0.73879  0.67849  Biso   1.000  C
  C1610    1.0000 0.04201  0.74109  0.68199  Biso   1.000  C
  H2909    1.0000 0.02398  0.82121  0.68858  Biso   1.000  H
  H2910    1.0000 0.14860  0.76752  0.74840  Biso   1.000  H
  H2911    1.0000 0.11180  0.82121  0.76639  Biso   1.000  H
  C1611    1.0000 0.22271  0.82801  0.76300  Biso   1.000  C
  C1612    1.0000 0.21000  0.83632  0.76458  Biso   1.000  C
  H2912    1.0000 0.12878  0.77951  0.75788  Biso   1.000  H
  H2913    1.0000 0.09862  0.83862  0.76228  Biso   1.000  H
  N130     1.0000 0.04001  0.18382  0.62330  Biso   1.000  N
  H2914    1.0000 0.12688  0.22500  0.64271  Biso   1.000  H
  C1613    1.0000 0.04180  0.26010  0.67861  Biso   1.000  C
  C1614    1.0000 0.03690  0.24811  0.69121  Biso   1.000  C
  H2915    1.0000 0.12440  0.23102  0.64459  Biso   1.000  H
  H2916    1.0000 0.12772  0.22762  0.75510  Biso   1.000  H
  H2917    1.0000 0.19551  0.21452  0.72139  Biso   1.000  H
  C1615    1.0000 0.18059  0.15810  0.77978  Biso   1.000  C
  H2918    1.0000 0.18122  0.21139  0.74159  Biso   1.000  H
  H2919    1.0000 0.10321  0.21852  0.76289  Biso   1.000  H
  C1616    1.0000 0.15202  0.15130  0.79020  Biso   1.000  C
  H2920    1.0000 0.05840  0.69511  0.38822  Biso   1.000  H
  H2921    1.0000 0.98029  0.71862  0.38528  Biso   1.000  H
  C1617    1.0000 0.98919  0.64499  0.34611  Biso   1.000  C
  H2922    1.0000 0.97870  0.72510  0.36978  Biso   1.000  H
  H2923    1.0000 0.05182  0.69432  0.36331  Biso   1.000  H
  C1618    1.0000 0.97122  0.66239  0.31639  Biso   1.000  C
  C1619    1.0000 0.01439  0.83960  0.46200  Biso   1.000  C
  H2924    1.0000 0.10057  0.79561  0.43148  Biso   1.000  H
  H2925    1.0000 0.27141  0.79430  0.20419  Biso   1.000  H
  H2926    1.0000 0.26340  0.84281  0.16529  Biso   1.000  H
  C1620    1.0000 0.19308  0.77998  0.14911  Biso   1.000  C
  C1621    1.0000 0.19308  0.78002  0.14911  Biso   1.000  C
  C1622    1.0000 0.16098  0.79672  0.12281  Biso   1.000  C
  H2927    1.0000 0.22297  0.85591  0.14971  Biso   1.000  H
  H2928    1.0000 0.23278  0.80178  0.17940  Biso   1.000  H
  H2929    1.0000 0.17722  0.15221  0.16378  Biso   1.000  H
  H2930    1.0000 0.20932  0.21112  0.16420  Biso   1.000  H
  C1623    1.0000 0.28591  0.15331  0.15678  Biso   1.000  C
  C1624    1.0000 0.22071  0.15490  0.14158  Biso   1.000  C
  H2931    1.0000 0.23409  0.22061  0.18132  Biso   1.000  H
  H2932    1.0000 0.29582  0.17832  0.18861  Biso   1.000  H
  C1625    1.0000 0.98888  0.14912  0.44928  Biso   1.000  C
  H2933    1.0000 0.97660  0.14231  0.37181  Biso   1.000  H
  H2934    1.0000 0.94608  0.26338  0.31710  Biso   1.000  H
  H2935    1.0000 0.97449  0.27371  0.37290  Biso   1.000  H
  C1626    1.0000 0.97501  0.34192  0.32888  Biso   1.000  C
  H2936    1.0000 0.94608  0.26342  0.31710  Biso   1.000  H
  C1627    1.0000 0.94750  0.33250  0.31951  Biso   1.000  C
  H2937    1.0000 0.96279  0.27078  0.37049  Biso   1.000  H
  H2938    1.0000 0.93342  0.25060  0.31759  Biso   1.000  H
  C1628    1.0000 0.00469  0.84071  0.60339  Biso   1.000  C
  H2939    1.0000 0.09240  0.72131  0.65791  Biso   1.000  H
  H2940    1.0000 0.06468  0.72989  0.71420  Biso   1.000  H
  C1629    1.0000 0.98271  0.71810  0.66299  Biso   1.000  C
  C1630    1.0000 0.96700  0.72499  0.66600  Biso   1.000  C
  H2941    1.0000 0.07569  0.71830  0.66359  Biso   1.000  H
  H2942    1.0000 0.04739  0.73420  0.71811  Biso   1.000  H
  H2943    1.0000 0.23072  0.86469  0.75130  Biso   1.000  H
  H2944    1.0000 0.26172  0.80530  0.75081  Biso   1.000  H
  C1631    1.0000 0.21680  0.82572  0.82418  Biso   1.000  C
  C1632    1.0000 0.24411  0.81761  0.81428  Biso   1.000  C
  H2945    1.0000 0.24348  0.82770  0.73738  Biso   1.000  H
  H2946    1.0000 0.20721  0.87541  0.76631  Biso   1.000  H
  C1633    1.0000 0.05862  0.18619  0.57758  Biso   1.000  C
  H2947    1.0000 0.99942  0.24760  0.69670  Biso   1.000  H
  H2948    1.0000 0.07100  0.28020  0.70280  Biso   1.000  H
  C1634    1.0000 0.01792  0.29891  0.63451  Biso   1.000  C
  C1635    1.0000 0.01102  0.29100  0.65520  Biso   1.000  C
  H2949    1.0000 0.06378  0.26402  0.71928  Biso   1.000  H
  H2950    1.0000 0.99652  0.22809  0.70528  Biso   1.000  H
  H2951    1.0000 0.14000  0.14611  0.80021  Biso   1.000  H
  H2952    1.0000 0.20141  0.12681  0.76311  Biso   1.000  H
  C1636    1.0000 0.23742  0.18441  0.81541  Biso   1.000  C
  C1637    1.0000 0.19698  0.17409  0.83509  Biso   1.000  C
  H2953    1.0000 0.17811  0.12119  0.77500  Biso   1.000  H
  H2954    1.0000 0.10711  0.13769  0.80348  Biso   1.000  H
  H2955    1.0000 0.02398  0.62952  0.32248  Biso   1.000  H
  H2956    1.0000 0.98450  0.62069  0.37508  Biso   1.000  H
  C1638    1.0000 0.92009  0.64981  0.32030  Biso   1.000  C
  C1639    1.0000 0.93959  0.62421  0.35010  Biso   1.000  C
  H2957    1.0000 0.97712  0.60661  0.36989  Biso   1.000  H
  H2958    1.0000 0.92441  0.67581  0.29261  Biso   1.000  H
  H2959    1.0000 0.93390  0.67778  0.29479  Biso   1.000  H
  H2960    1.0000 0.00511  0.64400  0.29412  Biso   1.000  H
  C1640    1.0000 0.95741  0.87090  0.45071  Biso   1.000  C
  C1641    1.0000 0.03052  0.83078  0.51230  Biso   1.000  C
  C1642    1.0000 0.03052  0.83082  0.51230  Biso   1.000  C
  H2961    1.0000 0.18439  0.74560  0.16581  Biso   1.000  H
  H2962    1.0000 0.14680  0.79699  0.14309  Biso   1.000  H
  C1643    1.0000 0.23098  0.76961  0.09549  Biso   1.000  C
  H2963    1.0000 0.13631  0.76609  0.13771  Biso   1.000  H
  C1644    1.0000 0.20900  0.77500  0.07672  Biso   1.000  C
  H2964    1.0000 0.12487  0.82049  0.10851  Biso   1.000  H
  H2965    1.0000 0.29640  0.16752  0.12288  Biso   1.000  H
  H2966    1.0000 0.32481  0.16309  0.17981  Biso   1.000  H
  C1645    1.0000 0.27711  0.09428  0.15490  Biso   1.000  C
  C1646    1.0000 0.27711  0.09432  0.15490  Biso   1.000  C
  C1647    1.0000 0.28918  0.15640  0.10351  Biso   1.000  C
  H2967    1.0000 0.17970  0.17302  0.12631  Biso   1.000  H
  H2968    1.0000 0.20747  0.11798  0.14979  Biso   1.000  H
  C1648    1.0000 0.93111  0.11751  0.46249  Biso   1.000  C
  C1649    1.0000 0.03052  0.16922  0.48770  Biso   1.000  C
  H2969    1.0000 0.98651  0.35011  0.29351  Biso   1.000  H
  C1650    1.0000 0.90169  0.36380  0.34081  Biso   1.000  C
  H2970    1.0000 0.95662  0.33729  0.28309  Biso   1.000  H
  H2971    1.0000 0.01002  0.36032  0.35040  Biso   1.000  H
  C1651    1.0000 0.87101  0.34940  0.33031  Biso   1.000  C
  H2972    1.0000 0.97950  0.35672  0.33780  Biso   1.000  H
  C1652    1.0000 0.98888  0.85088  0.55068  Biso   1.000  C
  C1653    1.0000 0.98888  0.85092  0.55068  Biso   1.000  C
  H2973    1.0000 0.97660  0.85769  0.62819  Biso   1.000  H
  H2974    1.0000 0.94608  0.73662  0.68290  Biso   1.000  H
  H2975    1.0000 0.97449  0.72629  0.62710  Biso   1.000  H
  C1654    1.0000 0.97501  0.65808  0.67108  Biso   1.000  C
  C1655    1.0000 0.97501  0.65812  0.67108  Biso   1.000  C
  C1656    1.0000 0.94750  0.66750  0.68049  Biso   1.000  C
  H2976    1.0000 0.96279  0.72922  0.62951  Biso   1.000  H
  H2977    1.0000 0.93342  0.74940  0.68241  Biso   1.000  H
  H2978    1.0000 0.17722  0.84779  0.83618  Biso   1.000  H
  C1657    1.0000 0.28591  0.84669  0.84318  Biso   1.000  C
  H2979    1.0000 0.20932  0.78888  0.83580  Biso   1.000  H
  H2980    1.0000 0.20932  0.78892  0.83580  Biso   1.000  H
  C1658    1.0000 0.22071  0.84510  0.85838  Biso   1.000  C
  H2981    1.0000 0.23409  0.77939  0.81868  Biso   1.000  H
  H2982    1.0000 0.29582  0.82172  0.81139  Biso   1.000  H
  C1659    1.0000 0.01439  0.16040  0.53800  Biso   1.000  C
  H2983    1.0000 0.10057  0.20439  0.56848  Biso   1.000  H
  H2984    1.0000 0.98029  0.28138  0.61468  Biso   1.000  H
  C1660    1.0000 0.98919  0.35501  0.65389  Biso   1.000  C
  H2985    1.0000 0.98029  0.28142  0.61468  Biso   1.000  H
  H2986    1.0000 0.97870  0.27490  0.63018  Biso   1.000  H
  H2987    1.0000 0.05840  0.30489  0.61178  Biso   1.000  H
  H2988    1.0000 0.05182  0.30572  0.63669  Biso   1.000  H
  C1661    1.0000 0.97122  0.33761  0.68361  Biso   1.000  C
  H2989    1.0000 0.27141  0.20570  0.79581  Biso   1.000  H
  H2990    1.0000 0.26340  0.15719  0.83468  Biso   1.000  H
  C1662    1.0000 0.19308  0.22002  0.85089  Biso   1.000  C
  C1663    1.0000 0.16098  0.20332  0.87719  Biso   1.000  C
  H2991    1.0000 0.22297  0.14409  0.85029  Biso   1.000  H
  H2992    1.0000 0.23278  0.19822  0.82060  Biso   1.000  H
  H2993    1.0000 0.88488  0.66358  0.34450  Biso   1.000  H
  C1664    1.0000 0.89231  0.59608  0.29810  Biso   1.000  C
  H2994    1.0000 0.88488  0.66362  0.34450  Biso   1.000  H
  C1665    1.0000 0.89621  0.58061  0.31951  Biso   1.000  C
  H2995    1.0000 0.90770  0.64261  0.37381  Biso   1.000  H
  C1666    1.0000 0.91540  0.89250  0.48819  Biso   1.000  C
  H2996    1.0000 0.94660  0.87798  0.41651  Biso   1.000  H
  H2997    1.0000 0.94660  0.87802  0.41651  Biso   1.000  H
  H2998    1.0000 0.07100  0.81048  0.52051  Biso   1.000  H
  H2999    1.0000 0.20299  0.74469  0.07570  Biso   1.000  H
  H3000    1.0000 0.23562  0.80309  0.07721  Biso   1.000  H
  H3001    1.0000 0.27821  0.75458  0.10121  Biso   1.000  H
  H3002    1.0000 0.27821  0.75462  0.10121  Biso   1.000  H
  H3003    1.0000 0.23752  0.74520  0.08831  Biso   1.000  H
  H3004    1.0000 0.23958  0.80340  0.06460  Biso   1.000  H
  H3005    1.0000 0.17790  0.76328  0.04929  Biso   1.000  H
  H3006    1.0000 0.32081  0.07798  0.14271  Biso   1.000  H
  H3007    1.0000 0.23842  0.08530  0.13210  Biso   1.000  H
  H3008    1.0000 0.26641  0.08099  0.18869  Biso   1.000  H
  H3009    1.0000 0.32081  0.07802  0.14271  Biso   1.000  H
  H3010    1.0000 0.27558  0.14220  0.07058  Biso   1.000  H
  H3011    1.0000 0.32729  0.13480  0.11769  Biso   1.000  H
  H3012    1.0000 0.30541  0.19300  0.09959  Biso   1.000  H
  C1667    1.0000 0.91540  0.10750  0.51181  Biso   1.000  C
  H3013    1.0000 0.90238  0.10279  0.43679  Biso   1.000  H
  H3014    1.0000 0.07100  0.18952  0.47949  Biso   1.000  H
  H3015    1.0000 0.88841  0.35331  0.37539  Biso   1.000  H
  H3016    1.0000 0.90348  0.40301  0.33968  Biso   1.000  H
  C1668    1.0000 0.84460  0.34429  0.30371  Biso   1.000  C
  C1669    1.0000 0.86400  0.40360  0.29919  Biso   1.000  C
  H3017    1.0000 0.86379  0.35529  0.36669  Biso   1.000  H
  H3018    1.0000 0.83728  0.32249  0.31820  Biso   1.000  H
  C1670    1.0000 0.93111  0.88249  0.53751  Biso   1.000  C
  H3019    1.0000 0.01002  0.63968  0.64960  Biso   1.000  H
  H3020    1.0000 0.98651  0.64989  0.70649  Biso   1.000  H
  C1671    1.0000 0.90169  0.63620  0.65919  Biso   1.000  C
  H3021    1.0000 0.95662  0.66271  0.71691  Biso   1.000  H
  C1672    1.0000 0.87101  0.65060  0.66969  Biso   1.000  C
  H3022    1.0000 0.97950  0.64328  0.66220  Biso   1.000  H
  H3023    1.0000 0.32481  0.83691  0.82019  Biso   1.000  H
  C1673    1.0000 0.27711  0.90572  0.84510  Biso   1.000  C
  H3024    1.0000 0.29640  0.83248  0.87708  Biso   1.000  H
  H3025    1.0000 0.29640  0.83252  0.87708  Biso   1.000  H
  C1674    1.0000 0.28918  0.84360  0.89649  Biso   1.000  C
  H3026    1.0000 0.17970  0.82702  0.87369  Biso   1.000  H
  H3027    1.0000 0.20747  0.88202  0.85018  Biso   1.000  H
  C1675    1.0000 0.95741  0.12910  0.54929  Biso   1.000  C
  H3028    1.0000 0.98450  0.37931  0.62488  Biso   1.000  H
  C1676    1.0000 0.92009  0.35019  0.67970  Biso   1.000  C
  C1677    1.0000 0.93959  0.37579  0.64990  Biso   1.000  C
  H3029    1.0000 0.97712  0.39339  0.63011  Biso   1.000  H
  H3030    1.0000 0.02398  0.37048  0.67748  Biso   1.000  H
  H3031    1.0000 0.02398  0.37052  0.67748  Biso   1.000  H
  H3032    1.0000 0.92441  0.32419  0.70739  Biso   1.000  H
  H3033    1.0000 0.93390  0.32222  0.70521  Biso   1.000  H
  H3034    1.0000 0.00511  0.35600  0.70588  Biso   1.000  H
  H3035    1.0000 0.18439  0.25440  0.83419  Biso   1.000  H
  H3036    1.0000 0.14680  0.20301  0.85691  Biso   1.000  H
  C1678    1.0000 0.23098  0.23039  0.90451  Biso   1.000  C
  H3037    1.0000 0.13631  0.23391  0.86229  Biso   1.000  H
  C1679    1.0000 0.20900  0.22500  0.92328  Biso   1.000  C
  H3038    1.0000 0.12487  0.17951  0.89149  Biso   1.000  H
  H3039    1.0000 0.84671  0.60190  0.28170  Biso   1.000  H
  H3040    1.0000 0.88683  0.57029  0.32531  Biso   1.000  H
  H3041    1.0000 0.92610  0.58259  0.27331  Biso   1.000  H
  H3042    1.0000 0.92778  0.56241  0.29588  Biso   1.000  H
  H3043    1.0000 0.85820  0.59790  0.30059  Biso   1.000  H
  H3044    1.0000 0.87613  0.55490  0.34299  Biso   1.000  H
  C1680    1.0000 0.85330  0.92518  0.47411  Biso   1.000  C
  C1681    1.0000 0.85330  0.92522  0.47411  Biso   1.000  C
  C1682    1.0000 0.85330  0.07482  0.52589  Biso   1.000  C
  H3045    1.0000 0.79880  0.35881  0.31349  Biso   1.000  H
  H3046    1.0000 0.84260  0.30552  0.30450  Biso   1.000  H
  H3047    1.0000 0.85641  0.35608  0.26958  Biso   1.000  H
  H3048    1.0000 0.85641  0.35612  0.26958  Biso   1.000  H
  H3049    1.0000 0.81540  0.41630  0.30111  Biso   1.000  H
  H3050    1.0000 0.87671  0.39731  0.26390  Biso   1.000  H
  H3051    1.0000 0.89579  0.43019  0.31349  Biso   1.000  H
  H3052    1.0000 0.90238  0.89721  0.56321  Biso   1.000  H
  H3053    1.0000 0.88841  0.64669  0.62458  Biso   1.000  H
  H3054    1.0000 0.90348  0.59699  0.66028  Biso   1.000  H
  C1683    1.0000 0.84460  0.65571  0.69629  Biso   1.000  C
  C1684    1.0000 0.86400  0.59640  0.70081  Biso   1.000  C
  H3055    1.0000 0.86379  0.64471  0.63331  Biso   1.000  H
  H3056    1.0000 0.83728  0.67751  0.68180  Biso   1.000  H
  H3057    1.0000 0.32081  0.92202  0.85729  Biso   1.000  H
  H3058    1.0000 0.23842  0.91470  0.86790  Biso   1.000  H
  H3059    1.0000 0.26641  0.91901  0.81131  Biso   1.000  H
  H3060    1.0000 0.27558  0.85780  0.92938  Biso   1.000  H
  H3061    1.0000 0.32729  0.86520  0.88231  Biso   1.000  H
  H3062    1.0000 0.30541  0.80700  0.90041  Biso   1.000  H
  H3063    1.0000 0.94660  0.12202  0.58349  Biso   1.000  H
  H3064    1.0000 0.88488  0.33642  0.65550  Biso   1.000  H
  C1685    1.0000 0.89231  0.40392  0.70190  Biso   1.000  C
  C1686    1.0000 0.89621  0.41939  0.68049  Biso   1.000  C
  H3065    1.0000 0.90770  0.35739  0.62619  Biso   1.000  H
  H3066    1.0000 0.20299  0.25531  0.92430  Biso   1.000  H
  H3067    1.0000 0.27821  0.24542  0.89879  Biso   1.000  H
  H3068    1.0000 0.23562  0.19691  0.92279  Biso   1.000  H
  H3069    1.0000 0.23752  0.25480  0.91169  Biso   1.000  H
  H3070    1.0000 0.23958  0.19660  0.93540  Biso   1.000  H
  H3071    1.0000 0.17790  0.23672  0.95071  Biso   1.000  H
  N131     1.0000 0.81340  0.94291  0.50579  Biso   1.000  N
  H3072    1.0000 0.84450  0.93238  0.43950  Biso   1.000  H
  H3073    1.0000 0.84450  0.93242  0.43950  Biso   1.000  H
  N132     1.0000 0.81340  0.05709  0.49421  Biso   1.000  N
  H3074    1.0000 0.84450  0.06762  0.56050  Biso   1.000  H
  H3075    1.0000 0.79880  0.64119  0.68651  Biso   1.000  H
  H3076    1.0000 0.84260  0.69448  0.69550  Biso   1.000  H
  H3077    1.0000 0.85641  0.64392  0.73038  Biso   1.000  H
  H3078    1.0000 0.84260  0.69452  0.69550  Biso   1.000  H
  H3079    1.0000 0.81540  0.58370  0.69889  Biso   1.000  H
  H3080    1.0000 0.87671  0.60269  0.73610  Biso   1.000  H
  H3081    1.0000 0.89579  0.56981  0.68651  Biso   1.000  H
  H3082    1.0000 0.84671  0.39810  0.71830  Biso   1.000  H
  H3083    1.0000 0.88683  0.42971  0.67469  Biso   1.000  H
  H3084    1.0000 0.92610  0.41741  0.72669  Biso   1.000  H
  H3085    1.0000 0.92778  0.43759  0.70408  Biso   1.000  H
  H3086    1.0000 0.85820  0.40210  0.69941  Biso   1.000  H
  H3087    1.0000 0.87613  0.44510  0.65701  Biso   1.000  H
  C1687    1.0000 0.74988  0.97341  0.48758  Biso   1.000  C
  C1688    1.0000 0.74988  0.02659  0.51238  Biso   1.000  C
  H3088    1.0000 0.75009  0.97689  0.45011  Biso   1.000  H
  C1689    1.0000 0.68652  0.93860  0.50598  Biso   1.000  C
  C1690    1.0000 0.68172  0.94081  0.49959  Biso   1.000  C
  H3089    1.0000 0.75362  0.97840  0.45030  Biso   1.000  H
  H3090    1.0000 0.75009  0.02311  0.54989  Biso   1.000  H
  C1691    1.0000 0.68652  0.06140  0.49398  Biso   1.000  C
  C1692    1.0000 0.68172  0.05919  0.50041  Biso   1.000  C
  H3091    1.0000 0.75362  0.02160  0.54970  Biso   1.000  H
  H3092    1.0000 0.64251  0.95949  0.50508  Biso   1.000  H
  H3093    1.0000 0.69469  0.92720  0.54120  Biso   1.000  H
  C1693    1.0000 0.67898  0.88819  0.47080  Biso   1.000  C
  C1694    1.0000 0.69079  0.88051  0.49229  Biso   1.000  C
  H3094    1.0000 0.66760  0.94770  0.53480  Biso   1.000  H
  H3095    1.0000 0.64309  0.95331  0.47750  Biso   1.000  H
  H3096    1.0000 0.64251  0.04051  0.49488  Biso   1.000  H
  H3097    1.0000 0.69469  0.07280  0.45880  Biso   1.000  H
  C1695    1.0000 0.67898  0.11181  0.52920  Biso   1.000  C
  C1696    1.0000 0.69079  0.11949  0.50771  Biso   1.000  C
  H3098    1.0000 0.66760  0.05230  0.46520  Biso   1.000  H
  H3099    1.0000 0.64309  0.04669  0.52250  Biso   1.000  H
  H3100    1.0000 0.71673  0.86200  0.47739  Biso   1.000  H
  H3101    1.0000 0.67972  0.89808  0.43468  Biso   1.000  H
  C1697    1.0000 0.60171  0.86591  0.48788  Biso   1.000  C
  H3102    1.0000 0.67972  0.89812  0.43468  Biso   1.000  H
  H3103    1.0000 0.69311  0.87292  0.45579  Biso   1.000  H
  C1698    1.0000 0.63023  0.84590  0.51618  Biso   1.000  C
  H3104    1.0000 0.73628  0.86971  0.50730  Biso   1.000  H
  H3105    1.0000 0.71673  0.13800  0.52261  Biso   1.000  H
  H3106    1.0000 0.67972  0.10192  0.56528  Biso   1.000  H
  C1699    1.0000 0.60171  0.13409  0.51208  Biso   1.000  C
  H3107    1.0000 0.69311  0.12708  0.54421  Biso   1.000  H
  C1700    1.0000 0.63023  0.15410  0.48378  Biso   1.000  C
  H3108    1.0000 0.73628  0.13029  0.49270  Biso   1.000  H
  H3109    1.0000 0.60819  0.82781  0.49488  Biso   1.000  H
  H3110    1.0000 0.59122  0.88289  0.52058  Biso   1.000  H
  C1701    1.0000 0.53998  0.86991  0.45940  Biso   1.000  C
  H3111    1.0000 0.58832  0.84340  0.45459  Biso   1.000  H
  H3112    1.0000 0.55211  0.88079  0.49398  Biso   1.000  H
  C1702    1.0000 0.57071  0.84451  0.48958  Biso   1.000  C
  H3113    1.0000 0.64773  0.80930  0.52039  Biso   1.000  H
  H3114    1.0000 0.61952  0.86002  0.55008  Biso   1.000  H
  H3115    1.0000 0.60819  0.17219  0.50508  Biso   1.000  H
  H3116    1.0000 0.59122  0.11711  0.47938  Biso   1.000  H
  C1703    1.0000 0.53998  0.13009  0.54060  Biso   1.000  C
  H3117    1.0000 0.58832  0.15660  0.54541  Biso   1.000  H
  H3118    1.0000 0.55211  0.11921  0.50598  Biso   1.000  H
  C1704    1.0000 0.57071  0.15549  0.51038  Biso   1.000  C
  H3119    1.0000 0.64773  0.19070  0.47961  Biso   1.000  H
  H3120    1.0000 0.61952  0.14002  0.44988  Biso   1.000  H
  H3121    1.0000 0.55042  0.86481  0.42328  Biso   1.000  H
  H3122    1.0000 0.51821  0.90520  0.46399  Biso   1.000  H
  C1705    1.0000 0.48869  0.82508  0.47901  Biso   1.000  C
  C1706    1.0000 0.50409  0.81171  0.48661  Biso   1.000  C
  H3123    1.0000 0.55042  0.13519  0.57668  Biso   1.000  H
  H3124    1.0000 0.51821  0.09480  0.53601  Biso   1.000  H
  C1707    1.0000 0.48869  0.17492  0.52099  Biso   1.000  C
  C1708    1.0000 0.50409  0.18829  0.51339  Biso   1.000  C
  H3125    1.0000 0.44589  0.82481  0.45831  Biso   1.000  H
  H3126    1.0000 0.47610  0.83221  0.51411  Biso   1.000  H
  H3127    1.0000 0.51231  0.79070  0.47660  Biso   1.000  H
  H3128    1.0000 0.46882  0.83058  0.46659  Biso   1.000  H
  H3129    1.0000 0.48579  0.80562  0.52058  Biso   1.000  H
  H3130    1.0000 0.51468  0.77769  0.47069  Biso   1.000  H
  H3131    1.0000 0.44589  0.17519  0.54169  Biso   1.000  H
  H3132    1.0000 0.47610  0.16779  0.48589  Biso   1.000  H
  H3133    1.0000 0.51231  0.20930  0.52340  Biso   1.000  H
  H3134    1.0000 0.46882  0.16942  0.53341  Biso   1.000  H
  H3135    1.0000 0.48579  0.19438  0.47938  Biso   1.000  H
  H3136    1.0000 0.51468  0.22231  0.52931  Biso   1.000  H
  C1709    1.0000 0.52000  0.97899  0.39980  Biso   1.000  C
  C1710    1.0000 0.50198  0.00799  0.44059  Biso   1.000  C
  C1711    1.0000 0.50999  0.00301  0.45150  Biso   1.000  C
  H3137    1.0000 0.50129  0.94552  0.39100  Biso   1.000  H
  C1712    1.0000 0.57430  0.99751  0.36180  Biso   1.000  C
  C1713    1.0000 0.59301  0.99399  0.37478  Biso   1.000  C
  H3138    1.0000 0.48147  0.98979  0.37749  Biso   1.000  H
  H3139    1.0000 0.51821  0.93958  0.40312  Biso   1.000  H
  C1714    1.0000 0.43967  0.98940  0.47411  Biso   1.000  C
  H3140    1.0000 0.54652  0.99988  0.45831  Biso   1.000  H
  C1715    1.0000 0.50598  0.98441  0.38848  Biso   1.000  C
  H3141    1.0000 0.54652  0.99992  0.45831  Biso   1.000  H
  H3142    1.0000 0.49908  0.04700  0.43709  Biso   1.000  H
  H3143    1.0000 0.51378  0.04241  0.44849  Biso   1.000  H
  H3144    1.0000 0.54810  0.99130  0.47430  Biso   1.000  H
  H3145    1.0000 0.61388  0.98220  0.38118  Biso   1.000  H
  C1716    1.0000 0.57899  0.97788  0.30841  Biso   1.000  C
  C1717    1.0000 0.57899  0.97792  0.30841  Biso   1.000  C
  C1718    1.0000 0.59601  0.96601  0.32470  Biso   1.000  C
  H3146    1.0000 0.58041  0.03640  0.36169  Biso   1.000  H
  H3147    1.0000 0.59559  0.03319  0.36948  Biso   1.000  H
  H3148    1.0000 0.63307  0.98358  0.39649  Biso   1.000  H
  N133     1.0000 0.37457  0.00582  0.44811  Biso   1.000  N
  H3149    1.0000 0.44062  0.94991  0.47588  Biso   1.000  H
  H3150    1.0000 0.43820  0.94999  0.47701  Biso   1.000  H
  C1719    1.0000 0.43967  0.01060  0.52589  Biso   1.000  C
  H3151    1.0000 0.46597  0.99771  0.36820  Biso   1.000  H
  H3152    1.0000 0.54557  0.99759  0.28682  Biso   1.000  H
  H3153    1.0000 0.56660  0.93990  0.30698  Biso   1.000  H
  C1720    1.0000 0.65790  0.98659  0.28889  Biso   1.000  C
  H3154    1.0000 0.55769  0.93951  0.32279  Biso   1.000  H
  C1721    1.0000 0.66897  0.93701  0.31899  Biso   1.000  C
  H3155    1.0000 0.59027  0.99130  0.29690  Biso   1.000  H
  C1722    1.0000 0.33498  0.97171  0.43028  Biso   1.000  C
  N134     1.0000 0.37457  0.99418  0.55189  Biso   1.000  N
  C1723    1.0000 0.50198  0.99201  0.55941  Biso   1.000  C
  N135     1.0000 0.37457  0.99422  0.55189  Biso   1.000  N
  C1724    1.0000 0.50999  0.99699  0.54850  Biso   1.000  C
  H3156    1.0000 0.44062  0.05009  0.52408  Biso   1.000  H
  H3157    1.0000 0.43820  0.05001  0.52299  Biso   1.000  H
  H3158    1.0000 0.66191  0.97389  0.25408  Biso   1.000  H
  H3159    1.0000 0.69058  0.96669  0.31029  Biso   1.000  H
  H3160    1.0000 0.66971  0.02429  0.29020  Biso   1.000  H
  H3161    1.0000 0.67039  0.91881  0.28591  Biso   1.000  H
  H3162    1.0000 0.67398  0.91039  0.34559  Biso   1.000  H
  H3163    1.0000 0.70708  0.96249  0.32079  Biso   1.000  H
  C1725    1.0000 0.27242  0.98560  0.40029  Biso   1.000  C
  H3164    1.0000 0.34521  0.93539  0.43611  Biso   1.000  H
  C1726    1.0000 0.33498  0.02829  0.56968  Biso   1.000  C
  H3165    1.0000 0.49908  0.95300  0.56291  Biso   1.000  H
  H3166    1.0000 0.51378  0.95759  0.55151  Biso   1.000  H
  H3167    1.0000 0.54652  0.00012  0.54169  Biso   1.000  H
  C1727    1.0000 0.50598  0.01559  0.61148  Biso   1.000  C
  C1728    1.0000 0.52000  0.02101  0.60020  Biso   1.000  C
  H3168    1.0000 0.54810  0.00870  0.52570  Biso   1.000  H
  C1729    1.0000 0.23172  0.94631  0.37949  Biso   1.000  C
  C1730    1.0000 0.25550  0.03810  0.38991  Biso   1.000  C
  C1731    1.0000 0.27242  0.01440  0.59971  Biso   1.000  C
  H3169    1.0000 0.34521  0.06461  0.56389  Biso   1.000  H
  H3170    1.0000 0.50129  0.05448  0.60900  Biso   1.000  H
  H3171    1.0000 0.46597  0.00229  0.63180  Biso   1.000  H
  C1732    1.0000 0.57430  0.00249  0.63820  Biso   1.000  C
  H3172    1.0000 0.50129  0.05452  0.60900  Biso   1.000  H
  C1733    1.0000 0.59301  0.00601  0.62518  Biso   1.000  C
  H3173    1.0000 0.48147  0.01021  0.62251  Biso   1.000  H
  H3174    1.0000 0.51821  0.06042  0.59688  Biso   1.000  H
  C1734    1.0000 0.17311  0.95901  0.34799  Biso   1.000  C
  H3175    1.0000 0.24269  0.91019  0.38600  Biso   1.000  H
  C1735    1.0000 0.19788  0.05041  0.35988  Biso   1.000  C
  H3176    1.0000 0.28359  0.06572  0.40349  Biso   1.000  H
  C1736    1.0000 0.25550  0.96190  0.61009  Biso   1.000  C
  C1737    1.0000 0.23172  0.05369  0.62051  Biso   1.000  C
  H3177    1.0000 0.58041  0.96360  0.63831  Biso   1.000  H
  H3178    1.0000 0.59559  0.96681  0.63048  Biso   1.000  H
  H3179    1.0000 0.61388  0.01780  0.61878  Biso   1.000  H
  C1738    1.0000 0.57899  0.02212  0.69159  Biso   1.000  C
  C1739    1.0000 0.59601  0.03399  0.67530  Biso   1.000  C
  H3180    1.0000 0.63307  0.01642  0.60351  Biso   1.000  H
  C1740    1.0000 0.13320  0.91589  0.32320  Biso   1.000  C
  C1741    1.0000 0.15719  0.01041  0.34070  Biso   1.000  C
  C1742    1.0000 0.18428  0.10789  0.34909  Biso   1.000  C
  C1743    1.0000 0.19788  0.94959  0.64008  Biso   1.000  C
  H3181    1.0000 0.28359  0.93428  0.59651  Biso   1.000  H
  H3182    1.0000 0.28359  0.93432  0.59651  Biso   1.000  H
  C1744    1.0000 0.17311  0.04099  0.65201  Biso   1.000  C
  H3183    1.0000 0.24269  0.08981  0.61400  Biso   1.000  H
  H3184    1.0000 0.54557  0.00241  0.71318  Biso   1.000  H
  H3185    1.0000 0.56660  0.06010  0.69298  Biso   1.000  H
  C1745    1.0000 0.65790  0.01341  0.71108  Biso   1.000  C
  H3186    1.0000 0.55769  0.06049  0.67718  Biso   1.000  H
  C1746    1.0000 0.66897  0.06299  0.68098  Biso   1.000  C
  H3187    1.0000 0.59027  0.00870  0.70310  Biso   1.000  H
  N136     1.0000 0.14949  0.86880  0.32651  Biso   1.000  N
  H3188    1.0000 0.09288  0.92499  0.30371  Biso   1.000  H
  H3189    1.0000 0.11649  0.01919  0.32169  Biso   1.000  H
  N137     1.0000 0.13631  0.12380  0.32090  Biso   1.000  N
  H3190    1.0000 0.21391  0.13341  0.36451  Biso   1.000  H
  C1747    1.0000 0.18428  0.89211  0.65088  Biso   1.000  C
  C1748    1.0000 0.15719  0.98959  0.65930  Biso   1.000  C
  C1749    1.0000 0.13320  0.08411  0.67680  Biso   1.000  C
  H3191    1.0000 0.66971  0.97571  0.70980  Biso   1.000  H
  H3192    1.0000 0.66191  0.02611  0.74588  Biso   1.000  H
  H3193    1.0000 0.69058  0.03331  0.68971  Biso   1.000  H
  H3194    1.0000 0.67039  0.08119  0.71409  Biso   1.000  H
  H3195    1.0000 0.67398  0.08961  0.65441  Biso   1.000  H
  H3196    1.0000 0.70708  0.03751  0.67921  Biso   1.000  H
  C1750    1.0000 0.10701  0.82861  0.30021  Biso   1.000  C
  C1751    1.0000 0.13141  0.18010  0.30999  Biso   1.000  C
  N138     1.0000 0.13631  0.87620  0.67910  Biso   1.000  N
  H3197    1.0000 0.21391  0.86659  0.63549  Biso   1.000  H
  H3198    1.0000 0.11649  0.98081  0.67831  Biso   1.000  H
  N139     1.0000 0.14949  0.13120  0.67349  Biso   1.000  N
  H3199    1.0000 0.09288  0.07501  0.69629  Biso   1.000  H
  C1752    1.0000 0.08381  0.78809  0.33968  Biso   1.000  C
  H3200    1.0000 0.06520  0.84510  0.28358  Biso   1.000  H
  C1753    1.0000 0.15429  0.80131  0.26138  Biso   1.000  C
  C1754    1.0000 0.13689  0.80772  0.25088  Biso   1.000  C
  H3201    1.0000 0.06267  0.84740  0.29039  Biso   1.000  H
  H3202    1.0000 0.16810  0.19778  0.33121  Biso   1.000  H
  C1755    1.0000 0.14912  0.19351  0.25551  Biso   1.000  C
  C1756    1.0000 0.06078  0.20059  0.32858  Biso   1.000  C
  H3203    1.0000 0.16810  0.19782  0.33121  Biso   1.000  H
  C1757    1.0000 0.13600  0.18350  0.25310  Biso   1.000  C
  H3204    1.0000 0.17110  0.19988  0.32610  Biso   1.000  H
  C1758    1.0000 0.13141  0.81990  0.69001  Biso   1.000  C
  C1759    1.0000 0.10701  0.17139  0.69979  Biso   1.000  C
  N140     1.0000 0.04001  0.81618  0.37670  Biso   1.000  N
  H3205    1.0000 0.12688  0.77500  0.35729  Biso   1.000  H
  C1760    1.0000 0.04180  0.73990  0.32139  Biso   1.000  C
  N141     1.0000 0.04001  0.81622  0.37670  Biso   1.000  N
  C1761    1.0000 0.03690  0.75189  0.30879  Biso   1.000  C
  H3206    1.0000 0.12440  0.76902  0.35541  Biso   1.000  H
  H3207    1.0000 0.12772  0.77238  0.24490  Biso   1.000  H
  H3208    1.0000 0.19551  0.78548  0.27861  Biso   1.000  H
  C1762    1.0000 0.18059  0.84190  0.22018  Biso   1.000  C
  H3209    1.0000 0.19551  0.78552  0.27861  Biso   1.000  H
  H3210    1.0000 0.18122  0.78861  0.25841  Biso   1.000  H
  H3211    1.0000 0.10321  0.78148  0.23711  Biso   1.000  H
  C1763    1.0000 0.15202  0.84870  0.20980  Biso   1.000  C
  H3212    1.0000 0.14860  0.23248  0.25160  Biso   1.000  H
  H3213    1.0000 0.11180  0.17879  0.23361  Biso   1.000  H
  C1764    1.0000 0.22271  0.17199  0.23700  Biso   1.000  C
  H3214    1.0000 0.14860  0.23252  0.25160  Biso   1.000  H
  C1765    1.0000 0.21000  0.16372  0.23538  Biso   1.000  C
  H3215    1.0000 0.12878  0.22049  0.24208  Biso   1.000  H
  N142     1.0000 0.05408  0.18959  0.38197  Biso   1.000  N
  H3216    1.0000 0.02172  0.18279  0.30981  Biso   1.000  H
  C1766    1.0000 0.05582  0.26121  0.32151  Biso   1.000  C
  C1767    1.0000 0.04201  0.25891  0.31801  Biso   1.000  C
  H3217    1.0000 0.02398  0.17879  0.31139  Biso   1.000  H
  H3218    1.0000 0.09862  0.16138  0.23772  Biso   1.000  H
  C1768    1.0000 0.06078  0.79941  0.67138  Biso   1.000  C
  H3219    1.0000 0.16810  0.80222  0.66879  Biso   1.000  H
  C1769    1.0000 0.14912  0.80649  0.74449  Biso   1.000  C
  C1770    1.0000 0.13600  0.81650  0.74690  Biso   1.000  C
  H3220    1.0000 0.17110  0.80012  0.67390  Biso   1.000  H
  C1771    1.0000 0.08381  0.21191  0.66028  Biso   1.000  C
  H3221    1.0000 0.06520  0.15490  0.71638  Biso   1.000  H
  C1772    1.0000 0.15429  0.19869  0.73858  Biso   1.000  C
  C1773    1.0000 0.13689  0.19232  0.74908  Biso   1.000  C
  H3222    1.0000 0.06267  0.15260  0.70961  Biso   1.000  H
  C1774    1.0000 0.05862  0.81381  0.42238  Biso   1.000  C
  H3223    1.0000 0.99942  0.75240  0.30330  Biso   1.000  H
  H3224    1.0000 0.07100  0.71980  0.29720  Biso   1.000  H
  C1775    1.0000 0.01792  0.70109  0.36549  Biso   1.000  C
  C1776    1.0000 0.01102  0.70900  0.34480  Biso   1.000  C
  H3225    1.0000 0.06378  0.73598  0.28068  Biso   1.000  H
  H3226    1.0000 0.99652  0.77191  0.29468  Biso   1.000  H
  H3227    1.0000 0.14000  0.85389  0.19979  Biso   1.000  H
  H3228    1.0000 0.20141  0.87319  0.23689  Biso   1.000  H
  C1777    1.0000 0.23742  0.81559  0.18459  Biso   1.000  C
  C1778    1.0000 0.19698  0.82591  0.16491  Biso   1.000  C
  H3229    1.0000 0.17811  0.87881  0.22500  Biso   1.000  H
  H3230    1.0000 0.10711  0.86231  0.19652  Biso   1.000  H
  H3231    1.0000 0.23072  0.13531  0.24870  Biso   1.000  H
  H3232    1.0000 0.26172  0.19470  0.24919  Biso   1.000  H
  C1779    1.0000 0.21680  0.17428  0.17578  Biso   1.000  C
  C1780    1.0000 0.21680  0.17432  0.17578  Biso   1.000  C
  C1781    1.0000 0.24411  0.18239  0.18568  Biso   1.000  C
  H3233    1.0000 0.24348  0.17230  0.26259  Biso   1.000  H
  H3234    1.0000 0.20721  0.12459  0.23369  Biso   1.000  H
  C1782    1.0000 0.00469  0.15929  0.39661  Biso   1.000  C
  C1783    1.0000 0.98271  0.28190  0.33701  Biso   1.000  C
  C1784    1.0000 0.96700  0.27501  0.33400  Biso   1.000  C
  H3235    1.0000 0.09240  0.27869  0.34209  Biso   1.000  H
  H3236    1.0000 0.06468  0.27011  0.28580  Biso   1.000  H
  H3237    1.0000 0.07569  0.28170  0.33641  Biso   1.000  H
  H3238    1.0000 0.04739  0.26580  0.28189  Biso   1.000  H
  N143     1.0000 0.05408  0.81041  0.61803  Biso   1.000  N
  H3239    1.0000 0.02172  0.81721  0.69019  Biso   1.000  H
  C1785    1.0000 0.05582  0.73879  0.67849  Biso   1.000  C
  C1786    1.0000 0.04201  0.74109  0.68199  Biso   1.000  C
  H3240    1.0000 0.02398  0.82121  0.68858  Biso   1.000  H
  H3241    1.0000 0.14860  0.76752  0.74840  Biso   1.000  H
  H3242    1.0000 0.11180  0.82121  0.76639  Biso   1.000  H
  C1787    1.0000 0.22271  0.82801  0.76300  Biso   1.000  C
  C1788    1.0000 0.21000  0.83632  0.76458  Biso   1.000  C
  H3243    1.0000 0.12878  0.77951  0.75788  Biso   1.000  H
  H3244    1.0000 0.09862  0.83862  0.76228  Biso   1.000  H
  N144     1.0000 0.04001  0.18382  0.62330  Biso   1.000  N
  H3245    1.0000 0.12688  0.22500  0.64271  Biso   1.000  H
  C1789    1.0000 0.04180  0.26010  0.67861  Biso   1.000  C
  C1790    1.0000 0.03690  0.24811  0.69121  Biso   1.000  C
  H3246    1.0000 0.12440  0.23102  0.64459  Biso   1.000  H
  H3247    1.0000 0.12772  0.22762  0.75510  Biso   1.000  H
  H3248    1.0000 0.19551  0.21452  0.72139  Biso   1.000  H
  C1791    1.0000 0.18059  0.15810  0.77978  Biso   1.000  C
  H3249    1.0000 0.18122  0.21139  0.74159  Biso   1.000  H
  H3250    1.0000 0.10321  0.21852  0.76289  Biso   1.000  H
  C1792    1.0000 0.15202  0.15130  0.79020  Biso   1.000  C
  C1793    1.0000 0.01439  0.83960  0.46200  Biso   1.000  C
  H3251    1.0000 0.10057  0.79561  0.43148  Biso   1.000  H
  H3252    1.0000 0.98029  0.71862  0.38528  Biso   1.000  H
  C1794    1.0000 0.98919  0.64499  0.34611  Biso   1.000  C
  H3253    1.0000 0.97870  0.72510  0.36978  Biso   1.000  H
  H3254    1.0000 0.05840  0.69511  0.38822  Biso   1.000  H
  H3255    1.0000 0.05182  0.69432  0.36331  Biso   1.000  H
  C1795    1.0000 0.97122  0.66239  0.31639  Biso   1.000  C
  H3256    1.0000 0.27141  0.79430  0.20419  Biso   1.000  H
  H3257    1.0000 0.26340  0.84281  0.16529  Biso   1.000  H
  C1796    1.0000 0.19308  0.77998  0.14911  Biso   1.000  C
  C1797    1.0000 0.19308  0.78002  0.14911  Biso   1.000  C
  C1798    1.0000 0.16098  0.79672  0.12281  Biso   1.000  C
  H3258    1.0000 0.22297  0.85591  0.14971  Biso   1.000  H
  H3259    1.0000 0.23278  0.80178  0.17940  Biso   1.000  H
  H3260    1.0000 0.17722  0.15221  0.16378  Biso   1.000  H
  H3261    1.0000 0.20932  0.21112  0.16420  Biso   1.000  H
  C1799    1.0000 0.28591  0.15331  0.15678  Biso   1.000  C
  C1800    1.0000 0.22071  0.15490  0.14158  Biso   1.000  C
  H3262    1.0000 0.23409  0.22061  0.18132  Biso   1.000  H
  H3263    1.0000 0.29582  0.17832  0.18861  Biso   1.000  H
  C1801    1.0000 0.98888  0.14912  0.44928  Biso   1.000  C
  H3264    1.0000 0.97660  0.14231  0.37181  Biso   1.000  H
  H3265    1.0000 0.94608  0.26338  0.31710  Biso   1.000  H
  H3266    1.0000 0.97449  0.27371  0.37290  Biso   1.000  H
  C1802    1.0000 0.97501  0.34192  0.32888  Biso   1.000  C
  H3267    1.0000 0.94608  0.26342  0.31710  Biso   1.000  H
  C1803    1.0000 0.94750  0.33250  0.31951  Biso   1.000  C
  H3268    1.0000 0.96279  0.27078  0.37049  Biso   1.000  H
  H3269    1.0000 0.93342  0.25060  0.31759  Biso   1.000  H
  C1804    1.0000 0.00469  0.84071  0.60339  Biso   1.000  C
  C1805    1.0000 0.98271  0.71810  0.66299  Biso   1.000  C
  C1806    1.0000 0.96700  0.72499  0.66600  Biso   1.000  C
  H3270    1.0000 0.09240  0.72131  0.65791  Biso   1.000  H
  H3271    1.0000 0.06468  0.72989  0.71420  Biso   1.000  H
  H3272    1.0000 0.07569  0.71830  0.66359  Biso   1.000  H
  H3273    1.0000 0.04739  0.73420  0.71811  Biso   1.000  H
  H3274    1.0000 0.23072  0.86469  0.75130  Biso   1.000  H
  H3275    1.0000 0.26172  0.80530  0.75081  Biso   1.000  H
  C1807    1.0000 0.21680  0.82572  0.82418  Biso   1.000  C
  C1808    1.0000 0.24411  0.81761  0.81428  Biso   1.000  C
  H3276    1.0000 0.24348  0.82770  0.73738  Biso   1.000  H
  H3277    1.0000 0.20721  0.87541  0.76631  Biso   1.000  H
  C1809    1.0000 0.05862  0.18619  0.57758  Biso   1.000  C
  H3278    1.0000 0.99942  0.24760  0.69670  Biso   1.000  H
  H3279    1.0000 0.07100  0.28020  0.70280  Biso   1.000  H
  C1810    1.0000 0.01792  0.29891  0.63451  Biso   1.000  C
  C1811    1.0000 0.01102  0.29100  0.65520  Biso   1.000  C
  H3280    1.0000 0.06378  0.26402  0.71928  Biso   1.000  H
  H3281    1.0000 0.99652  0.22809  0.70528  Biso   1.000  H
  H3282    1.0000 0.14000  0.14611  0.80021  Biso   1.000  H
  H3283    1.0000 0.20141  0.12681  0.76311  Biso   1.000  H
  C1812    1.0000 0.23742  0.18441  0.81541  Biso   1.000  C
  C1813    1.0000 0.19698  0.17409  0.83509  Biso   1.000  C
  H3284    1.0000 0.17811  0.12119  0.77500  Biso   1.000  H
  H3285    1.0000 0.10711  0.13769  0.80348  Biso   1.000  H
  C1814    1.0000 0.95741  0.87090  0.45071  Biso   1.000  C
  C1815    1.0000 0.03052  0.83078  0.51230  Biso   1.000  C
  C1816    1.0000 0.03052  0.83082  0.51230  Biso   1.000  C
  H3286    1.0000 0.98450  0.62069  0.37508  Biso   1.000  H
  C1817    1.0000 0.92009  0.64981  0.32030  Biso   1.000  C
  C1818    1.0000 0.93959  0.62421  0.35010  Biso   1.000  C
  H3287    1.0000 0.97712  0.60661  0.36989  Biso   1.000  H
  H3288    1.0000 0.02398  0.62952  0.32248  Biso   1.000  H
  H3289    1.0000 0.92441  0.67581  0.29261  Biso   1.000  H
  H3290    1.0000 0.93390  0.67778  0.29479  Biso   1.000  H
  H3291    1.0000 0.00511  0.64400  0.29412  Biso   1.000  H
  H3292    1.0000 0.18439  0.74560  0.16581  Biso   1.000  H
  H3293    1.0000 0.14680  0.79699  0.14309  Biso   1.000  H
  C1819    1.0000 0.23098  0.76961  0.09549  Biso   1.000  C
  H3294    1.0000 0.13631  0.76609  0.13771  Biso   1.000  H
  C1820    1.0000 0.20900  0.77500  0.07672  Biso   1.000  C
  H3295    1.0000 0.12487  0.82049  0.10851  Biso   1.000  H
  H3296    1.0000 0.29640  0.16752  0.12288  Biso   1.000  H
  H3297    1.0000 0.32481  0.16309  0.17981  Biso   1.000  H
  C1821    1.0000 0.27711  0.09428  0.15490  Biso   1.000  C
  C1822    1.0000 0.27711  0.09432  0.15490  Biso   1.000  C
  C1823    1.0000 0.28918  0.15640  0.10351  Biso   1.000  C
  H3298    1.0000 0.17970  0.17302  0.12631  Biso   1.000  H
  H3299    1.0000 0.20747  0.11798  0.14979  Biso   1.000  H
  C1824    1.0000 0.93111  0.11751  0.46249  Biso   1.000  C
  C1825    1.0000 0.03052  0.16922  0.48770  Biso   1.000  C
  H3300    1.0000 0.98651  0.35011  0.29351  Biso   1.000  H
  C1826    1.0000 0.90169  0.36380  0.34081  Biso   1.000  C
  H3301    1.0000 0.95662  0.33729  0.28309  Biso   1.000  H
  H3302    1.0000 0.01002  0.36032  0.35040  Biso   1.000  H
  C1827    1.0000 0.87101  0.34940  0.33031  Biso   1.000  C
  H3303    1.0000 0.97950  0.35672  0.33780  Biso   1.000  H
  C1828    1.0000 0.98888  0.85088  0.55068  Biso   1.000  C
  C1829    1.0000 0.98888  0.85092  0.55068  Biso   1.000  C
  H3304    1.0000 0.97660  0.85769  0.62819  Biso   1.000  H
  H3305    1.0000 0.94608  0.73662  0.68290  Biso   1.000  H
  H3306    1.0000 0.97449  0.72629  0.62710  Biso   1.000  H
  C1830    1.0000 0.97501  0.65808  0.67108  Biso   1.000  C
  C1831    1.0000 0.97501  0.65812  0.67108  Biso   1.000  C
  C1832    1.0000 0.94750  0.66750  0.68049  Biso   1.000  C
  H3307    1.0000 0.96279  0.72922  0.62951  Biso   1.000  H
  H3308    1.0000 0.93342  0.74940  0.68241  Biso   1.000  H
  H3309    1.0000 0.17722  0.84779  0.83618  Biso   1.000  H
  H3310    1.0000 0.20932  0.78888  0.83580  Biso   1.000  H
  C1833    1.0000 0.28591  0.84669  0.84318  Biso   1.000  C
  H3311    1.0000 0.20932  0.78892  0.83580  Biso   1.000  H
  C1834    1.0000 0.22071  0.84510  0.85838  Biso   1.000  C
  H3312    1.0000 0.23409  0.77939  0.81868  Biso   1.000  H
  H3313    1.0000 0.29582  0.82172  0.81139  Biso   1.000  H
  C1835    1.0000 0.01439  0.16040  0.53800  Biso   1.000  C
  H3314    1.0000 0.10057  0.20439  0.56848  Biso   1.000  H
  H3315    1.0000 0.98029  0.28138  0.61468  Biso   1.000  H
  C1836    1.0000 0.98919  0.35501  0.65389  Biso   1.000  C
  H3316    1.0000 0.98029  0.28142  0.61468  Biso   1.000  H
  H3317    1.0000 0.97870  0.27490  0.63018  Biso   1.000  H
  H3318    1.0000 0.05840  0.30489  0.61178  Biso   1.000  H
  H3319    1.0000 0.05182  0.30572  0.63669  Biso   1.000  H
  C1837    1.0000 0.97122  0.33761  0.68361  Biso   1.000  C
  H3320    1.0000 0.27141  0.20570  0.79581  Biso   1.000  H
  H3321    1.0000 0.26340  0.15719  0.83468  Biso   1.000  H
  C1838    1.0000 0.19308  0.22002  0.85089  Biso   1.000  C
  C1839    1.0000 0.16098  0.20332  0.87719  Biso   1.000  C
  H3322    1.0000 0.22297  0.14409  0.85029  Biso   1.000  H
  H3323    1.0000 0.23278  0.19822  0.82060  Biso   1.000  H
  C1840    1.0000 0.91540  0.89250  0.48819  Biso   1.000  C
  H3324    1.0000 0.94660  0.87798  0.41651  Biso   1.000  H
  H3325    1.0000 0.94660  0.87802  0.41651  Biso   1.000  H
  H3326    1.0000 0.07100  0.81048  0.52051  Biso   1.000  H
  H3327    1.0000 0.88488  0.66358  0.34450  Biso   1.000  H
  C1841    1.0000 0.89231  0.59608  0.29810  Biso   1.000  C
  H3328    1.0000 0.88488  0.66362  0.34450  Biso   1.000  H
  C1842    1.0000 0.89621  0.58061  0.31951  Biso   1.000  C
  H3329    1.0000 0.90770  0.64261  0.37381  Biso   1.000  H
  H3330    1.0000 0.20299  0.74469  0.07570  Biso   1.000  H
  H3331    1.0000 0.27821  0.75458  0.10121  Biso   1.000  H
  H3332    1.0000 0.23562  0.80309  0.07721  Biso   1.000  H
  H3333    1.0000 0.27821  0.75462  0.10121  Biso   1.000  H
  H3334    1.0000 0.23752  0.74520  0.08831  Biso   1.000  H
  H3335    1.0000 0.23958  0.80340  0.06460  Biso   1.000  H
  H3336    1.0000 0.17790  0.76328  0.04929  Biso   1.000  H
  H3337    1.0000 0.32081  0.07798  0.14271  Biso   1.000  H
  H3338    1.0000 0.23842  0.08530  0.13210  Biso   1.000  H
  H3339    1.0000 0.26641  0.08099  0.18869  Biso   1.000  H
  H3340    1.0000 0.32081  0.07802  0.14271  Biso   1.000  H
  H3341    1.0000 0.27558  0.14220  0.07058  Biso   1.000  H
  H3342    1.0000 0.32729  0.13480  0.11769  Biso   1.000  H
  H3343    1.0000 0.30541  0.19300  0.09959  Biso   1.000  H
  C1843    1.0000 0.91540  0.10750  0.51181  Biso   1.000  C
  H3344    1.0000 0.90238  0.10279  0.43679  Biso   1.000  H
  H3345    1.0000 0.07100  0.18952  0.47949  Biso   1.000  H
  H3346    1.0000 0.88841  0.35331  0.37539  Biso   1.000  H
  H3347    1.0000 0.90348  0.40301  0.33968  Biso   1.000  H
  C1844    1.0000 0.84460  0.34429  0.30371  Biso   1.000  C
  C1845    1.0000 0.86400  0.40360  0.29919  Biso   1.000  C
  H3348    1.0000 0.86379  0.35529  0.36669  Biso   1.000  H
  H3349    1.0000 0.83728  0.32249  0.31820  Biso   1.000  H
  C1846    1.0000 0.93111  0.88249  0.53751  Biso   1.000  C
  H3350    1.0000 0.98651  0.64989  0.70649  Biso   1.000  H
  C1847    1.0000 0.90169  0.63620  0.65919  Biso   1.000  C
  H3351    1.0000 0.95662  0.66271  0.71691  Biso   1.000  H
  H3352    1.0000 0.01002  0.63968  0.64960  Biso   1.000  H
  C1848    1.0000 0.87101  0.65060  0.66969  Biso   1.000  C
  H3353    1.0000 0.97950  0.64328  0.66220  Biso   1.000  H
  H3354    1.0000 0.29640  0.83248  0.87708  Biso   1.000  H
  H3355    1.0000 0.32481  0.83691  0.82019  Biso   1.000  H
  C1849    1.0000 0.27711  0.90572  0.84510  Biso   1.000  C
  H3356    1.0000 0.29640  0.83252  0.87708  Biso   1.000  H
  C1850    1.0000 0.28918  0.84360  0.89649  Biso   1.000  C
  H3357    1.0000 0.17970  0.82702  0.87369  Biso   1.000  H
  H3358    1.0000 0.20747  0.88202  0.85018  Biso   1.000  H
  C1851    1.0000 0.95741  0.12910  0.54929  Biso   1.000  C
  H3359    1.0000 0.98450  0.37931  0.62488  Biso   1.000  H
  C1852    1.0000 0.92009  0.35019  0.67970  Biso   1.000  C
  C1853    1.0000 0.93959  0.37579  0.64990  Biso   1.000  C
  H3360    1.0000 0.97712  0.39339  0.63011  Biso   1.000  H
  H3361    1.0000 0.02398  0.37048  0.67748  Biso   1.000  H
  H3362    1.0000 0.02398  0.37052  0.67748  Biso   1.000  H
  H3363    1.0000 0.92441  0.32419  0.70739  Biso   1.000  H
  H3364    1.0000 0.93390  0.32222  0.70521  Biso   1.000  H
  H3365    1.0000 0.00511  0.35600  0.70588  Biso   1.000  H
  H3366    1.0000 0.18439  0.25440  0.83419  Biso   1.000  H
  H3367    1.0000 0.14680  0.20301  0.85691  Biso   1.000  H
  C1854    1.0000 0.23098  0.23039  0.90451  Biso   1.000  C
  H3368    1.0000 0.13631  0.23391  0.86229  Biso   1.000  H
  C1855    1.0000 0.20900  0.22500  0.92328  Biso   1.000  C
  H3369    1.0000 0.12487  0.17951  0.89149  Biso   1.000  H
  C1856    1.0000 0.85330  0.92518  0.47411  Biso   1.000  C
  C1857    1.0000 0.85330  0.92522  0.47411  Biso   1.000  C
  H3370    1.0000 0.84671  0.60190  0.28170  Biso   1.000  H
  H3371    1.0000 0.88683  0.57029  0.32531  Biso   1.000  H
  H3372    1.0000 0.92610  0.58259  0.27331  Biso   1.000  H
  H3373    1.0000 0.92778  0.56241  0.29588  Biso   1.000  H
  H3374    1.0000 0.85820  0.59790  0.30059  Biso   1.000  H
  H3375    1.0000 0.87613  0.55490  0.34299  Biso   1.000  H
  C1858    1.0000 0.85330  0.07482  0.52589  Biso   1.000  C
  H3376    1.0000 0.79880  0.35881  0.31349  Biso   1.000  H
  H3377    1.0000 0.84260  0.30552  0.30450  Biso   1.000  H
  H3378    1.0000 0.85641  0.35608  0.26958  Biso   1.000  H
  H3379    1.0000 0.85641  0.35612  0.26958  Biso   1.000  H
  H3380    1.0000 0.81540  0.41630  0.30111  Biso   1.000  H
  H3381    1.0000 0.87671  0.39731  0.26390  Biso   1.000  H
  H3382    1.0000 0.89579  0.43019  0.31349  Biso   1.000  H
  H3383    1.0000 0.90238  0.89721  0.56321  Biso   1.000  H
  H3384    1.0000 0.88841  0.64669  0.62458  Biso   1.000  H
  H3385    1.0000 0.90348  0.59699  0.66028  Biso   1.000  H
  C1859    1.0000 0.84460  0.65571  0.69629  Biso   1.000  C
  C1860    1.0000 0.86400  0.59640  0.70081  Biso   1.000  C
  H3386    1.0000 0.86379  0.64471  0.63331  Biso   1.000  H
  H3387    1.0000 0.83728  0.67751  0.68180  Biso   1.000  H
  H3388    1.0000 0.32081  0.92202  0.85729  Biso   1.000  H
  H3389    1.0000 0.23842  0.91470  0.86790  Biso   1.000  H
  H3390    1.0000 0.26641  0.91901  0.81131  Biso   1.000  H
  H3391    1.0000 0.27558  0.85780  0.92938  Biso   1.000  H
  H3392    1.0000 0.32729  0.86520  0.88231  Biso   1.000  H
  H3393    1.0000 0.30541  0.80700  0.90041  Biso   1.000  H
  H3394    1.0000 0.94660  0.12202  0.58349  Biso   1.000  H
  H3395    1.0000 0.88488  0.33642  0.65550  Biso   1.000  H
  C1861    1.0000 0.89231  0.40392  0.70190  Biso   1.000  C
  C1862    1.0000 0.89621  0.41939  0.68049  Biso   1.000  C
  H3396    1.0000 0.90770  0.35739  0.62619  Biso   1.000  H
  H3397    1.0000 0.20299  0.25531  0.92430  Biso   1.000  H
  H3398    1.0000 0.27821  0.24542  0.89879  Biso   1.000  H
  H3399    1.0000 0.23562  0.19691  0.92279  Biso   1.000  H
  H3400    1.0000 0.23752  0.25480  0.91169  Biso   1.000  H
  H3401    1.0000 0.23958  0.19660  0.93540  Biso   1.000  H
  H3402    1.0000 0.17790  0.23672  0.95071  Biso   1.000  H
  N145     1.0000 0.81340  0.94291  0.50579  Biso   1.000  N
  H3403    1.0000 0.84450  0.93238  0.43950  Biso   1.000  H
  H3404    1.0000 0.84450  0.93242  0.43950  Biso   1.000  H
  N146     1.0000 0.81340  0.05709  0.49421  Biso   1.000  N
  H3405    1.0000 0.84450  0.06762  0.56050  Biso   1.000  H
  H3406    1.0000 0.79880  0.64119  0.68651  Biso   1.000  H
  H3407    1.0000 0.84260  0.69448  0.69550  Biso   1.000  H
  H3408    1.0000 0.85641  0.64392  0.73038  Biso   1.000  H
  H3409    1.0000 0.84260  0.69452  0.69550  Biso   1.000  H
  H3410    1.0000 0.81540  0.58370  0.69889  Biso   1.000  H
  H3411    1.0000 0.87671  0.60269  0.73610  Biso   1.000  H
  H3412    1.0000 0.89579  0.56981  0.68651  Biso   1.000  H
  H3413    1.0000 0.84671  0.39810  0.71830  Biso   1.000  H
  H3414    1.0000 0.88683  0.42971  0.67469  Biso   1.000  H
  H3415    1.0000 0.92610  0.41741  0.72669  Biso   1.000  H
  H3416    1.0000 0.92778  0.43759  0.70408  Biso   1.000  H
  H3417    1.0000 0.85820  0.40210  0.69941  Biso   1.000  H
  H3418    1.0000 0.87613  0.44510  0.65701  Biso   1.000  H
  C1863    1.0000 0.74988  0.97341  0.48758  Biso   1.000  C
  C1864    1.0000 0.74988  0.02659  0.51238  Biso   1.000  C
  H3419    1.0000 0.75009  0.97689  0.45011  Biso   1.000  H
  C1865    1.0000 0.68652  0.93860  0.50598  Biso   1.000  C
  C1866    1.0000 0.68172  0.94081  0.49959  Biso   1.000  C
  H3420    1.0000 0.75362  0.97840  0.45030  Biso   1.000  H
  H3421    1.0000 0.75009  0.02311  0.54989  Biso   1.000  H
  C1867    1.0000 0.68652  0.06140  0.49398  Biso   1.000  C
  C1868    1.0000 0.68172  0.05919  0.50041  Biso   1.000  C
  H3422    1.0000 0.75362  0.02160  0.54970  Biso   1.000  H
  H3423    1.0000 0.64251  0.95949  0.50508  Biso   1.000  H
  H3424    1.0000 0.69469  0.92720  0.54120  Biso   1.000  H
  C1869    1.0000 0.67898  0.88819  0.47080  Biso   1.000  C
  C1870    1.0000 0.69079  0.88051  0.49229  Biso   1.000  C
  H3425    1.0000 0.66760  0.94770  0.53480  Biso   1.000  H
  H3426    1.0000 0.64309  0.95331  0.47750  Biso   1.000  H
  H3427    1.0000 0.64251  0.04051  0.49488  Biso   1.000  H
  H3428    1.0000 0.69469  0.07280  0.45880  Biso   1.000  H
  C1871    1.0000 0.67898  0.11181  0.52920  Biso   1.000  C
  C1872    1.0000 0.69079  0.11949  0.50771  Biso   1.000  C
  H3429    1.0000 0.66760  0.05230  0.46520  Biso   1.000  H
  H3430    1.0000 0.64309  0.04669  0.52250  Biso   1.000  H
  H3431    1.0000 0.71673  0.86200  0.47739  Biso   1.000  H
  H3432    1.0000 0.67972  0.89808  0.43468  Biso   1.000  H
  C1873    1.0000 0.60171  0.86591  0.48788  Biso   1.000  C
  H3433    1.0000 0.67972  0.89812  0.43468  Biso   1.000  H
  H3434    1.0000 0.69311  0.87292  0.45579  Biso   1.000  H
  C1874    1.0000 0.63023  0.84590  0.51618  Biso   1.000  C
  H3435    1.0000 0.73628  0.86971  0.50730  Biso   1.000  H
  H3436    1.0000 0.71673  0.13800  0.52261  Biso   1.000  H
  H3437    1.0000 0.67972  0.10192  0.56528  Biso   1.000  H
  C1875    1.0000 0.60171  0.13409  0.51208  Biso   1.000  C
  H3438    1.0000 0.69311  0.12708  0.54421  Biso   1.000  H
  C1876    1.0000 0.63023  0.15410  0.48378  Biso   1.000  C
  H3439    1.0000 0.73628  0.13029  0.49270  Biso   1.000  H
  H3440    1.0000 0.60819  0.82781  0.49488  Biso   1.000  H
  H3441    1.0000 0.59122  0.88289  0.52058  Biso   1.000  H
  C1877    1.0000 0.53998  0.86991  0.45940  Biso   1.000  C
  H3442    1.0000 0.58832  0.84340  0.45459  Biso   1.000  H
  H3443    1.0000 0.55211  0.88079  0.49398  Biso   1.000  H
  C1878    1.0000 0.57071  0.84451  0.48958  Biso   1.000  C
  H3444    1.0000 0.64773  0.80930  0.52039  Biso   1.000  H
  H3445    1.0000 0.61952  0.86002  0.55008  Biso   1.000  H
  H3446    1.0000 0.60819  0.17219  0.50508  Biso   1.000  H
  H3447    1.0000 0.59122  0.11711  0.47938  Biso   1.000  H
  C1879    1.0000 0.53998  0.13009  0.54060  Biso   1.000  C
  H3448    1.0000 0.58832  0.15660  0.54541  Biso   1.000  H
  H3449    1.0000 0.55211  0.11921  0.50598  Biso   1.000  H
  C1880    1.0000 0.57071  0.15549  0.51038  Biso   1.000  C
  H3450    1.0000 0.64773  0.19070  0.47961  Biso   1.000  H
  H3451    1.0000 0.61952  0.14002  0.44988  Biso   1.000  H
  H3452    1.0000 0.55042  0.86481  0.42328  Biso   1.000  H
  H3453    1.0000 0.51821  0.90520  0.46399  Biso   1.000  H
  C1881    1.0000 0.48869  0.82508  0.47901  Biso   1.000  C
  C1882    1.0000 0.50409  0.81171  0.48661  Biso   1.000  C
  H3454    1.0000 0.55042  0.13519  0.57668  Biso   1.000  H
  H3455    1.0000 0.51821  0.09480  0.53601  Biso   1.000  H
  C1883    1.0000 0.48869  0.17492  0.52099  Biso   1.000  C
  C1884    1.0000 0.50409  0.18829  0.51339  Biso   1.000  C
  H3456    1.0000 0.44589  0.82481  0.45831  Biso   1.000  H
  H3457    1.0000 0.47610  0.83221  0.51411  Biso   1.000  H
  H3458    1.0000 0.51231  0.79070  0.47660  Biso   1.000  H
  H3459    1.0000 0.46882  0.83058  0.46659  Biso   1.000  H
  H3460    1.0000 0.48579  0.80562  0.52058  Biso   1.000  H
  H3461    1.0000 0.51468  0.77769  0.47069  Biso   1.000  H
  H3462    1.0000 0.44589  0.17519  0.54169  Biso   1.000  H
  H3463    1.0000 0.47610  0.16779  0.48589  Biso   1.000  H
  H3464    1.0000 0.51231  0.20930  0.52340  Biso   1.000  H
  H3465    1.0000 0.46882  0.16942  0.53341  Biso   1.000  H
  H3466    1.0000 0.48579  0.19438  0.47938  Biso   1.000  H
  H3467    1.0000 0.51468  0.22231  0.52931  Biso   1.000  H
  C1885    1.0000 0.29102  0.72499  0.57668  Biso   1.000  C
  C1886    1.0000 0.33899  0.70330  0.62281  Biso   1.000  C
  H3468    1.0000 0.29698  0.75529  0.57570  Biso   1.000  H
  H3469    1.0000 0.26440  0.69689  0.57721  Biso   1.000  H
  H3470    1.0000 0.26251  0.75482  0.58831  Biso   1.000  H
  H3471    1.0000 0.26040  0.69662  0.56460  Biso   1.000  H
  H3472    1.0000 0.32207  0.73670  0.54929  Biso   1.000  H
  C1887    1.0000 0.30299  0.67410  0.66491  Biso   1.000  C
  C1888    1.0000 0.30689  0.72000  0.64911  Biso   1.000  C
  H3473    1.0000 0.35317  0.70299  0.64309  Biso   1.000  H
  C1889    1.0000 0.26899  0.73041  0.59549  Biso   1.000  C
  H3474    1.0000 0.36371  0.73389  0.63771  Biso   1.000  H
  H3475    1.0000 0.37510  0.67949  0.60851  Biso   1.000  H
  C1890    1.0000 0.31938  0.65812  0.72022  Biso   1.000  C
  C1891    1.0000 0.31938  0.65812  0.72018  Biso   1.000  C
  C1892    1.0000 0.34800  0.65132  0.70980  Biso   1.000  C
  C1893    1.0000 0.26261  0.68439  0.68459  Biso   1.000  C
  H3476    1.0000 0.27700  0.64411  0.64971  Biso   1.000  H
  H3477    1.0000 0.26720  0.69820  0.67940  Biso   1.000  H
  H3478    1.0000 0.31559  0.75442  0.66581  Biso   1.000  H
  H3479    1.0000 0.31559  0.75442  0.66578  Biso   1.000  H
  H3480    1.0000 0.22181  0.74540  0.60121  Biso   1.000  H
  C1894    1.0000 0.34569  0.69871  0.76142  Biso   1.000  C
  C1895    1.0000 0.34569  0.69871  0.76138  Biso   1.000  C
  C1896    1.0000 0.36308  0.69230  0.75088  Biso   1.000  C
  H3481    1.0000 0.35997  0.64609  0.69979  Biso   1.000  H
  H3482    1.0000 0.29861  0.62679  0.73689  Biso   1.000  H
  H3483    1.0000 0.32191  0.62121  0.72500  Biso   1.000  H
  H3484    1.0000 0.39292  0.63771  0.69648  Biso   1.000  H
  H3485    1.0000 0.22861  0.70572  0.70419  Biso   1.000  H
  H3486    1.0000 0.23657  0.65721  0.66529  Biso   1.000  H
  C1897    1.0000 0.39302  0.67141  0.80021  Biso   1.000  C
  H3487    1.0000 0.37231  0.72760  0.74490  Biso   1.000  H
  H3488    1.0000 0.30452  0.71450  0.77861  Biso   1.000  H
  H3489    1.0000 0.30452  0.71450  0.77858  Biso   1.000  H
  H3490    1.0000 0.31880  0.71141  0.75841  Biso   1.000  H
  H3491    1.0000 0.39682  0.71850  0.73708  Biso   1.000  H
  N147     1.0000 0.35048  0.63122  0.82651  Biso   1.000  N
  C1898    1.0000 0.41621  0.71189  0.83972  Biso   1.000  C
  H3492    1.0000 0.43482  0.65492  0.78362  Biso   1.000  H
  C1899    1.0000 0.41621  0.71189  0.83968  Biso   1.000  C
  H3493    1.0000 0.43482  0.65492  0.78358  Biso   1.000  H
  H3494    1.0000 0.43730  0.65262  0.79039  Biso   1.000  H
  C1900    1.0000 0.36677  0.58409  0.82320  Biso   1.000  C
  N148     1.0000 0.46002  0.68380  0.87670  Biso   1.000  N
  H3495    1.0000 0.37310  0.72499  0.85729  Biso   1.000  H
  C1901    1.0000 0.45817  0.76012  0.82139  Biso   1.000  C
  C1902    1.0000 0.46308  0.74809  0.80879  Biso   1.000  C
  H3496    1.0000 0.37557  0.73100  0.85541  Biso   1.000  H
  C1903    1.0000 0.32692  0.54101  0.84799  Biso   1.000  C
  H3497    1.0000 0.40710  0.57500  0.80371  Biso   1.000  H
  C1904    1.0000 0.44141  0.68621  0.92242  Biso   1.000  C
  C1905    1.0000 0.44141  0.68621  0.92238  Biso   1.000  C
  H3498    1.0000 0.42897  0.78022  0.79720  Biso   1.000  H
  H3499    1.0000 0.50061  0.74762  0.80330  Biso   1.000  H
  C1906    1.0000 0.48210  0.79889  0.86549  Biso   1.000  C
  C1907    1.0000 0.48901  0.79102  0.84480  Biso   1.000  C
  H3500    1.0000 0.43619  0.76400  0.78068  Biso   1.000  H
  H3501    1.0000 0.50351  0.72811  0.79472  Biso   1.000  H
  C1908    1.0000 0.34279  0.48961  0.84070  Biso   1.000  C
  C1909    1.0000 0.26830  0.55371  0.87949  Biso   1.000  C
  C1910    1.0000 0.48558  0.66042  0.96200  Biso   1.000  C
  H3502    1.0000 0.39940  0.70441  0.93148  Biso   1.000  H
  H3503    1.0000 0.44162  0.80491  0.88822  Biso   1.000  H
  H3504    1.0000 0.51969  0.78140  0.88532  Biso   1.000  H
  C1911    1.0000 0.51078  0.85500  0.84611  Biso   1.000  C
  H3505    1.0000 0.44162  0.80491  0.88818  Biso   1.000  H
  H3506    1.0000 0.51969  0.78140  0.88528  Biso   1.000  H
  C1912    1.0000 0.51078  0.85500  0.84608  Biso   1.000  C
  H3507    1.0000 0.52127  0.77492  0.86982  Biso   1.000  H
  H3508    1.0000 0.44821  0.80570  0.86331  Biso   1.000  H
  C1913    1.0000 0.52881  0.83759  0.81639  Biso   1.000  C
  C1914    1.0000 0.30209  0.44961  0.85988  Biso   1.000  C
  H3509    1.0000 0.38348  0.48079  0.82169  Biso   1.000  H
  C1915    1.0000 0.22761  0.51442  0.90029  Biso   1.000  C
  H3510    1.0000 0.25729  0.58979  0.88600  Biso   1.000  H
  C1916    1.0000 0.54262  0.62912  0.95071  Biso   1.000  C
  C1917    1.0000 0.46951  0.66920  0.01230  Biso   1.000  C
  H3511    1.0000 0.47599  0.87050  0.82248  Biso   1.000  H
  H3512    1.0000 0.51547  0.87929  0.87508  Biso   1.000  H
  C1918    1.0000 0.57989  0.85021  0.82030  Biso   1.000  C
  C1919    1.0000 0.56038  0.87581  0.85010  Biso   1.000  C
  H3513    1.0000 0.52290  0.89341  0.86989  Biso   1.000  H
  H3514    1.0000 0.57562  0.82421  0.79261  Biso   1.000  H
  H3515    1.0000 0.56607  0.82220  0.79479  Biso   1.000  H
  H3516    1.0000 0.49491  0.85598  0.79412  Biso   1.000  H
  C1920    1.0000 0.31569  0.39209  0.84909  Biso   1.000  C
  C1921    1.0000 0.24448  0.46192  0.88991  Biso   1.000  C
  C1922    1.0000 0.16499  0.52831  0.93032  Biso   1.000  C
  C1923    1.0000 0.16499  0.52831  0.93028  Biso   1.000  C
  C1924    1.0000 0.58458  0.60752  0.98819  Biso   1.000  C
  H3517    1.0000 0.55337  0.62200  0.91651  Biso   1.000  H
  C1925    1.0000 0.51110  0.64910  0.05068  Biso   1.000  C
  H3518    1.0000 0.42897  0.68950  0.02051  Biso   1.000  H
  H3519    1.0000 0.61510  0.83640  0.84450  Biso   1.000  H
  C1926    1.0000 0.60772  0.90390  0.79810  Biso   1.000  C
  C1927    1.0000 0.60382  0.91941  0.81951  Biso   1.000  C
  H3520    1.0000 0.59227  0.85741  0.87381  Biso   1.000  H
  N149     1.0000 0.36371  0.37618  0.82090  Biso   1.000  N
  H3521    1.0000 0.28612  0.36661  0.86451  Biso   1.000  H
  H3522    1.0000 0.21638  0.43430  0.90349  Biso   1.000  H
  N150     1.0000 0.12540  0.49420  0.94811  Biso   1.000  N
  H3523    1.0000 0.15482  0.56459  0.93611  Biso   1.000  H
  N151     1.0000 0.12540  0.49420  0.94808  Biso   1.000  N
  H3524    1.0000 0.15482  0.56459  0.93607  Biso   1.000  H
  C1928    1.0000 0.64667  0.57480  0.97411  Biso   1.000  C
  C1929    1.0000 0.64667  0.57480  0.97408  Biso   1.000  C
  C1930    1.0000 0.56887  0.61749  0.03751  Biso   1.000  C
  C1931    1.0000 0.56887  0.61749  0.03747  Biso   1.000  C
  C1932    1.0000 0.49528  0.65931  0.10339  Biso   1.000  C
  H3525    1.0000 0.65331  0.89812  0.78170  Biso   1.000  H
  H3526    1.0000 0.61320  0.92969  0.82531  Biso   1.000  H
  H3527    1.0000 0.57388  0.91739  0.77331  Biso   1.000  H
  H3528    1.0000 0.57219  0.93761  0.79588  Biso   1.000  H
  H3529    1.0000 0.64177  0.90212  0.80059  Biso   1.000  H
  H3530    1.0000 0.62390  0.94508  0.84299  Biso   1.000  H
  C1933    1.0000 0.36862  0.31992  0.80999  Biso   1.000  C
  C1934    1.0000 0.06030  0.51058  0.97411  Biso   1.000  C
  C1935    1.0000 0.06030  0.51058  0.97408  Biso   1.000  C
  N152     1.0000 0.68657  0.55711  0.00579  Biso   1.000  N
  H3531    1.0000 0.65547  0.56760  0.93950  Biso   1.000  H
  H3532    1.0000 0.59760  0.60281  0.06321  Biso   1.000  H
  N153     1.0000 0.44589  0.68961  0.11803  Biso   1.000  N
  H3533    1.0000 0.52338  0.64229  0.12819  Biso   1.000  H
  C1936    1.0000 0.35090  0.30651  0.75551  Biso   1.000  C
  C1937    1.0000 0.36398  0.31652  0.75310  Biso   1.000  C
  H3534    1.0000 0.33187  0.30220  0.83121  Biso   1.000  H
  C1938    1.0000 0.43920  0.29939  0.82862  Biso   1.000  C
  H3535    1.0000 0.33187  0.30220  0.83118  Biso   1.000  H
  C1939    1.0000 0.43920  0.29939  0.82858  Biso   1.000  C
  H3536    1.0000 0.32887  0.30010  0.82610  Biso   1.000  H
  H3537    1.0000 0.05941  0.55011  0.97588  Biso   1.000  H
  H3538    1.0000 0.06178  0.54999  0.97701  Biso   1.000  H
  C1940    1.0000 0.99800  0.49199  0.94059  Biso   1.000  C
  C1941    1.0000 0.98998  0.49701  0.95150  Biso   1.000  C
  C1942    1.0000 0.06030  0.48942  0.02589  Biso   1.000  C
  C1943    1.0000 0.75009  0.52661  0.98758  Biso   1.000  C
  C1944    1.0000 0.43920  0.70061  0.17138  Biso   1.000  C
  C1945    1.0000 0.27732  0.32799  0.73700  Biso   1.000  C
  C1946    1.0000 0.29002  0.33630  0.73538  Biso   1.000  C
  H3539    1.0000 0.35138  0.26750  0.75160  Biso   1.000  H
  H3540    1.0000 0.38817  0.32119  0.73361  Biso   1.000  H
  H3541    1.0000 0.38817  0.32119  0.73358  Biso   1.000  H
  H3542    1.0000 0.37120  0.27949  0.74208  Biso   1.000  H
  H3543    1.0000 0.40140  0.33860  0.73768  Biso   1.000  H
  N154     1.0000 0.44589  0.31039  0.88197  Biso   1.000  N
  H3544    1.0000 0.47831  0.31719  0.80981  Biso   1.000  H
  C1947    1.0000 0.44420  0.23881  0.82151  Biso   1.000  C
  C1948    1.0000 0.45801  0.24111  0.81801  Biso   1.000  C
  H3545    1.0000 0.47599  0.32119  0.81139  Biso   1.000  H
  H3546    1.0000 0.00090  0.45302  0.93709  Biso   1.000  H
  H3547    1.0000 0.95351  0.50010  0.95831  Biso   1.000  H
  C1949    1.0000 0.99399  0.51561  0.88852  Biso   1.000  C
  C1950    1.0000 0.99399  0.51561  0.88848  Biso   1.000  C
  C1951    1.0000 0.98002  0.52099  0.89980  Biso   1.000  C
  H3548    1.0000 0.98619  0.45761  0.94849  Biso   1.000  H
  H3549    1.0000 0.95193  0.50868  0.97430  Biso   1.000  H
  C1952    1.0000 0.99800  0.50801  0.05941  Biso   1.000  C
  C1953    1.0000 0.98998  0.50299  0.04850  Biso   1.000  C
  N155     1.0000 0.12540  0.50580  0.05189  Biso   1.000  N
  H3550    1.0000 0.05941  0.44989  0.02412  Biso   1.000  H
  H3551    1.0000 0.05941  0.44989  0.02408  Biso   1.000  H
  H3552    1.0000 0.06178  0.45001  0.02299  Biso   1.000  H
  C1954    1.0000 0.75009  0.47339  0.01242  Biso   1.000  C
  C1955    1.0000 0.75009  0.47339  0.01238  Biso   1.000  C
  H3553    1.0000 0.74988  0.52309  0.95011  Biso   1.000  H
  C1956    1.0000 0.81830  0.55921  0.99959  Biso   1.000  C
  H3554    1.0000 0.74640  0.52158  0.95030  Biso   1.000  H
  C1957    1.0000 0.81350  0.56138  0.00598  Biso   1.000  C
  C1958    1.0000 0.36862  0.68012  0.19001  Biso   1.000  C
  H3555    1.0000 0.47831  0.68281  0.19019  Biso   1.000  H
  C1959    1.0000 0.44420  0.76119  0.17849  Biso   1.000  C
  C1960    1.0000 0.45801  0.75889  0.18199  Biso   1.000  C
  H3556    1.0000 0.47599  0.67881  0.18861  Biso   1.000  H
  C1961    1.0000 0.28322  0.32570  0.67578  Biso   1.000  C
  C1962    1.0000 0.25592  0.31759  0.68568  Biso   1.000  C
  H3557    1.0000 0.26931  0.36471  0.74870  Biso   1.000  H
  H3558    1.0000 0.23831  0.30528  0.74919  Biso   1.000  H
  H3559    1.0000 0.25650  0.32772  0.76259  Biso   1.000  H
  H3560    1.0000 0.29282  0.37539  0.73369  Biso   1.000  H
  C1963    1.0000 0.49528  0.34069  0.89661  Biso   1.000  C
  H3561    1.0000 0.40757  0.22129  0.84209  Biso   1.000  H
  H3562    1.0000 0.43530  0.22991  0.78580  Biso   1.000  H
  C1964    1.0000 0.51732  0.21808  0.83701  Biso   1.000  C
  C1965    1.0000 0.53297  0.22500  0.83400  Biso   1.000  C
  H3563    1.0000 0.42428  0.21832  0.83641  Biso   1.000  H
  H3564    1.0000 0.45259  0.23418  0.78189  Biso   1.000  H
  H3565    1.0000 0.03400  0.50231  0.86820  Biso   1.000  H
  H3566    1.0000 0.01850  0.51019  0.87749  Biso   1.000  H
  H3567    1.0000 0.99868  0.55450  0.89100  Biso   1.000  H
  C1966    1.0000 0.92568  0.50251  0.86180  Biso   1.000  C
  C1967    1.0000 0.90702  0.50599  0.87478  Biso   1.000  C
  H3568    1.0000 0.98181  0.56040  0.90308  Biso   1.000  H
  H3569    1.0000 0.95351  0.49990  0.04169  Biso   1.000  H
  C1968    1.0000 0.99399  0.48439  0.11148  Biso   1.000  C
  C1969    1.0000 0.98002  0.47901  0.10020  Biso   1.000  C
  H3570    1.0000 0.98619  0.54239  0.05151  Biso   1.000  H
  H3571    1.0000 0.00090  0.54698  0.06291  Biso   1.000  H
  H3572    1.0000 0.95193  0.49132  0.02570  Biso   1.000  H
  C1970    1.0000 0.16499  0.47169  0.06968  Biso   1.000  C
  N156     1.0000 0.68657  0.44289  0.99421  Biso   1.000  N
  C1971    1.0000 0.81350  0.43862  0.99402  Biso   1.000  C
  C1972    1.0000 0.81350  0.43862  0.99398  Biso   1.000  C
  H3573    1.0000 0.74988  0.47691  0.04989  Biso   1.000  H
  C1973    1.0000 0.81830  0.44079  0.00038  Biso   1.000  C
  H3574    1.0000 0.74640  0.47842  0.04970  Biso   1.000  H
  C1974    1.0000 0.82099  0.61179  0.97080  Biso   1.000  C
  C1975    1.0000 0.80918  0.61951  0.99229  Biso   1.000  C
  H3575    1.0000 0.85689  0.54671  0.97750  Biso   1.000  H
  H3576    1.0000 0.85747  0.54049  0.00512  Biso   1.000  H
  H3577    1.0000 0.80528  0.57282  0.04120  Biso   1.000  H
  H3578    1.0000 0.85747  0.54049  0.00508  Biso   1.000  H
  H3579    1.0000 0.83238  0.55228  0.03480  Biso   1.000  H
  N157     1.0000 0.36371  0.62382  0.17910  Biso   1.000  N
  H3580    1.0000 0.33187  0.69780  0.16879  Biso   1.000  H
  C1976    1.0000 0.35090  0.69349  0.24449  Biso   1.000  C
  C1977    1.0000 0.36398  0.68352  0.24690  Biso   1.000  C
  H3581    1.0000 0.32887  0.69990  0.17390  Biso   1.000  H
  H3582    1.0000 0.40757  0.77871  0.15791  Biso   1.000  H
  H3583    1.0000 0.43530  0.77009  0.21420  Biso   1.000  H
  C1978    1.0000 0.51732  0.78192  0.16299  Biso   1.000  C
  H3584    1.0000 0.40757  0.77871  0.15787  Biso   1.000  H
  C1979    1.0000 0.53297  0.77500  0.16600  Biso   1.000  C
  H3585    1.0000 0.42428  0.78172  0.16359  Biso   1.000  H
  H3586    1.0000 0.45259  0.76582  0.21811  Biso   1.000  H
  C1980    1.0000 0.21412  0.34671  0.65678  Biso   1.000  C
  C1981    1.0000 0.27932  0.34508  0.64158  Biso   1.000  C
  H3587    1.0000 0.32281  0.34781  0.66382  Biso   1.000  H
  H3588    1.0000 0.32281  0.34781  0.66378  Biso   1.000  H
  H3589    1.0000 0.29071  0.28890  0.66420  Biso   1.000  H
  H3590    1.0000 0.26588  0.27941  0.68128  Biso   1.000  H
  H3591    1.0000 0.20421  0.32170  0.68858  Biso   1.000  H
  C1982    1.0000 0.51110  0.35090  0.94932  Biso   1.000  C
  H3592    1.0000 0.52338  0.35771  0.87181  Biso   1.000  H
  C1983    1.0000 0.51110  0.35090  0.94928  Biso   1.000  C
  H3593    1.0000 0.55390  0.23660  0.81710  Biso   1.000  H
  H3594    1.0000 0.52549  0.22631  0.87290  Biso   1.000  H
  C1984    1.0000 0.52501  0.15810  0.82892  Biso   1.000  C
  C1985    1.0000 0.52501  0.15810  0.82888  Biso   1.000  C
  C1986    1.0000 0.55247  0.16752  0.81951  Biso   1.000  C
  H3595    1.0000 0.53719  0.22920  0.87049  Biso   1.000  H
  H3596    1.0000 0.56660  0.24942  0.81759  Biso   1.000  H
  H3597    1.0000 0.91961  0.46362  0.86169  Biso   1.000  H
  H3598    1.0000 0.88609  0.51778  0.88122  Biso   1.000  H
  C1987    1.0000 0.92098  0.52210  0.80841  Biso   1.000  C
  H3599    1.0000 0.88609  0.51778  0.88118  Biso   1.000  H
  C1988    1.0000 0.92098  0.52210  0.80838  Biso   1.000  C
  C1989    1.0000 0.90401  0.53401  0.82470  Biso   1.000  C
  H3600    1.0000 0.90438  0.46679  0.86948  Biso   1.000  H
  H3601    1.0000 0.86690  0.51640  0.89649  Biso   1.000  H
  H3602    1.0000 0.99868  0.44550  0.10900  Biso   1.000  H
  C1990    1.0000 0.92568  0.49749  0.13820  Biso   1.000  C
  C1991    1.0000 0.90702  0.49401  0.12522  Biso   1.000  C
  H3603    1.0000 0.98181  0.43960  0.09688  Biso   1.000  H
  H3604    1.0000 0.03400  0.49769  0.13180  Biso   1.000  H
  H3605    1.0000 0.01850  0.48981  0.12251  Biso   1.000  H
  C1992    1.0000 0.22761  0.48562  0.09971  Biso   1.000  C
  H3606    1.0000 0.15482  0.43541  0.06389  Biso   1.000  H
  C1993    1.0000 0.64667  0.42520  0.02589  Biso   1.000  C
  H3607    1.0000 0.85747  0.45951  0.99488  Biso   1.000  H
  H3608    1.0000 0.80528  0.42722  0.95880  Biso   1.000  H
  H3609    1.0000 0.83238  0.44772  0.96520  Biso   1.000  H
  C1994    1.0000 0.82099  0.38821  0.02920  Biso   1.000  C
  C1995    1.0000 0.80918  0.38049  0.00768  Biso   1.000  C
  H3610    1.0000 0.85689  0.45329  0.02250  Biso   1.000  H
  H3611    1.0000 0.78330  0.63802  0.97739  Biso   1.000  H
  H3612    1.0000 0.82030  0.60190  0.93468  Biso   1.000  H
  C1996    1.0000 0.89827  0.63410  0.98788  Biso   1.000  C
  H3613    1.0000 0.80692  0.62710  0.95579  Biso   1.000  H
  C1997    1.0000 0.86980  0.65409  0.01622  Biso   1.000  C
  H3614    1.0000 0.76369  0.63031  0.00730  Biso   1.000  H
  C1998    1.0000 0.31569  0.60791  0.15091  Biso   1.000  C
  C1999    1.0000 0.31569  0.60791  0.15088  Biso   1.000  C
  H3615    1.0000 0.35138  0.73250  0.24840  Biso   1.000  H
  H3616    1.0000 0.38817  0.67881  0.26639  Biso   1.000  H
  C2000    1.0000 0.27732  0.67201  0.26300  Biso   1.000  C
  C2001    1.0000 0.29002  0.66370  0.26458  Biso   1.000  C
  H3617    1.0000 0.37120  0.72051  0.25788  Biso   1.000  H
  H3618    1.0000 0.40140  0.66140  0.26228  Biso   1.000  H
  H3619    1.0000 0.55390  0.76340  0.18290  Biso   1.000  H
  H3620    1.0000 0.52549  0.77369  0.12710  Biso   1.000  H
  C2002    1.0000 0.52501  0.84190  0.17108  Biso   1.000  C
  C2003    1.0000 0.55247  0.83252  0.18049  Biso   1.000  C
  H3621    1.0000 0.53719  0.77080  0.12951  Biso   1.000  H
  H3622    1.0000 0.56660  0.75058  0.18241  Biso   1.000  H
  C2004    1.0000 0.21080  0.34362  0.60351  Biso   1.000  C
  H3623    1.0000 0.20357  0.33250  0.62292  Biso   1.000  H
  H3624    1.0000 0.20357  0.33250  0.62288  Biso   1.000  H
  H3625    1.0000 0.17521  0.33689  0.67981  Biso   1.000  H
  C2005    1.0000 0.22292  0.40570  0.65490  Biso   1.000  C
  H3626    1.0000 0.32028  0.32700  0.62631  Biso   1.000  H
  H3627    1.0000 0.29250  0.38200  0.64979  Biso   1.000  H
  C2006    1.0000 0.56887  0.38251  0.96249  Biso   1.000  C
  C2007    1.0000 0.46951  0.33080  0.98770  Biso   1.000  C
  H3628    1.0000 0.51352  0.14991  0.79351  Biso   1.000  H
  H3629    1.0000 0.49001  0.13970  0.85040  Biso   1.000  H
  C2008    1.0000 0.59828  0.13618  0.84081  Biso   1.000  C
  H3630    1.0000 0.51352  0.14991  0.79348  Biso   1.000  H
  H3631    1.0000 0.54341  0.16269  0.78309  Biso   1.000  H
  C2009    1.0000 0.62901  0.15058  0.83031  Biso   1.000  C
  H3632    1.0000 0.52048  0.14330  0.83780  Biso   1.000  H
  H3633    1.0000 0.95440  0.50239  0.78682  Biso   1.000  H
  H3634    1.0000 0.93342  0.56012  0.80698  Biso   1.000  H
  C2010    1.0000 0.84213  0.51339  0.78889  Biso   1.000  C
  H3635    1.0000 0.95440  0.50239  0.78678  Biso   1.000  H
  H3636    1.0000 0.94228  0.56051  0.82279  Biso   1.000  H
  C2011    1.0000 0.83101  0.56301  0.81899  Biso   1.000  C
  H3637    1.0000 0.90970  0.50868  0.79690  Biso   1.000  H
  H3638    1.0000 0.91961  0.53642  0.13831  Biso   1.000  H
  H3639    1.0000 0.88609  0.48222  0.11878  Biso   1.000  H
  C2012    1.0000 0.92098  0.47790  0.19159  Biso   1.000  C
  C2013    1.0000 0.90401  0.46599  0.17530  Biso   1.000  C
  H3640    1.0000 0.90438  0.53321  0.13048  Biso   1.000  H
  H3641    1.0000 0.86690  0.48360  0.10351  Biso   1.000  H
  C2014    1.0000 0.24448  0.53812  0.11009  Biso   1.000  C
  C2015    1.0000 0.26830  0.44629  0.12051  Biso   1.000  C
  C2016    1.0000 0.26830  0.44629  0.12048  Biso   1.000  C
  C2017    1.0000 0.58458  0.39248  0.01181  Biso   1.000  C
  C2018    1.0000 0.58458  0.39248  0.01178  Biso   1.000  C
  H3642    1.0000 0.65547  0.43240  0.06050  Biso   1.000  H
  H3643    1.0000 0.78330  0.36202  0.02261  Biso   1.000  H
  H3644    1.0000 0.82030  0.39810  0.06532  Biso   1.000  H
  C2019    1.0000 0.89827  0.36590  0.01212  Biso   1.000  C
  H3645    1.0000 0.78330  0.36202  0.02258  Biso   1.000  H
  H3646    1.0000 0.82030  0.39810  0.06528  Biso   1.000  H
  C2020    1.0000 0.89827  0.36590  0.01208  Biso   1.000  C
  H3647    1.0000 0.80692  0.37290  0.04421  Biso   1.000  H
  C2021    1.0000 0.86980  0.34591  0.98378  Biso   1.000  C
  H3648    1.0000 0.76369  0.36969  0.99270  Biso   1.000  H
  H3649    1.0000 0.89178  0.67221  0.99488  Biso   1.000  H
  C2022    1.0000 0.95999  0.63011  0.95940  Biso   1.000  C
  H3650    1.0000 0.91171  0.65662  0.95459  Biso   1.000  H
  H3651    1.0000 0.94787  0.61919  0.99402  Biso   1.000  H
  H3652    1.0000 0.90881  0.61709  0.02062  Biso   1.000  H
  H3653    1.0000 0.90881  0.61709  0.02058  Biso   1.000  H
  C2023    1.0000 0.92931  0.65551  0.98962  Biso   1.000  C
  H3654    1.0000 0.85230  0.69072  0.02039  Biso   1.000  H
  H3655    1.0000 0.88050  0.64000  0.05012  Biso   1.000  H
  C2024    1.0000 0.30209  0.55039  0.14012  Biso   1.000  C
  C2025    1.0000 0.30209  0.55039  0.14008  Biso   1.000  C
  H3656    1.0000 0.28612  0.63339  0.13549  Biso   1.000  H
  H3657    1.0000 0.26931  0.63529  0.25130  Biso   1.000  H
  H3658    1.0000 0.23831  0.69472  0.25081  Biso   1.000  H
  C2026    1.0000 0.28322  0.67430  0.32422  Biso   1.000  C
  C2027    1.0000 0.28322  0.67430  0.32418  Biso   1.000  C
  C2028    1.0000 0.25592  0.68241  0.31428  Biso   1.000  C
  H3659    1.0000 0.25650  0.67228  0.23741  Biso   1.000  H
  H3660    1.0000 0.29282  0.62461  0.26631  Biso   1.000  H
  H3661    1.0000 0.51352  0.85009  0.20649  Biso   1.000  H
  H3662    1.0000 0.49001  0.86030  0.14960  Biso   1.000  H
  C2029    1.0000 0.59828  0.86382  0.15919  Biso   1.000  C
  H3663    1.0000 0.54341  0.83731  0.21691  Biso   1.000  H
  C2030    1.0000 0.62901  0.84942  0.16969  Biso   1.000  C
  H3664    1.0000 0.52048  0.85670  0.16220  Biso   1.000  H
  H3665    1.0000 0.22440  0.35778  0.57058  Biso   1.000  H
  H3666    1.0000 0.17268  0.36518  0.61769  Biso   1.000  H
  H3667    1.0000 0.19461  0.30698  0.59959  Biso   1.000  H
  H3668    1.0000 0.17922  0.42200  0.64271  Biso   1.000  H
  H3669    1.0000 0.26161  0.41472  0.63210  Biso   1.000  H
  H3670    1.0000 0.23362  0.41899  0.68869  Biso   1.000  H
  H3671    1.0000 0.59760  0.39719  0.93679  Biso   1.000  H
  H3672    1.0000 0.42897  0.31050  0.97949  Biso   1.000  H
  C2031    1.0000 0.48558  0.33958  0.03800  Biso   1.000  C
  H3673    1.0000 0.61162  0.14671  0.87539  Biso   1.000  H
  H3674    1.0000 0.59649  0.09701  0.83972  Biso   1.000  H
  C2032    1.0000 0.65537  0.15569  0.80371  Biso   1.000  C
  H3675    1.0000 0.59649  0.09701  0.83968  Biso   1.000  H
  C2033    1.0000 0.63597  0.09642  0.79919  Biso   1.000  C
  H3676    1.0000 0.63618  0.14469  0.86669  Biso   1.000  H
  H3677    1.0000 0.66270  0.17749  0.81820  Biso   1.000  H
  H3678    1.0000 0.83812  0.52609  0.75412  Biso   1.000  H
  H3679    1.0000 0.80939  0.53329  0.81029  Biso   1.000  H
  H3680    1.0000 0.83032  0.47569  0.79020  Biso   1.000  H
  H3681    1.0000 0.83812  0.52609  0.75408  Biso   1.000  H
  H3682    1.0000 0.82958  0.58121  0.78588  Biso   1.000  H
  H3683    1.0000 0.82600  0.58959  0.84559  Biso   1.000  H
  H3684    1.0000 0.79289  0.53749  0.82079  Biso   1.000  H
  H3685    1.0000 0.95440  0.49761  0.21318  Biso   1.000  H
  H3686    1.0000 0.93342  0.43992  0.19302  Biso   1.000  H
  C2034    1.0000 0.84213  0.48661  0.21111  Biso   1.000  C
  H3687    1.0000 0.93342  0.43992  0.19298  Biso   1.000  H
  C2035    1.0000 0.84213  0.48661  0.21108  Biso   1.000  C
  H3688    1.0000 0.94228  0.43949  0.17721  Biso   1.000  H
  C2036    1.0000 0.83101  0.43699  0.18101  Biso   1.000  C
  H3689    1.0000 0.90970  0.49132  0.20310  Biso   1.000  H
  H3690    1.0000 0.21638  0.56570  0.09651  Biso   1.000  H
  C2037    1.0000 0.32692  0.45899  0.15201  Biso   1.000  C
  H3691    1.0000 0.25729  0.41021  0.11400  Biso   1.000  H
  C2038    1.0000 0.54262  0.37092  0.04929  Biso   1.000  C
  H3692    1.0000 0.90881  0.38291  0.97938  Biso   1.000  H
  H3693    1.0000 0.89178  0.32779  0.00512  Biso   1.000  H
  C2039    1.0000 0.95999  0.36989  0.04060  Biso   1.000  C
  H3694    1.0000 0.89178  0.32779  0.00508  Biso   1.000  H
  H3695    1.0000 0.91171  0.34338  0.04538  Biso   1.000  H
  H3696    1.0000 0.94787  0.38081  0.00598  Biso   1.000  H
  H3697    1.0000 0.85230  0.30932  0.97961  Biso   1.000  H
  H3698    1.0000 0.88050  0.36000  0.94988  Biso   1.000  H
  C2040    1.0000 0.92931  0.34449  0.01038  Biso   1.000  C
  H3699    1.0000 0.94961  0.63521  0.92328  Biso   1.000  H
  H3700    1.0000 0.98181  0.59482  0.96399  Biso   1.000  H
  C2041    1.0000 0.01128  0.67490  0.97901  Biso   1.000  C
  C2042    1.0000 0.99589  0.68831  0.98661  Biso   1.000  C
  C2043    1.0000 0.34279  0.51039  0.15930  Biso   1.000  C
  H3701    1.0000 0.32281  0.65219  0.33618  Biso   1.000  H
  H3702    1.0000 0.29071  0.71110  0.33580  Biso   1.000  H
  C2044    1.0000 0.21412  0.65329  0.34322  Biso   1.000  C
  C2045    1.0000 0.21412  0.65329  0.34318  Biso   1.000  C
  C2046    1.0000 0.27932  0.65492  0.35838  Biso   1.000  C
  H3703    1.0000 0.26588  0.72059  0.31868  Biso   1.000  H
  H3704    1.0000 0.20421  0.67830  0.31139  Biso   1.000  H
  H3705    1.0000 0.61162  0.85329  0.12461  Biso   1.000  H
  H3706    1.0000 0.59649  0.90299  0.16028  Biso   1.000  H
  C2047    1.0000 0.65537  0.84431  0.19629  Biso   1.000  C
  H3707    1.0000 0.61162  0.85329  0.12458  Biso   1.000  H
  C2048    1.0000 0.63597  0.90362  0.20081  Biso   1.000  C
  H3708    1.0000 0.63618  0.85531  0.13331  Biso   1.000  H
  H3709    1.0000 0.66270  0.82251  0.18180  Biso   1.000  H
  C2049    1.0000 0.44141  0.31379  0.07758  Biso   1.000  C
  H3710    1.0000 0.70118  0.14121  0.81349  Biso   1.000  H
  H3711    1.0000 0.65737  0.19450  0.80450  Biso   1.000  H
  H3712    1.0000 0.64361  0.14390  0.76958  Biso   1.000  H
  H3713    1.0000 0.68457  0.08372  0.80108  Biso   1.000  H
  H3714    1.0000 0.62327  0.10271  0.76390  Biso   1.000  H
  H3715    1.0000 0.60419  0.06979  0.81349  Biso   1.000  H
  H3716    1.0000 0.83812  0.47391  0.24588  Biso   1.000  H
  H3717    1.0000 0.80939  0.46671  0.18971  Biso   1.000  H
  H3718    1.0000 0.83032  0.52431  0.20980  Biso   1.000  H
  H3719    1.0000 0.82958  0.41879  0.21409  Biso   1.000  H
  H3720    1.0000 0.82600  0.41041  0.15441  Biso   1.000  H
  H3721    1.0000 0.79289  0.46251  0.17921  Biso   1.000  H
  C2050    1.0000 0.36677  0.41591  0.17680  Biso   1.000  C
  H3722    1.0000 0.55337  0.37800  0.08349  Biso   1.000  H
  H3723    1.0000 0.94961  0.36479  0.07672  Biso   1.000  H
  H3724    1.0000 0.98181  0.40518  0.03601  Biso   1.000  H
  H3725    1.0000 0.94961  0.36479  0.07668  Biso   1.000  H
  C2051    1.0000 0.01128  0.32510  0.02099  Biso   1.000  C
  C2052    1.0000 0.99589  0.31169  0.01339  Biso   1.000  C
  H3726    1.0000 0.98767  0.70932  0.97660  Biso   1.000  H
  H3727    1.0000 0.05408  0.67521  0.95831  Biso   1.000  H
  H3728    1.0000 0.03121  0.66940  0.96659  Biso   1.000  H
  H3729    1.0000 0.02388  0.66781  0.01411  Biso   1.000  H
  H3730    1.0000 0.01418  0.69440  0.02062  Biso   1.000  H
  H3731    1.0000 0.98529  0.72229  0.97069  Biso   1.000  H
  H3732    1.0000 0.38348  0.51921  0.17831  Biso   1.000  H
  H3733    1.0000 0.20357  0.66750  0.37708  Biso   1.000  H
  H3734    1.0000 0.17521  0.66311  0.32019  Biso   1.000  H
  C2053    1.0000 0.22292  0.59430  0.34510  Biso   1.000  C
  C2054    1.0000 0.21080  0.65642  0.39649  Biso   1.000  C
  H3735    1.0000 0.32028  0.67300  0.37369  Biso   1.000  H
  H3736    1.0000 0.29250  0.61800  0.35021  Biso   1.000  H
  H3737    1.0000 0.70118  0.85879  0.18651  Biso   1.000  H
  H3738    1.0000 0.65737  0.80550  0.19550  Biso   1.000  H
  H3739    1.0000 0.64361  0.85610  0.23042  Biso   1.000  H
  H3740    1.0000 0.64361  0.85610  0.23038  Biso   1.000  H
  H3741    1.0000 0.68457  0.91632  0.19889  Biso   1.000  H
  H3742    1.0000 0.62327  0.89729  0.23610  Biso   1.000  H
  H3743    1.0000 0.60419  0.93021  0.18651  Biso   1.000  H
  N158     1.0000 0.46002  0.31620  0.12330  Biso   1.000  N
  H3744    1.0000 0.39940  0.29559  0.06852  Biso   1.000  H
  H3745    1.0000 0.39940  0.29559  0.06848  Biso   1.000  H
  N159     1.0000 0.35048  0.36878  0.17349  Biso   1.000  N
  H3746    1.0000 0.40710  0.42500  0.19629  Biso   1.000  H
  H3747    1.0000 0.98767  0.29068  0.02340  Biso   1.000  H
  H3748    1.0000 0.02388  0.33219  0.98589  Biso   1.000  H
  H3749    1.0000 0.01418  0.30560  0.97938  Biso   1.000  H
  H3750    1.0000 0.05408  0.32479  0.04169  Biso   1.000  H
  H3751    1.0000 0.03121  0.33060  0.03337  Biso   1.000  H
  H3752    1.0000 0.98529  0.27771  0.02931  Biso   1.000  H
  H3753    1.0000 0.17922  0.57800  0.35729  Biso   1.000  H
  H3754    1.0000 0.26161  0.58532  0.36790  Biso   1.000  H
  H3755    1.0000 0.23362  0.58101  0.31131  Biso   1.000  H
  H3756    1.0000 0.23362  0.58101  0.31127  Biso   1.000  H
  H3757    1.0000 0.22440  0.64222  0.42942  Biso   1.000  H
  H3758    1.0000 0.17268  0.63482  0.38231  Biso   1.000  H
  H3759    1.0000 0.19461  0.69302  0.40041  Biso   1.000  H
  C2055    1.0000 0.41621  0.28811  0.16028  Biso   1.000  C
  C2056    1.0000 0.39302  0.32859  0.19979  Biso   1.000  C
  H3760    1.0000 0.37310  0.27501  0.14271  Biso   1.000  H
  C2057    1.0000 0.45817  0.23988  0.17861  Biso   1.000  C
  H3761    1.0000 0.37310  0.27501  0.14267  Biso   1.000  H
  C2058    1.0000 0.46308  0.25191  0.19117  Biso   1.000  C
  H3762    1.0000 0.37557  0.26900  0.14459  Biso   1.000  H
  H3763    1.0000 0.43482  0.34508  0.21638  Biso   1.000  H
  C2059    1.0000 0.34569  0.30129  0.23858  Biso   1.000  C
  C2060    1.0000 0.36308  0.30770  0.24912  Biso   1.000  C
  H3764    1.0000 0.43730  0.34742  0.20961  Biso   1.000  H
  H3765    1.0000 0.42897  0.21978  0.20280  Biso   1.000  H
  H3766    1.0000 0.50061  0.25238  0.19670  Biso   1.000  H
  C2061    1.0000 0.48210  0.20111  0.13451  Biso   1.000  C
  C2062    1.0000 0.48901  0.20898  0.15520  Biso   1.000  C
  H3767    1.0000 0.43619  0.23600  0.21928  Biso   1.000  H
  H3768    1.0000 0.50351  0.27189  0.20528  Biso   1.000  H
  H3769    1.0000 0.37231  0.27240  0.25510  Biso   1.000  H
  H3770    1.0000 0.30452  0.28550  0.22139  Biso   1.000  H
  C2063    1.0000 0.31938  0.34192  0.27978  Biso   1.000  C
  H3771    1.0000 0.31880  0.28859  0.24159  Biso   1.000  H
  H3772    1.0000 0.39682  0.28150  0.26289  Biso   1.000  H
  C2064    1.0000 0.34800  0.34868  0.29020  Biso   1.000  C
  H3773    1.0000 0.44162  0.19509  0.11178  Biso   1.000  H
  H3774    1.0000 0.51969  0.21860  0.11468  Biso   1.000  H
  C2065    1.0000 0.51078  0.14500  0.15389  Biso   1.000  C
  H3775    1.0000 0.52127  0.22508  0.13018  Biso   1.000  H
  H3776    1.0000 0.44821  0.19430  0.13669  Biso   1.000  H
  C2066    1.0000 0.52881  0.16241  0.18357  Biso   1.000  C
  H3777    1.0000 0.35997  0.35391  0.30021  Biso   1.000  H
  H3778    1.0000 0.29861  0.37321  0.26311  Biso   1.000  H
  C2067    1.0000 0.26261  0.31561  0.31541  Biso   1.000  C
  H3779    1.0000 0.35997  0.35391  0.30017  Biso   1.000  H
  H3780    1.0000 0.29861  0.37321  0.26307  Biso   1.000  H
  C2068    1.0000 0.26261  0.31561  0.31537  Biso   1.000  C
  C2069    1.0000 0.30299  0.32590  0.33509  Biso   1.000  C
  H3781    1.0000 0.32191  0.37879  0.27500  Biso   1.000  H
  H3782    1.0000 0.39292  0.36229  0.30348  Biso   1.000  H
  H3783    1.0000 0.47599  0.12950  0.17752  Biso   1.000  H
  H3784    1.0000 0.51547  0.12071  0.12492  Biso   1.000  H
  C2070    1.0000 0.57989  0.14979  0.17970  Biso   1.000  C
  H3785    1.0000 0.47599  0.12950  0.17748  Biso   1.000  H
  H3786    1.0000 0.51547  0.12071  0.12488  Biso   1.000  H
  C2071    1.0000 0.56038  0.12419  0.14990  Biso   1.000  C
  H3787    1.0000 0.52290  0.10659  0.13011  Biso   1.000  H
  H3788    1.0000 0.57562  0.17579  0.20739  Biso   1.000  H
  H3789    1.0000 0.56607  0.17780  0.20521  Biso   1.000  H
  H3790    1.0000 0.49491  0.14402  0.20588  Biso   1.000  H
  H3791    1.0000 0.22861  0.29428  0.29581  Biso   1.000  H
  H3792    1.0000 0.23657  0.34279  0.33471  Biso   1.000  H
  C2072    1.0000 0.30689  0.28000  0.35089  Biso   1.000  C
  H3793    1.0000 0.23657  0.34279  0.33468  Biso   1.000  H
  C2073    1.0000 0.33899  0.29670  0.37719  Biso   1.000  C
  H3794    1.0000 0.27700  0.35589  0.35029  Biso   1.000  H
  H3795    1.0000 0.26720  0.30180  0.32060  Biso   1.000  H
  H3796    1.0000 0.61510  0.16360  0.15550  Biso   1.000  H
  C2074    1.0000 0.60772  0.09610  0.20190  Biso   1.000  C
  C2075    1.0000 0.60382  0.08059  0.18049  Biso   1.000  C
  H3797    1.0000 0.59227  0.14259  0.12619  Biso   1.000  H
  H3798    1.0000 0.31559  0.24562  0.33419  Biso   1.000  H
  H3799    1.0000 0.35317  0.29701  0.35691  Biso   1.000  H
  C2076    1.0000 0.26899  0.26959  0.40451  Biso   1.000  C
  H3800    1.0000 0.35317  0.29701  0.35687  Biso   1.000  H
  H3801    1.0000 0.36371  0.26611  0.36229  Biso   1.000  H
  C2077    1.0000 0.29102  0.27501  0.42328  Biso   1.000  C
  H3802    1.0000 0.37510  0.32051  0.39149  Biso   1.000  H
  H3803    1.0000 0.65331  0.10192  0.21830  Biso   1.000  H
  H3804    1.0000 0.61320  0.07031  0.17469  Biso   1.000  H
  H3805    1.0000 0.57388  0.08261  0.22669  Biso   1.000  H
  H3806    1.0000 0.57219  0.06239  0.20408  Biso   1.000  H
  H3807    1.0000 0.64177  0.09788  0.19938  Biso   1.000  H
  H3808    1.0000 0.62390  0.05492  0.15701  Biso   1.000  H
  H3809    1.0000 0.29698  0.24471  0.42430  Biso   1.000  H
  H3810    1.0000 0.22181  0.25460  0.39879  Biso   1.000  H
  H3811    1.0000 0.26440  0.30311  0.42279  Biso   1.000  H
  H3812    1.0000 0.26251  0.24518  0.41169  Biso   1.000  H
  H3813    1.0000 0.26040  0.30338  0.43540  Biso   1.000  H
  H3814    1.0000 0.32207  0.26330  0.45071  Biso   1.000  H
  C2078    1.0000 0.29102  0.72499  0.57668  Biso   1.000  C
  C2079    1.0000 0.33899  0.70330  0.62281  Biso   1.000  C
  H3815    1.0000 0.29698  0.75529  0.57570  Biso   1.000  H
  H3816    1.0000 0.26440  0.69689  0.57721  Biso   1.000  H
  H3817    1.0000 0.26251  0.75482  0.58831  Biso   1.000  H
  H3818    1.0000 0.26040  0.69662  0.56460  Biso   1.000  H
  H3819    1.0000 0.32207  0.73670  0.54929  Biso   1.000  H
  C2080    1.0000 0.30299  0.67410  0.66491  Biso   1.000  C
  C2081    1.0000 0.30689  0.72000  0.64911  Biso   1.000  C
  H3820    1.0000 0.35317  0.70299  0.64309  Biso   1.000  H
  C2082    1.0000 0.26899  0.73041  0.59549  Biso   1.000  C
  H3821    1.0000 0.36371  0.73389  0.63771  Biso   1.000  H
  H3822    1.0000 0.37510  0.67949  0.60851  Biso   1.000  H
  C2083    1.0000 0.31938  0.65812  0.72022  Biso   1.000  C
  C2084    1.0000 0.31938  0.65812  0.72018  Biso   1.000  C
  C2085    1.0000 0.34800  0.65132  0.70980  Biso   1.000  C
  C2086    1.0000 0.26261  0.68439  0.68459  Biso   1.000  C
  H3823    1.0000 0.27700  0.64411  0.64971  Biso   1.000  H
  H3824    1.0000 0.26720  0.69820  0.67940  Biso   1.000  H
  H3825    1.0000 0.31559  0.75442  0.66581  Biso   1.000  H
  H3826    1.0000 0.31559  0.75442  0.66578  Biso   1.000  H
  H3827    1.0000 0.22181  0.74540  0.60121  Biso   1.000  H
  C2087    1.0000 0.34569  0.69871  0.76142  Biso   1.000  C
  C2088    1.0000 0.34569  0.69871  0.76138  Biso   1.000  C
  C2089    1.0000 0.36308  0.69230  0.75088  Biso   1.000  C
  H3828    1.0000 0.35997  0.64609  0.69979  Biso   1.000  H
  H3829    1.0000 0.29861  0.62679  0.73689  Biso   1.000  H
  H3830    1.0000 0.32191  0.62121  0.72500  Biso   1.000  H
  H3831    1.0000 0.39292  0.63771  0.69648  Biso   1.000  H
  H3832    1.0000 0.22861  0.70572  0.70419  Biso   1.000  H
  H3833    1.0000 0.23657  0.65721  0.66529  Biso   1.000  H
  C2090    1.0000 0.39302  0.67141  0.80021  Biso   1.000  C
  H3834    1.0000 0.37231  0.72760  0.74490  Biso   1.000  H
  H3835    1.0000 0.30452  0.71450  0.77861  Biso   1.000  H
  H3836    1.0000 0.30452  0.71450  0.77858  Biso   1.000  H
  H3837    1.0000 0.31880  0.71141  0.75841  Biso   1.000  H
  H3838    1.0000 0.39682  0.71850  0.73708  Biso   1.000  H
  N160     1.0000 0.35048  0.63122  0.82651  Biso   1.000  N
  C2091    1.0000 0.41621  0.71189  0.83972  Biso   1.000  C
  H3839    1.0000 0.43482  0.65492  0.78362  Biso   1.000  H
  C2092    1.0000 0.41621  0.71189  0.83968  Biso   1.000  C
  H3840    1.0000 0.43482  0.65492  0.78358  Biso   1.000  H
  H3841    1.0000 0.43730  0.65262  0.79039  Biso   1.000  H
  C2093    1.0000 0.36677  0.58409  0.82320  Biso   1.000  C
  N161     1.0000 0.46002  0.68380  0.87670  Biso   1.000  N
  H3842    1.0000 0.37310  0.72499  0.85729  Biso   1.000  H
  C2094    1.0000 0.45817  0.76012  0.82139  Biso   1.000  C
  C2095    1.0000 0.46308  0.74809  0.80879  Biso   1.000  C
  H3843    1.0000 0.37557  0.73100  0.85541  Biso   1.000  H
  C2096    1.0000 0.32692  0.54101  0.84799  Biso   1.000  C
  H3844    1.0000 0.40710  0.57500  0.80371  Biso   1.000  H
  C2097    1.0000 0.44141  0.68621  0.92242  Biso   1.000  C
  C2098    1.0000 0.44141  0.68621  0.92238  Biso   1.000  C
  H3845    1.0000 0.42897  0.78022  0.79720  Biso   1.000  H
  H3846    1.0000 0.50061  0.74762  0.80330  Biso   1.000  H
  C2099    1.0000 0.48210  0.79889  0.86549  Biso   1.000  C
  C2100    1.0000 0.48901  0.79102  0.84480  Biso   1.000  C
  H3847    1.0000 0.43619  0.76400  0.78068  Biso   1.000  H
  H3848    1.0000 0.50351  0.72811  0.79472  Biso   1.000  H
  C2101    1.0000 0.34279  0.48961  0.84070  Biso   1.000  C
  C2102    1.0000 0.26830  0.55371  0.87949  Biso   1.000  C
  C2103    1.0000 0.48558  0.66042  0.96200  Biso   1.000  C
  H3849    1.0000 0.39940  0.70441  0.93148  Biso   1.000  H
  H3850    1.0000 0.44162  0.80491  0.88822  Biso   1.000  H
  H3851    1.0000 0.51969  0.78140  0.88532  Biso   1.000  H
  C2104    1.0000 0.51078  0.85500  0.84611  Biso   1.000  C
  H3852    1.0000 0.44162  0.80491  0.88818  Biso   1.000  H
  H3853    1.0000 0.51969  0.78140  0.88528  Biso   1.000  H
  C2105    1.0000 0.51078  0.85500  0.84608  Biso   1.000  C
  H3854    1.0000 0.52127  0.77492  0.86982  Biso   1.000  H
  H3855    1.0000 0.44821  0.80570  0.86331  Biso   1.000  H
  C2106    1.0000 0.52881  0.83759  0.81639  Biso   1.000  C
  C2107    1.0000 0.30209  0.44961  0.85988  Biso   1.000  C
  H3856    1.0000 0.38348  0.48079  0.82169  Biso   1.000  H
  C2108    1.0000 0.22761  0.51442  0.90029  Biso   1.000  C
  H3857    1.0000 0.25729  0.58979  0.88600  Biso   1.000  H
  C2109    1.0000 0.54262  0.62912  0.95071  Biso   1.000  C
  C2110    1.0000 0.46951  0.66920  0.01230  Biso   1.000  C
  H3858    1.0000 0.47599  0.87050  0.82248  Biso   1.000  H
  H3859    1.0000 0.51547  0.87929  0.87508  Biso   1.000  H
  C2111    1.0000 0.57989  0.85021  0.82030  Biso   1.000  C
  C2112    1.0000 0.56038  0.87581  0.85010  Biso   1.000  C
  H3860    1.0000 0.52290  0.89341  0.86989  Biso   1.000  H
  H3861    1.0000 0.57562  0.82421  0.79261  Biso   1.000  H
  H3862    1.0000 0.56607  0.82220  0.79479  Biso   1.000  H
  H3863    1.0000 0.49491  0.85598  0.79412  Biso   1.000  H
  C2113    1.0000 0.31569  0.39209  0.84909  Biso   1.000  C
  C2114    1.0000 0.24448  0.46192  0.88991  Biso   1.000  C
  C2115    1.0000 0.16499  0.52831  0.93032  Biso   1.000  C
  C2116    1.0000 0.16499  0.52831  0.93028  Biso   1.000  C
  C2117    1.0000 0.58458  0.60752  0.98819  Biso   1.000  C
  H3864    1.0000 0.55337  0.62200  0.91651  Biso   1.000  H
  C2118    1.0000 0.51110  0.64910  0.05068  Biso   1.000  C
  H3865    1.0000 0.42897  0.68950  0.02051  Biso   1.000  H
  H3866    1.0000 0.61510  0.83640  0.84450  Biso   1.000  H
  C2119    1.0000 0.60772  0.90390  0.79810  Biso   1.000  C
  C2120    1.0000 0.60382  0.91941  0.81951  Biso   1.000  C
  H3867    1.0000 0.59227  0.85741  0.87381  Biso   1.000  H
  N162     1.0000 0.36371  0.37618  0.82090  Biso   1.000  N
  H3868    1.0000 0.28612  0.36661  0.86451  Biso   1.000  H
  H3869    1.0000 0.21638  0.43430  0.90349  Biso   1.000  H
  N163     1.0000 0.12540  0.49420  0.94811  Biso   1.000  N
  H3870    1.0000 0.15482  0.56459  0.93611  Biso   1.000  H
  N164     1.0000 0.12540  0.49420  0.94808  Biso   1.000  N
  H3871    1.0000 0.15482  0.56459  0.93607  Biso   1.000  H
  C2121    1.0000 0.64667  0.57480  0.97411  Biso   1.000  C
  C2122    1.0000 0.64667  0.57480  0.97408  Biso   1.000  C
  C2123    1.0000 0.56887  0.61749  0.03751  Biso   1.000  C
  C2124    1.0000 0.56887  0.61749  0.03747  Biso   1.000  C
  C2125    1.0000 0.49528  0.65931  0.10339  Biso   1.000  C
  H3872    1.0000 0.65331  0.89812  0.78170  Biso   1.000  H
  H3873    1.0000 0.61320  0.92969  0.82531  Biso   1.000  H
  H3874    1.0000 0.57388  0.91739  0.77331  Biso   1.000  H
  H3875    1.0000 0.57219  0.93761  0.79588  Biso   1.000  H
  H3876    1.0000 0.64177  0.90212  0.80059  Biso   1.000  H
  H3877    1.0000 0.62390  0.94508  0.84299  Biso   1.000  H
  C2126    1.0000 0.36862  0.31992  0.80999  Biso   1.000  C
  C2127    1.0000 0.06030  0.51058  0.97408  Biso   1.000  C
  C2128    1.0000 0.06030  0.51058  0.97411  Biso   1.000  C
  N165     1.0000 0.68657  0.55711  0.00579  Biso   1.000  N
  H3878    1.0000 0.65547  0.56760  0.93950  Biso   1.000  H
  H3879    1.0000 0.59760  0.60281  0.06321  Biso   1.000  H
  N166     1.0000 0.44589  0.68961  0.11803  Biso   1.000  N
  H3880    1.0000 0.52338  0.64229  0.12819  Biso   1.000  H
  C2129    1.0000 0.35090  0.30651  0.75551  Biso   1.000  C
  C2130    1.0000 0.36398  0.31652  0.75310  Biso   1.000  C
  C2131    1.0000 0.43920  0.29939  0.82858  Biso   1.000  C
  H3881    1.0000 0.33187  0.30220  0.83121  Biso   1.000  H
  C2132    1.0000 0.43920  0.29939  0.82862  Biso   1.000  C
  H3882    1.0000 0.33187  0.30220  0.83118  Biso   1.000  H
  H3883    1.0000 0.32887  0.30010  0.82610  Biso   1.000  H
  H3884    1.0000 0.05941  0.55011  0.97588  Biso   1.000  H
  C2133    1.0000 0.99800  0.49199  0.94059  Biso   1.000  C
  C2134    1.0000 0.98998  0.49701  0.95150  Biso   1.000  C
  H3885    1.0000 0.06178  0.54999  0.97701  Biso   1.000  H
  C2135    1.0000 0.06030  0.48942  0.02589  Biso   1.000  C
  C2136    1.0000 0.75009  0.52661  0.98758  Biso   1.000  C
  C2137    1.0000 0.43920  0.70061  0.17138  Biso   1.000  C
  C2138    1.0000 0.27732  0.32799  0.73700  Biso   1.000  C
  C2139    1.0000 0.29002  0.33630  0.73538  Biso   1.000  C
  H3886    1.0000 0.35138  0.26750  0.75160  Biso   1.000  H
  H3887    1.0000 0.38817  0.32119  0.73361  Biso   1.000  H
  H3888    1.0000 0.38817  0.32119  0.73358  Biso   1.000  H
  H3889    1.0000 0.37120  0.27949  0.74208  Biso   1.000  H
  H3890    1.0000 0.40140  0.33860  0.73768  Biso   1.000  H
  N167     1.0000 0.44589  0.31039  0.88197  Biso   1.000  N
  H3891    1.0000 0.47831  0.31719  0.80981  Biso   1.000  H
  C2140    1.0000 0.44420  0.23881  0.82151  Biso   1.000  C
  C2141    1.0000 0.45801  0.24111  0.81801  Biso   1.000  C
  H3892    1.0000 0.47599  0.32119  0.81139  Biso   1.000  H
  H3893    1.0000 0.00090  0.45302  0.93709  Biso   1.000  H
  H3894    1.0000 0.95351  0.50010  0.95831  Biso   1.000  H
  C2142    1.0000 0.99399  0.51561  0.88852  Biso   1.000  C
  C2143    1.0000 0.99399  0.51561  0.88848  Biso   1.000  C
  C2144    1.0000 0.98002  0.52099  0.89980  Biso   1.000  C
  H3895    1.0000 0.98619  0.45761  0.94849  Biso   1.000  H
  H3896    1.0000 0.95193  0.50868  0.97430  Biso   1.000  H
  C2145    1.0000 0.99800  0.50801  0.05941  Biso   1.000  C
  C2146    1.0000 0.98998  0.50299  0.04850  Biso   1.000  C
  N168     1.0000 0.12540  0.50580  0.05189  Biso   1.000  N
  H3897    1.0000 0.05941  0.44989  0.02412  Biso   1.000  H
  H3898    1.0000 0.05941  0.44989  0.02408  Biso   1.000  H
  H3899    1.0000 0.06178  0.45001  0.02299  Biso   1.000  H
  C2147    1.0000 0.75009  0.47339  0.01242  Biso   1.000  C
  C2148    1.0000 0.75009  0.47339  0.01238  Biso   1.000  C
  H3900    1.0000 0.74988  0.52309  0.95011  Biso   1.000  H
  C2149    1.0000 0.81830  0.55921  0.99959  Biso   1.000  C
  H3901    1.0000 0.74640  0.52158  0.95030  Biso   1.000  H
  C2150    1.0000 0.81350  0.56138  0.00598  Biso   1.000  C
  C2151    1.0000 0.36862  0.68012  0.19001  Biso   1.000  C
  H3902    1.0000 0.47831  0.68281  0.19019  Biso   1.000  H
  C2152    1.0000 0.44420  0.76119  0.17849  Biso   1.000  C
  C2153    1.0000 0.45801  0.75889  0.18199  Biso   1.000  C
  H3903    1.0000 0.47599  0.67881  0.18861  Biso   1.000  H
  C2154    1.0000 0.28322  0.32570  0.67578  Biso   1.000  C
  C2155    1.0000 0.25592  0.31759  0.68568  Biso   1.000  C
  H3904    1.0000 0.26931  0.36471  0.74870  Biso   1.000  H
  H3905    1.0000 0.23831  0.30528  0.74919  Biso   1.000  H
  H3906    1.0000 0.25650  0.32772  0.76259  Biso   1.000  H
  H3907    1.0000 0.29282  0.37539  0.73369  Biso   1.000  H
  C2156    1.0000 0.49528  0.34069  0.89661  Biso   1.000  C
  H3908    1.0000 0.40757  0.22129  0.84209  Biso   1.000  H
  H3909    1.0000 0.43530  0.22991  0.78580  Biso   1.000  H
  C2157    1.0000 0.51732  0.21808  0.83701  Biso   1.000  C
  C2158    1.0000 0.53297  0.22500  0.83400  Biso   1.000  C
  H3910    1.0000 0.42428  0.21832  0.83641  Biso   1.000  H
  H3911    1.0000 0.45259  0.23418  0.78189  Biso   1.000  H
  H3912    1.0000 0.03400  0.50231  0.86820  Biso   1.000  H
  H3913    1.0000 0.99868  0.55450  0.89100  Biso   1.000  H
  C2159    1.0000 0.92568  0.50251  0.86180  Biso   1.000  C
  C2160    1.0000 0.90702  0.50599  0.87478  Biso   1.000  C
  H3914    1.0000 0.98181  0.56040  0.90308  Biso   1.000  H
  H3915    1.0000 0.01850  0.51019  0.87749  Biso   1.000  H
  H3916    1.0000 0.95351  0.49990  0.04169  Biso   1.000  H
  C2161    1.0000 0.99399  0.48439  0.11148  Biso   1.000  C
  C2162    1.0000 0.98002  0.47901  0.10020  Biso   1.000  C
  H3917    1.0000 0.98619  0.54239  0.05151  Biso   1.000  H
  H3918    1.0000 0.00090  0.54698  0.06291  Biso   1.000  H
  H3919    1.0000 0.95193  0.49132  0.02570  Biso   1.000  H
  C2163    1.0000 0.16499  0.47169  0.06968  Biso   1.000  C
  N169     1.0000 0.68657  0.44289  0.99421  Biso   1.000  N
  C2164    1.0000 0.81350  0.43862  0.99402  Biso   1.000  C
  C2165    1.0000 0.81350  0.43862  0.99398  Biso   1.000  C
  H3920    1.0000 0.74988  0.47691  0.04989  Biso   1.000  H
  C2166    1.0000 0.81830  0.44079  0.00038  Biso   1.000  C
  H3921    1.0000 0.74640  0.47842  0.04970  Biso   1.000  H
  C2167    1.0000 0.82099  0.61179  0.97080  Biso   1.000  C
  C2168    1.0000 0.80918  0.61951  0.99229  Biso   1.000  C
  H3922    1.0000 0.85689  0.54671  0.97750  Biso   1.000  H
  H3923    1.0000 0.85747  0.54049  0.00512  Biso   1.000  H
  H3924    1.0000 0.80528  0.57282  0.04120  Biso   1.000  H
  H3925    1.0000 0.85747  0.54049  0.00508  Biso   1.000  H
  H3926    1.0000 0.83238  0.55228  0.03480  Biso   1.000  H
  N170     1.0000 0.36371  0.62382  0.17910  Biso   1.000  N
  H3927    1.0000 0.33187  0.69780  0.16879  Biso   1.000  H
  C2169    1.0000 0.35090  0.69349  0.24449  Biso   1.000  C
  C2170    1.0000 0.36398  0.68352  0.24690  Biso   1.000  C
  H3928    1.0000 0.32887  0.69990  0.17390  Biso   1.000  H
  H3929    1.0000 0.40757  0.77871  0.15791  Biso   1.000  H
  H3930    1.0000 0.43530  0.77009  0.21420  Biso   1.000  H
  C2171    1.0000 0.51732  0.78192  0.16299  Biso   1.000  C
  H3931    1.0000 0.40757  0.77871  0.15787  Biso   1.000  H
  C2172    1.0000 0.53297  0.77500  0.16600  Biso   1.000  C
  H3932    1.0000 0.42428  0.78172  0.16359  Biso   1.000  H
  H3933    1.0000 0.45259  0.76582  0.21811  Biso   1.000  H
  C2173    1.0000 0.21412  0.34671  0.65678  Biso   1.000  C
  C2174    1.0000 0.27932  0.34508  0.64158  Biso   1.000  C
  H3934    1.0000 0.29071  0.28890  0.66420  Biso   1.000  H
  H3935    1.0000 0.32281  0.34781  0.66382  Biso   1.000  H
  H3936    1.0000 0.32281  0.34781  0.66378  Biso   1.000  H
  H3937    1.0000 0.26588  0.27941  0.68128  Biso   1.000  H
  H3938    1.0000 0.20421  0.32170  0.68858  Biso   1.000  H
  H3939    1.0000 0.52338  0.35771  0.87181  Biso   1.000  H
  C2175    1.0000 0.51110  0.35090  0.94932  Biso   1.000  C
  C2176    1.0000 0.51110  0.35090  0.94928  Biso   1.000  C
  H3940    1.0000 0.55390  0.23660  0.81710  Biso   1.000  H
  H3941    1.0000 0.52549  0.22631  0.87290  Biso   1.000  H
  C2177    1.0000 0.52501  0.15810  0.82892  Biso   1.000  C
  C2178    1.0000 0.52501  0.15810  0.82888  Biso   1.000  C
  C2179    1.0000 0.55247  0.16752  0.81951  Biso   1.000  C
  H3942    1.0000 0.53719  0.22920  0.87049  Biso   1.000  H
  H3943    1.0000 0.56660  0.24942  0.81759  Biso   1.000  H
  H3944    1.0000 0.91961  0.46362  0.86169  Biso   1.000  H
  H3945    1.0000 0.88609  0.51778  0.88122  Biso   1.000  H
  C2180    1.0000 0.92098  0.52210  0.80841  Biso   1.000  C
  H3946    1.0000 0.88609  0.51778  0.88118  Biso   1.000  H
  C2181    1.0000 0.92098  0.52210  0.80838  Biso   1.000  C
  C2182    1.0000 0.90401  0.53401  0.82470  Biso   1.000  C
  H3947    1.0000 0.90438  0.46679  0.86948  Biso   1.000  H
  H3948    1.0000 0.86690  0.51640  0.89649  Biso   1.000  H
  H3949    1.0000 0.99868  0.44550  0.10900  Biso   1.000  H
  C2183    1.0000 0.92568  0.49749  0.13820  Biso   1.000  C
  C2184    1.0000 0.90702  0.49401  0.12522  Biso   1.000  C
  H3950    1.0000 0.98181  0.43960  0.09688  Biso   1.000  H
  H3951    1.0000 0.03400  0.49769  0.13180  Biso   1.000  H
  H3952    1.0000 0.01850  0.48981  0.12251  Biso   1.000  H
  C2185    1.0000 0.22761  0.48562  0.09971  Biso   1.000  C
  H3953    1.0000 0.15482  0.43541  0.06389  Biso   1.000  H
  C2186    1.0000 0.64667  0.42520  0.02589  Biso   1.000  C
  H3954    1.0000 0.85747  0.45951  0.99488  Biso   1.000  H
  H3955    1.0000 0.80528  0.42722  0.95880  Biso   1.000  H
  H3956    1.0000 0.83238  0.44772  0.96520  Biso   1.000  H
  C2187    1.0000 0.82099  0.38821  0.02920  Biso   1.000  C
  C2188    1.0000 0.80918  0.38049  0.00768  Biso   1.000  C
  H3957    1.0000 0.85689  0.45329  0.02250  Biso   1.000  H
  H3958    1.0000 0.78330  0.63802  0.97739  Biso   1.000  H
  H3959    1.0000 0.82030  0.60190  0.93468  Biso   1.000  H
  C2189    1.0000 0.89827  0.63410  0.98788  Biso   1.000  C
  H3960    1.0000 0.80692  0.62710  0.95579  Biso   1.000  H
  C2190    1.0000 0.86980  0.65409  0.01622  Biso   1.000  C
  H3961    1.0000 0.76369  0.63031  0.00730  Biso   1.000  H
  C2191    1.0000 0.31569  0.60791  0.15091  Biso   1.000  C
  C2192    1.0000 0.31569  0.60791  0.15088  Biso   1.000  C
  H3962    1.0000 0.35138  0.73250  0.24840  Biso   1.000  H
  H3963    1.0000 0.38817  0.67881  0.26639  Biso   1.000  H
  C2193    1.0000 0.27732  0.67201  0.26300  Biso   1.000  C
  C2194    1.0000 0.29002  0.66370  0.26458  Biso   1.000  C
  H3964    1.0000 0.37120  0.72051  0.25788  Biso   1.000  H
  H3965    1.0000 0.40140  0.66140  0.26228  Biso   1.000  H
  H3966    1.0000 0.55390  0.76340  0.18290  Biso   1.000  H
  H3967    1.0000 0.52549  0.77369  0.12710  Biso   1.000  H
  C2195    1.0000 0.52501  0.84190  0.17108  Biso   1.000  C
  C2196    1.0000 0.55247  0.83252  0.18049  Biso   1.000  C
  H3968    1.0000 0.53719  0.77080  0.12951  Biso   1.000  H
  H3969    1.0000 0.56660  0.75058  0.18241  Biso   1.000  H
  H3970    1.0000 0.17521  0.33689  0.67981  Biso   1.000  H
  C2197    1.0000 0.22292  0.40570  0.65490  Biso   1.000  C
  H3971    1.0000 0.20357  0.33250  0.62292  Biso   1.000  H
  H3972    1.0000 0.20357  0.33250  0.62288  Biso   1.000  H
  C2198    1.0000 0.21080  0.34362  0.60351  Biso   1.000  C
  H3973    1.0000 0.32028  0.32700  0.62631  Biso   1.000  H
  H3974    1.0000 0.29250  0.38200  0.64979  Biso   1.000  H
  C2199    1.0000 0.56887  0.38251  0.96249  Biso   1.000  C
  C2200    1.0000 0.46951  0.33080  0.98770  Biso   1.000  C
  H3975    1.0000 0.49001  0.13970  0.85040  Biso   1.000  H
  C2201    1.0000 0.59828  0.13618  0.84081  Biso   1.000  C
  H3976    1.0000 0.51352  0.14991  0.79351  Biso   1.000  H
  H3977    1.0000 0.51352  0.14991  0.79348  Biso   1.000  H
  H3978    1.0000 0.54341  0.16269  0.78309  Biso   1.000  H
  C2202    1.0000 0.62901  0.15058  0.83031  Biso   1.000  C
  H3979    1.0000 0.52048  0.14330  0.83780  Biso   1.000  H
  H3980    1.0000 0.95440  0.50239  0.78682  Biso   1.000  H
  H3981    1.0000 0.93342  0.56012  0.80698  Biso   1.000  H
  C2203    1.0000 0.84213  0.51339  0.78889  Biso   1.000  C
  H3982    1.0000 0.95440  0.50239  0.78678  Biso   1.000  H
  H3983    1.0000 0.94228  0.56051  0.82279  Biso   1.000  H
  C2204    1.0000 0.83101  0.56301  0.81899  Biso   1.000  C
  H3984    1.0000 0.90970  0.50868  0.79690  Biso   1.000  H
  H3985    1.0000 0.91961  0.53642  0.13831  Biso   1.000  H
  H3986    1.0000 0.88609  0.48222  0.11878  Biso   1.000  H
  C2205    1.0000 0.92098  0.47790  0.19159  Biso   1.000  C
  C2206    1.0000 0.90401  0.46599  0.17530  Biso   1.000  C
  H3987    1.0000 0.90438  0.53321  0.13048  Biso   1.000  H
  H3988    1.0000 0.86690  0.48360  0.10351  Biso   1.000  H
  C2207    1.0000 0.24448  0.53812  0.11009  Biso   1.000  C
  C2208    1.0000 0.26830  0.44629  0.12051  Biso   1.000  C
  C2209    1.0000 0.26830  0.44629  0.12048  Biso   1.000  C
  C2210    1.0000 0.58458  0.39248  0.01181  Biso   1.000  C
  C2211    1.0000 0.58458  0.39248  0.01178  Biso   1.000  C
  H3989    1.0000 0.65547  0.43240  0.06050  Biso   1.000  H
  H3990    1.0000 0.78330  0.36202  0.02261  Biso   1.000  H
  H3991    1.0000 0.82030  0.39810  0.06532  Biso   1.000  H
  C2212    1.0000 0.89827  0.36590  0.01212  Biso   1.000  C
  H3992    1.0000 0.78330  0.36202  0.02258  Biso   1.000  H
  H3993    1.0000 0.82030  0.39810  0.06528  Biso   1.000  H
  C2213    1.0000 0.89827  0.36590  0.01208  Biso   1.000  C
  H3994    1.0000 0.80692  0.37290  0.04421  Biso   1.000  H
  C2214    1.0000 0.86980  0.34591  0.98378  Biso   1.000  C
  H3995    1.0000 0.76369  0.36969  0.99270  Biso   1.000  H
  H3996    1.0000 0.89178  0.67221  0.99488  Biso   1.000  H
  C2215    1.0000 0.95999  0.63011  0.95940  Biso   1.000  C
  H3997    1.0000 0.91171  0.65662  0.95459  Biso   1.000  H
  H3998    1.0000 0.94787  0.61919  0.99402  Biso   1.000  H
  H3999    1.0000 0.90881  0.61709  0.02062  Biso   1.000  H
  H4000    1.0000 0.90881  0.61709  0.02058  Biso   1.000  H
  C2216    1.0000 0.92931  0.65551  0.98962  Biso   1.000  C
  H4001    1.0000 0.85230  0.69072  0.02039  Biso   1.000  H
  H4002    1.0000 0.88050  0.64000  0.05012  Biso   1.000  H
  C2217    1.0000 0.30209  0.55039  0.14012  Biso   1.000  C
  C2218    1.0000 0.30209  0.55039  0.14008  Biso   1.000  C
  H4003    1.0000 0.28612  0.63339  0.13549  Biso   1.000  H
  H4004    1.0000 0.26931  0.63529  0.25130  Biso   1.000  H
  H4005    1.0000 0.23831  0.69472  0.25081  Biso   1.000  H
  C2219    1.0000 0.28322  0.67430  0.32422  Biso   1.000  C
  C2220    1.0000 0.28322  0.67430  0.32418  Biso   1.000  C
  C2221    1.0000 0.25592  0.68241  0.31428  Biso   1.000  C
  H4006    1.0000 0.25650  0.67228  0.23741  Biso   1.000  H
  H4007    1.0000 0.29282  0.62461  0.26631  Biso   1.000  H
  H4008    1.0000 0.51352  0.85009  0.20649  Biso   1.000  H
  H4009    1.0000 0.49001  0.86030  0.14960  Biso   1.000  H
  C2222    1.0000 0.59828  0.86382  0.15919  Biso   1.000  C
  H4010    1.0000 0.54341  0.83731  0.21691  Biso   1.000  H
  C2223    1.0000 0.62901  0.84942  0.16969  Biso   1.000  C
  H4011    1.0000 0.52048  0.85670  0.16220  Biso   1.000  H
  H4012    1.0000 0.17922  0.42200  0.64271  Biso   1.000  H
  H4013    1.0000 0.26161  0.41472  0.63210  Biso   1.000  H
  H4014    1.0000 0.23362  0.41899  0.68869  Biso   1.000  H
  H4015    1.0000 0.22440  0.35778  0.57058  Biso   1.000  H
  H4016    1.0000 0.17268  0.36518  0.61769  Biso   1.000  H
  H4017    1.0000 0.19461  0.30698  0.59959  Biso   1.000  H
  H4018    1.0000 0.59760  0.39719  0.93679  Biso   1.000  H
  H4019    1.0000 0.42897  0.31050  0.97949  Biso   1.000  H
  C2224    1.0000 0.48558  0.33958  0.03800  Biso   1.000  C
  H4020    1.0000 0.61162  0.14671  0.87539  Biso   1.000  H
  C2225    1.0000 0.65537  0.15569  0.80371  Biso   1.000  C
  H4021    1.0000 0.59649  0.09701  0.83972  Biso   1.000  H
  H4022    1.0000 0.59649  0.09701  0.83968  Biso   1.000  H
  C2226    1.0000 0.63597  0.09642  0.79919  Biso   1.000  C
  H4023    1.0000 0.63618  0.14469  0.86669  Biso   1.000  H
  H4024    1.0000 0.66270  0.17749  0.81820  Biso   1.000  H
  H4025    1.0000 0.83812  0.52609  0.75412  Biso   1.000  H
  H4026    1.0000 0.80939  0.53329  0.81029  Biso   1.000  H
  H4027    1.0000 0.83032  0.47569  0.79020  Biso   1.000  H
  H4028    1.0000 0.83812  0.52609  0.75408  Biso   1.000  H
  H4029    1.0000 0.82958  0.58121  0.78588  Biso   1.000  H
  H4030    1.0000 0.82600  0.58959  0.84559  Biso   1.000  H
  H4031    1.0000 0.79289  0.53749  0.82079  Biso   1.000  H
  H4032    1.0000 0.95440  0.49761  0.21318  Biso   1.000  H
  H4033    1.0000 0.93342  0.43992  0.19302  Biso   1.000  H
  C2227    1.0000 0.84213  0.48661  0.21111  Biso   1.000  C
  H4034    1.0000 0.93342  0.43992  0.19298  Biso   1.000  H
  C2228    1.0000 0.84213  0.48661  0.21108  Biso   1.000  C
  H4035    1.0000 0.94228  0.43949  0.17721  Biso   1.000  H
  C2229    1.0000 0.83101  0.43699  0.18101  Biso   1.000  C
  H4036    1.0000 0.90970  0.49132  0.20310  Biso   1.000  H
  H4037    1.0000 0.21638  0.56570  0.09651  Biso   1.000  H
  C2230    1.0000 0.32692  0.45899  0.15201  Biso   1.000  C
  H4038    1.0000 0.25729  0.41021  0.11400  Biso   1.000  H
  C2231    1.0000 0.54262  0.37092  0.04929  Biso   1.000  C
  H4039    1.0000 0.90881  0.38291  0.97938  Biso   1.000  H
  H4040    1.0000 0.89178  0.32779  0.00512  Biso   1.000  H
  C2232    1.0000 0.95999  0.36989  0.04060  Biso   1.000  C
  H4041    1.0000 0.89178  0.32779  0.00508  Biso   1.000  H
  H4042    1.0000 0.91171  0.34338  0.04538  Biso   1.000  H
  H4043    1.0000 0.94787  0.38081  0.00598  Biso   1.000  H
  H4044    1.0000 0.85230  0.30932  0.97961  Biso   1.000  H
  H4045    1.0000 0.88050  0.36000  0.94988  Biso   1.000  H
  C2233    1.0000 0.92931  0.34449  0.01038  Biso   1.000  C
  H4046    1.0000 0.94961  0.63521  0.92328  Biso   1.000  H
  H4047    1.0000 0.98181  0.59482  0.96399  Biso   1.000  H
  C2234    1.0000 0.01128  0.67490  0.97901  Biso   1.000  C
  C2235    1.0000 0.99589  0.68831  0.98661  Biso   1.000  C
  C2236    1.0000 0.34279  0.51039  0.15930  Biso   1.000  C
  H4048    1.0000 0.32281  0.65219  0.33618  Biso   1.000  H
  H4049    1.0000 0.29071  0.71110  0.33580  Biso   1.000  H
  C2237    1.0000 0.21412  0.65329  0.34322  Biso   1.000  C
  C2238    1.0000 0.21412  0.65329  0.34318  Biso   1.000  C
  C2239    1.0000 0.27932  0.65492  0.35838  Biso   1.000  C
  H4050    1.0000 0.26588  0.72059  0.31868  Biso   1.000  H
  H4051    1.0000 0.20421  0.67830  0.31139  Biso   1.000  H
  H4052    1.0000 0.61162  0.85329  0.12461  Biso   1.000  H
  H4053    1.0000 0.59649  0.90299  0.16028  Biso   1.000  H
  C2240    1.0000 0.65537  0.84431  0.19629  Biso   1.000  C
  H4054    1.0000 0.61162  0.85329  0.12458  Biso   1.000  H
  C2241    1.0000 0.63597  0.90362  0.20081  Biso   1.000  C
  H4055    1.0000 0.63618  0.85531  0.13331  Biso   1.000  H
  H4056    1.0000 0.66270  0.82251  0.18180  Biso   1.000  H
  C2242    1.0000 0.44141  0.31379  0.07758  Biso   1.000  C
  H4057    1.0000 0.70118  0.14121  0.81349  Biso   1.000  H
  H4058    1.0000 0.65737  0.19450  0.80450  Biso   1.000  H
  H4059    1.0000 0.64361  0.14390  0.76958  Biso   1.000  H
  H4060    1.0000 0.68457  0.08372  0.80108  Biso   1.000  H
  H4061    1.0000 0.62327  0.10271  0.76390  Biso   1.000  H
  H4062    1.0000 0.60419  0.06979  0.81349  Biso   1.000  H
  H4063    1.0000 0.83812  0.47391  0.24588  Biso   1.000  H
  H4064    1.0000 0.80939  0.46671  0.18971  Biso   1.000  H
  H4065    1.0000 0.83032  0.52431  0.20980  Biso   1.000  H
  H4066    1.0000 0.82958  0.41879  0.21409  Biso   1.000  H
  H4067    1.0000 0.82600  0.41041  0.15441  Biso   1.000  H
  H4068    1.0000 0.79289  0.46251  0.17921  Biso   1.000  H
  C2243    1.0000 0.36677  0.41591  0.17680  Biso   1.000  C
  H4069    1.0000 0.55337  0.37800  0.08349  Biso   1.000  H
  H4070    1.0000 0.94961  0.36479  0.07672  Biso   1.000  H
  H4071    1.0000 0.98181  0.40518  0.03601  Biso   1.000  H
  H4072    1.0000 0.94961  0.36479  0.07668  Biso   1.000  H
  C2244    1.0000 0.01128  0.32510  0.02099  Biso   1.000  C
  C2245    1.0000 0.99589  0.31169  0.01339  Biso   1.000  C
  H4073    1.0000 0.98767  0.70932  0.97660  Biso   1.000  H
  H4074    1.0000 0.05408  0.67521  0.95831  Biso   1.000  H
  H4075    1.0000 0.03121  0.66940  0.96659  Biso   1.000  H
  H4076    1.0000 0.02388  0.66781  0.01411  Biso   1.000  H
  H4077    1.0000 0.01418  0.69440  0.02062  Biso   1.000  H
  H4078    1.0000 0.98529  0.72229  0.97069  Biso   1.000  H
  H4079    1.0000 0.38348  0.51921  0.17831  Biso   1.000  H
  H4080    1.0000 0.20357  0.66750  0.37708  Biso   1.000  H
  H4081    1.0000 0.17521  0.66311  0.32019  Biso   1.000  H
  C2246    1.0000 0.22292  0.59430  0.34510  Biso   1.000  C
  C2247    1.0000 0.21080  0.65642  0.39649  Biso   1.000  C
  H4082    1.0000 0.32028  0.67300  0.37369  Biso   1.000  H
  H4083    1.0000 0.29250  0.61800  0.35021  Biso   1.000  H
  H4084    1.0000 0.70118  0.85879  0.18651  Biso   1.000  H
  H4085    1.0000 0.65737  0.80550  0.19550  Biso   1.000  H
  H4086    1.0000 0.64361  0.85610  0.23042  Biso   1.000  H
  H4087    1.0000 0.64361  0.85610  0.23038  Biso   1.000  H
  H4088    1.0000 0.68457  0.91632  0.19889  Biso   1.000  H
  H4089    1.0000 0.62327  0.89729  0.23610  Biso   1.000  H
  H4090    1.0000 0.60419  0.93021  0.18651  Biso   1.000  H
  N171     1.0000 0.46002  0.31620  0.12330  Biso   1.000  N
  H4091    1.0000 0.39940  0.29559  0.06852  Biso   1.000  H
  H4092    1.0000 0.39940  0.29559  0.06848  Biso   1.000  H
  N172     1.0000 0.35048  0.36878  0.17349  Biso   1.000  N
  H4093    1.0000 0.40710  0.42500  0.19629  Biso   1.000  H
  H4094    1.0000 0.98767  0.29068  0.02340  Biso   1.000  H
  H4095    1.0000 0.02388  0.33219  0.98589  Biso   1.000  H
  H4096    1.0000 0.01418  0.30560  0.97938  Biso   1.000  H
  H4097    1.0000 0.05408  0.32479  0.04169  Biso   1.000  H
  H4098    1.0000 0.03121  0.33060  0.03337  Biso   1.000  H
  H4099    1.0000 0.98529  0.27771  0.02931  Biso   1.000  H
  H4100    1.0000 0.17922  0.57800  0.35729  Biso   1.000  H
  H4101    1.0000 0.26161  0.58532  0.36790  Biso   1.000  H
  H4102    1.0000 0.23362  0.58101  0.31131  Biso   1.000  H
  H4103    1.0000 0.23362  0.58101  0.31127  Biso   1.000  H
  H4104    1.0000 0.22440  0.64222  0.42942  Biso   1.000  H
  H4105    1.0000 0.17268  0.63482  0.38231  Biso   1.000  H
  H4106    1.0000 0.19461  0.69302  0.40041  Biso   1.000  H
  C2248    1.0000 0.41621  0.28811  0.16028  Biso   1.000  C
  C2249    1.0000 0.39302  0.32859  0.19979  Biso   1.000  C
  H4107    1.0000 0.37310  0.27501  0.14271  Biso   1.000  H
  C2250    1.0000 0.45817  0.23988  0.17861  Biso   1.000  C
  H4108    1.0000 0.37310  0.27501  0.14267  Biso   1.000  H
  C2251    1.0000 0.46308  0.25191  0.19117  Biso   1.000  C
  H4109    1.0000 0.37557  0.26900  0.14459  Biso   1.000  H
  H4110    1.0000 0.43482  0.34508  0.21638  Biso   1.000  H
  C2252    1.0000 0.34569  0.30129  0.23858  Biso   1.000  C
  C2253    1.0000 0.36308  0.30770  0.24912  Biso   1.000  C
  H4111    1.0000 0.43730  0.34742  0.20961  Biso   1.000  H
  H4112    1.0000 0.42897  0.21978  0.20280  Biso   1.000  H
  H4113    1.0000 0.50061  0.25238  0.19670  Biso   1.000  H
  C2254    1.0000 0.48210  0.20111  0.13451  Biso   1.000  C
  C2255    1.0000 0.48901  0.20898  0.15520  Biso   1.000  C
  H4114    1.0000 0.43619  0.23600  0.21928  Biso   1.000  H
  H4115    1.0000 0.50351  0.27189  0.20528  Biso   1.000  H
  H4116    1.0000 0.37231  0.27240  0.25510  Biso   1.000  H
  H4117    1.0000 0.30452  0.28550  0.22139  Biso   1.000  H
  C2256    1.0000 0.31938  0.34192  0.27978  Biso   1.000  C
  H4118    1.0000 0.31880  0.28859  0.24159  Biso   1.000  H
  H4119    1.0000 0.39682  0.28150  0.26289  Biso   1.000  H
  C2257    1.0000 0.34800  0.34868  0.29020  Biso   1.000  C
  H4120    1.0000 0.44162  0.19509  0.11178  Biso   1.000  H
  H4121    1.0000 0.51969  0.21860  0.11468  Biso   1.000  H
  C2258    1.0000 0.51078  0.14500  0.15389  Biso   1.000  C
  H4122    1.0000 0.52127  0.22508  0.13018  Biso   1.000  H
  H4123    1.0000 0.44821  0.19430  0.13669  Biso   1.000  H
  C2259    1.0000 0.52881  0.16241  0.18357  Biso   1.000  C
  H4124    1.0000 0.35997  0.35391  0.30021  Biso   1.000  H
  H4125    1.0000 0.29861  0.37321  0.26311  Biso   1.000  H
  C2260    1.0000 0.26261  0.31561  0.31541  Biso   1.000  C
  H4126    1.0000 0.35997  0.35391  0.30017  Biso   1.000  H
  H4127    1.0000 0.29861  0.37321  0.26307  Biso   1.000  H
  C2261    1.0000 0.26261  0.31561  0.31537  Biso   1.000  C
  C2262    1.0000 0.30299  0.32590  0.33509  Biso   1.000  C
  H4128    1.0000 0.32191  0.37879  0.27500  Biso   1.000  H
  H4129    1.0000 0.39292  0.36229  0.30348  Biso   1.000  H
  H4130    1.0000 0.47599  0.12950  0.17752  Biso   1.000  H
  H4131    1.0000 0.51547  0.12071  0.12492  Biso   1.000  H
  C2263    1.0000 0.57989  0.14979  0.17970  Biso   1.000  C
  H4132    1.0000 0.47599  0.12950  0.17748  Biso   1.000  H
  H4133    1.0000 0.51547  0.12071  0.12488  Biso   1.000  H
  C2264    1.0000 0.56038  0.12419  0.14990  Biso   1.000  C
  H4134    1.0000 0.52290  0.10659  0.13011  Biso   1.000  H
  H4135    1.0000 0.57562  0.17579  0.20739  Biso   1.000  H
  H4136    1.0000 0.56607  0.17780  0.20521  Biso   1.000  H
  H4137    1.0000 0.49491  0.14402  0.20588  Biso   1.000  H
  H4138    1.0000 0.22861  0.29428  0.29581  Biso   1.000  H
  H4139    1.0000 0.23657  0.34279  0.33471  Biso   1.000  H
  C2265    1.0000 0.30689  0.28000  0.35089  Biso   1.000  C
  H4140    1.0000 0.23657  0.34279  0.33468  Biso   1.000  H
  C2266    1.0000 0.33899  0.29670  0.37719  Biso   1.000  C
  H4141    1.0000 0.27700  0.35589  0.35029  Biso   1.000  H
  H4142    1.0000 0.26720  0.30180  0.32060  Biso   1.000  H
  H4143    1.0000 0.61510  0.16360  0.15550  Biso   1.000  H
  C2267    1.0000 0.60772  0.09610  0.20190  Biso   1.000  C
  C2268    1.0000 0.60382  0.08059  0.18049  Biso   1.000  C
  H4144    1.0000 0.59227  0.14259  0.12619  Biso   1.000  H
  H4145    1.0000 0.31559  0.24562  0.33419  Biso   1.000  H
  H4146    1.0000 0.35317  0.29701  0.35691  Biso   1.000  H
  C2269    1.0000 0.26899  0.26959  0.40451  Biso   1.000  C
  H4147    1.0000 0.35317  0.29701  0.35687  Biso   1.000  H
  H4148    1.0000 0.36371  0.26611  0.36229  Biso   1.000  H
  C2270    1.0000 0.29102  0.27501  0.42328  Biso   1.000  C
  H4149    1.0000 0.37510  0.32051  0.39149  Biso   1.000  H
  H4150    1.0000 0.65331  0.10192  0.21830  Biso   1.000  H
  H4151    1.0000 0.61320  0.07031  0.17469  Biso   1.000  H
  H4152    1.0000 0.57388  0.08261  0.22669  Biso   1.000  H
  H4153    1.0000 0.57219  0.06239  0.20408  Biso   1.000  H
  H4154    1.0000 0.64177  0.09788  0.19938  Biso   1.000  H
  H4155    1.0000 0.62390  0.05492  0.15701  Biso   1.000  H
  H4156    1.0000 0.29698  0.24471  0.42430  Biso   1.000  H
  H4157    1.0000 0.22181  0.25460  0.39879  Biso   1.000  H
  H4158    1.0000 0.26440  0.30311  0.42279  Biso   1.000  H
  H4159    1.0000 0.26251  0.24518  0.41169  Biso   1.000  H
  H4160    1.0000 0.26040  0.30338  0.43540  Biso   1.000  H
  H4161    1.0000 0.32207  0.26330  0.45071  Biso   1.000  H
  C2271    1.0000 0.29102  0.72499  0.57668  Biso   1.000  C
  C2272    1.0000 0.33899  0.70330  0.62281  Biso   1.000  C
  H4162    1.0000 0.29698  0.75529  0.57570  Biso   1.000  H
  H4163    1.0000 0.26440  0.69689  0.57721  Biso   1.000  H
  H4164    1.0000 0.26251  0.75482  0.58831  Biso   1.000  H
  H4165    1.0000 0.26040  0.69662  0.56460  Biso   1.000  H
  H4166    1.0000 0.32207  0.73670  0.54929  Biso   1.000  H
  C2273    1.0000 0.30299  0.67410  0.66491  Biso   1.000  C
  C2274    1.0000 0.30689  0.72000  0.64911  Biso   1.000  C
  H4167    1.0000 0.35317  0.70299  0.64309  Biso   1.000  H
  C2275    1.0000 0.26899  0.73041  0.59549  Biso   1.000  C
  H4168    1.0000 0.36371  0.73389  0.63771  Biso   1.000  H
  H4169    1.0000 0.37510  0.67949  0.60851  Biso   1.000  H
  C2276    1.0000 0.31938  0.65812  0.72022  Biso   1.000  C
  C2277    1.0000 0.31938  0.65812  0.72018  Biso   1.000  C
  C2278    1.0000 0.34800  0.65132  0.70980  Biso   1.000  C
  C2279    1.0000 0.26261  0.68439  0.68459  Biso   1.000  C
  H4170    1.0000 0.27700  0.64411  0.64971  Biso   1.000  H
  H4171    1.0000 0.26720  0.69820  0.67940  Biso   1.000  H
  H4172    1.0000 0.31559  0.75442  0.66581  Biso   1.000  H
  H4173    1.0000 0.31559  0.75442  0.66578  Biso   1.000  H
  H4174    1.0000 0.22181  0.74540  0.60121  Biso   1.000  H
  C2280    1.0000 0.34569  0.69871  0.76142  Biso   1.000  C
  C2281    1.0000 0.34569  0.69871  0.76138  Biso   1.000  C
  C2282    1.0000 0.36308  0.69230  0.75088  Biso   1.000  C
  H4175    1.0000 0.35997  0.64609  0.69979  Biso   1.000  H
  H4176    1.0000 0.29861  0.62679  0.73689  Biso   1.000  H
  H4177    1.0000 0.32191  0.62121  0.72500  Biso   1.000  H
  H4178    1.0000 0.39292  0.63771  0.69648  Biso   1.000  H
  H4179    1.0000 0.22861  0.70572  0.70419  Biso   1.000  H
  H4180    1.0000 0.23657  0.65721  0.66529  Biso   1.000  H
  C2283    1.0000 0.39302  0.67141  0.80021  Biso   1.000  C
  H4181    1.0000 0.37231  0.72760  0.74490  Biso   1.000  H
  H4182    1.0000 0.30452  0.71450  0.77861  Biso   1.000  H
  H4183    1.0000 0.30452  0.71450  0.77858  Biso   1.000  H
  H4184    1.0000 0.31880  0.71141  0.75841  Biso   1.000  H
  H4185    1.0000 0.39682  0.71850  0.73708  Biso   1.000  H
  N173     1.0000 0.35048  0.63122  0.82651  Biso   1.000  N
  C2284    1.0000 0.41621  0.71189  0.83972  Biso   1.000  C
  H4186    1.0000 0.43482  0.65492  0.78362  Biso   1.000  H
  C2285    1.0000 0.41621  0.71189  0.83968  Biso   1.000  C
  H4187    1.0000 0.43482  0.65492  0.78358  Biso   1.000  H
  H4188    1.0000 0.43730  0.65262  0.79039  Biso   1.000  H
  C2286    1.0000 0.36677  0.58409  0.82320  Biso   1.000  C
  N174     1.0000 0.46002  0.68380  0.87670  Biso   1.000  N
  H4189    1.0000 0.37310  0.72499  0.85729  Biso   1.000  H
  C2287    1.0000 0.45817  0.76012  0.82139  Biso   1.000  C
  C2288    1.0000 0.46308  0.74809  0.80879  Biso   1.000  C
  H4190    1.0000 0.37557  0.73100  0.85541  Biso   1.000  H
  C2289    1.0000 0.32692  0.54101  0.84799  Biso   1.000  C
  H4191    1.0000 0.40710  0.57500  0.80371  Biso   1.000  H
  C2290    1.0000 0.44141  0.68621  0.92242  Biso   1.000  C
  C2291    1.0000 0.44141  0.68621  0.92238  Biso   1.000  C
  H4192    1.0000 0.42897  0.78022  0.79720  Biso   1.000  H
  H4193    1.0000 0.50061  0.74762  0.80330  Biso   1.000  H
  C2292    1.0000 0.48210  0.79889  0.86549  Biso   1.000  C
  C2293    1.0000 0.48901  0.79102  0.84480  Biso   1.000  C
  H4194    1.0000 0.43619  0.76400  0.78068  Biso   1.000  H
  H4195    1.0000 0.50351  0.72811  0.79472  Biso   1.000  H
  C2294    1.0000 0.34279  0.48961  0.84070  Biso   1.000  C
  C2295    1.0000 0.26830  0.55371  0.87949  Biso   1.000  C
  C2296    1.0000 0.48558  0.66042  0.96200  Biso   1.000  C
  H4196    1.0000 0.39940  0.70441  0.93148  Biso   1.000  H
  H4197    1.0000 0.44162  0.80491  0.88822  Biso   1.000  H
  H4198    1.0000 0.51969  0.78140  0.88532  Biso   1.000  H
  C2297    1.0000 0.51078  0.85500  0.84611  Biso   1.000  C
  H4199    1.0000 0.44162  0.80491  0.88818  Biso   1.000  H
  H4200    1.0000 0.51969  0.78140  0.88528  Biso   1.000  H
  C2298    1.0000 0.51078  0.85500  0.84608  Biso   1.000  C
  H4201    1.0000 0.52127  0.77492  0.86982  Biso   1.000  H
  H4202    1.0000 0.44821  0.80570  0.86331  Biso   1.000  H
  C2299    1.0000 0.52881  0.83759  0.81639  Biso   1.000  C
  C2300    1.0000 0.30209  0.44961  0.85988  Biso   1.000  C
  H4203    1.0000 0.38348  0.48079  0.82169  Biso   1.000  H
  C2301    1.0000 0.22761  0.51442  0.90029  Biso   1.000  C
  H4204    1.0000 0.25729  0.58979  0.88600  Biso   1.000  H
  C2302    1.0000 0.54262  0.62912  0.95071  Biso   1.000  C
  C2303    1.0000 0.46951  0.66920  0.01230  Biso   1.000  C
  H4205    1.0000 0.47599  0.87050  0.82248  Biso   1.000  H
  H4206    1.0000 0.51547  0.87929  0.87508  Biso   1.000  H
  C2304    1.0000 0.57989  0.85021  0.82030  Biso   1.000  C
  C2305    1.0000 0.56038  0.87581  0.85010  Biso   1.000  C
  H4207    1.0000 0.52290  0.89341  0.86989  Biso   1.000  H
  H4208    1.0000 0.57562  0.82421  0.79261  Biso   1.000  H
  H4209    1.0000 0.56607  0.82220  0.79479  Biso   1.000  H
  H4210    1.0000 0.49491  0.85598  0.79412  Biso   1.000  H
  C2306    1.0000 0.31569  0.39209  0.84909  Biso   1.000  C
  C2307    1.0000 0.24448  0.46192  0.88991  Biso   1.000  C
  C2308    1.0000 0.16499  0.52831  0.93032  Biso   1.000  C
  C2309    1.0000 0.16499  0.52831  0.93028  Biso   1.000  C
  C2310    1.0000 0.58458  0.60752  0.98819  Biso   1.000  C
  H4211    1.0000 0.55337  0.62200  0.91651  Biso   1.000  H
  C2311    1.0000 0.51110  0.64910  0.05068  Biso   1.000  C
  H4212    1.0000 0.42897  0.68950  0.02051  Biso   1.000  H
  H4213    1.0000 0.61510  0.83640  0.84450  Biso   1.000  H
  C2312    1.0000 0.60772  0.90390  0.79810  Biso   1.000  C
  C2313    1.0000 0.60382  0.91941  0.81951  Biso   1.000  C
  H4214    1.0000 0.59227  0.85741  0.87381  Biso   1.000  H
  N175     1.0000 0.36371  0.37618  0.82090  Biso   1.000  N
  H4215    1.0000 0.28612  0.36661  0.86451  Biso   1.000  H
  H4216    1.0000 0.21638  0.43430  0.90349  Biso   1.000  H
  N176     1.0000 0.12540  0.49420  0.94811  Biso   1.000  N
  H4217    1.0000 0.15482  0.56459  0.93611  Biso   1.000  H
  N177     1.0000 0.12540  0.49420  0.94808  Biso   1.000  N
  H4218    1.0000 0.15482  0.56459  0.93607  Biso   1.000  H
  C2314    1.0000 0.64667  0.57480  0.97411  Biso   1.000  C
  C2315    1.0000 0.64667  0.57480  0.97408  Biso   1.000  C
  C2316    1.0000 0.56887  0.61749  0.03751  Biso   1.000  C
  C2317    1.0000 0.56887  0.61749  0.03747  Biso   1.000  C
  C2318    1.0000 0.49528  0.65931  0.10339  Biso   1.000  C
  H4219    1.0000 0.65331  0.89812  0.78170  Biso   1.000  H
  H4220    1.0000 0.61320  0.92969  0.82531  Biso   1.000  H
  H4221    1.0000 0.57388  0.91739  0.77331  Biso   1.000  H
  H4222    1.0000 0.57219  0.93761  0.79588  Biso   1.000  H
  H4223    1.0000 0.64177  0.90212  0.80059  Biso   1.000  H
  H4224    1.0000 0.62390  0.94508  0.84299  Biso   1.000  H
  C2319    1.0000 0.36862  0.31992  0.80999  Biso   1.000  C
  C2320    1.0000 0.06030  0.51058  0.97411  Biso   1.000  C
  C2321    1.0000 0.06030  0.51058  0.97408  Biso   1.000  C
  N178     1.0000 0.68657  0.55711  0.00579  Biso   1.000  N
  H4225    1.0000 0.65547  0.56760  0.93950  Biso   1.000  H
  H4226    1.0000 0.59760  0.60281  0.06321  Biso   1.000  H
  N179     1.0000 0.44589  0.68961  0.11803  Biso   1.000  N
  H4227    1.0000 0.52338  0.64229  0.12819  Biso   1.000  H
  H4228    1.0000 0.33187  0.30220  0.83121  Biso   1.000  H
  C2322    1.0000 0.35090  0.30651  0.75551  Biso   1.000  C
  C2323    1.0000 0.43920  0.29939  0.82862  Biso   1.000  C
  H4229    1.0000 0.33187  0.30220  0.83118  Biso   1.000  H
  C2324    1.0000 0.43920  0.29939  0.82858  Biso   1.000  C
  C2325    1.0000 0.36398  0.31652  0.75310  Biso   1.000  C
  H4230    1.0000 0.32887  0.30010  0.82610  Biso   1.000  H
  C2326    1.0000 0.99800  0.49199  0.94059  Biso   1.000  C
  C2327    1.0000 0.98998  0.49701  0.95150  Biso   1.000  C
  H4231    1.0000 0.05941  0.55011  0.97588  Biso   1.000  H
  H4232    1.0000 0.06178  0.54999  0.97701  Biso   1.000  H
  C2328    1.0000 0.06030  0.48942  0.02589  Biso   1.000  C
  C2329    1.0000 0.75009  0.52661  0.98758  Biso   1.000  C
  C2330    1.0000 0.43920  0.70061  0.17138  Biso   1.000  C
  H4233    1.0000 0.35138  0.26750  0.75160  Biso   1.000  H
  H4234    1.0000 0.38817  0.32119  0.73361  Biso   1.000  H
  C2331    1.0000 0.27732  0.32799  0.73700  Biso   1.000  C
  H4235    1.0000 0.38817  0.32119  0.73358  Biso   1.000  H
  C2332    1.0000 0.29002  0.33630  0.73538  Biso   1.000  C
  H4236    1.0000 0.37120  0.27949  0.74208  Biso   1.000  H
  N180     1.0000 0.44589  0.31039  0.88197  Biso   1.000  N
  H4237    1.0000 0.47831  0.31719  0.80981  Biso   1.000  H
  C2333    1.0000 0.44420  0.23881  0.82151  Biso   1.000  C
  C2334    1.0000 0.45801  0.24111  0.81801  Biso   1.000  C
  H4238    1.0000 0.47599  0.32119  0.81139  Biso   1.000  H
  H4239    1.0000 0.40140  0.33860  0.73768  Biso   1.000  H
  H4240    1.0000 0.95351  0.50010  0.95831  Biso   1.000  H
  C2335    1.0000 0.99399  0.51561  0.88852  Biso   1.000  C
  C2336    1.0000 0.99399  0.51561  0.88848  Biso   1.000  C
  C2337    1.0000 0.98002  0.52099  0.89980  Biso   1.000  C
  H4241    1.0000 0.98619  0.45761  0.94849  Biso   1.000  H
  H4242    1.0000 0.00090  0.45302  0.93709  Biso   1.000  H
  H4243    1.0000 0.95193  0.50868  0.97430  Biso   1.000  H
  C2338    1.0000 0.99800  0.50801  0.05941  Biso   1.000  C
  C2339    1.0000 0.98998  0.50299  0.04850  Biso   1.000  C
  N181     1.0000 0.12540  0.50580  0.05189  Biso   1.000  N
  H4244    1.0000 0.05941  0.44989  0.02412  Biso   1.000  H
  H4245    1.0000 0.05941  0.44989  0.02408  Biso   1.000  H
  H4246    1.0000 0.06178  0.45001  0.02299  Biso   1.000  H
  C2340    1.0000 0.75009  0.47339  0.01242  Biso   1.000  C
  C2341    1.0000 0.75009  0.47339  0.01238  Biso   1.000  C
  H4247    1.0000 0.74988  0.52309  0.95011  Biso   1.000  H
  C2342    1.0000 0.81830  0.55921  0.99959  Biso   1.000  C
  H4248    1.0000 0.74640  0.52158  0.95030  Biso   1.000  H
  C2343    1.0000 0.81350  0.56138  0.00598  Biso   1.000  C
  C2344    1.0000 0.36862  0.68012  0.19001  Biso   1.000  C
  H4249    1.0000 0.47831  0.68281  0.19019  Biso   1.000  H
  C2345    1.0000 0.44420  0.76119  0.17849  Biso   1.000  C
  C2346    1.0000 0.45801  0.75889  0.18199  Biso   1.000  C
  H4250    1.0000 0.47599  0.67881  0.18861  Biso   1.000  H
  H4251    1.0000 0.26931  0.36471  0.74870  Biso   1.000  H
  H4252    1.0000 0.23831  0.30528  0.74919  Biso   1.000  H
  C2347    1.0000 0.28322  0.32570  0.67578  Biso   1.000  C
  C2348    1.0000 0.25592  0.31759  0.68568  Biso   1.000  C
  H4253    1.0000 0.25650  0.32772  0.76259  Biso   1.000  H
  H4254    1.0000 0.29282  0.37539  0.73369  Biso   1.000  H
  C2349    1.0000 0.49528  0.34069  0.89661  Biso   1.000  C
  H4255    1.0000 0.40757  0.22129  0.84209  Biso   1.000  H
  H4256    1.0000 0.43530  0.22991  0.78580  Biso   1.000  H
  C2350    1.0000 0.51732  0.21808  0.83701  Biso   1.000  C
  C2351    1.0000 0.53297  0.22500  0.83400  Biso   1.000  C
  H4257    1.0000 0.42428  0.21832  0.83641  Biso   1.000  H
  H4258    1.0000 0.45259  0.23418  0.78189  Biso   1.000  H
  H4259    1.0000 0.99868  0.55450  0.89100  Biso   1.000  H
  C2352    1.0000 0.92568  0.50251  0.86180  Biso   1.000  C
  C2353    1.0000 0.90702  0.50599  0.87478  Biso   1.000  C
  H4260    1.0000 0.98181  0.56040  0.90308  Biso   1.000  H
  H4261    1.0000 0.03400  0.50231  0.86820  Biso   1.000  H
  H4262    1.0000 0.01850  0.51019  0.87749  Biso   1.000  H
  H4263    1.0000 0.95351  0.49990  0.04169  Biso   1.000  H
  C2354    1.0000 0.99399  0.48439  0.11148  Biso   1.000  C
  C2355    1.0000 0.98002  0.47901  0.10020  Biso   1.000  C
  H4264    1.0000 0.98619  0.54239  0.05151  Biso   1.000  H
  H4265    1.0000 0.00090  0.54698  0.06291  Biso   1.000  H
  H4266    1.0000 0.95193  0.49132  0.02570  Biso   1.000  H
  C2356    1.0000 0.16499  0.47169  0.06968  Biso   1.000  C
  N182     1.0000 0.68657  0.44289  0.99421  Biso   1.000  N
  C2357    1.0000 0.81350  0.43862  0.99402  Biso   1.000  C
  C2358    1.0000 0.81350  0.43862  0.99398  Biso   1.000  C
  H4267    1.0000 0.74988  0.47691  0.04989  Biso   1.000  H
  C2359    1.0000 0.81830  0.44079  0.00038  Biso   1.000  C
  H4268    1.0000 0.74640  0.47842  0.04970  Biso   1.000  H
  C2360    1.0000 0.82099  0.61179  0.97080  Biso   1.000  C
  C2361    1.0000 0.80918  0.61951  0.99229  Biso   1.000  C
  H4269    1.0000 0.85689  0.54671  0.97750  Biso   1.000  H
  H4270    1.0000 0.85747  0.54049  0.00512  Biso   1.000  H
  H4271    1.0000 0.80528  0.57282  0.04120  Biso   1.000  H
  H4272    1.0000 0.85747  0.54049  0.00508  Biso   1.000  H
  H4273    1.0000 0.83238  0.55228  0.03480  Biso   1.000  H
  N183     1.0000 0.36371  0.62382  0.17910  Biso   1.000  N
  H4274    1.0000 0.33187  0.69780  0.16879  Biso   1.000  H
  C2362    1.0000 0.35090  0.69349  0.24449  Biso   1.000  C
  C2363    1.0000 0.36398  0.68352  0.24690  Biso   1.000  C
  H4275    1.0000 0.32887  0.69990  0.17390  Biso   1.000  H
  H4276    1.0000 0.40757  0.77871  0.15791  Biso   1.000  H
  H4277    1.0000 0.43530  0.77009  0.21420  Biso   1.000  H
  C2364    1.0000 0.51732  0.78192  0.16299  Biso   1.000  C
  H4278    1.0000 0.40757  0.77871  0.15787  Biso   1.000  H
  C2365    1.0000 0.53297  0.77500  0.16600  Biso   1.000  C
  H4279    1.0000 0.42428  0.78172  0.16359  Biso   1.000  H
  H4280    1.0000 0.45259  0.76582  0.21811  Biso   1.000  H
  H4281    1.0000 0.32281  0.34781  0.66382  Biso   1.000  H
  H4282    1.0000 0.29071  0.28890  0.66420  Biso   1.000  H
  C2366    1.0000 0.21412  0.34671  0.65678  Biso   1.000  C
  H4283    1.0000 0.32281  0.34781  0.66378  Biso   1.000  H
  C2367    1.0000 0.27932  0.34508  0.64158  Biso   1.000  C
  H4284    1.0000 0.26588  0.27941  0.68128  Biso   1.000  H
  H4285    1.0000 0.20421  0.32170  0.68858  Biso   1.000  H
  C2368    1.0000 0.51110  0.35090  0.94932  Biso   1.000  C
  H4286    1.0000 0.52338  0.35771  0.87181  Biso   1.000  H
  C2369    1.0000 0.51110  0.35090  0.94928  Biso   1.000  C
  H4287    1.0000 0.55390  0.23660  0.81710  Biso   1.000  H
  H4288    1.0000 0.52549  0.22631  0.87290  Biso   1.000  H
  C2370    1.0000 0.52501  0.15810  0.82892  Biso   1.000  C
  C2371    1.0000 0.52501  0.15810  0.82888  Biso   1.000  C
  C2372    1.0000 0.55247  0.16752  0.81951  Biso   1.000  C
  H4289    1.0000 0.53719  0.22920  0.87049  Biso   1.000  H
  H4290    1.0000 0.56660  0.24942  0.81759  Biso   1.000  H
  H4291    1.0000 0.91961  0.46362  0.86169  Biso   1.000  H
  H4292    1.0000 0.88609  0.51778  0.88122  Biso   1.000  H
  C2373    1.0000 0.92098  0.52210  0.80841  Biso   1.000  C
  H4293    1.0000 0.88609  0.51778  0.88118  Biso   1.000  H
  C2374    1.0000 0.92098  0.52210  0.80838  Biso   1.000  C
  C2375    1.0000 0.90401  0.53401  0.82470  Biso   1.000  C
  H4294    1.0000 0.90438  0.46679  0.86948  Biso   1.000  H
  H4295    1.0000 0.86690  0.51640  0.89649  Biso   1.000  H
  H4296    1.0000 0.99868  0.44550  0.10900  Biso   1.000  H
  C2376    1.0000 0.92568  0.49749  0.13820  Biso   1.000  C
  C2377    1.0000 0.90702  0.49401  0.12522  Biso   1.000  C
  H4297    1.0000 0.98181  0.43960  0.09688  Biso   1.000  H
  H4298    1.0000 0.03400  0.49769  0.13180  Biso   1.000  H
  H4299    1.0000 0.01850  0.48981  0.12251  Biso   1.000  H
  C2378    1.0000 0.22761  0.48562  0.09971  Biso   1.000  C
  H4300    1.0000 0.15482  0.43541  0.06389  Biso   1.000  H
  C2379    1.0000 0.64667  0.42520  0.02589  Biso   1.000  C
  H4301    1.0000 0.85747  0.45951  0.99488  Biso   1.000  H
  H4302    1.0000 0.80528  0.42722  0.95880  Biso   1.000  H
  H4303    1.0000 0.83238  0.44772  0.96520  Biso   1.000  H
  C2380    1.0000 0.82099  0.38821  0.02920  Biso   1.000  C
  C2381    1.0000 0.80918  0.38049  0.00768  Biso   1.000  C
  H4304    1.0000 0.85689  0.45329  0.02250  Biso   1.000  H
  H4305    1.0000 0.78330  0.63802  0.97739  Biso   1.000  H
  H4306    1.0000 0.82030  0.60190  0.93468  Biso   1.000  H
  C2382    1.0000 0.89827  0.63410  0.98788  Biso   1.000  C
  H4307    1.0000 0.80692  0.62710  0.95579  Biso   1.000  H
  C2383    1.0000 0.86980  0.65409  0.01622  Biso   1.000  C
  H4308    1.0000 0.76369  0.63031  0.00730  Biso   1.000  H
  C2384    1.0000 0.31569  0.60791  0.15091  Biso   1.000  C
  C2385    1.0000 0.31569  0.60791  0.15088  Biso   1.000  C
  H4309    1.0000 0.35138  0.73250  0.24840  Biso   1.000  H
  H4310    1.0000 0.38817  0.67881  0.26639  Biso   1.000  H
  C2386    1.0000 0.27732  0.67201  0.26300  Biso   1.000  C
  C2387    1.0000 0.29002  0.66370  0.26458  Biso   1.000  C
  H4311    1.0000 0.37120  0.72051  0.25788  Biso   1.000  H
  H4312    1.0000 0.40140  0.66140  0.26228  Biso   1.000  H
  H4313    1.0000 0.55390  0.76340  0.18290  Biso   1.000  H
  H4314    1.0000 0.52549  0.77369  0.12710  Biso   1.000  H
  C2388    1.0000 0.52501  0.84190  0.17108  Biso   1.000  C
  C2389    1.0000 0.55247  0.83252  0.18049  Biso   1.000  C
  H4315    1.0000 0.53719  0.77080  0.12951  Biso   1.000  H
  H4316    1.0000 0.56660  0.75058  0.18241  Biso   1.000  H
  H4317    1.0000 0.20357  0.33250  0.62292  Biso   1.000  H
  H4318    1.0000 0.17521  0.33689  0.67981  Biso   1.000  H
  C2390    1.0000 0.22292  0.40570  0.65490  Biso   1.000  C
  H4319    1.0000 0.20357  0.33250  0.62288  Biso   1.000  H
  C2391    1.0000 0.21080  0.34362  0.60351  Biso   1.000  C
  H4320    1.0000 0.32028  0.32700  0.62631  Biso   1.000  H
  H4321    1.0000 0.29250  0.38200  0.64979  Biso   1.000  H
  C2392    1.0000 0.56887  0.38251  0.96249  Biso   1.000  C
  C2393    1.0000 0.46951  0.33080  0.98770  Biso   1.000  C
  H4322    1.0000 0.51352  0.14991  0.79351  Biso   1.000  H
  H4323    1.0000 0.49001  0.13970  0.85040  Biso   1.000  H
  C2394    1.0000 0.59828  0.13618  0.84081  Biso   1.000  C
  H4324    1.0000 0.51352  0.14991  0.79348  Biso   1.000  H
  H4325    1.0000 0.54341  0.16269  0.78309  Biso   1.000  H
  C2395    1.0000 0.62901  0.15058  0.83031  Biso   1.000  C
  H4326    1.0000 0.52048  0.14330  0.83780  Biso   1.000  H
  H4327    1.0000 0.95440  0.50239  0.78682  Biso   1.000  H
  H4328    1.0000 0.93342  0.56012  0.80698  Biso   1.000  H
  C2396    1.0000 0.84213  0.51339  0.78889  Biso   1.000  C
  H4329    1.0000 0.95440  0.50239  0.78678  Biso   1.000  H
  H4330    1.0000 0.94228  0.56051  0.82279  Biso   1.000  H
  C2397    1.0000 0.83101  0.56301  0.81899  Biso   1.000  C
  H4331    1.0000 0.90970  0.50868  0.79690  Biso   1.000  H
  H4332    1.0000 0.91961  0.53642  0.13831  Biso   1.000  H
  H4333    1.0000 0.88609  0.48222  0.11878  Biso   1.000  H
  C2398    1.0000 0.92098  0.47790  0.19159  Biso   1.000  C
  C2399    1.0000 0.90401  0.46599  0.17530  Biso   1.000  C
  H4334    1.0000 0.90438  0.53321  0.13048  Biso   1.000  H
  H4335    1.0000 0.86690  0.48360  0.10351  Biso   1.000  H
  C2400    1.0000 0.24448  0.53812  0.11009  Biso   1.000  C
  C2401    1.0000 0.26830  0.44629  0.12051  Biso   1.000  C
  C2402    1.0000 0.26830  0.44629  0.12048  Biso   1.000  C
  C2403    1.0000 0.58458  0.39248  0.01181  Biso   1.000  C
  C2404    1.0000 0.58458  0.39248  0.01178  Biso   1.000  C
  H4336    1.0000 0.65547  0.43240  0.06050  Biso   1.000  H
  H4337    1.0000 0.78330  0.36202  0.02261  Biso   1.000  H
  H4338    1.0000 0.82030  0.39810  0.06532  Biso   1.000  H
  C2405    1.0000 0.89827  0.36590  0.01212  Biso   1.000  C
  H4339    1.0000 0.78330  0.36202  0.02258  Biso   1.000  H
  H4340    1.0000 0.82030  0.39810  0.06528  Biso   1.000  H
  C2406    1.0000 0.89827  0.36590  0.01208  Biso   1.000  C
  H4341    1.0000 0.80692  0.37290  0.04421  Biso   1.000  H
  C2407    1.0000 0.86980  0.34591  0.98378  Biso   1.000  C
  H4342    1.0000 0.76369  0.36969  0.99270  Biso   1.000  H
  H4343    1.0000 0.89178  0.67221  0.99488  Biso   1.000  H
  C2408    1.0000 0.95999  0.63011  0.95940  Biso   1.000  C
  H4344    1.0000 0.91171  0.65662  0.95459  Biso   1.000  H
  H4345    1.0000 0.94787  0.61919  0.99402  Biso   1.000  H
  H4346    1.0000 0.90881  0.61709  0.02062  Biso   1.000  H
  H4347    1.0000 0.90881  0.61709  0.02058  Biso   1.000  H
  C2409    1.0000 0.92931  0.65551  0.98962  Biso   1.000  C
  H4348    1.0000 0.85230  0.69072  0.02039  Biso   1.000  H
  H4349    1.0000 0.88050  0.64000  0.05012  Biso   1.000  H
  C2410    1.0000 0.30209  0.55039  0.14012  Biso   1.000  C
  C2411    1.0000 0.30209  0.55039  0.14008  Biso   1.000  C
  H4350    1.0000 0.28612  0.63339  0.13549  Biso   1.000  H
  H4351    1.0000 0.26931  0.63529  0.25130  Biso   1.000  H
  H4352    1.0000 0.23831  0.69472  0.25081  Biso   1.000  H
  C2412    1.0000 0.28322  0.67430  0.32422  Biso   1.000  C
  C2413    1.0000 0.28322  0.67430  0.32418  Biso   1.000  C
  C2414    1.0000 0.25592  0.68241  0.31428  Biso   1.000  C
  H4353    1.0000 0.25650  0.67228  0.23741  Biso   1.000  H
  H4354    1.0000 0.29282  0.62461  0.26631  Biso   1.000  H
  H4355    1.0000 0.51352  0.85009  0.20649  Biso   1.000  H
  H4356    1.0000 0.49001  0.86030  0.14960  Biso   1.000  H
  C2415    1.0000 0.59828  0.86382  0.15919  Biso   1.000  C
  H4357    1.0000 0.54341  0.83731  0.21691  Biso   1.000  H
  C2416    1.0000 0.62901  0.84942  0.16969  Biso   1.000  C
  H4358    1.0000 0.52048  0.85670  0.16220  Biso   1.000  H
  H4359    1.0000 0.17922  0.42200  0.64271  Biso   1.000  H
  H4360    1.0000 0.26161  0.41472  0.63210  Biso   1.000  H
  H4361    1.0000 0.23362  0.41899  0.68869  Biso   1.000  H
  H4362    1.0000 0.22440  0.35778  0.57058  Biso   1.000  H
  H4363    1.0000 0.17268  0.36518  0.61769  Biso   1.000  H
  H4364    1.0000 0.19461  0.30698  0.59959  Biso   1.000  H
  H4365    1.0000 0.59760  0.39719  0.93679  Biso   1.000  H
  H4366    1.0000 0.42897  0.31050  0.97949  Biso   1.000  H
  C2417    1.0000 0.48558  0.33958  0.03800  Biso   1.000  C
  H4367    1.0000 0.61162  0.14671  0.87539  Biso   1.000  H
  H4368    1.0000 0.59649  0.09701  0.83972  Biso   1.000  H
  C2418    1.0000 0.65537  0.15569  0.80371  Biso   1.000  C
  H4369    1.0000 0.59649  0.09701  0.83968  Biso   1.000  H
  C2419    1.0000 0.63597  0.09642  0.79919  Biso   1.000  C
  H4370    1.0000 0.63618  0.14469  0.86669  Biso   1.000  H
  H4371    1.0000 0.66270  0.17749  0.81820  Biso   1.000  H
  H4372    1.0000 0.83812  0.52609  0.75412  Biso   1.000  H
  H4373    1.0000 0.80939  0.53329  0.81029  Biso   1.000  H
  H4374    1.0000 0.83032  0.47569  0.79020  Biso   1.000  H
  H4375    1.0000 0.83812  0.52609  0.75408  Biso   1.000  H
  H4376    1.0000 0.82958  0.58121  0.78588  Biso   1.000  H
  H4377    1.0000 0.82600  0.58959  0.84559  Biso   1.000  H
  H4378    1.0000 0.79289  0.53749  0.82079  Biso   1.000  H
  H4379    1.0000 0.95440  0.49761  0.21318  Biso   1.000  H
  H4380    1.0000 0.93342  0.43992  0.19302  Biso   1.000  H
  C2420    1.0000 0.84213  0.48661  0.21111  Biso   1.000  C
  H4381    1.0000 0.93342  0.43992  0.19298  Biso   1.000  H
  C2421    1.0000 0.84213  0.48661  0.21108  Biso   1.000  C
  H4382    1.0000 0.94228  0.43949  0.17721  Biso   1.000  H
  C2422    1.0000 0.83101  0.43699  0.18101  Biso   1.000  C
  H4383    1.0000 0.90970  0.49132  0.20310  Biso   1.000  H
  H4384    1.0000 0.21638  0.56570  0.09651  Biso   1.000  H
  C2423    1.0000 0.32692  0.45899  0.15201  Biso   1.000  C
  H4385    1.0000 0.25729  0.41021  0.11400  Biso   1.000  H
  C2424    1.0000 0.54262  0.37092  0.04929  Biso   1.000  C
  H4386    1.0000 0.90881  0.38291  0.97938  Biso   1.000  H
  H4387    1.0000 0.89178  0.32779  0.00512  Biso   1.000  H
  C2425    1.0000 0.95999  0.36989  0.04060  Biso   1.000  C
  H4388    1.0000 0.89178  0.32779  0.00508  Biso   1.000  H
  H4389    1.0000 0.91171  0.34338  0.04538  Biso   1.000  H
  H4390    1.0000 0.94787  0.38081  0.00598  Biso   1.000  H
  H4391    1.0000 0.85230  0.30932  0.97961  Biso   1.000  H
  H4392    1.0000 0.88050  0.36000  0.94988  Biso   1.000  H
  C2426    1.0000 0.92931  0.34449  0.01038  Biso   1.000  C
  H4393    1.0000 0.94961  0.63521  0.92328  Biso   1.000  H
  H4394    1.0000 0.98181  0.59482  0.96399  Biso   1.000  H
  C2427    1.0000 0.01128  0.67490  0.97901  Biso   1.000  C
  C2428    1.0000 0.99589  0.68831  0.98661  Biso   1.000  C
  C2429    1.0000 0.34279  0.51039  0.15930  Biso   1.000  C
  H4395    1.0000 0.32281  0.65219  0.33618  Biso   1.000  H
  H4396    1.0000 0.29071  0.71110  0.33580  Biso   1.000  H
  C2430    1.0000 0.21412  0.65329  0.34322  Biso   1.000  C
  C2431    1.0000 0.21412  0.65329  0.34318  Biso   1.000  C
  C2432    1.0000 0.27932  0.65492  0.35838  Biso   1.000  C
  H4397    1.0000 0.26588  0.72059  0.31868  Biso   1.000  H
  H4398    1.0000 0.20421  0.67830  0.31139  Biso   1.000  H
  H4399    1.0000 0.61162  0.85329  0.12461  Biso   1.000  H
  H4400    1.0000 0.59649  0.90299  0.16028  Biso   1.000  H
  C2433    1.0000 0.65537  0.84431  0.19629  Biso   1.000  C
  H4401    1.0000 0.61162  0.85329  0.12458  Biso   1.000  H
  C2434    1.0000 0.63597  0.90362  0.20081  Biso   1.000  C
  H4402    1.0000 0.63618  0.85531  0.13331  Biso   1.000  H
  H4403    1.0000 0.66270  0.82251  0.18180  Biso   1.000  H
  C2435    1.0000 0.44141  0.31379  0.07758  Biso   1.000  C
  H4404    1.0000 0.70118  0.14121  0.81349  Biso   1.000  H
  H4405    1.0000 0.65737  0.19450  0.80450  Biso   1.000  H
  H4406    1.0000 0.64361  0.14390  0.76958  Biso   1.000  H
  H4407    1.0000 0.68457  0.08372  0.80108  Biso   1.000  H
  H4408    1.0000 0.62327  0.10271  0.76390  Biso   1.000  H
  H4409    1.0000 0.60419  0.06979  0.81349  Biso   1.000  H
  H4410    1.0000 0.83812  0.47391  0.24588  Biso   1.000  H
  H4411    1.0000 0.80939  0.46671  0.18971  Biso   1.000  H
  H4412    1.0000 0.83032  0.52431  0.20980  Biso   1.000  H
  H4413    1.0000 0.82958  0.41879  0.21409  Biso   1.000  H
  H4414    1.0000 0.82600  0.41041  0.15441  Biso   1.000  H
  H4415    1.0000 0.79289  0.46251  0.17921  Biso   1.000  H
  C2436    1.0000 0.36677  0.41591  0.17680  Biso   1.000  C
  H4416    1.0000 0.55337  0.37800  0.08349  Biso   1.000  H
  H4417    1.0000 0.94961  0.36479  0.07672  Biso   1.000  H
  H4418    1.0000 0.98181  0.40518  0.03601  Biso   1.000  H
  H4419    1.0000 0.94961  0.36479  0.07668  Biso   1.000  H
  C2437    1.0000 0.01128  0.32510  0.02099  Biso   1.000  C
  C2438    1.0000 0.99589  0.31169  0.01339  Biso   1.000  C
  H4420    1.0000 0.98767  0.70932  0.97660  Biso   1.000  H
  H4421    1.0000 0.05408  0.67521  0.95831  Biso   1.000  H
  H4422    1.0000 0.03121  0.66940  0.96659  Biso   1.000  H
  H4423    1.0000 0.02388  0.66781  0.01411  Biso   1.000  H
  H4424    1.0000 0.01418  0.69440  0.02062  Biso   1.000  H
  H4425    1.0000 0.98529  0.72229  0.97069  Biso   1.000  H
  H4426    1.0000 0.38348  0.51921  0.17831  Biso   1.000  H
  H4427    1.0000 0.20357  0.66750  0.37708  Biso   1.000  H
  H4428    1.0000 0.17521  0.66311  0.32019  Biso   1.000  H
  C2439    1.0000 0.22292  0.59430  0.34510  Biso   1.000  C
  C2440    1.0000 0.21080  0.65642  0.39649  Biso   1.000  C
  H4429    1.0000 0.32028  0.67300  0.37369  Biso   1.000  H
  H4430    1.0000 0.29250  0.61800  0.35021  Biso   1.000  H
  H4431    1.0000 0.70118  0.85879  0.18651  Biso   1.000  H
  H4432    1.0000 0.65737  0.80550  0.19550  Biso   1.000  H
  H4433    1.0000 0.64361  0.85610  0.23042  Biso   1.000  H
  H4434    1.0000 0.64361  0.85610  0.23038  Biso   1.000  H
  H4435    1.0000 0.68457  0.91632  0.19889  Biso   1.000  H
  H4436    1.0000 0.62327  0.89729  0.23610  Biso   1.000  H
  H4437    1.0000 0.60419  0.93021  0.18651  Biso   1.000  H
  N184     1.0000 0.46002  0.31620  0.12330  Biso   1.000  N
  H4438    1.0000 0.39940  0.29559  0.06852  Biso   1.000  H
  H4439    1.0000 0.39940  0.29559  0.06848  Biso   1.000  H
  N185     1.0000 0.35048  0.36878  0.17349  Biso   1.000  N
  H4440    1.0000 0.40710  0.42500  0.19629  Biso   1.000  H
  H4441    1.0000 0.98767  0.29068  0.02340  Biso   1.000  H
  H4442    1.0000 0.02388  0.33219  0.98589  Biso   1.000  H
  H4443    1.0000 0.01418  0.30560  0.97938  Biso   1.000  H
  H4444    1.0000 0.05408  0.32479  0.04169  Biso   1.000  H
  H4445    1.0000 0.03121  0.33060  0.03337  Biso   1.000  H
  H4446    1.0000 0.98529  0.27771  0.02931  Biso   1.000  H
  H4447    1.0000 0.17922  0.57800  0.35729  Biso   1.000  H
  H4448    1.0000 0.26161  0.58532  0.36790  Biso   1.000  H
  H4449    1.0000 0.23362  0.58101  0.31131  Biso   1.000  H
  H4450    1.0000 0.23362  0.58101  0.31127  Biso   1.000  H
  H4451    1.0000 0.22440  0.64222  0.42942  Biso   1.000  H
  H4452    1.0000 0.17268  0.63482  0.38231  Biso   1.000  H
  H4453    1.0000 0.19461  0.69302  0.40041  Biso   1.000  H
  C2441    1.0000 0.41621  0.28811  0.16028  Biso   1.000  C
  C2442    1.0000 0.39302  0.32859  0.19979  Biso   1.000  C
  H4454    1.0000 0.37310  0.27501  0.14271  Biso   1.000  H
  C2443    1.0000 0.45817  0.23988  0.17861  Biso   1.000  C
  H4455    1.0000 0.37310  0.27501  0.14267  Biso   1.000  H
  C2444    1.0000 0.46308  0.25191  0.19117  Biso   1.000  C
  H4456    1.0000 0.37557  0.26900  0.14459  Biso   1.000  H
  H4457    1.0000 0.43482  0.34508  0.21638  Biso   1.000  H
  C2445    1.0000 0.34569  0.30129  0.23858  Biso   1.000  C
  C2446    1.0000 0.36308  0.30770  0.24912  Biso   1.000  C
  H4458    1.0000 0.43730  0.34742  0.20961  Biso   1.000  H
  H4459    1.0000 0.42897  0.21978  0.20280  Biso   1.000  H
  H4460    1.0000 0.50061  0.25238  0.19670  Biso   1.000  H
  C2447    1.0000 0.48210  0.20111  0.13451  Biso   1.000  C
  C2448    1.0000 0.48901  0.20898  0.15520  Biso   1.000  C
  H4461    1.0000 0.43619  0.23600  0.21928  Biso   1.000  H
  H4462    1.0000 0.50351  0.27189  0.20528  Biso   1.000  H
  H4463    1.0000 0.37231  0.27240  0.25510  Biso   1.000  H
  H4464    1.0000 0.30452  0.28550  0.22139  Biso   1.000  H
  C2449    1.0000 0.31938  0.34192  0.27978  Biso   1.000  C
  H4465    1.0000 0.31880  0.28859  0.24159  Biso   1.000  H
  H4466    1.0000 0.39682  0.28150  0.26289  Biso   1.000  H
  C2450    1.0000 0.34800  0.34868  0.29020  Biso   1.000  C
  H4467    1.0000 0.44162  0.19509  0.11178  Biso   1.000  H
  H4468    1.0000 0.51969  0.21860  0.11468  Biso   1.000  H
  C2451    1.0000 0.51078  0.14500  0.15389  Biso   1.000  C
  H4469    1.0000 0.52127  0.22508  0.13018  Biso   1.000  H
  H4470    1.0000 0.44821  0.19430  0.13669  Biso   1.000  H
  C2452    1.0000 0.52881  0.16241  0.18357  Biso   1.000  C
  H4471    1.0000 0.35997  0.35391  0.30021  Biso   1.000  H
  H4472    1.0000 0.29861  0.37321  0.26311  Biso   1.000  H
  C2453    1.0000 0.26261  0.31561  0.31541  Biso   1.000  C
  H4473    1.0000 0.35997  0.35391  0.30017  Biso   1.000  H
  H4474    1.0000 0.29861  0.37321  0.26307  Biso   1.000  H
  C2454    1.0000 0.26261  0.31561  0.31537  Biso   1.000  C
  C2455    1.0000 0.30299  0.32590  0.33509  Biso   1.000  C
  H4475    1.0000 0.32191  0.37879  0.27500  Biso   1.000  H
  H4476    1.0000 0.39292  0.36229  0.30348  Biso   1.000  H
  H4477    1.0000 0.47599  0.12950  0.17752  Biso   1.000  H
  H4478    1.0000 0.51547  0.12071  0.12492  Biso   1.000  H
  C2456    1.0000 0.57989  0.14979  0.17970  Biso   1.000  C
  H4479    1.0000 0.47599  0.12950  0.17748  Biso   1.000  H
  H4480    1.0000 0.51547  0.12071  0.12488  Biso   1.000  H
  C2457    1.0000 0.56038  0.12419  0.14990  Biso   1.000  C
  H4481    1.0000 0.52290  0.10659  0.13011  Biso   1.000  H
  H4482    1.0000 0.57562  0.17579  0.20739  Biso   1.000  H
  H4483    1.0000 0.56607  0.17780  0.20521  Biso   1.000  H
  H4484    1.0000 0.49491  0.14402  0.20588  Biso   1.000  H
  H4485    1.0000 0.22861  0.29428  0.29581  Biso   1.000  H
  H4486    1.0000 0.23657  0.34279  0.33471  Biso   1.000  H
  C2458    1.0000 0.30689  0.28000  0.35089  Biso   1.000  C
  H4487    1.0000 0.23657  0.34279  0.33468  Biso   1.000  H
  C2459    1.0000 0.33899  0.29670  0.37719  Biso   1.000  C
  H4488    1.0000 0.27700  0.35589  0.35029  Biso   1.000  H
  H4489    1.0000 0.26720  0.30180  0.32060  Biso   1.000  H
  H4490    1.0000 0.61510  0.16360  0.15550  Biso   1.000  H
  C2460    1.0000 0.60772  0.09610  0.20190  Biso   1.000  C
  C2461    1.0000 0.60382  0.08059  0.18049  Biso   1.000  C
  H4491    1.0000 0.59227  0.14259  0.12619  Biso   1.000  H
  H4492    1.0000 0.31559  0.24562  0.33419  Biso   1.000  H
  H4493    1.0000 0.35317  0.29701  0.35691  Biso   1.000  H
  C2462    1.0000 0.26899  0.26959  0.40451  Biso   1.000  C
  H4494    1.0000 0.35317  0.29701  0.35687  Biso   1.000  H
  H4495    1.0000 0.36371  0.26611  0.36229  Biso   1.000  H
  C2463    1.0000 0.29102  0.27501  0.42328  Biso   1.000  C
  H4496    1.0000 0.37510  0.32051  0.39149  Biso   1.000  H
  H4497    1.0000 0.65331  0.10192  0.21830  Biso   1.000  H
  H4498    1.0000 0.61320  0.07031  0.17469  Biso   1.000  H
  H4499    1.0000 0.57388  0.08261  0.22669  Biso   1.000  H
  H4500    1.0000 0.57219  0.06239  0.20408  Biso   1.000  H
  H4501    1.0000 0.64177  0.09788  0.19938  Biso   1.000  H
  H4502    1.0000 0.62390  0.05492  0.15701  Biso   1.000  H
  H4503    1.0000 0.29698  0.24471  0.42430  Biso   1.000  H
  H4504    1.0000 0.22181  0.25460  0.39879  Biso   1.000  H
  H4505    1.0000 0.26440  0.30311  0.42279  Biso   1.000  H
  H4506    1.0000 0.26251  0.24518  0.41169  Biso   1.000  H
  H4507    1.0000 0.26040  0.30338  0.43540  Biso   1.000  H
  H4508    1.0000 0.32207  0.26330  0.45071  Biso   1.000  H
