data_image0
_cell_length_a       18.971
_cell_length_b       25.275
_cell_length_c       26.578
_cell_angle_alpha    90
_cell_angle_beta     90
_cell_angle_gamma    90

_symmetry_space_group_name_H-M    "P 1"
_symmetry_int_tables_number       1

loop_
  _symmetry_equiv_pos_as_xyz
  'x, y, z'

loop_
  _atom_site_label
  _atom_site_occupancy
  _atom_site_fract_x
  _atom_site_fract_y
  _atom_site_fract_z
  _atom_site_thermal_displace_type
  _atom_site_B_iso_or_equiv
  _atom_site_type_symbol
  C1       1.0000 0.48268  0.78192  0.33701  Biso   1.000  C
  C2       1.0000 0.55580  0.76119  0.32151  Biso   1.000  C
  C3       1.0000 0.54199  0.75889  0.31801  Biso   1.000  C
  H1       1.0000 0.44610  0.76340  0.31710  Biso   1.000  H
  H2       1.0000 0.47451  0.77369  0.37290  Biso   1.000  H
  C4       1.0000 0.47499  0.84190  0.32888  Biso   1.000  C
  C5       1.0000 0.44747  0.83252  0.31951  Biso   1.000  C
  H3       1.0000 0.46281  0.77080  0.37049  Biso   1.000  H
  C6       1.0000 0.56080  0.70061  0.32858  Biso   1.000  C
  H4       1.0000 0.59238  0.77871  0.34209  Biso   1.000  H
  H5       1.0000 0.56470  0.77009  0.28580  Biso   1.000  H
  C7       1.0000 0.46698  0.77500  0.33400  Biso   1.000  C
  H6       1.0000 0.57567  0.78172  0.33641  Biso   1.000  H
  H7       1.0000 0.54741  0.76582  0.28189  Biso   1.000  H
  H8       1.0000 0.48648  0.85009  0.29351  Biso   1.000  H
  H9       1.0000 0.50999  0.86030  0.35040  Biso   1.000  H
  C8       1.0000 0.40172  0.86382  0.34081  Biso   1.000  C
  H10      1.0000 0.45659  0.83731  0.28309  Biso   1.000  H
  C9       1.0000 0.37099  0.84942  0.33031  Biso   1.000  C
  H11      1.0000 0.47947  0.85670  0.33780  Biso   1.000  H
  C10      1.0000 0.63138  0.68012  0.30999  Biso   1.000  C
  N1       1.0000 0.55411  0.68961  0.38197  Biso   1.000  N
  H12      1.0000 0.52169  0.68281  0.30981  Biso   1.000  H
  H13      1.0000 0.52401  0.67881  0.31139  Biso   1.000  H
  H14      1.0000 0.43340  0.75058  0.31759  Biso   1.000  H
  H15      1.0000 0.38838  0.85329  0.37539  Biso   1.000  H
  H16      1.0000 0.40351  0.90299  0.33968  Biso   1.000  H
  C11      1.0000 0.34458  0.84431  0.30371  Biso   1.000  C
  C12      1.0000 0.36398  0.90362  0.29919  Biso   1.000  C
  H17      1.0000 0.36382  0.85531  0.36669  Biso   1.000  H
  H18      1.0000 0.33730  0.82251  0.31820  Biso   1.000  H
  N2       1.0000 0.63629  0.62382  0.32090  Biso   1.000  N
  H19      1.0000 0.66807  0.69780  0.33121  Biso   1.000  H
  C13      1.0000 0.64910  0.69349  0.25551  Biso   1.000  C
  C14      1.0000 0.63597  0.68352  0.25310  Biso   1.000  C
  H20      1.0000 0.67108  0.69990  0.32610  Biso   1.000  H
  C15      1.0000 0.50472  0.65931  0.39661  Biso   1.000  C
  H21      1.0000 0.29877  0.85879  0.31349  Biso   1.000  H
  H22      1.0000 0.34258  0.80550  0.30450  Biso   1.000  H
  H23      1.0000 0.35639  0.85610  0.26958  Biso   1.000  H
  H24      1.0000 0.31538  0.91632  0.30111  Biso   1.000  H
  H25      1.0000 0.37668  0.89729  0.26390  Biso   1.000  H
  H26      1.0000 0.39581  0.93021  0.31349  Biso   1.000  H
  C16      1.0000 0.68431  0.60791  0.34909  Biso   1.000  C
  H27      1.0000 0.64857  0.73250  0.25160  Biso   1.000  H
  H28      1.0000 0.61178  0.67881  0.23361  Biso   1.000  H
  C17      1.0000 0.72268  0.67201  0.23700  Biso   1.000  C
  C18      1.0000 0.70998  0.66370  0.23538  Biso   1.000  C
  H29      1.0000 0.62880  0.72051  0.24208  Biso   1.000  H
  H30      1.0000 0.59860  0.66140  0.23772  Biso   1.000  H
  C19      1.0000 0.48890  0.64910  0.44928  Biso   1.000  C
  H31      1.0000 0.47657  0.64229  0.37181  Biso   1.000  H
  C20      1.0000 0.69791  0.55039  0.35988  Biso   1.000  C
  H32      1.0000 0.71388  0.63339  0.36451  Biso   1.000  H
  H33      1.0000 0.73069  0.63529  0.24870  Biso   1.000  H
  H34      1.0000 0.76169  0.69472  0.24919  Biso   1.000  H
  C21      1.0000 0.71678  0.67430  0.17578  Biso   1.000  C
  C22      1.0000 0.74408  0.68241  0.18568  Biso   1.000  C
  H35      1.0000 0.74350  0.67228  0.26259  Biso   1.000  H
  H36      1.0000 0.70718  0.62461  0.23369  Biso   1.000  H
  C23      1.0000 0.43108  0.61749  0.46249  Biso   1.000  C
  C24      1.0000 0.53049  0.66920  0.48770  Biso   1.000  C
  C25      1.0000 0.65721  0.51039  0.34070  Biso   1.000  C
  C26      1.0000 0.75547  0.53812  0.38991  Biso   1.000  C
  H37      1.0000 0.67719  0.65219  0.16378  Biso   1.000  H
  H38      1.0000 0.70929  0.71110  0.16420  Biso   1.000  H
  C27      1.0000 0.78588  0.65329  0.15678  Biso   1.000  C
  C28      1.0000 0.72068  0.65492  0.14158  Biso   1.000  C
  H39      1.0000 0.73407  0.72059  0.18132  Biso   1.000  H
  H40      1.0000 0.79579  0.67830  0.18861  Biso   1.000  H
  C29      1.0000 0.41537  0.60752  0.51181  Biso   1.000  C
  H41      1.0000 0.40240  0.60281  0.43679  Biso   1.000  H
  C30      1.0000 0.51442  0.66042  0.53800  Biso   1.000  C
  H42      1.0000 0.57098  0.68950  0.47949  Biso   1.000  H
  C31      1.0000 0.67308  0.45899  0.34799  Biso   1.000  C
  H43      1.0000 0.61647  0.51921  0.32169  Biso   1.000  H
  C32      1.0000 0.77239  0.48562  0.40029  Biso   1.000  C
  H44      1.0000 0.78362  0.56570  0.40349  Biso   1.000  H
  H45      1.0000 0.79637  0.66750  0.12288  Biso   1.000  H
  H46      1.0000 0.82479  0.66311  0.17981  Biso   1.000  H
  C33      1.0000 0.77708  0.59430  0.15490  Biso   1.000  C
  C34      1.0000 0.78920  0.65642  0.10351  Biso   1.000  C
  H47      1.0000 0.67967  0.67300  0.12631  Biso   1.000  H
  H48      1.0000 0.70750  0.61800  0.14979  Biso   1.000  H
  C35      1.0000 0.35328  0.57480  0.52589  Biso   1.000  C
  C36      1.0000 0.45738  0.62912  0.54929  Biso   1.000  C
  C37      1.0000 0.55859  0.68621  0.57758  Biso   1.000  C
  C38      1.0000 0.63318  0.41591  0.32320  Biso   1.000  C
  C39      1.0000 0.73170  0.44629  0.37949  Biso   1.000  C
  C40      1.0000 0.83501  0.47169  0.43028  Biso   1.000  C
  H49      1.0000 0.82078  0.57800  0.14271  Biso   1.000  H
  H50      1.0000 0.73839  0.58532  0.13210  Biso   1.000  H
  H51      1.0000 0.76638  0.58101  0.18869  Biso   1.000  H
  H52      1.0000 0.77560  0.64222  0.07058  Biso   1.000  H
  H53      1.0000 0.82732  0.63482  0.11769  Biso   1.000  H
  H54      1.0000 0.80539  0.69302  0.09959  Biso   1.000  H
  N3       1.0000 0.31337  0.55711  0.49421  Biso   1.000  N
  H55      1.0000 0.34447  0.56760  0.56050  Biso   1.000  H
  H56      1.0000 0.44658  0.62200  0.58349  Biso   1.000  H
  N4       1.0000 0.53998  0.68380  0.62330  Biso   1.000  N
  H57      1.0000 0.60060  0.70441  0.56848  Biso   1.000  H
  N5       1.0000 0.64952  0.36878  0.32651  Biso   1.000  N
  H58      1.0000 0.59290  0.42500  0.30371  Biso   1.000  H
  H59      1.0000 0.74271  0.41021  0.38600  Biso   1.000  H
  N6       1.0000 0.87460  0.50580  0.44811  Biso   1.000  N
  H60      1.0000 0.84518  0.43541  0.43611  Biso   1.000  H
  C41      1.0000 0.24991  0.52661  0.51238  Biso   1.000  C
  C42      1.0000 0.58379  0.71189  0.66028  Biso   1.000  C
  C43      1.0000 0.60698  0.32859  0.30021  Biso   1.000  C
  C44      1.0000 0.93970  0.48942  0.47411  Biso   1.000  C
  C45      1.0000 0.24991  0.47339  0.48758  Biso   1.000  C
  H61      1.0000 0.25012  0.52309  0.54989  Biso   1.000  H
  C46      1.0000 0.18650  0.56138  0.49398  Biso   1.000  C
  C47      1.0000 0.18170  0.55921  0.50041  Biso   1.000  C
  H62      1.0000 0.25360  0.52158  0.54970  Biso   1.000  H
  C48      1.0000 0.60698  0.67141  0.69979  Biso   1.000  C
  H63      1.0000 0.62690  0.72499  0.64271  Biso   1.000  H
  C49      1.0000 0.54177  0.76012  0.67861  Biso   1.000  C
  C50      1.0000 0.53687  0.74809  0.69121  Biso   1.000  C
  H64      1.0000 0.62437  0.73100  0.64459  Biso   1.000  H
  C51      1.0000 0.58379  0.28811  0.33968  Biso   1.000  C
  H65      1.0000 0.56518  0.34508  0.28358  Biso   1.000  H
  C52      1.0000 0.65431  0.30129  0.26138  Biso   1.000  C
  C53      1.0000 0.63692  0.30770  0.25088  Biso   1.000  C
  H66      1.0000 0.56270  0.34742  0.29039  Biso   1.000  H
  C54      1.0000 0.93970  0.51058  0.52589  Biso   1.000  C
  H67      1.0000 0.94059  0.44989  0.47588  Biso   1.000  H
  H68      1.0000 0.93817  0.45001  0.47701  Biso   1.000  H
  C55      1.0000 0.00200  0.50801  0.44059  Biso   1.000  C
  C56      1.0000 0.01002  0.50299  0.45150  Biso   1.000  C
  N7       1.0000 0.31337  0.44289  0.50579  Biso   1.000  N
  H69      1.0000 0.25012  0.47691  0.45011  Biso   1.000  H
  C57      1.0000 0.18650  0.43862  0.50598  Biso   1.000  C
  C58      1.0000 0.18170  0.44079  0.49959  Biso   1.000  C
  H70      1.0000 0.25360  0.47842  0.45030  Biso   1.000  H
  H71      1.0000 0.14248  0.54049  0.49488  Biso   1.000  H
  H72      1.0000 0.19472  0.57282  0.45880  Biso   1.000  H
  C59      1.0000 0.17901  0.61179  0.52920  Biso   1.000  C
  C60      1.0000 0.19082  0.61951  0.50771  Biso   1.000  C
  H73      1.0000 0.16762  0.55228  0.46520  Biso   1.000  H
  H74      1.0000 0.14311  0.54671  0.52250  Biso   1.000  H
  N8       1.0000 0.64952  0.63122  0.67349  Biso   1.000  N
  H75      1.0000 0.56518  0.65492  0.71638  Biso   1.000  H
  C61      1.0000 0.65431  0.69871  0.73858  Biso   1.000  C
  C62      1.0000 0.63692  0.69230  0.74908  Biso   1.000  C
  H76      1.0000 0.56270  0.65262  0.70961  Biso   1.000  H
  H77      1.0000 0.57098  0.78022  0.70280  Biso   1.000  H
  H78      1.0000 0.49939  0.74762  0.69670  Biso   1.000  H
  C63      1.0000 0.51790  0.79889  0.63451  Biso   1.000  C
  C64      1.0000 0.51099  0.79102  0.65520  Biso   1.000  C
  H79      1.0000 0.56381  0.76400  0.71928  Biso   1.000  H
  H80      1.0000 0.49649  0.72811  0.70528  Biso   1.000  H
  N9       1.0000 0.53998  0.31620  0.37670  Biso   1.000  N
  H81      1.0000 0.62690  0.27501  0.35729  Biso   1.000  H
  C65      1.0000 0.54177  0.23988  0.32139  Biso   1.000  C
  C66      1.0000 0.53687  0.25191  0.30879  Biso   1.000  C
  H82      1.0000 0.62437  0.26900  0.35541  Biso   1.000  H
  H83      1.0000 0.62769  0.27240  0.24490  Biso   1.000  H
  H84      1.0000 0.69548  0.28550  0.27861  Biso   1.000  H
  C67      1.0000 0.68062  0.34192  0.22018  Biso   1.000  C
  H85      1.0000 0.68120  0.28859  0.25841  Biso   1.000  H
  H86      1.0000 0.60318  0.28150  0.23711  Biso   1.000  H
  C68      1.0000 0.65200  0.34868  0.20980  Biso   1.000  C
  N10      1.0000 0.87460  0.49420  0.55189  Biso   1.000  N
  H87      1.0000 0.94059  0.55011  0.52408  Biso   1.000  H
  H88      1.0000 0.93817  0.54999  0.52299  Biso   1.000  H
  C69      1.0000 0.00200  0.49199  0.55941  Biso   1.000  C
  C70      1.0000 0.01002  0.49701  0.54850  Biso   1.000  C
  H89      1.0000 0.99910  0.54698  0.43709  Biso   1.000  H
  H90      1.0000 0.04649  0.49990  0.45831  Biso   1.000  H
  C71      1.0000 0.00601  0.48439  0.38848  Biso   1.000  C
  C72      1.0000 0.01998  0.47901  0.39980  Biso   1.000  C
  H91      1.0000 0.01381  0.54239  0.44849  Biso   1.000  H
  H92      1.0000 0.04807  0.49132  0.47430  Biso   1.000  H
  C73      1.0000 0.35328  0.42520  0.47411  Biso   1.000  C
  H93      1.0000 0.14248  0.45951  0.50508  Biso   1.000  H
  H94      1.0000 0.19472  0.42722  0.54120  Biso   1.000  H
  C74      1.0000 0.17901  0.38821  0.47080  Biso   1.000  C
  C75      1.0000 0.19082  0.38049  0.49229  Biso   1.000  C
  H95      1.0000 0.16762  0.44772  0.53480  Biso   1.000  H
  H96      1.0000 0.14311  0.45329  0.47750  Biso   1.000  H
  H97      1.0000 0.21670  0.63802  0.52261  Biso   1.000  H
  H98      1.0000 0.17970  0.60190  0.56528  Biso   1.000  H
  C76      1.0000 0.10168  0.63410  0.51208  Biso   1.000  C
  H99      1.0000 0.19308  0.62710  0.54421  Biso   1.000  H
  C77      1.0000 0.13020  0.65409  0.48378  Biso   1.000  C
  H100     1.0000 0.23631  0.63031  0.49270  Biso   1.000  H
  C78      1.0000 0.63318  0.58409  0.67680  Biso   1.000  C
  H101     1.0000 0.62769  0.72760  0.75510  Biso   1.000  H
  H102     1.0000 0.69548  0.71450  0.72139  Biso   1.000  H
  C79      1.0000 0.68062  0.65812  0.77978  Biso   1.000  C
  H103     1.0000 0.68120  0.71141  0.74159  Biso   1.000  H
  H104     1.0000 0.60318  0.71850  0.76289  Biso   1.000  H
  C80      1.0000 0.65200  0.65132  0.79020  Biso   1.000  C
  H105     1.0000 0.55838  0.80491  0.61178  Biso   1.000  H
  H106     1.0000 0.48031  0.78140  0.61468  Biso   1.000  H
  C81      1.0000 0.48922  0.85500  0.65389  Biso   1.000  C
  H107     1.0000 0.47868  0.77492  0.63018  Biso   1.000  H
  H108     1.0000 0.55179  0.80570  0.63669  Biso   1.000  H
  C82      1.0000 0.47119  0.83759  0.68361  Biso   1.000  C
  C83      1.0000 0.55859  0.31379  0.42238  Biso   1.000  C
  H109     1.0000 0.57098  0.21978  0.29720  Biso   1.000  H
  H110     1.0000 0.49939  0.25238  0.30330  Biso   1.000  H
  C84      1.0000 0.51790  0.20111  0.36549  Biso   1.000  C
  C85      1.0000 0.51099  0.20898  0.34480  Biso   1.000  C
  H111     1.0000 0.56381  0.23600  0.28068  Biso   1.000  H
  H112     1.0000 0.49649  0.27189  0.29468  Biso   1.000  H
  H113     1.0000 0.63998  0.35391  0.19979  Biso   1.000  H
  H114     1.0000 0.70139  0.37321  0.23689  Biso   1.000  H
  C86      1.0000 0.73739  0.31561  0.18459  Biso   1.000  C
  C87      1.0000 0.69701  0.32590  0.16491  Biso   1.000  C
  H115     1.0000 0.67809  0.37879  0.22500  Biso   1.000  H
  H116     1.0000 0.60708  0.36229  0.19652  Biso   1.000  H
  C88      1.0000 0.83501  0.52831  0.56968  Biso   1.000  C
  H117     1.0000 0.99910  0.45302  0.56291  Biso   1.000  H
  H118     1.0000 0.04649  0.50010  0.54169  Biso   1.000  H
  C89      1.0000 0.00601  0.51561  0.61148  Biso   1.000  C
  C90      1.0000 0.01998  0.52099  0.60020  Biso   1.000  C
  H119     1.0000 0.01381  0.45761  0.55151  Biso   1.000  H
  H120     1.0000 0.04807  0.50868  0.52570  Biso   1.000  H
  H121     1.0000 0.96600  0.49769  0.36820  Biso   1.000  H
  H122     1.0000 0.98150  0.48981  0.37749  Biso   1.000  H
  H123     1.0000 0.00127  0.44550  0.39100  Biso   1.000  H
  C91      1.0000 0.07427  0.49749  0.36180  Biso   1.000  C
  C92      1.0000 0.09298  0.49401  0.37478  Biso   1.000  C
  H124     1.0000 0.01819  0.43960  0.40312  Biso   1.000  H
  C93      1.0000 0.41537  0.39248  0.48819  Biso   1.000  C
  H125     1.0000 0.34447  0.43240  0.43950  Biso   1.000  H
  H126     1.0000 0.21670  0.36202  0.47739  Biso   1.000  H
  H127     1.0000 0.17970  0.39810  0.43468  Biso   1.000  H
  C94      1.0000 0.10168  0.36590  0.48788  Biso   1.000  C
  H128     1.0000 0.19308  0.37290  0.45579  Biso   1.000  H
  C95      1.0000 0.13020  0.34591  0.51618  Biso   1.000  C
  H129     1.0000 0.23631  0.36969  0.50730  Biso   1.000  H
  H130     1.0000 0.10822  0.67221  0.50508  Biso   1.000  H
  H131     1.0000 0.09119  0.61709  0.47938  Biso   1.000  H
  C96      1.0000 0.04001  0.63011  0.54060  Biso   1.000  C
  H132     1.0000 0.08829  0.65662  0.54541  Biso   1.000  H
  H133     1.0000 0.05208  0.61919  0.50598  Biso   1.000  H
  C97      1.0000 0.07069  0.65551  0.51038  Biso   1.000  C
  H134     1.0000 0.14770  0.69072  0.47961  Biso   1.000  H
  H135     1.0000 0.11950  0.64000  0.44988  Biso   1.000  H
  C98      1.0000 0.67308  0.54101  0.65201  Biso   1.000  C
  H136     1.0000 0.59290  0.57500  0.69629  Biso   1.000  H
  H137     1.0000 0.63998  0.64609  0.80021  Biso   1.000  H
  H138     1.0000 0.70139  0.62679  0.76311  Biso   1.000  H
  C99      1.0000 0.73739  0.68439  0.81541  Biso   1.000  C
  C100     1.0000 0.69701  0.67410  0.83509  Biso   1.000  C
  H139     1.0000 0.67809  0.62121  0.77500  Biso   1.000  H
  H140     1.0000 0.60708  0.63771  0.80348  Biso   1.000  H
  H141     1.0000 0.52401  0.87050  0.67748  Biso   1.000  H
  H142     1.0000 0.48448  0.87929  0.62488  Biso   1.000  H
  C101     1.0000 0.42011  0.85021  0.67970  Biso   1.000  C
  C102     1.0000 0.43962  0.87581  0.64990  Biso   1.000  C
  H143     1.0000 0.47710  0.89341  0.63011  Biso   1.000  H
  H144     1.0000 0.42438  0.82421  0.70739  Biso   1.000  H
  H145     1.0000 0.43387  0.82220  0.70521  Biso   1.000  H
  H146     1.0000 0.50509  0.85598  0.70588  Biso   1.000  H
  C103     1.0000 0.51442  0.33958  0.46200  Biso   1.000  C
  H147     1.0000 0.60060  0.29559  0.43148  Biso   1.000  H
  H148     1.0000 0.55838  0.19509  0.38822  Biso   1.000  H
  H149     1.0000 0.48031  0.21860  0.38528  Biso   1.000  H
  C104     1.0000 0.48922  0.14500  0.34611  Biso   1.000  C
  H150     1.0000 0.47868  0.22508  0.36978  Biso   1.000  H
  H151     1.0000 0.55179  0.19430  0.36331  Biso   1.000  H
  C105     1.0000 0.47119  0.16241  0.31639  Biso   1.000  C
  H152     1.0000 0.77139  0.29428  0.20419  Biso   1.000  H
  H153     1.0000 0.76338  0.34279  0.16529  Biso   1.000  H
  C106     1.0000 0.69311  0.28000  0.14911  Biso   1.000  C
  C107     1.0000 0.66101  0.29670  0.12281  Biso   1.000  C
  H154     1.0000 0.72300  0.35589  0.14971  Biso   1.000  H
  H155     1.0000 0.73280  0.30180  0.17940  Biso   1.000  H
  C108     1.0000 0.77239  0.51442  0.59971  Biso   1.000  C
  H156     1.0000 0.84518  0.56459  0.56389  Biso   1.000  H
  H157     1.0000 0.96600  0.50231  0.63180  Biso   1.000  H
  H158     1.0000 0.98150  0.51019  0.62251  Biso   1.000  H
  H159     1.0000 0.00127  0.55450  0.60900  Biso   1.000  H
  C109     1.0000 0.07427  0.50251  0.63820  Biso   1.000  C
  C110     1.0000 0.09298  0.50599  0.62518  Biso   1.000  C
  H160     1.0000 0.01819  0.56040  0.59688  Biso   1.000  H
  H161     1.0000 0.08039  0.53642  0.36169  Biso   1.000  H
  H162     1.0000 0.11391  0.48222  0.38118  Biso   1.000  H
  C111     1.0000 0.07896  0.47790  0.30841  Biso   1.000  C
  C112     1.0000 0.09599  0.46599  0.32470  Biso   1.000  C
  H163     1.0000 0.09557  0.53321  0.36948  Biso   1.000  H
  H164     1.0000 0.13310  0.48360  0.39649  Biso   1.000  H
  C113     1.0000 0.45738  0.37092  0.45071  Biso   1.000  C
  C114     1.0000 0.43108  0.38251  0.53751  Biso   1.000  C
  H165     1.0000 0.10822  0.32779  0.49488  Biso   1.000  H
  H166     1.0000 0.09119  0.38291  0.52058  Biso   1.000  H
  C115     1.0000 0.04001  0.36989  0.45940  Biso   1.000  C
  H167     1.0000 0.08829  0.34338  0.45459  Biso   1.000  H
  H168     1.0000 0.05208  0.38081  0.49398  Biso   1.000  H
  C116     1.0000 0.07069  0.34449  0.48958  Biso   1.000  C
  H169     1.0000 0.14770  0.30932  0.52039  Biso   1.000  H
  H170     1.0000 0.11950  0.36000  0.55008  Biso   1.000  H
  C117     1.0000 0.98872  0.67490  0.52099  Biso   1.000  C
  H171     1.0000 0.05039  0.63521  0.57668  Biso   1.000  H
  H172     1.0000 0.01819  0.59482  0.53601  Biso   1.000  H
  C118     1.0000 0.00411  0.68831  0.51339  Biso   1.000  C
  C119     1.0000 0.65721  0.48961  0.65930  Biso   1.000  C
  C120     1.0000 0.73170  0.55371  0.62051  Biso   1.000  C
  H173     1.0000 0.77139  0.70572  0.79581  Biso   1.000  H
  H174     1.0000 0.76338  0.65721  0.83468  Biso   1.000  H
  C121     1.0000 0.69311  0.72000  0.85089  Biso   1.000  C
  C122     1.0000 0.66101  0.70330  0.87719  Biso   1.000  C
  H175     1.0000 0.72300  0.64411  0.85029  Biso   1.000  H
  H176     1.0000 0.73280  0.69820  0.82060  Biso   1.000  H
  H177     1.0000 0.38490  0.83640  0.65550  Biso   1.000  H
  C123     1.0000 0.39228  0.90390  0.70190  Biso   1.000  C
  C124     1.0000 0.39618  0.91941  0.68049  Biso   1.000  C
  H178     1.0000 0.40767  0.85741  0.62619  Biso   1.000  H
  C125     1.0000 0.53049  0.33080  0.51230  Biso   1.000  C
  H179     1.0000 0.52401  0.12950  0.32248  Biso   1.000  H
  H180     1.0000 0.48448  0.12071  0.37508  Biso   1.000  H
  C126     1.0000 0.42011  0.14979  0.32030  Biso   1.000  C
  C127     1.0000 0.43962  0.12419  0.35010  Biso   1.000  C
  H181     1.0000 0.47710  0.10659  0.36989  Biso   1.000  H
  H182     1.0000 0.42438  0.17579  0.29261  Biso   1.000  H
  H183     1.0000 0.43387  0.17780  0.29479  Biso   1.000  H
  H184     1.0000 0.50509  0.14402  0.29412  Biso   1.000  H
  H185     1.0000 0.68441  0.24562  0.16581  Biso   1.000  H
  H186     1.0000 0.64678  0.29701  0.14309  Biso   1.000  H
  C128     1.0000 0.73101  0.26959  0.09549  Biso   1.000  C
  H187     1.0000 0.63629  0.26611  0.13771  Biso   1.000  H
  C129     1.0000 0.70898  0.27501  0.07672  Biso   1.000  C
  H188     1.0000 0.62490  0.32051  0.10851  Biso   1.000  H
  C130     1.0000 0.75547  0.46192  0.61009  Biso   1.000  C
  H189     1.0000 0.08039  0.46362  0.63831  Biso   1.000  H
  H190     1.0000 0.11391  0.51778  0.61878  Biso   1.000  H
  C131     1.0000 0.07896  0.52210  0.69159  Biso   1.000  C
  C132     1.0000 0.09599  0.53401  0.67530  Biso   1.000  C
  H191     1.0000 0.09557  0.46679  0.63048  Biso   1.000  H
  H192     1.0000 0.13310  0.51640  0.60351  Biso   1.000  H
  H193     1.0000 0.04560  0.49761  0.28682  Biso   1.000  H
  H194     1.0000 0.06658  0.43992  0.30698  Biso   1.000  H
  C133     1.0000 0.15787  0.48661  0.28889  Biso   1.000  C
  H195     1.0000 0.05767  0.43949  0.32279  Biso   1.000  H
  C134     1.0000 0.16899  0.43699  0.31899  Biso   1.000  C
  H196     1.0000 0.09030  0.49132  0.29690  Biso   1.000  H
  H197     1.0000 0.44658  0.37800  0.41651  Biso   1.000  H
  C135     1.0000 0.48890  0.35090  0.55068  Biso   1.000  C
  H198     1.0000 0.40240  0.39719  0.56321  Biso   1.000  H
  C136     1.0000 0.98872  0.32510  0.47901  Biso   1.000  C
  H199     1.0000 0.05039  0.36479  0.42328  Biso   1.000  H
  H200     1.0000 0.01819  0.40518  0.46399  Biso   1.000  H
  C137     1.0000 0.00411  0.31169  0.48661  Biso   1.000  C
  H201     1.0000 0.94592  0.67521  0.54169  Biso   1.000  H
  H202     1.0000 0.97612  0.66781  0.48589  Biso   1.000  H
  H203     1.0000 0.96879  0.66940  0.53341  Biso   1.000  H
  H204     1.0000 0.98582  0.69440  0.47938  Biso   1.000  H
  H205     1.0000 0.01228  0.70932  0.52340  Biso   1.000  H
  H206     1.0000 0.01471  0.72229  0.52931  Biso   1.000  H
  C138     1.0000 0.69791  0.44961  0.64008  Biso   1.000  C
  H207     1.0000 0.61647  0.48079  0.67831  Biso   1.000  H
  H208     1.0000 0.74271  0.58979  0.61400  Biso   1.000  H
  H209     1.0000 0.68441  0.75442  0.83419  Biso   1.000  H
  H210     1.0000 0.64678  0.70299  0.85691  Biso   1.000  H
  C139     1.0000 0.73101  0.73041  0.90451  Biso   1.000  C
  H211     1.0000 0.63629  0.73389  0.86229  Biso   1.000  H
  C140     1.0000 0.70898  0.72499  0.92328  Biso   1.000  C
  H212     1.0000 0.62490  0.67949  0.89149  Biso   1.000  H
  H213     1.0000 0.34669  0.89812  0.71830  Biso   1.000  H
  H214     1.0000 0.38680  0.92969  0.67469  Biso   1.000  H
  H215     1.0000 0.42607  0.91739  0.72669  Biso   1.000  H
  H216     1.0000 0.42781  0.93761  0.70408  Biso   1.000  H
  H217     1.0000 0.35818  0.90212  0.69941  Biso   1.000  H
  H218     1.0000 0.37610  0.94508  0.65701  Biso   1.000  H
  H219     1.0000 0.57098  0.31050  0.52051  Biso   1.000  H
  H220     1.0000 0.38490  0.16360  0.34450  Biso   1.000  H
  C141     1.0000 0.39228  0.09610  0.29810  Biso   1.000  C
  C142     1.0000 0.39618  0.08059  0.31951  Biso   1.000  C
  H221     1.0000 0.40767  0.14259  0.37381  Biso   1.000  H
  H222     1.0000 0.70297  0.24471  0.07570  Biso   1.000  H
  H223     1.0000 0.77819  0.25460  0.10121  Biso   1.000  H
  H224     1.0000 0.73560  0.30311  0.07721  Biso   1.000  H
  H225     1.0000 0.73749  0.24518  0.08831  Biso   1.000  H
  H226     1.0000 0.73960  0.30338  0.06460  Biso   1.000  H
  H227     1.0000 0.67788  0.26330  0.04929  Biso   1.000  H
  H228     1.0000 0.78362  0.43430  0.59651  Biso   1.000  H
  H229     1.0000 0.04560  0.50239  0.71318  Biso   1.000  H
  H230     1.0000 0.06658  0.56012  0.69298  Biso   1.000  H
  C143     1.0000 0.15787  0.51339  0.71108  Biso   1.000  C
  H231     1.0000 0.05767  0.56051  0.67718  Biso   1.000  H
  C144     1.0000 0.16899  0.56301  0.68098  Biso   1.000  C
  H232     1.0000 0.09030  0.50868  0.70310  Biso   1.000  H
  H233     1.0000 0.16188  0.47391  0.25408  Biso   1.000  H
  H234     1.0000 0.19061  0.46671  0.31029  Biso   1.000  H
  H235     1.0000 0.16968  0.52431  0.29020  Biso   1.000  H
  H236     1.0000 0.17037  0.41879  0.28591  Biso   1.000  H
  H237     1.0000 0.17400  0.41041  0.34559  Biso   1.000  H
  H238     1.0000 0.20711  0.46251  0.32079  Biso   1.000  H
  C145     1.0000 0.50472  0.34069  0.60339  Biso   1.000  C
  H239     1.0000 0.94592  0.32479  0.45831  Biso   1.000  H
  H240     1.0000 0.97612  0.33219  0.51411  Biso   1.000  H
  H241     1.0000 0.96879  0.33060  0.46659  Biso   1.000  H
  H242     1.0000 0.98582  0.30560  0.52058  Biso   1.000  H
  H243     1.0000 0.01228  0.29068  0.47660  Biso   1.000  H
  H244     1.0000 0.01471  0.27771  0.47069  Biso   1.000  H
  C146     1.0000 0.68431  0.39209  0.65088  Biso   1.000  C
  H245     1.0000 0.70297  0.75529  0.92430  Biso   1.000  H
  H246     1.0000 0.77819  0.74540  0.89879  Biso   1.000  H
  H247     1.0000 0.73560  0.69689  0.92279  Biso   1.000  H
  H248     1.0000 0.73749  0.75482  0.91169  Biso   1.000  H
  H249     1.0000 0.73960  0.69662  0.93540  Biso   1.000  H
  H250     1.0000 0.67788  0.73670  0.95071  Biso   1.000  H
  H251     1.0000 0.34669  0.10192  0.28170  Biso   1.000  H
  H252     1.0000 0.38680  0.07031  0.32531  Biso   1.000  H
  H253     1.0000 0.42607  0.08261  0.27331  Biso   1.000  H
  H254     1.0000 0.42781  0.06239  0.29588  Biso   1.000  H
  H255     1.0000 0.35818  0.09788  0.30059  Biso   1.000  H
  H256     1.0000 0.37610  0.05492  0.34299  Biso   1.000  H
  H257     1.0000 0.16188  0.52609  0.74588  Biso   1.000  H
  H258     1.0000 0.19061  0.53329  0.68971  Biso   1.000  H
  H259     1.0000 0.16968  0.47569  0.70980  Biso   1.000  H
  H260     1.0000 0.17037  0.58121  0.71409  Biso   1.000  H
  H261     1.0000 0.17400  0.58959  0.65441  Biso   1.000  H
  H262     1.0000 0.20711  0.53749  0.67921  Biso   1.000  H
  N11      1.0000 0.55411  0.31039  0.61803  Biso   1.000  N
  H263     1.0000 0.47657  0.35771  0.62819  Biso   1.000  H
  N12      1.0000 0.63629  0.37618  0.67910  Biso   1.000  N
  H264     1.0000 0.71388  0.36661  0.63549  Biso   1.000  H
  C147     1.0000 0.56080  0.29939  0.67138  Biso   1.000  C
  C148     1.0000 0.63138  0.31992  0.69001  Biso   1.000  C
  H265     1.0000 0.52169  0.31719  0.69019  Biso   1.000  H
  C149     1.0000 0.55580  0.23881  0.67849  Biso   1.000  C
  C150     1.0000 0.54199  0.24111  0.68199  Biso   1.000  C
  H266     1.0000 0.52401  0.32119  0.68858  Biso   1.000  H
  H267     1.0000 0.66807  0.30220  0.66879  Biso   1.000  H
  C151     1.0000 0.64910  0.30651  0.74449  Biso   1.000  C
  C152     1.0000 0.63597  0.31652  0.74690  Biso   1.000  C
  H268     1.0000 0.67108  0.30010  0.67390  Biso   1.000  H
  H269     1.0000 0.59238  0.22129  0.65791  Biso   1.000  H
  H270     1.0000 0.56470  0.22991  0.71420  Biso   1.000  H
  C153     1.0000 0.48268  0.21808  0.66299  Biso   1.000  C
  C154     1.0000 0.46698  0.22500  0.66600  Biso   1.000  C
  H271     1.0000 0.57567  0.21832  0.66359  Biso   1.000  H
  H272     1.0000 0.54741  0.23418  0.71811  Biso   1.000  H
  H273     1.0000 0.64857  0.26750  0.74840  Biso   1.000  H
  H274     1.0000 0.61178  0.32119  0.76639  Biso   1.000  H
  C155     1.0000 0.72268  0.32799  0.76300  Biso   1.000  C
  C156     1.0000 0.70998  0.33630  0.76458  Biso   1.000  C
  H275     1.0000 0.62880  0.27949  0.75788  Biso   1.000  H
  H276     1.0000 0.59860  0.33860  0.76228  Biso   1.000  H
  H277     1.0000 0.44610  0.23660  0.68290  Biso   1.000  H
  H278     1.0000 0.47451  0.22631  0.62710  Biso   1.000  H
  C157     1.0000 0.47499  0.15810  0.67108  Biso   1.000  C
  C158     1.0000 0.44747  0.16752  0.68049  Biso   1.000  C
  H279     1.0000 0.46281  0.22920  0.62951  Biso   1.000  H
  H280     1.0000 0.43340  0.24942  0.68241  Biso   1.000  H
  H281     1.0000 0.73069  0.36471  0.75130  Biso   1.000  H
  H282     1.0000 0.76169  0.30528  0.75081  Biso   1.000  H
  C159     1.0000 0.71678  0.32570  0.82418  Biso   1.000  C
  C160     1.0000 0.74408  0.31759  0.81428  Biso   1.000  C
  H283     1.0000 0.74350  0.32772  0.73738  Biso   1.000  H
  H284     1.0000 0.70718  0.37539  0.76631  Biso   1.000  H
  H285     1.0000 0.48648  0.14991  0.70649  Biso   1.000  H
  H286     1.0000 0.50999  0.13970  0.64960  Biso   1.000  H
  C161     1.0000 0.40172  0.13618  0.65919  Biso   1.000  C
  H287     1.0000 0.45659  0.16269  0.71691  Biso   1.000  H
  C162     1.0000 0.37099  0.15058  0.66969  Biso   1.000  C
  H288     1.0000 0.47947  0.14330  0.66220  Biso   1.000  H
  H289     1.0000 0.67719  0.34781  0.83618  Biso   1.000  H
  H290     1.0000 0.70929  0.28890  0.83580  Biso   1.000  H
  C163     1.0000 0.78588  0.34671  0.84318  Biso   1.000  C
  C164     1.0000 0.72068  0.34508  0.85838  Biso   1.000  C
  H291     1.0000 0.73407  0.27941  0.81868  Biso   1.000  H
  H292     1.0000 0.79579  0.32170  0.81139  Biso   1.000  H
  H293     1.0000 0.38838  0.14671  0.62458  Biso   1.000  H
  H294     1.0000 0.40351  0.09701  0.66028  Biso   1.000  H
  C165     1.0000 0.34458  0.15569  0.69629  Biso   1.000  C
  C166     1.0000 0.36398  0.09642  0.70081  Biso   1.000  C
  H295     1.0000 0.36382  0.14469  0.63331  Biso   1.000  H
  H296     1.0000 0.33730  0.17749  0.68180  Biso   1.000  H
  H297     1.0000 0.79637  0.33250  0.87708  Biso   1.000  H
  H298     1.0000 0.82479  0.33689  0.82019  Biso   1.000  H
  C167     1.0000 0.77708  0.40570  0.84510  Biso   1.000  C
  C168     1.0000 0.78920  0.34362  0.89649  Biso   1.000  C
  H299     1.0000 0.67967  0.32700  0.87369  Biso   1.000  H
  H300     1.0000 0.70750  0.38200  0.85018  Biso   1.000  H
  H301     1.0000 0.29877  0.14121  0.68651  Biso   1.000  H
  H302     1.0000 0.34258  0.19450  0.69550  Biso   1.000  H
  H303     1.0000 0.35639  0.14390  0.73038  Biso   1.000  H
  H304     1.0000 0.31538  0.08372  0.69889  Biso   1.000  H
  H305     1.0000 0.37668  0.10271  0.73610  Biso   1.000  H
  H306     1.0000 0.39581  0.06979  0.68651  Biso   1.000  H
  H307     1.0000 0.82078  0.42200  0.85729  Biso   1.000  H
  H308     1.0000 0.73839  0.41472  0.86790  Biso   1.000  H
  H309     1.0000 0.76638  0.41899  0.81131  Biso   1.000  H
  H310     1.0000 0.77560  0.35778  0.92938  Biso   1.000  H
  H311     1.0000 0.82732  0.36518  0.88231  Biso   1.000  H
  H312     1.0000 0.80539  0.30698  0.90041  Biso   1.000  H
  C169     1.0000 0.76902  0.76961  0.40451  Biso   1.000  C
  C170     1.0000 0.80692  0.77998  0.35089  Biso   1.000  C
  C171     1.0000 0.80692  0.78002  0.35089  Biso   1.000  C
  C172     1.0000 0.83902  0.79672  0.37719  Biso   1.000  C
  H313     1.0000 0.79701  0.74469  0.42430  Biso   1.000  H
  H314     1.0000 0.72179  0.75458  0.39879  Biso   1.000  H
  H315     1.0000 0.76438  0.80309  0.42279  Biso   1.000  H
  H316     1.0000 0.72179  0.75462  0.39879  Biso   1.000  H
  H317     1.0000 0.76248  0.74520  0.41169  Biso   1.000  H
  H318     1.0000 0.76037  0.80340  0.43540  Biso   1.000  H
  C173     1.0000 0.76258  0.81559  0.31537  Biso   1.000  C
  C174     1.0000 0.80302  0.82591  0.33509  Biso   1.000  C
  H319     1.0000 0.76717  0.80178  0.32060  Biso   1.000  H
  H320     1.0000 0.81561  0.74560  0.33419  Biso   1.000  H
  H321     1.0000 0.85320  0.79699  0.35691  Biso   1.000  H
  H322     1.0000 0.85320  0.79699  0.35687  Biso   1.000  H
  H323     1.0000 0.86369  0.76609  0.36229  Biso   1.000  H
  C175     1.0000 0.79100  0.77500  0.42328  Biso   1.000  C
  H324     1.0000 0.87507  0.82049  0.39149  Biso   1.000  H
  C176     1.0000 0.81941  0.84190  0.27978  Biso   1.000  C
  H325     1.0000 0.72859  0.79430  0.29581  Biso   1.000  H
  H326     1.0000 0.73660  0.84281  0.33471  Biso   1.000  H
  H327     1.0000 0.73660  0.84281  0.33468  Biso   1.000  H
  C177     1.0000 0.84798  0.84870  0.29020  Biso   1.000  C
  H328     1.0000 0.77698  0.85591  0.35029  Biso   1.000  H
  H329     1.0000 0.82210  0.76328  0.45071  Biso   1.000  H
  C178     1.0000 0.84571  0.80131  0.23858  Biso   1.000  C
  C179     1.0000 0.86311  0.80772  0.24912  Biso   1.000  C
  H330     1.0000 0.86000  0.85389  0.30021  Biso   1.000  H
  H331     1.0000 0.79859  0.87319  0.26311  Biso   1.000  H
  H332     1.0000 0.86000  0.85389  0.30017  Biso   1.000  H
  H333     1.0000 0.79859  0.87319  0.26307  Biso   1.000  H
  H334     1.0000 0.82189  0.87881  0.27500  Biso   1.000  H
  H335     1.0000 0.89289  0.86231  0.30348  Biso   1.000  H
  C180     1.0000 0.89299  0.82861  0.19979  Biso   1.000  C
  H336     1.0000 0.87228  0.77238  0.25510  Biso   1.000  H
  H337     1.0000 0.80449  0.78552  0.22139  Biso   1.000  H
  H338     1.0000 0.81878  0.78861  0.24159  Biso   1.000  H
  H339     1.0000 0.89679  0.78148  0.26289  Biso   1.000  H
  C181     1.0000 0.91619  0.78809  0.16028  Biso   1.000  C
  N13      1.0000 0.85051  0.86880  0.17349  Biso   1.000  N
  H340     1.0000 0.93480  0.84510  0.21638  Biso   1.000  H
  H341     1.0000 0.93727  0.84740  0.20961  Biso   1.000  H
  H342     1.0000 0.87307  0.77500  0.14271  Biso   1.000  H
  C182     1.0000 0.95820  0.73990  0.17861  Biso   1.000  C
  H343     1.0000 0.87307  0.77500  0.14267  Biso   1.000  H
  N14      1.0000 0.95999  0.81622  0.12330  Biso   1.000  N
  C183     1.0000 0.96310  0.75189  0.19117  Biso   1.000  C
  H344     1.0000 0.87560  0.76902  0.14459  Biso   1.000  H
  C184     1.0000 0.86680  0.91589  0.17680  Biso   1.000  C
  C185     1.0000 0.94138  0.81381  0.07758  Biso   1.000  C
  H345     1.0000 0.92900  0.71980  0.20280  Biso   1.000  H
  C186     1.0000 0.98208  0.70109  0.13451  Biso   1.000  C
  C187     1.0000 0.98898  0.70900  0.15520  Biso   1.000  C
  H346     1.0000 0.93617  0.73598  0.21928  Biso   1.000  H
  H347     1.0000 0.00058  0.75240  0.19670  Biso   1.000  H
  H348     1.0000 0.00348  0.77191  0.20528  Biso   1.000  H
  C188     1.0000 0.82689  0.95901  0.15201  Biso   1.000  C
  H349     1.0000 0.90707  0.92499  0.19629  Biso   1.000  H
  C189     1.0000 0.98561  0.83960  0.03800  Biso   1.000  C
  H350     1.0000 0.89937  0.79561  0.06848  Biso   1.000  H
  H351     1.0000 0.94160  0.69511  0.11178  Biso   1.000  H
  H352     1.0000 0.94818  0.69432  0.13669  Biso   1.000  H
  H353     1.0000 0.01971  0.71862  0.11468  Biso   1.000  H
  C190     1.0000 0.01081  0.64499  0.15389  Biso   1.000  C
  H354     1.0000 0.02130  0.72510  0.13018  Biso   1.000  H
  C191     1.0000 0.02878  0.66239  0.18357  Biso   1.000  C
  C192     1.0000 0.76828  0.94631  0.12048  Biso   1.000  C
  C193     1.0000 0.84281  0.01041  0.15930  Biso   1.000  C
  C194     1.0000 0.96948  0.83082  0.98770  Biso   1.000  C
  C195     1.0000 0.04259  0.87090  0.04929  Biso   1.000  C
  H355     1.0000 0.97602  0.62952  0.17752  Biso   1.000  H
  H356     1.0000 0.97602  0.62952  0.17748  Biso   1.000  H
  C196     1.0000 0.07991  0.64981  0.17970  Biso   1.000  C
  H357     1.0000 0.01550  0.62069  0.12488  Biso   1.000  H
  C197     1.0000 0.06041  0.62421  0.14990  Biso   1.000  C
  H358     1.0000 0.02288  0.60661  0.13011  Biso   1.000  H
  H359     1.0000 0.99489  0.64400  0.20588  Biso   1.000  H
  H360     1.0000 0.07559  0.67581  0.20739  Biso   1.000  H
  H361     1.0000 0.06610  0.67778  0.20521  Biso   1.000  H
  C198     1.0000 0.72758  0.98560  0.09971  Biso   1.000  C
  H362     1.0000 0.75731  0.91019  0.11400  Biso   1.000  H
  C199     1.0000 0.80207  0.05041  0.14012  Biso   1.000  C
  H363     1.0000 0.88351  0.01919  0.17831  Biso   1.000  H
  C200     1.0000 0.80207  0.05041  0.14008  Biso   1.000  C
  H364     1.0000 0.92900  0.81048  0.97949  Biso   1.000  H
  C201     1.0000 0.01107  0.85088  0.94932  Biso   1.000  C
  C202     1.0000 0.01107  0.85088  0.94928  Biso   1.000  C
  C203     1.0000 0.01107  0.85092  0.94932  Biso   1.000  C
  C204     1.0000 0.01107  0.85092  0.94928  Biso   1.000  C
  C205     1.0000 0.08460  0.89250  0.01181  Biso   1.000  C
  H365     1.0000 0.05340  0.87798  0.08349  Biso   1.000  H
  C206     1.0000 0.08460  0.89250  0.01178  Biso   1.000  C
  H366     1.0000 0.05340  0.87802  0.08349  Biso   1.000  H
  H367     1.0000 0.11507  0.66358  0.15550  Biso   1.000  H
  C207     1.0000 0.10769  0.59608  0.20190  Biso   1.000  C
  H368     1.0000 0.11507  0.66362  0.15550  Biso   1.000  H
  C208     1.0000 0.10379  0.58061  0.18049  Biso   1.000  C
  H369     1.0000 0.09230  0.64261  0.12619  Biso   1.000  H
  C209     1.0000 0.66502  0.97171  0.06968  Biso   1.000  C
  C210     1.0000 0.74450  0.03810  0.11009  Biso   1.000  C
  C211     1.0000 0.81567  0.10789  0.15091  Biso   1.000  C
  C212     1.0000 0.81567  0.10789  0.15088  Biso   1.000  C
  C213     1.0000 0.99531  0.84071  0.89661  Biso   1.000  C
  C214     1.0000 0.06889  0.88249  0.96249  Biso   1.000  C
  C215     1.0000 0.14670  0.92518  0.02589  Biso   1.000  C
  C216     1.0000 0.14670  0.92522  0.02589  Biso   1.000  C
  H370     1.0000 0.15329  0.60190  0.21830  Biso   1.000  H
  H371     1.0000 0.11317  0.57029  0.17469  Biso   1.000  H
  H372     1.0000 0.07390  0.58259  0.22669  Biso   1.000  H
  H373     1.0000 0.07216  0.56241  0.20408  Biso   1.000  H
  H374     1.0000 0.14180  0.59790  0.19938  Biso   1.000  H
  H375     1.0000 0.12387  0.55490  0.15701  Biso   1.000  H
  H376     1.0000 0.65479  0.93539  0.06389  Biso   1.000  H
  N15      1.0000 0.62538  0.00582  0.05189  Biso   1.000  N
  H377     1.0000 0.71641  0.06572  0.09651  Biso   1.000  H
  N16      1.0000 0.86369  0.12380  0.17910  Biso   1.000  N
  H378     1.0000 0.78609  0.13341  0.13549  Biso   1.000  H
  N17      1.0000 0.94586  0.81041  0.88197  Biso   1.000  N
  H379     1.0000 0.02340  0.85769  0.87181  Biso   1.000  H
  H380     1.0000 0.09757  0.89721  0.93679  Biso   1.000  H
  N18      1.0000 0.18660  0.94291  0.99421  Biso   1.000  N
  H381     1.0000 0.15550  0.93238  0.06050  Biso   1.000  H
  H382     1.0000 0.15550  0.93242  0.06050  Biso   1.000  H
  C217     1.0000 0.56028  0.98940  0.02589  Biso   1.000  C
  C218     1.0000 0.86859  0.18010  0.19001  Biso   1.000  C
  C219     1.0000 0.93917  0.79941  0.82862  Biso   1.000  C
  C220     1.0000 0.93917  0.79941  0.82858  Biso   1.000  C
  C221     1.0000 0.25007  0.97341  0.01242  Biso   1.000  C
  C222     1.0000 0.25007  0.97341  0.01238  Biso   1.000  C
  H383     1.0000 0.55938  0.94991  0.02412  Biso   1.000  H
  H384     1.0000 0.55938  0.94991  0.02408  Biso   1.000  H
  H385     1.0000 0.56180  0.94999  0.02299  Biso   1.000  H
  C223     1.0000 0.56028  0.01060  0.97411  Biso   1.000  C
  C224     1.0000 0.56028  0.01060  0.97408  Biso   1.000  C
  C225     1.0000 0.49797  0.00799  0.05941  Biso   1.000  C
  C226     1.0000 0.49001  0.00301  0.04850  Biso   1.000  C
  C227     1.0000 0.85088  0.19351  0.24449  Biso   1.000  C
  C228     1.0000 0.93917  0.20059  0.17138  Biso   1.000  C
  H386     1.0000 0.83190  0.19782  0.16879  Biso   1.000  H
  C229     1.0000 0.86400  0.18350  0.24690  Biso   1.000  C
  H387     1.0000 0.82890  0.19988  0.17390  Biso   1.000  H
  C230     1.0000 0.86859  0.81990  0.80999  Biso   1.000  C
  H388     1.0000 0.97828  0.81721  0.80981  Biso   1.000  H
  C231     1.0000 0.94418  0.73879  0.82151  Biso   1.000  C
  C232     1.0000 0.95799  0.74109  0.81801  Biso   1.000  C
  H389     1.0000 0.97602  0.82121  0.81139  Biso   1.000  H
  C233     1.0000 0.31348  0.93860  0.99402  Biso   1.000  C
  C234     1.0000 0.31348  0.93860  0.99398  Biso   1.000  C
  H390     1.0000 0.24991  0.97689  0.04989  Biso   1.000  H
  C235     1.0000 0.31828  0.94081  0.00038  Biso   1.000  C
  H391     1.0000 0.24638  0.97840  0.04970  Biso   1.000  H
  C236     1.0000 0.25007  0.02659  0.98758  Biso   1.000  C
  C237     1.0000 0.49797  0.99201  0.94059  Biso   1.000  C
  N19      1.0000 0.62538  0.99418  0.94808  Biso   1.000  N
  N20      1.0000 0.62538  0.99422  0.94808  Biso   1.000  N
  C238     1.0000 0.49001  0.99699  0.95150  Biso   1.000  C
  H392     1.0000 0.55938  0.05009  0.97588  Biso   1.000  H
  H393     1.0000 0.56180  0.05001  0.97701  Biso   1.000  H
  H394     1.0000 0.45348  0.99988  0.04169  Biso   1.000  H
  C239     1.0000 0.49402  0.98441  0.11148  Biso   1.000  C
  H395     1.0000 0.45348  0.99992  0.04169  Biso   1.000  H
  C240     1.0000 0.48000  0.97899  0.10020  Biso   1.000  C
  H396     1.0000 0.50087  0.04700  0.06291  Biso   1.000  H
  H397     1.0000 0.48622  0.04241  0.05151  Biso   1.000  H
  H398     1.0000 0.45190  0.99130  0.02570  Biso   1.000  H
  H399     1.0000 0.85140  0.23248  0.24840  Biso   1.000  H
  H400     1.0000 0.88820  0.17879  0.26639  Biso   1.000  H
  C241     1.0000 0.77729  0.17199  0.26300  Biso   1.000  C
  H401     1.0000 0.85140  0.23252  0.24840  Biso   1.000  H
  C242     1.0000 0.79000  0.16372  0.26458  Biso   1.000  C
  H402     1.0000 0.87117  0.22049  0.25788  Biso   1.000  H
  N21      1.0000 0.94586  0.18959  0.11803  Biso   1.000  N
  H403     1.0000 0.97828  0.18279  0.19019  Biso   1.000  H
  C243     1.0000 0.94418  0.26121  0.17849  Biso   1.000  C
  C244     1.0000 0.95799  0.25891  0.18199  Biso   1.000  C
  H404     1.0000 0.97602  0.17879  0.18861  Biso   1.000  H
  H405     1.0000 0.90138  0.16138  0.26228  Biso   1.000  H
  N22      1.0000 0.86369  0.87620  0.82090  Biso   1.000  N
  H406     1.0000 0.83190  0.80222  0.83121  Biso   1.000  H
  C245     1.0000 0.85088  0.80649  0.75551  Biso   1.000  C
  H407     1.0000 0.83190  0.80222  0.83118  Biso   1.000  H
  C246     1.0000 0.86400  0.81650  0.75310  Biso   1.000  C
  H408     1.0000 0.82890  0.80012  0.82610  Biso   1.000  H
  H409     1.0000 0.90760  0.72131  0.84209  Biso   1.000  H
  H410     1.0000 0.93527  0.72989  0.78580  Biso   1.000  H
  H411     1.0000 0.92431  0.71830  0.83641  Biso   1.000  H
  H412     1.0000 0.95261  0.73420  0.78189  Biso   1.000  H
  C247     1.0000 0.01729  0.71810  0.83701  Biso   1.000  C
  C248     1.0000 0.03300  0.72499  0.83400  Biso   1.000  C
  H413     1.0000 0.35749  0.95949  0.99488  Biso   1.000  H
  H414     1.0000 0.30531  0.92720  0.95880  Biso   1.000  H
  H415     1.0000 0.33240  0.94770  0.96520  Biso   1.000  H
  C249     1.0000 0.32096  0.88819  0.02920  Biso   1.000  C
  C250     1.0000 0.30921  0.88051  0.00768  Biso   1.000  C
  H416     1.0000 0.35686  0.95331  0.02250  Biso   1.000  H
  H417     1.0000 0.24991  0.02311  0.95011  Biso   1.000  H
  C251     1.0000 0.31828  0.05919  0.99959  Biso   1.000  C
  H418     1.0000 0.24638  0.02160  0.95030  Biso   1.000  H
  N23      1.0000 0.18660  0.05709  0.00579  Biso   1.000  N
  C252     1.0000 0.31348  0.06140  0.00598  Biso   1.000  C
  C253     1.0000 0.66502  0.02829  0.93028  Biso   1.000  C
  H419     1.0000 0.50087  0.95300  0.93709  Biso   1.000  H
  H420     1.0000 0.48622  0.95759  0.94849  Biso   1.000  H
  H421     1.0000 0.45348  0.00012  0.95831  Biso   1.000  H
  C254     1.0000 0.49402  0.01559  0.88848  Biso   1.000  C
  C255     1.0000 0.48000  0.02101  0.89980  Biso   1.000  C
  H422     1.0000 0.45190  0.00870  0.97430  Biso   1.000  H
  H423     1.0000 0.49871  0.94552  0.10900  Biso   1.000  H
  H424     1.0000 0.53397  0.99771  0.13180  Biso   1.000  H
  C256     1.0000 0.42570  0.99751  0.13820  Biso   1.000  C
  C257     1.0000 0.40699  0.99399  0.12522  Biso   1.000  C
  H425     1.0000 0.51848  0.98979  0.12251  Biso   1.000  H
  H426     1.0000 0.48179  0.93958  0.09688  Biso   1.000  H
  H427     1.0000 0.76928  0.13531  0.25130  Biso   1.000  H
  H428     1.0000 0.73828  0.19470  0.25081  Biso   1.000  H
  C258     1.0000 0.78320  0.17428  0.32422  Biso   1.000  C
  C259     1.0000 0.78320  0.17428  0.32418  Biso   1.000  C
  C260     1.0000 0.78320  0.17432  0.32422  Biso   1.000  C
  C261     1.0000 0.78320  0.17432  0.32418  Biso   1.000  C
  C262     1.0000 0.75589  0.18239  0.31428  Biso   1.000  C
  H429     1.0000 0.75647  0.17230  0.23741  Biso   1.000  H
  H430     1.0000 0.79279  0.12459  0.26631  Biso   1.000  H
  C263     1.0000 0.99531  0.15929  0.10339  Biso   1.000  C
  H431     1.0000 0.90760  0.27869  0.15791  Biso   1.000  H
  H432     1.0000 0.93527  0.27011  0.21420  Biso   1.000  H
  H433     1.0000 0.90760  0.27869  0.15787  Biso   1.000  H
  H434     1.0000 0.92431  0.28170  0.16359  Biso   1.000  H
  H435     1.0000 0.95261  0.26580  0.21811  Biso   1.000  H
  C264     1.0000 0.01729  0.28190  0.16299  Biso   1.000  C
  C265     1.0000 0.03300  0.27501  0.16600  Biso   1.000  C
  C266     1.0000 0.81567  0.89211  0.84909  Biso   1.000  C
  H436     1.0000 0.85140  0.76752  0.75160  Biso   1.000  H
  H437     1.0000 0.88820  0.82121  0.73361  Biso   1.000  H
  C267     1.0000 0.77729  0.82801  0.73700  Biso   1.000  C
  H438     1.0000 0.88820  0.82121  0.73358  Biso   1.000  H
  C268     1.0000 0.79000  0.83632  0.73538  Biso   1.000  C
  H439     1.0000 0.87117  0.77951  0.74208  Biso   1.000  H
  H440     1.0000 0.90138  0.83862  0.73768  Biso   1.000  H
  H441     1.0000 0.05387  0.73662  0.81710  Biso   1.000  H
  H442     1.0000 0.02551  0.72629  0.87290  Biso   1.000  H
  C269     1.0000 0.02499  0.65808  0.82892  Biso   1.000  C
  C270     1.0000 0.02499  0.65808  0.82888  Biso   1.000  C
  C271     1.0000 0.02499  0.65812  0.82892  Biso   1.000  C
  C272     1.0000 0.02499  0.65812  0.82888  Biso   1.000  C
  C273     1.0000 0.05250  0.66750  0.81951  Biso   1.000  C
  H443     1.0000 0.03721  0.72922  0.87049  Biso   1.000  H
  H444     1.0000 0.06658  0.74940  0.81759  Biso   1.000  H
  H445     1.0000 0.28327  0.86200  0.02261  Biso   1.000  H
  C274     1.0000 0.39829  0.86591  0.01212  Biso   1.000  C
  H446     1.0000 0.28327  0.86200  0.02258  Biso   1.000  H
  C275     1.0000 0.39829  0.86591  0.01208  Biso   1.000  C
  H447     1.0000 0.32028  0.89812  0.06528  Biso   1.000  H
  H448     1.0000 0.30689  0.87292  0.04421  Biso   1.000  H
  C276     1.0000 0.36977  0.84590  0.98378  Biso   1.000  C
  H449     1.0000 0.26367  0.86971  0.99270  Biso   1.000  H
  C277     1.0000 0.32096  0.11181  0.97080  Biso   1.000  C
  C278     1.0000 0.30921  0.11949  0.99229  Biso   1.000  C
  H450     1.0000 0.35686  0.04669  0.97750  Biso   1.000  H
  H451     1.0000 0.35749  0.04051  0.00512  Biso   1.000  H
  H452     1.0000 0.30531  0.07280  0.04120  Biso   1.000  H
  H453     1.0000 0.35749  0.04051  0.00508  Biso   1.000  H
  H454     1.0000 0.33240  0.05230  0.03480  Biso   1.000  H
  C279     1.0000 0.14670  0.07482  0.97411  Biso   1.000  C
  C280     1.0000 0.14670  0.07482  0.97408  Biso   1.000  C
  C281     1.0000 0.72758  0.01440  0.90029  Biso   1.000  C
  H455     1.0000 0.65479  0.06461  0.93611  Biso   1.000  H
  H456     1.0000 0.65479  0.06461  0.93607  Biso   1.000  H
  H457     1.0000 0.53397  0.00229  0.86820  Biso   1.000  H
  C282     1.0000 0.42570  0.00249  0.86180  Biso   1.000  C
  H458     1.0000 0.49871  0.05452  0.89100  Biso   1.000  H
  C283     1.0000 0.40699  0.00601  0.87478  Biso   1.000  C
  H459     1.0000 0.51848  0.01021  0.87749  Biso   1.000  H
  H460     1.0000 0.48179  0.06042  0.90308  Biso   1.000  H
  H461     1.0000 0.38612  0.98220  0.11878  Biso   1.000  H
  C284     1.0000 0.42101  0.97792  0.19159  Biso   1.000  C
  C285     1.0000 0.40399  0.96601  0.17530  Biso   1.000  C
  H462     1.0000 0.41959  0.03640  0.13831  Biso   1.000  H
  H463     1.0000 0.40441  0.03319  0.13048  Biso   1.000  H
  H464     1.0000 0.36688  0.98358  0.10351  Biso   1.000  H
  H465     1.0000 0.82278  0.15221  0.33618  Biso   1.000  H
  H466     1.0000 0.79068  0.21112  0.33580  Biso   1.000  H
  C286     1.0000 0.71409  0.15331  0.34318  Biso   1.000  C
  C287     1.0000 0.77929  0.15490  0.35838  Biso   1.000  C
  H467     1.0000 0.76591  0.22061  0.31868  Biso   1.000  H
  H468     1.0000 0.70418  0.17832  0.31139  Biso   1.000  H
  C288     1.0000 0.01107  0.14912  0.05068  Biso   1.000  C
  H469     1.0000 0.02340  0.14231  0.12819  Biso   1.000  H
  H470     1.0000 0.05387  0.26338  0.18290  Biso   1.000  H
  H471     1.0000 0.02551  0.27371  0.12710  Biso   1.000  H
  C289     1.0000 0.02499  0.34192  0.17108  Biso   1.000  C
  H472     1.0000 0.05387  0.26342  0.18290  Biso   1.000  H
  C290     1.0000 0.05250  0.33250  0.18049  Biso   1.000  C
  H473     1.0000 0.03721  0.27078  0.12951  Biso   1.000  H
  H474     1.0000 0.06658  0.25060  0.18241  Biso   1.000  H
  C291     1.0000 0.80207  0.94959  0.85988  Biso   1.000  C
  H475     1.0000 0.78609  0.86659  0.86451  Biso   1.000  H
  H476     1.0000 0.76928  0.86469  0.74870  Biso   1.000  H
  H477     1.0000 0.73828  0.80530  0.74919  Biso   1.000  H
  C292     1.0000 0.78320  0.82572  0.67578  Biso   1.000  C
  C293     1.0000 0.75589  0.81761  0.68568  Biso   1.000  C
  H478     1.0000 0.75647  0.82770  0.76259  Biso   1.000  H
  H479     1.0000 0.79279  0.87541  0.73369  Biso   1.000  H
  H480     1.0000 0.98998  0.63968  0.85040  Biso   1.000  H
  C294     1.0000 0.09831  0.63620  0.84081  Biso   1.000  C
  H481     1.0000 0.01349  0.64989  0.79348  Biso   1.000  H
  H482     1.0000 0.04338  0.66271  0.78309  Biso   1.000  H
  C295     1.0000 0.12899  0.65060  0.83031  Biso   1.000  C
  H483     1.0000 0.02050  0.64328  0.83780  Biso   1.000  H
  H484     1.0000 0.40878  0.88289  0.97938  Biso   1.000  H
  H485     1.0000 0.39181  0.82781  0.00512  Biso   1.000  H
  C296     1.0000 0.45997  0.86991  0.04060  Biso   1.000  C
  H486     1.0000 0.39181  0.82781  0.00508  Biso   1.000  H
  H487     1.0000 0.41168  0.84340  0.04538  Biso   1.000  H
  H488     1.0000 0.44789  0.88079  0.00598  Biso   1.000  H
  H489     1.0000 0.35227  0.80930  0.97961  Biso   1.000  H
  H490     1.0000 0.38048  0.86002  0.94988  Biso   1.000  H
  C297     1.0000 0.42929  0.84451  0.01038  Biso   1.000  C
  H491     1.0000 0.28327  0.13800  0.97739  Biso   1.000  H
  H492     1.0000 0.32028  0.10192  0.93468  Biso   1.000  H
  C298     1.0000 0.39829  0.13409  0.98788  Biso   1.000  C
  H493     1.0000 0.30689  0.12708  0.95579  Biso   1.000  H
  C299     1.0000 0.36977  0.15410  0.01622  Biso   1.000  C
  H494     1.0000 0.26367  0.13029  0.00730  Biso   1.000  H
  C300     1.0000 0.08460  0.10750  0.98819  Biso   1.000  C
  H495     1.0000 0.15550  0.06762  0.93950  Biso   1.000  H
  C301     1.0000 0.74450  0.96190  0.88991  Biso   1.000  C
  C302     1.0000 0.76828  0.05369  0.87949  Biso   1.000  C
  H496     1.0000 0.41959  0.96360  0.86169  Biso   1.000  H
  H497     1.0000 0.40441  0.96681  0.86948  Biso   1.000  H
  C303     1.0000 0.42101  0.02212  0.80841  Biso   1.000  C
  H498     1.0000 0.38612  0.01780  0.88118  Biso   1.000  H
  C304     1.0000 0.42101  0.02212  0.80838  Biso   1.000  C
  C305     1.0000 0.40399  0.03399  0.82470  Biso   1.000  C
  H499     1.0000 0.36688  0.01642  0.89649  Biso   1.000  H
  H500     1.0000 0.45438  0.99759  0.21318  Biso   1.000  H
  H501     1.0000 0.43340  0.93990  0.19302  Biso   1.000  H
  H502     1.0000 0.43340  0.93990  0.19298  Biso   1.000  H
  C306     1.0000 0.34210  0.98659  0.21108  Biso   1.000  C
  H503     1.0000 0.44231  0.93951  0.17721  Biso   1.000  H
  C307     1.0000 0.33098  0.93701  0.18101  Biso   1.000  C
  H504     1.0000 0.40968  0.99130  0.20310  Biso   1.000  H
  H505     1.0000 0.70360  0.16752  0.37708  Biso   1.000  H
  H506     1.0000 0.67519  0.16309  0.32019  Biso   1.000  H
  C308     1.0000 0.72289  0.09432  0.34510  Biso   1.000  C
  C309     1.0000 0.71077  0.15640  0.39649  Biso   1.000  C
  H507     1.0000 0.82030  0.17302  0.37369  Biso   1.000  H
  H508     1.0000 0.79247  0.11798  0.35021  Biso   1.000  H
  C310     1.0000 0.06889  0.11751  0.03751  Biso   1.000  C
  C311     1.0000 0.06889  0.11751  0.03747  Biso   1.000  C
  C312     1.0000 0.96948  0.16922  0.01230  Biso   1.000  C
  H509     1.0000 0.98998  0.36032  0.14960  Biso   1.000  H
  H510     1.0000 0.01349  0.35011  0.20649  Biso   1.000  H
  C313     1.0000 0.09831  0.36380  0.15919  Biso   1.000  C
  H511     1.0000 0.04338  0.33729  0.21691  Biso   1.000  H
  C314     1.0000 0.12899  0.34940  0.16969  Biso   1.000  C
  H512     1.0000 0.02050  0.35672  0.16220  Biso   1.000  H
  C315     1.0000 0.84281  0.98959  0.84070  Biso   1.000  C
  H513     1.0000 0.79068  0.78888  0.66420  Biso   1.000  H
  C316     1.0000 0.71409  0.84669  0.65678  Biso   1.000  C
  H514     1.0000 0.82278  0.84779  0.66378  Biso   1.000  H
  H515     1.0000 0.79068  0.78892  0.66420  Biso   1.000  H
  C317     1.0000 0.77929  0.84510  0.64158  Biso   1.000  C
  H516     1.0000 0.76591  0.77939  0.68128  Biso   1.000  H
  H517     1.0000 0.70418  0.82172  0.68858  Biso   1.000  H
  H518     1.0000 0.11159  0.64669  0.87539  Biso   1.000  H
  H519     1.0000 0.09646  0.59699  0.83972  Biso   1.000  H
  C318     1.0000 0.15540  0.65571  0.80371  Biso   1.000  C
  H520     1.0000 0.09646  0.59699  0.83968  Biso   1.000  H
  C319     1.0000 0.13600  0.59640  0.79919  Biso   1.000  C
  H521     1.0000 0.13621  0.64471  0.86669  Biso   1.000  H
  H522     1.0000 0.16267  0.67751  0.81820  Biso   1.000  H
  H523     1.0000 0.44958  0.86481  0.07672  Biso   1.000  H
  H524     1.0000 0.48179  0.90520  0.03601  Biso   1.000  H
  C320     1.0000 0.51131  0.82508  0.02099  Biso   1.000  C
  H525     1.0000 0.44958  0.86481  0.07668  Biso   1.000  H
  C321     1.0000 0.49586  0.81171  0.01339  Biso   1.000  C
  H526     1.0000 0.39181  0.17219  0.99488  Biso   1.000  H
  C322     1.0000 0.45997  0.13009  0.95940  Biso   1.000  C
  H527     1.0000 0.41168  0.15660  0.95459  Biso   1.000  H
  H528     1.0000 0.44789  0.11921  0.99402  Biso   1.000  H
  H529     1.0000 0.40878  0.11711  0.02062  Biso   1.000  H
  H530     1.0000 0.40878  0.11711  0.02058  Biso   1.000  H
  C323     1.0000 0.42929  0.15549  0.98962  Biso   1.000  C
  H531     1.0000 0.35227  0.19070  0.02039  Biso   1.000  H
  H532     1.0000 0.38048  0.14002  0.05012  Biso   1.000  H
  C324     1.0000 0.04259  0.12910  0.95071  Biso   1.000  C
  H533     1.0000 0.71641  0.93432  0.90349  Biso   1.000  H
  C325     1.0000 0.82689  0.04099  0.84799  Biso   1.000  C
  H534     1.0000 0.75731  0.08981  0.88600  Biso   1.000  H
  H535     1.0000 0.43340  0.06010  0.80698  Biso   1.000  H
  C326     1.0000 0.34210  0.01341  0.78889  Biso   1.000  C
  H536     1.0000 0.45438  0.00241  0.78678  Biso   1.000  H
  H537     1.0000 0.44231  0.06049  0.82279  Biso   1.000  H
  C327     1.0000 0.33098  0.06299  0.81899  Biso   1.000  C
  H538     1.0000 0.40968  0.00870  0.79690  Biso   1.000  H
  H539     1.0000 0.33809  0.97389  0.24588  Biso   1.000  H
  H540     1.0000 0.30942  0.96669  0.18971  Biso   1.000  H
  H541     1.0000 0.33029  0.02429  0.20980  Biso   1.000  H
  H542     1.0000 0.32961  0.91881  0.21409  Biso   1.000  H
  H543     1.0000 0.32597  0.91039  0.15441  Biso   1.000  H
  H544     1.0000 0.29292  0.96249  0.17921  Biso   1.000  H
  H545     1.0000 0.67919  0.07798  0.35729  Biso   1.000  H
  H546     1.0000 0.76158  0.08530  0.36790  Biso   1.000  H
  H547     1.0000 0.73359  0.08099  0.31127  Biso   1.000  H
  H548     1.0000 0.67919  0.07802  0.35729  Biso   1.000  H
  H549     1.0000 0.72437  0.14220  0.42942  Biso   1.000  H
  H550     1.0000 0.67271  0.13480  0.38231  Biso   1.000  H
  H551     1.0000 0.69459  0.19300  0.40041  Biso   1.000  H
  H552     1.0000 0.09757  0.10279  0.06321  Biso   1.000  H
  C328     1.0000 0.98561  0.16040  0.96200  Biso   1.000  C
  H553     1.0000 0.92900  0.18952  0.02051  Biso   1.000  H
  H554     1.0000 0.09646  0.40301  0.16028  Biso   1.000  H
  C329     1.0000 0.15540  0.34429  0.19629  Biso   1.000  C
  H555     1.0000 0.11159  0.35331  0.12458  Biso   1.000  H
  C330     1.0000 0.13600  0.40360  0.20081  Biso   1.000  C
  H556     1.0000 0.13621  0.35529  0.13331  Biso   1.000  H
  H557     1.0000 0.16267  0.32249  0.18180  Biso   1.000  H
  H558     1.0000 0.88351  0.98081  0.82169  Biso   1.000  H
  H559     1.0000 0.67519  0.83691  0.67981  Biso   1.000  H
  C331     1.0000 0.72289  0.90572  0.65490  Biso   1.000  C
  H560     1.0000 0.70360  0.83248  0.62288  Biso   1.000  H
  H561     1.0000 0.70360  0.83252  0.62288  Biso   1.000  H
  C332     1.0000 0.71077  0.84360  0.60351  Biso   1.000  C
  H562     1.0000 0.82030  0.82702  0.62631  Biso   1.000  H
  H563     1.0000 0.79247  0.88202  0.64979  Biso   1.000  H
  H564     1.0000 0.20120  0.64119  0.81349  Biso   1.000  H
  H565     1.0000 0.14359  0.64392  0.76958  Biso   1.000  H
  H566     1.0000 0.15740  0.69452  0.80450  Biso   1.000  H
  H567     1.0000 0.18460  0.58370  0.80108  Biso   1.000  H
  H568     1.0000 0.12329  0.60269  0.76390  Biso   1.000  H
  H569     1.0000 0.10421  0.56981  0.81349  Biso   1.000  H
  H570     1.0000 0.52390  0.83221  0.98589  Biso   1.000  H
  H571     1.0000 0.51421  0.80562  0.97938  Biso   1.000  H
  H572     1.0000 0.55411  0.82481  0.04169  Biso   1.000  H
  H573     1.0000 0.48769  0.79070  0.02340  Biso   1.000  H
  H574     1.0000 0.53118  0.83058  0.03337  Biso   1.000  H
  H575     1.0000 0.48527  0.77769  0.02931  Biso   1.000  H
  H576     1.0000 0.44958  0.13519  0.92328  Biso   1.000  H
  H577     1.0000 0.48179  0.09480  0.96399  Biso   1.000  H
  C333     1.0000 0.51131  0.17492  0.97901  Biso   1.000  C
  C334     1.0000 0.49586  0.18829  0.98661  Biso   1.000  C
  H578     1.0000 0.05340  0.12202  0.91651  Biso   1.000  H
  C335     1.0000 0.86680  0.08411  0.82320  Biso   1.000  C
  H579     1.0000 0.33029  0.97571  0.79020  Biso   1.000  H
  H580     1.0000 0.30942  0.03331  0.81029  Biso   1.000  H
  H581     1.0000 0.33809  0.02611  0.75408  Biso   1.000  H
  H582     1.0000 0.32961  0.08119  0.78588  Biso   1.000  H
  H583     1.0000 0.32597  0.08961  0.84559  Biso   1.000  H
  H584     1.0000 0.29292  0.03751  0.82079  Biso   1.000  H
  C336     1.0000 0.94138  0.18619  0.92242  Biso   1.000  C
  C337     1.0000 0.94138  0.18619  0.92238  Biso   1.000  C
  H585     1.0000 0.20120  0.35881  0.18651  Biso   1.000  H
  H586     1.0000 0.15740  0.30552  0.19550  Biso   1.000  H
  H587     1.0000 0.14359  0.35608  0.23038  Biso   1.000  H
  H588     1.0000 0.14359  0.35612  0.23038  Biso   1.000  H
  H589     1.0000 0.18460  0.41630  0.19889  Biso   1.000  H
  H590     1.0000 0.12329  0.39731  0.23610  Biso   1.000  H
  H591     1.0000 0.10421  0.43019  0.18651  Biso   1.000  H
  H592     1.0000 0.67919  0.92202  0.64271  Biso   1.000  H
  H593     1.0000 0.76158  0.91470  0.63210  Biso   1.000  H
  H594     1.0000 0.73359  0.91901  0.68869  Biso   1.000  H
  H595     1.0000 0.72437  0.85780  0.57058  Biso   1.000  H
  H596     1.0000 0.67271  0.86520  0.61769  Biso   1.000  H
  H597     1.0000 0.69459  0.80700  0.59959  Biso   1.000  H
  H598     1.0000 0.55411  0.17519  0.95831  Biso   1.000  H
  H599     1.0000 0.48769  0.20930  0.97660  Biso   1.000  H
  H600     1.0000 0.53118  0.16942  0.96659  Biso   1.000  H
  H601     1.0000 0.52390  0.16779  0.01411  Biso   1.000  H
  H602     1.0000 0.51421  0.19438  0.02062  Biso   1.000  H
  H603     1.0000 0.48527  0.22231  0.97069  Biso   1.000  H
  N24      1.0000 0.85051  0.13120  0.82651  Biso   1.000  N
  H604     1.0000 0.90707  0.07501  0.80371  Biso   1.000  H
  N25      1.0000 0.95999  0.18382  0.87670  Biso   1.000  N
  H605     1.0000 0.89937  0.20439  0.93148  Biso   1.000  H
  C338     1.0000 0.89299  0.17139  0.80021  Biso   1.000  C
  C339     1.0000 0.91619  0.21191  0.83972  Biso   1.000  C
  C340     1.0000 0.91619  0.21191  0.83968  Biso   1.000  C
  H606     1.0000 0.93480  0.15490  0.78358  Biso   1.000  H
  C341     1.0000 0.84571  0.19869  0.76138  Biso   1.000  C
  C342     1.0000 0.86311  0.19232  0.75088  Biso   1.000  C
  H607     1.0000 0.93727  0.15260  0.79039  Biso   1.000  H
  H608     1.0000 0.87307  0.22500  0.85729  Biso   1.000  H
  C343     1.0000 0.95820  0.26010  0.82139  Biso   1.000  C
  C344     1.0000 0.96310  0.24811  0.80879  Biso   1.000  C
  H609     1.0000 0.87560  0.23102  0.85541  Biso   1.000  H
  H610     1.0000 0.87228  0.22762  0.74490  Biso   1.000  H
  C345     1.0000 0.81941  0.15810  0.72022  Biso   1.000  C
  H611     1.0000 0.80449  0.21452  0.77858  Biso   1.000  H
  C346     1.0000 0.81941  0.15810  0.72018  Biso   1.000  C
  H612     1.0000 0.81878  0.21139  0.75841  Biso   1.000  H
  H613     1.0000 0.89679  0.21852  0.73708  Biso   1.000  H
  C347     1.0000 0.84798  0.15130  0.70980  Biso   1.000  C
  H614     1.0000 0.92900  0.28020  0.79720  Biso   1.000  H
  C348     1.0000 0.98208  0.29891  0.86549  Biso   1.000  C
  C349     1.0000 0.98898  0.29100  0.84480  Biso   1.000  C
  H615     1.0000 0.93617  0.26402  0.78068  Biso   1.000  H
  H616     1.0000 0.00058  0.24760  0.80330  Biso   1.000  H
  H617     1.0000 0.00348  0.22809  0.79472  Biso   1.000  H
  H618     1.0000 0.86000  0.14611  0.69979  Biso   1.000  H
  H619     1.0000 0.79859  0.12681  0.73689  Biso   1.000  H
  C350     1.0000 0.76258  0.18441  0.68459  Biso   1.000  C
  C351     1.0000 0.80302  0.17409  0.66491  Biso   1.000  C
  H620     1.0000 0.82189  0.12119  0.72500  Biso   1.000  H
  H621     1.0000 0.89289  0.13769  0.69648  Biso   1.000  H
  H622     1.0000 0.94160  0.30489  0.88818  Biso   1.000  H
  H623     1.0000 0.94818  0.30572  0.86331  Biso   1.000  H
  C352     1.0000 0.01081  0.35501  0.84611  Biso   1.000  C
  C353     1.0000 0.01081  0.35501  0.84608  Biso   1.000  C
  H624     1.0000 0.01971  0.28142  0.88528  Biso   1.000  H
  H625     1.0000 0.02130  0.27490  0.86982  Biso   1.000  H
  C354     1.0000 0.02878  0.33761  0.81639  Biso   1.000  C
  H626     1.0000 0.72859  0.20570  0.70419  Biso   1.000  H
  H627     1.0000 0.73660  0.15719  0.66529  Biso   1.000  H
  C355     1.0000 0.80692  0.22002  0.64911  Biso   1.000  C
  C356     1.0000 0.83902  0.20332  0.62281  Biso   1.000  C
  H628     1.0000 0.77698  0.14409  0.64971  Biso   1.000  H
  H629     1.0000 0.76717  0.19822  0.67940  Biso   1.000  H
  H630     1.0000 0.97602  0.37052  0.82248  Biso   1.000  H
  H631     1.0000 0.01550  0.37931  0.87508  Biso   1.000  H
  C357     1.0000 0.07991  0.35019  0.82030  Biso   1.000  C
  C358     1.0000 0.06041  0.37579  0.85010  Biso   1.000  C
  H632     1.0000 0.02288  0.39339  0.86989  Biso   1.000  H
  H633     1.0000 0.99489  0.35600  0.79412  Biso   1.000  H
  H634     1.0000 0.07559  0.32419  0.79261  Biso   1.000  H
  H635     1.0000 0.06610  0.32222  0.79479  Biso   1.000  H
  H636     1.0000 0.85320  0.20301  0.64309  Biso   1.000  H
  C359     1.0000 0.76902  0.23039  0.59549  Biso   1.000  C
  H637     1.0000 0.81561  0.25440  0.66578  Biso   1.000  H
  H638     1.0000 0.86369  0.23391  0.63771  Biso   1.000  H
  C360     1.0000 0.79100  0.22500  0.57668  Biso   1.000  C
  H639     1.0000 0.87507  0.17951  0.60851  Biso   1.000  H
  H640     1.0000 0.11507  0.33642  0.84450  Biso   1.000  H
  C361     1.0000 0.10769  0.40392  0.79810  Biso   1.000  C
  C362     1.0000 0.10379  0.41939  0.81951  Biso   1.000  C
  H641     1.0000 0.09230  0.35739  0.87381  Biso   1.000  H
  H642     1.0000 0.79701  0.25531  0.57570  Biso   1.000  H
  H643     1.0000 0.72179  0.24542  0.60121  Biso   1.000  H
  H644     1.0000 0.76438  0.19691  0.57721  Biso   1.000  H
  H645     1.0000 0.76248  0.25480  0.58831  Biso   1.000  H
  H646     1.0000 0.76037  0.19660  0.56460  Biso   1.000  H
  H647     1.0000 0.82210  0.23672  0.54929  Biso   1.000  H
  H648     1.0000 0.15329  0.39810  0.78170  Biso   1.000  H
  H649     1.0000 0.11317  0.42971  0.82531  Biso   1.000  H
  H650     1.0000 0.07390  0.41741  0.77331  Biso   1.000  H
  H651     1.0000 0.07216  0.43759  0.79588  Biso   1.000  H
  H652     1.0000 0.14180  0.40210  0.80059  Biso   1.000  H
  H653     1.0000 0.12387  0.44510  0.84299  Biso   1.000  H
  C363     1.0000 0.52000  0.97899  0.39980  Biso   1.000  C
  C364     1.0000 0.50198  0.00799  0.44059  Biso   1.000  C
  C365     1.0000 0.50999  0.00301  0.45150  Biso   1.000  C
  H654     1.0000 0.50129  0.94552  0.39100  Biso   1.000  H
  C366     1.0000 0.57430  0.99751  0.36180  Biso   1.000  C
  C367     1.0000 0.59301  0.99399  0.37478  Biso   1.000  C
  H655     1.0000 0.48147  0.98979  0.37749  Biso   1.000  H
  H656     1.0000 0.51821  0.93958  0.40312  Biso   1.000  H
  C368     1.0000 0.43967  0.98940  0.47411  Biso   1.000  C
  H657     1.0000 0.54652  0.99988  0.45831  Biso   1.000  H
  C369     1.0000 0.50598  0.98441  0.38848  Biso   1.000  C
  H658     1.0000 0.54652  0.99992  0.45831  Biso   1.000  H
  H659     1.0000 0.49908  0.04700  0.43709  Biso   1.000  H
  H660     1.0000 0.51378  0.04241  0.44849  Biso   1.000  H
  H661     1.0000 0.54810  0.99130  0.47430  Biso   1.000  H
  H662     1.0000 0.61388  0.98220  0.38118  Biso   1.000  H
  C370     1.0000 0.57899  0.97792  0.30841  Biso   1.000  C
  C371     1.0000 0.59601  0.96601  0.32470  Biso   1.000  C
  H663     1.0000 0.58041  0.03640  0.36169  Biso   1.000  H
  H664     1.0000 0.59559  0.03319  0.36948  Biso   1.000  H
  H665     1.0000 0.63307  0.98358  0.39649  Biso   1.000  H
  N26      1.0000 0.37457  0.00582  0.44811  Biso   1.000  N
  H666     1.0000 0.44062  0.94991  0.47588  Biso   1.000  H
  H667     1.0000 0.43820  0.94999  0.47701  Biso   1.000  H
  C372     1.0000 0.43967  0.01060  0.52589  Biso   1.000  C
  H668     1.0000 0.46597  0.99771  0.36820  Biso   1.000  H
  H669     1.0000 0.54557  0.99759  0.28682  Biso   1.000  H
  H670     1.0000 0.56660  0.93990  0.30698  Biso   1.000  H
  C373     1.0000 0.65790  0.98659  0.28889  Biso   1.000  C
  H671     1.0000 0.55769  0.93951  0.32279  Biso   1.000  H
  C374     1.0000 0.66897  0.93701  0.31899  Biso   1.000  C
  H672     1.0000 0.59027  0.99130  0.29690  Biso   1.000  H
  C375     1.0000 0.33498  0.97171  0.43028  Biso   1.000  C
  N27      1.0000 0.37457  0.99418  0.55189  Biso   1.000  N
  C376     1.0000 0.50198  0.99201  0.55941  Biso   1.000  C
  N28      1.0000 0.37457  0.99422  0.55189  Biso   1.000  N
  C377     1.0000 0.50999  0.99699  0.54850  Biso   1.000  C
  H673     1.0000 0.44062  0.05009  0.52408  Biso   1.000  H
  H674     1.0000 0.43820  0.05001  0.52299  Biso   1.000  H
  H675     1.0000 0.66191  0.97389  0.25408  Biso   1.000  H
  H676     1.0000 0.69058  0.96669  0.31029  Biso   1.000  H
  H677     1.0000 0.66971  0.02429  0.29020  Biso   1.000  H
  H678     1.0000 0.67039  0.91881  0.28591  Biso   1.000  H
  H679     1.0000 0.67398  0.91039  0.34559  Biso   1.000  H
  H680     1.0000 0.70708  0.96249  0.32079  Biso   1.000  H
  C378     1.0000 0.27242  0.98560  0.40029  Biso   1.000  C
  H681     1.0000 0.34521  0.93539  0.43611  Biso   1.000  H
  C379     1.0000 0.33498  0.02829  0.56968  Biso   1.000  C
  H682     1.0000 0.49908  0.95300  0.56291  Biso   1.000  H
  H683     1.0000 0.51378  0.95759  0.55151  Biso   1.000  H
  H684     1.0000 0.54652  0.00012  0.54169  Biso   1.000  H
  C380     1.0000 0.50598  0.01559  0.61148  Biso   1.000  C
  C381     1.0000 0.52000  0.02101  0.60020  Biso   1.000  C
  H685     1.0000 0.54810  0.00870  0.52570  Biso   1.000  H
  C382     1.0000 0.23172  0.94631  0.37949  Biso   1.000  C
  C383     1.0000 0.25550  0.03810  0.38991  Biso   1.000  C
  C384     1.0000 0.27242  0.01440  0.59971  Biso   1.000  C
  H686     1.0000 0.34521  0.06461  0.56389  Biso   1.000  H
  H687     1.0000 0.46597  0.00229  0.63180  Biso   1.000  H
  C385     1.0000 0.57430  0.00249  0.63820  Biso   1.000  C
  H688     1.0000 0.50129  0.05452  0.60900  Biso   1.000  H
  C386     1.0000 0.59301  0.00601  0.62518  Biso   1.000  C
  H689     1.0000 0.48147  0.01021  0.62251  Biso   1.000  H
  H690     1.0000 0.51821  0.06042  0.59688  Biso   1.000  H
  C387     1.0000 0.17311  0.95901  0.34799  Biso   1.000  C
  H691     1.0000 0.24269  0.91019  0.38600  Biso   1.000  H
  C388     1.0000 0.19788  0.05041  0.35988  Biso   1.000  C
  H692     1.0000 0.28359  0.06572  0.40349  Biso   1.000  H
  C389     1.0000 0.25550  0.96190  0.61009  Biso   1.000  C
  C390     1.0000 0.23172  0.05369  0.62051  Biso   1.000  C
  H693     1.0000 0.58041  0.96360  0.63831  Biso   1.000  H
  H694     1.0000 0.59559  0.96681  0.63048  Biso   1.000  H
  H695     1.0000 0.61388  0.01780  0.61878  Biso   1.000  H
  C391     1.0000 0.57899  0.02212  0.69159  Biso   1.000  C
  C392     1.0000 0.59601  0.03399  0.67530  Biso   1.000  C
  H696     1.0000 0.63307  0.01642  0.60351  Biso   1.000  H
  C393     1.0000 0.13320  0.91589  0.32320  Biso   1.000  C
  C394     1.0000 0.15719  0.01041  0.34070  Biso   1.000  C
  C395     1.0000 0.18428  0.10789  0.34909  Biso   1.000  C
  C396     1.0000 0.19788  0.94959  0.64008  Biso   1.000  C
  H697     1.0000 0.28359  0.93432  0.59651  Biso   1.000  H
  C397     1.0000 0.17311  0.04099  0.65201  Biso   1.000  C
  H698     1.0000 0.24269  0.08981  0.61400  Biso   1.000  H
  H699     1.0000 0.54557  0.00241  0.71318  Biso   1.000  H
  H700     1.0000 0.56660  0.06010  0.69298  Biso   1.000  H
  C398     1.0000 0.65790  0.01341  0.71108  Biso   1.000  C
  H701     1.0000 0.55769  0.06049  0.67718  Biso   1.000  H
  C399     1.0000 0.66897  0.06299  0.68098  Biso   1.000  C
  H702     1.0000 0.59027  0.00870  0.70310  Biso   1.000  H
  N29      1.0000 0.14949  0.86880  0.32651  Biso   1.000  N
  H703     1.0000 0.09288  0.92499  0.30371  Biso   1.000  H
  H704     1.0000 0.11649  0.01919  0.32169  Biso   1.000  H
  N30      1.0000 0.13631  0.12380  0.32090  Biso   1.000  N
  H705     1.0000 0.21391  0.13341  0.36451  Biso   1.000  H
  C400     1.0000 0.18428  0.89211  0.65088  Biso   1.000  C
  C401     1.0000 0.15719  0.98959  0.65930  Biso   1.000  C
  C402     1.0000 0.13320  0.08411  0.67680  Biso   1.000  C
  H706     1.0000 0.66971  0.97571  0.70980  Biso   1.000  H
  H707     1.0000 0.66191  0.02611  0.74588  Biso   1.000  H
  H708     1.0000 0.69058  0.03331  0.68971  Biso   1.000  H
  H709     1.0000 0.67039  0.08119  0.71409  Biso   1.000  H
  H710     1.0000 0.67398  0.08961  0.65441  Biso   1.000  H
  H711     1.0000 0.70708  0.03751  0.67921  Biso   1.000  H
  C403     1.0000 0.10701  0.82861  0.30021  Biso   1.000  C
  C404     1.0000 0.13141  0.18010  0.30999  Biso   1.000  C
  N31      1.0000 0.13631  0.87620  0.67910  Biso   1.000  N
  H712     1.0000 0.21391  0.86659  0.63549  Biso   1.000  H
  H713     1.0000 0.11649  0.98081  0.67831  Biso   1.000  H
  N32      1.0000 0.14949  0.13120  0.67349  Biso   1.000  N
  H714     1.0000 0.09288  0.07501  0.69629  Biso   1.000  H
  C405     1.0000 0.08381  0.78809  0.33968  Biso   1.000  C
  H715     1.0000 0.06520  0.84510  0.28358  Biso   1.000  H
  C406     1.0000 0.15429  0.80131  0.26138  Biso   1.000  C
  C407     1.0000 0.13689  0.80772  0.25088  Biso   1.000  C
  H716     1.0000 0.06267  0.84740  0.29039  Biso   1.000  H
  C408     1.0000 0.14912  0.19351  0.25551  Biso   1.000  C
  C409     1.0000 0.06078  0.20059  0.32858  Biso   1.000  C
  H717     1.0000 0.16810  0.19782  0.33121  Biso   1.000  H
  C410     1.0000 0.13600  0.18350  0.25310  Biso   1.000  C
  H718     1.0000 0.17110  0.19988  0.32610  Biso   1.000  H
  C411     1.0000 0.13141  0.81990  0.69001  Biso   1.000  C
  C412     1.0000 0.10701  0.17139  0.69979  Biso   1.000  C
  H719     1.0000 0.12688  0.77500  0.35729  Biso   1.000  H
  C413     1.0000 0.04180  0.73990  0.32139  Biso   1.000  C
  N33      1.0000 0.04001  0.81622  0.37670  Biso   1.000  N
  C414     1.0000 0.03690  0.75189  0.30879  Biso   1.000  C
  H720     1.0000 0.12440  0.76902  0.35541  Biso   1.000  H
  H721     1.0000 0.12772  0.77238  0.24490  Biso   1.000  H
  C415     1.0000 0.18059  0.84190  0.22018  Biso   1.000  C
  H722     1.0000 0.19551  0.78552  0.27861  Biso   1.000  H
  H723     1.0000 0.18122  0.78861  0.25841  Biso   1.000  H
  H724     1.0000 0.10321  0.78148  0.23711  Biso   1.000  H
  C416     1.0000 0.15202  0.84870  0.20980  Biso   1.000  C
  H725     1.0000 0.14860  0.23248  0.25160  Biso   1.000  H
  H726     1.0000 0.11180  0.17879  0.23361  Biso   1.000  H
  C417     1.0000 0.22271  0.17199  0.23700  Biso   1.000  C
  H727     1.0000 0.14860  0.23252  0.25160  Biso   1.000  H
  C418     1.0000 0.21000  0.16372  0.23538  Biso   1.000  C
  H728     1.0000 0.12878  0.22049  0.24208  Biso   1.000  H
  N34      1.0000 0.05408  0.18959  0.38197  Biso   1.000  N
  H729     1.0000 0.02172  0.18279  0.30981  Biso   1.000  H
  C419     1.0000 0.05582  0.26121  0.32151  Biso   1.000  C
  C420     1.0000 0.04201  0.25891  0.31801  Biso   1.000  C
  H730     1.0000 0.02398  0.17879  0.31139  Biso   1.000  H
  H731     1.0000 0.09862  0.16138  0.23772  Biso   1.000  H
  C421     1.0000 0.06078  0.79941  0.67138  Biso   1.000  C
  H732     1.0000 0.16810  0.80222  0.66879  Biso   1.000  H
  C422     1.0000 0.14912  0.80649  0.74449  Biso   1.000  C
  C423     1.0000 0.13600  0.81650  0.74690  Biso   1.000  C
  H733     1.0000 0.17110  0.80012  0.67390  Biso   1.000  H
  C424     1.0000 0.08381  0.21191  0.66028  Biso   1.000  C
  H734     1.0000 0.06520  0.15490  0.71638  Biso   1.000  H
  C425     1.0000 0.15429  0.19869  0.73858  Biso   1.000  C
  C426     1.0000 0.13689  0.19232  0.74908  Biso   1.000  C
  H735     1.0000 0.06267  0.15260  0.70961  Biso   1.000  H
  C427     1.0000 0.05862  0.81381  0.42238  Biso   1.000  C
  H736     1.0000 0.99942  0.75240  0.30330  Biso   1.000  H
  H737     1.0000 0.07100  0.71980  0.29720  Biso   1.000  H
  C428     1.0000 0.01792  0.70109  0.36549  Biso   1.000  C
  C429     1.0000 0.01102  0.70900  0.34480  Biso   1.000  C
  H738     1.0000 0.06378  0.73598  0.28068  Biso   1.000  H
  H739     1.0000 0.99652  0.77191  0.29468  Biso   1.000  H
  H740     1.0000 0.14000  0.85389  0.19979  Biso   1.000  H
  H741     1.0000 0.20141  0.87319  0.23689  Biso   1.000  H
  C430     1.0000 0.23742  0.81559  0.18459  Biso   1.000  C
  C431     1.0000 0.19698  0.82591  0.16491  Biso   1.000  C
  H742     1.0000 0.17811  0.87881  0.22500  Biso   1.000  H
  H743     1.0000 0.10711  0.86231  0.19652  Biso   1.000  H
  H744     1.0000 0.23072  0.13531  0.24870  Biso   1.000  H
  H745     1.0000 0.26172  0.19470  0.24919  Biso   1.000  H
  C432     1.0000 0.21680  0.17428  0.17578  Biso   1.000  C
  C433     1.0000 0.21680  0.17432  0.17578  Biso   1.000  C
  C434     1.0000 0.24411  0.18239  0.18568  Biso   1.000  C
  H746     1.0000 0.24348  0.17230  0.26259  Biso   1.000  H
  H747     1.0000 0.20721  0.12459  0.23369  Biso   1.000  H
  C435     1.0000 0.00469  0.15929  0.39661  Biso   1.000  C
  C436     1.0000 0.98271  0.28190  0.33701  Biso   1.000  C
  C437     1.0000 0.96700  0.27501  0.33400  Biso   1.000  C
  H748     1.0000 0.09240  0.27869  0.34209  Biso   1.000  H
  H749     1.0000 0.06468  0.27011  0.28580  Biso   1.000  H
  H750     1.0000 0.07569  0.28170  0.33641  Biso   1.000  H
  H751     1.0000 0.04739  0.26580  0.28189  Biso   1.000  H
  N35      1.0000 0.05408  0.81041  0.61803  Biso   1.000  N
  H752     1.0000 0.02172  0.81721  0.69019  Biso   1.000  H
  C438     1.0000 0.05582  0.73879  0.67849  Biso   1.000  C
  C439     1.0000 0.04201  0.74109  0.68199  Biso   1.000  C
  H753     1.0000 0.02398  0.82121  0.68858  Biso   1.000  H
  H754     1.0000 0.14860  0.76752  0.74840  Biso   1.000  H
  H755     1.0000 0.11180  0.82121  0.76639  Biso   1.000  H
  C440     1.0000 0.22271  0.82801  0.76300  Biso   1.000  C
  C441     1.0000 0.21000  0.83632  0.76458  Biso   1.000  C
  H756     1.0000 0.12878  0.77951  0.75788  Biso   1.000  H
  H757     1.0000 0.09862  0.83862  0.76228  Biso   1.000  H
  N36      1.0000 0.04001  0.18382  0.62330  Biso   1.000  N
  H758     1.0000 0.12688  0.22500  0.64271  Biso   1.000  H
  C442     1.0000 0.04180  0.26010  0.67861  Biso   1.000  C
  C443     1.0000 0.03690  0.24811  0.69121  Biso   1.000  C
  H759     1.0000 0.12440  0.23102  0.64459  Biso   1.000  H
  H760     1.0000 0.12772  0.22762  0.75510  Biso   1.000  H
  H761     1.0000 0.19551  0.21452  0.72139  Biso   1.000  H
  C444     1.0000 0.18059  0.15810  0.77978  Biso   1.000  C
  H762     1.0000 0.18122  0.21139  0.74159  Biso   1.000  H
  H763     1.0000 0.10321  0.21852  0.76289  Biso   1.000  H
  C445     1.0000 0.15202  0.15130  0.79020  Biso   1.000  C
  C446     1.0000 0.01439  0.83960  0.46200  Biso   1.000  C
  H764     1.0000 0.10057  0.79561  0.43148  Biso   1.000  H
  H765     1.0000 0.98029  0.71862  0.38528  Biso   1.000  H
  C447     1.0000 0.98919  0.64499  0.34611  Biso   1.000  C
  H766     1.0000 0.97870  0.72510  0.36978  Biso   1.000  H
  H767     1.0000 0.05840  0.69511  0.38822  Biso   1.000  H
  H768     1.0000 0.05182  0.69432  0.36331  Biso   1.000  H
  C448     1.0000 0.97122  0.66239  0.31639  Biso   1.000  C
  H769     1.0000 0.27141  0.79430  0.20419  Biso   1.000  H
  H770     1.0000 0.26340  0.84281  0.16529  Biso   1.000  H
  C449     1.0000 0.19308  0.77998  0.14911  Biso   1.000  C
  C450     1.0000 0.19308  0.78002  0.14911  Biso   1.000  C
  C451     1.0000 0.16098  0.79672  0.12281  Biso   1.000  C
  H771     1.0000 0.22297  0.85591  0.14971  Biso   1.000  H
  H772     1.0000 0.23278  0.80178  0.17940  Biso   1.000  H
  H773     1.0000 0.17722  0.15221  0.16378  Biso   1.000  H
  H774     1.0000 0.20932  0.21112  0.16420  Biso   1.000  H
  C452     1.0000 0.28591  0.15331  0.15678  Biso   1.000  C
  C453     1.0000 0.22071  0.15490  0.14158  Biso   1.000  C
  H775     1.0000 0.23409  0.22061  0.18132  Biso   1.000  H
  H776     1.0000 0.29582  0.17832  0.18861  Biso   1.000  H
  C454     1.0000 0.98888  0.14912  0.44928  Biso   1.000  C
  H777     1.0000 0.97660  0.14231  0.37181  Biso   1.000  H
  H778     1.0000 0.94608  0.26338  0.31710  Biso   1.000  H
  H779     1.0000 0.97449  0.27371  0.37290  Biso   1.000  H
  C455     1.0000 0.97501  0.34192  0.32888  Biso   1.000  C
  H780     1.0000 0.94608  0.26342  0.31710  Biso   1.000  H
  C456     1.0000 0.94750  0.33250  0.31951  Biso   1.000  C
  H781     1.0000 0.96279  0.27078  0.37049  Biso   1.000  H
  H782     1.0000 0.93342  0.25060  0.31759  Biso   1.000  H
  C457     1.0000 0.00469  0.84071  0.60339  Biso   1.000  C
  C458     1.0000 0.98271  0.71810  0.66299  Biso   1.000  C
  C459     1.0000 0.96700  0.72499  0.66600  Biso   1.000  C
  H783     1.0000 0.09240  0.72131  0.65791  Biso   1.000  H
  H784     1.0000 0.06468  0.72989  0.71420  Biso   1.000  H
  H785     1.0000 0.07569  0.71830  0.66359  Biso   1.000  H
  H786     1.0000 0.04739  0.73420  0.71811  Biso   1.000  H
  H787     1.0000 0.23072  0.86469  0.75130  Biso   1.000  H
  H788     1.0000 0.26172  0.80530  0.75081  Biso   1.000  H
  C460     1.0000 0.21680  0.82572  0.82418  Biso   1.000  C
  C461     1.0000 0.24411  0.81761  0.81428  Biso   1.000  C
  H789     1.0000 0.24348  0.82770  0.73738  Biso   1.000  H
  H790     1.0000 0.20721  0.87541  0.76631  Biso   1.000  H
  C462     1.0000 0.05862  0.18619  0.57758  Biso   1.000  C
  H791     1.0000 0.99942  0.24760  0.69670  Biso   1.000  H
  H792     1.0000 0.07100  0.28020  0.70280  Biso   1.000  H
  C463     1.0000 0.01792  0.29891  0.63451  Biso   1.000  C
  C464     1.0000 0.01102  0.29100  0.65520  Biso   1.000  C
  H793     1.0000 0.06378  0.26402  0.71928  Biso   1.000  H
  H794     1.0000 0.99652  0.22809  0.70528  Biso   1.000  H
  H795     1.0000 0.14000  0.14611  0.80021  Biso   1.000  H
  H796     1.0000 0.20141  0.12681  0.76311  Biso   1.000  H
  C465     1.0000 0.23742  0.18441  0.81541  Biso   1.000  C
  C466     1.0000 0.19698  0.17409  0.83509  Biso   1.000  C
  H797     1.0000 0.17811  0.12119  0.77500  Biso   1.000  H
  H798     1.0000 0.10711  0.13769  0.80348  Biso   1.000  H
  C467     1.0000 0.95741  0.87090  0.45071  Biso   1.000  C
  C468     1.0000 0.03052  0.83082  0.51230  Biso   1.000  C
  H799     1.0000 0.98450  0.62069  0.37508  Biso   1.000  H
  C469     1.0000 0.92009  0.64981  0.32030  Biso   1.000  C
  C470     1.0000 0.93959  0.62421  0.35010  Biso   1.000  C
  H800     1.0000 0.97712  0.60661  0.36989  Biso   1.000  H
  H801     1.0000 0.02398  0.62952  0.32248  Biso   1.000  H
  H802     1.0000 0.92441  0.67581  0.29261  Biso   1.000  H
  H803     1.0000 0.93390  0.67778  0.29479  Biso   1.000  H
  H804     1.0000 0.00511  0.64400  0.29412  Biso   1.000  H
  H805     1.0000 0.18439  0.74560  0.16581  Biso   1.000  H
  H806     1.0000 0.14680  0.79699  0.14309  Biso   1.000  H
  C471     1.0000 0.23098  0.76961  0.09549  Biso   1.000  C
  H807     1.0000 0.13631  0.76609  0.13771  Biso   1.000  H
  C472     1.0000 0.20900  0.77500  0.07672  Biso   1.000  C
  H808     1.0000 0.12487  0.82049  0.10851  Biso   1.000  H
  H809     1.0000 0.29640  0.16752  0.12288  Biso   1.000  H
  H810     1.0000 0.32481  0.16309  0.17981  Biso   1.000  H
  C473     1.0000 0.27711  0.09432  0.15490  Biso   1.000  C
  C474     1.0000 0.28918  0.15640  0.10351  Biso   1.000  C
  H811     1.0000 0.17970  0.17302  0.12631  Biso   1.000  H
  H812     1.0000 0.20747  0.11798  0.14979  Biso   1.000  H
  C475     1.0000 0.93111  0.11751  0.46249  Biso   1.000  C
  C476     1.0000 0.03052  0.16922  0.48770  Biso   1.000  C
  H813     1.0000 0.98651  0.35011  0.29351  Biso   1.000  H
  C477     1.0000 0.90169  0.36380  0.34081  Biso   1.000  C
  H814     1.0000 0.95662  0.33729  0.28309  Biso   1.000  H
  H815     1.0000 0.01002  0.36032  0.35040  Biso   1.000  H
  C478     1.0000 0.87101  0.34940  0.33031  Biso   1.000  C
  H816     1.0000 0.97950  0.35672  0.33780  Biso   1.000  H
  C479     1.0000 0.98888  0.85088  0.55068  Biso   1.000  C
  C480     1.0000 0.98888  0.85092  0.55068  Biso   1.000  C
  H817     1.0000 0.97660  0.85769  0.62819  Biso   1.000  H
  H818     1.0000 0.94608  0.73662  0.68290  Biso   1.000  H
  H819     1.0000 0.97449  0.72629  0.62710  Biso   1.000  H
  C481     1.0000 0.97501  0.65808  0.67108  Biso   1.000  C
  C482     1.0000 0.97501  0.65812  0.67108  Biso   1.000  C
  C483     1.0000 0.94750  0.66750  0.68049  Biso   1.000  C
  H820     1.0000 0.96279  0.72922  0.62951  Biso   1.000  H
  H821     1.0000 0.93342  0.74940  0.68241  Biso   1.000  H
  H822     1.0000 0.17722  0.84779  0.83618  Biso   1.000  H
  H823     1.0000 0.20932  0.78888  0.83580  Biso   1.000  H
  C484     1.0000 0.28591  0.84669  0.84318  Biso   1.000  C
  H824     1.0000 0.20932  0.78892  0.83580  Biso   1.000  H
  C485     1.0000 0.22071  0.84510  0.85838  Biso   1.000  C
  H825     1.0000 0.23409  0.77939  0.81868  Biso   1.000  H
  H826     1.0000 0.29582  0.82172  0.81139  Biso   1.000  H
  C486     1.0000 0.01439  0.16040  0.53800  Biso   1.000  C
  H827     1.0000 0.10057  0.20439  0.56848  Biso   1.000  H
  C487     1.0000 0.98919  0.35501  0.65389  Biso   1.000  C
  H828     1.0000 0.98029  0.28142  0.61468  Biso   1.000  H
  H829     1.0000 0.97870  0.27490  0.63018  Biso   1.000  H
  H830     1.0000 0.05840  0.30489  0.61178  Biso   1.000  H
  H831     1.0000 0.05182  0.30572  0.63669  Biso   1.000  H
  C488     1.0000 0.97122  0.33761  0.68361  Biso   1.000  C
  H832     1.0000 0.27141  0.20570  0.79581  Biso   1.000  H
  H833     1.0000 0.26340  0.15719  0.83468  Biso   1.000  H
  C489     1.0000 0.19308  0.22002  0.85089  Biso   1.000  C
  C490     1.0000 0.16098  0.20332  0.87719  Biso   1.000  C
  H834     1.0000 0.22297  0.14409  0.85029  Biso   1.000  H
  H835     1.0000 0.23278  0.19822  0.82060  Biso   1.000  H
  C491     1.0000 0.91540  0.89250  0.48819  Biso   1.000  C
  H836     1.0000 0.94660  0.87798  0.41651  Biso   1.000  H
  H837     1.0000 0.94660  0.87802  0.41651  Biso   1.000  H
  H838     1.0000 0.07100  0.81048  0.52051  Biso   1.000  H
  H839     1.0000 0.88488  0.66358  0.34450  Biso   1.000  H
  C492     1.0000 0.89231  0.59608  0.29810  Biso   1.000  C
  H840     1.0000 0.88488  0.66362  0.34450  Biso   1.000  H
  C493     1.0000 0.89621  0.58061  0.31951  Biso   1.000  C
  H841     1.0000 0.90770  0.64261  0.37381  Biso   1.000  H
  H842     1.0000 0.20299  0.74469  0.07570  Biso   1.000  H
  H843     1.0000 0.27821  0.75458  0.10121  Biso   1.000  H
  H844     1.0000 0.23562  0.80309  0.07721  Biso   1.000  H
  H845     1.0000 0.27821  0.75462  0.10121  Biso   1.000  H
  H846     1.0000 0.23752  0.74520  0.08831  Biso   1.000  H
  H847     1.0000 0.23958  0.80340  0.06460  Biso   1.000  H
  H848     1.0000 0.17790  0.76328  0.04929  Biso   1.000  H
  H849     1.0000 0.32081  0.07798  0.14271  Biso   1.000  H
  H850     1.0000 0.23842  0.08530  0.13210  Biso   1.000  H
  H851     1.0000 0.26641  0.08099  0.18869  Biso   1.000  H
  H852     1.0000 0.32081  0.07802  0.14271  Biso   1.000  H
  H853     1.0000 0.27558  0.14220  0.07058  Biso   1.000  H
  H854     1.0000 0.32729  0.13480  0.11769  Biso   1.000  H
  H855     1.0000 0.30541  0.19300  0.09959  Biso   1.000  H
  C494     1.0000 0.91540  0.10750  0.51181  Biso   1.000  C
  H856     1.0000 0.90238  0.10279  0.43679  Biso   1.000  H
  H857     1.0000 0.07100  0.18952  0.47949  Biso   1.000  H
  H858     1.0000 0.88841  0.35331  0.37539  Biso   1.000  H
  H859     1.0000 0.90348  0.40301  0.33968  Biso   1.000  H
  C495     1.0000 0.84460  0.34429  0.30371  Biso   1.000  C
  C496     1.0000 0.86400  0.40360  0.29919  Biso   1.000  C
  H860     1.0000 0.86379  0.35529  0.36669  Biso   1.000  H
  H861     1.0000 0.83728  0.32249  0.31820  Biso   1.000  H
  C497     1.0000 0.93111  0.88249  0.53751  Biso   1.000  C
  H862     1.0000 0.98651  0.64989  0.70649  Biso   1.000  H
  C498     1.0000 0.90169  0.63620  0.65919  Biso   1.000  C
  H863     1.0000 0.95662  0.66271  0.71691  Biso   1.000  H
  H864     1.0000 0.01002  0.63968  0.64960  Biso   1.000  H
  C499     1.0000 0.87101  0.65060  0.66969  Biso   1.000  C
  H865     1.0000 0.97950  0.64328  0.66220  Biso   1.000  H
  H866     1.0000 0.29640  0.83248  0.87708  Biso   1.000  H
  H867     1.0000 0.32481  0.83691  0.82019  Biso   1.000  H
  C500     1.0000 0.27711  0.90572  0.84510  Biso   1.000  C
  H868     1.0000 0.29640  0.83252  0.87708  Biso   1.000  H
  C501     1.0000 0.28918  0.84360  0.89649  Biso   1.000  C
  H869     1.0000 0.17970  0.82702  0.87369  Biso   1.000  H
  H870     1.0000 0.20747  0.88202  0.85018  Biso   1.000  H
  C502     1.0000 0.95741  0.12910  0.54929  Biso   1.000  C
  H871     1.0000 0.98450  0.37931  0.62488  Biso   1.000  H
  C503     1.0000 0.92009  0.35019  0.67970  Biso   1.000  C
  C504     1.0000 0.93959  0.37579  0.64990  Biso   1.000  C
  H872     1.0000 0.97712  0.39339  0.63011  Biso   1.000  H
  H873     1.0000 0.02398  0.37052  0.67748  Biso   1.000  H
  H874     1.0000 0.92441  0.32419  0.70739  Biso   1.000  H
  H875     1.0000 0.93390  0.32222  0.70521  Biso   1.000  H
  H876     1.0000 0.00511  0.35600  0.70588  Biso   1.000  H
  H877     1.0000 0.18439  0.25440  0.83419  Biso   1.000  H
  H878     1.0000 0.14680  0.20301  0.85691  Biso   1.000  H
  C505     1.0000 0.23098  0.23039  0.90451  Biso   1.000  C
  H879     1.0000 0.13631  0.23391  0.86229  Biso   1.000  H
  C506     1.0000 0.20900  0.22500  0.92328  Biso   1.000  C
  H880     1.0000 0.12487  0.17951  0.89149  Biso   1.000  H
  C507     1.0000 0.85330  0.92518  0.47411  Biso   1.000  C
  C508     1.0000 0.85330  0.92522  0.47411  Biso   1.000  C
  H881     1.0000 0.84671  0.60190  0.28170  Biso   1.000  H
  H882     1.0000 0.88683  0.57029  0.32531  Biso   1.000  H
  H883     1.0000 0.92610  0.58259  0.27331  Biso   1.000  H
  H884     1.0000 0.92778  0.56241  0.29588  Biso   1.000  H
  H885     1.0000 0.85820  0.59790  0.30059  Biso   1.000  H
  H886     1.0000 0.87613  0.55490  0.34299  Biso   1.000  H
  C509     1.0000 0.85330  0.07482  0.52589  Biso   1.000  C
  H887     1.0000 0.79880  0.35881  0.31349  Biso   1.000  H
  H888     1.0000 0.84260  0.30552  0.30450  Biso   1.000  H
  H889     1.0000 0.85641  0.35608  0.26958  Biso   1.000  H
  H890     1.0000 0.85641  0.35612  0.26958  Biso   1.000  H
  H891     1.0000 0.81540  0.41630  0.30111  Biso   1.000  H
  H892     1.0000 0.87671  0.39731  0.26390  Biso   1.000  H
  H893     1.0000 0.89579  0.43019  0.31349  Biso   1.000  H
  H894     1.0000 0.90238  0.89721  0.56321  Biso   1.000  H
  H895     1.0000 0.88841  0.64669  0.62458  Biso   1.000  H
  H896     1.0000 0.90348  0.59699  0.66028  Biso   1.000  H
  C510     1.0000 0.84460  0.65571  0.69629  Biso   1.000  C
  C511     1.0000 0.86400  0.59640  0.70081  Biso   1.000  C
  H897     1.0000 0.86379  0.64471  0.63331  Biso   1.000  H
  H898     1.0000 0.83728  0.67751  0.68180  Biso   1.000  H
  H899     1.0000 0.32081  0.92202  0.85729  Biso   1.000  H
  H900     1.0000 0.23842  0.91470  0.86790  Biso   1.000  H
  H901     1.0000 0.26641  0.91901  0.81131  Biso   1.000  H
  H902     1.0000 0.27558  0.85780  0.92938  Biso   1.000  H
  H903     1.0000 0.32729  0.86520  0.88231  Biso   1.000  H
  H904     1.0000 0.30541  0.80700  0.90041  Biso   1.000  H
  H905     1.0000 0.94660  0.12202  0.58349  Biso   1.000  H
  H906     1.0000 0.88488  0.33642  0.65550  Biso   1.000  H
  C512     1.0000 0.89231  0.40392  0.70190  Biso   1.000  C
  C513     1.0000 0.89621  0.41939  0.68049  Biso   1.000  C
  H907     1.0000 0.90770  0.35739  0.62619  Biso   1.000  H
  H908     1.0000 0.20299  0.25531  0.92430  Biso   1.000  H
  H909     1.0000 0.27821  0.24542  0.89879  Biso   1.000  H
  H910     1.0000 0.23562  0.19691  0.92279  Biso   1.000  H
  H911     1.0000 0.23752  0.25480  0.91169  Biso   1.000  H
  H912     1.0000 0.23958  0.19660  0.93540  Biso   1.000  H
  H913     1.0000 0.17790  0.23672  0.95071  Biso   1.000  H
  N37      1.0000 0.81340  0.94291  0.50579  Biso   1.000  N
  H914     1.0000 0.84450  0.93238  0.43950  Biso   1.000  H
  H915     1.0000 0.84450  0.93242  0.43950  Biso   1.000  H
  N38      1.0000 0.81340  0.05709  0.49421  Biso   1.000  N
  H916     1.0000 0.84450  0.06762  0.56050  Biso   1.000  H
  H917     1.0000 0.79880  0.64119  0.68651  Biso   1.000  H
  H918     1.0000 0.85641  0.64392  0.73038  Biso   1.000  H
  H919     1.0000 0.84260  0.69452  0.69550  Biso   1.000  H
  H920     1.0000 0.81540  0.58370  0.69889  Biso   1.000  H
  H921     1.0000 0.87671  0.60269  0.73610  Biso   1.000  H
  H922     1.0000 0.89579  0.56981  0.68651  Biso   1.000  H
  H923     1.0000 0.84671  0.39810  0.71830  Biso   1.000  H
  H924     1.0000 0.88683  0.42971  0.67469  Biso   1.000  H
  H925     1.0000 0.92610  0.41741  0.72669  Biso   1.000  H
  H926     1.0000 0.92778  0.43759  0.70408  Biso   1.000  H
  H927     1.0000 0.85820  0.40210  0.69941  Biso   1.000  H
  H928     1.0000 0.87613  0.44510  0.65701  Biso   1.000  H
  C514     1.0000 0.74988  0.97341  0.48758  Biso   1.000  C
  C515     1.0000 0.74988  0.02659  0.51238  Biso   1.000  C
  H929     1.0000 0.75009  0.97689  0.45011  Biso   1.000  H
  C516     1.0000 0.68652  0.93860  0.50598  Biso   1.000  C
  C517     1.0000 0.68172  0.94081  0.49959  Biso   1.000  C
  H930     1.0000 0.75362  0.97840  0.45030  Biso   1.000  H
  H931     1.0000 0.75009  0.02311  0.54989  Biso   1.000  H
  C518     1.0000 0.68652  0.06140  0.49398  Biso   1.000  C
  C519     1.0000 0.68172  0.05919  0.50041  Biso   1.000  C
  H932     1.0000 0.75362  0.02160  0.54970  Biso   1.000  H
  H933     1.0000 0.64251  0.95949  0.50508  Biso   1.000  H
  H934     1.0000 0.69469  0.92720  0.54120  Biso   1.000  H
  C520     1.0000 0.67898  0.88819  0.47080  Biso   1.000  C
  C521     1.0000 0.69079  0.88051  0.49229  Biso   1.000  C
  H935     1.0000 0.66760  0.94770  0.53480  Biso   1.000  H
  H936     1.0000 0.64309  0.95331  0.47750  Biso   1.000  H
  H937     1.0000 0.64251  0.04051  0.49488  Biso   1.000  H
  H938     1.0000 0.69469  0.07280  0.45880  Biso   1.000  H
  C522     1.0000 0.67898  0.11181  0.52920  Biso   1.000  C
  C523     1.0000 0.69079  0.11949  0.50771  Biso   1.000  C
  H939     1.0000 0.66760  0.05230  0.46520  Biso   1.000  H
  H940     1.0000 0.64309  0.04669  0.52250  Biso   1.000  H
  H941     1.0000 0.71673  0.86200  0.47739  Biso   1.000  H
  C524     1.0000 0.60171  0.86591  0.48788  Biso   1.000  C
  H942     1.0000 0.67972  0.89812  0.43468  Biso   1.000  H
  H943     1.0000 0.69311  0.87292  0.45579  Biso   1.000  H
  C525     1.0000 0.63023  0.84590  0.51618  Biso   1.000  C
  H944     1.0000 0.73628  0.86971  0.50730  Biso   1.000  H
  H945     1.0000 0.71673  0.13800  0.52261  Biso   1.000  H
  H946     1.0000 0.67972  0.10192  0.56528  Biso   1.000  H
  C526     1.0000 0.60171  0.13409  0.51208  Biso   1.000  C
  H947     1.0000 0.69311  0.12708  0.54421  Biso   1.000  H
  C527     1.0000 0.63023  0.15410  0.48378  Biso   1.000  C
  H948     1.0000 0.73628  0.13029  0.49270  Biso   1.000  H
  H949     1.0000 0.60819  0.82781  0.49488  Biso   1.000  H
  H950     1.0000 0.59122  0.88289  0.52058  Biso   1.000  H
  C528     1.0000 0.53998  0.86991  0.45940  Biso   1.000  C
  H951     1.0000 0.58832  0.84340  0.45459  Biso   1.000  H
  H952     1.0000 0.55211  0.88079  0.49398  Biso   1.000  H
  C529     1.0000 0.57071  0.84451  0.48958  Biso   1.000  C
  H953     1.0000 0.64773  0.80930  0.52039  Biso   1.000  H
  H954     1.0000 0.61952  0.86002  0.55008  Biso   1.000  H
  H955     1.0000 0.60819  0.17219  0.50508  Biso   1.000  H
  H956     1.0000 0.59122  0.11711  0.47938  Biso   1.000  H
  C530     1.0000 0.53998  0.13009  0.54060  Biso   1.000  C
  H957     1.0000 0.58832  0.15660  0.54541  Biso   1.000  H
  H958     1.0000 0.55211  0.11921  0.50598  Biso   1.000  H
  C531     1.0000 0.57071  0.15549  0.51038  Biso   1.000  C
  H959     1.0000 0.64773  0.19070  0.47961  Biso   1.000  H
  H960     1.0000 0.61952  0.14002  0.44988  Biso   1.000  H
  H961     1.0000 0.55042  0.86481  0.42328  Biso   1.000  H
  H962     1.0000 0.51821  0.90520  0.46399  Biso   1.000  H
  C532     1.0000 0.48869  0.82508  0.47901  Biso   1.000  C
  C533     1.0000 0.50409  0.81171  0.48661  Biso   1.000  C
  H963     1.0000 0.55042  0.13519  0.57668  Biso   1.000  H
  H964     1.0000 0.51821  0.09480  0.53601  Biso   1.000  H
  C534     1.0000 0.48869  0.17492  0.52099  Biso   1.000  C
  C535     1.0000 0.50409  0.18829  0.51339  Biso   1.000  C
  H965     1.0000 0.44589  0.82481  0.45831  Biso   1.000  H
  H966     1.0000 0.47610  0.83221  0.51411  Biso   1.000  H
  H967     1.0000 0.51231  0.79070  0.47660  Biso   1.000  H
  H968     1.0000 0.46882  0.83058  0.46659  Biso   1.000  H
  H969     1.0000 0.48579  0.80562  0.52058  Biso   1.000  H
  H970     1.0000 0.51468  0.77769  0.47069  Biso   1.000  H
  H971     1.0000 0.44589  0.17519  0.54169  Biso   1.000  H
  H972     1.0000 0.47610  0.16779  0.48589  Biso   1.000  H
  H973     1.0000 0.51231  0.20930  0.52340  Biso   1.000  H
  H974     1.0000 0.46882  0.16942  0.53341  Biso   1.000  H
  H975     1.0000 0.48579  0.19438  0.47938  Biso   1.000  H
  H976     1.0000 0.51468  0.22231  0.52931  Biso   1.000  H
  C536     1.0000 0.29102  0.72499  0.57668  Biso   1.000  C
  C537     1.0000 0.33899  0.70330  0.62281  Biso   1.000  C
  H977     1.0000 0.29698  0.75529  0.57570  Biso   1.000  H
  H978     1.0000 0.26440  0.69689  0.57721  Biso   1.000  H
  H979     1.0000 0.26251  0.75482  0.58831  Biso   1.000  H
  H980     1.0000 0.26040  0.69662  0.56460  Biso   1.000  H
  H981     1.0000 0.32207  0.73670  0.54929  Biso   1.000  H
  C538     1.0000 0.30299  0.67410  0.66491  Biso   1.000  C
  C539     1.0000 0.30689  0.72000  0.64911  Biso   1.000  C
  H982     1.0000 0.35317  0.70299  0.64309  Biso   1.000  H
  C540     1.0000 0.26899  0.73041  0.59549  Biso   1.000  C
  H983     1.0000 0.36371  0.73389  0.63771  Biso   1.000  H
  H984     1.0000 0.37510  0.67949  0.60851  Biso   1.000  H
  C541     1.0000 0.31938  0.65812  0.72022  Biso   1.000  C
  C542     1.0000 0.31938  0.65812  0.72018  Biso   1.000  C
  C543     1.0000 0.34800  0.65132  0.70980  Biso   1.000  C
  C544     1.0000 0.26261  0.68439  0.68459  Biso   1.000  C
  H985     1.0000 0.27700  0.64411  0.64971  Biso   1.000  H
  H986     1.0000 0.26720  0.69820  0.67940  Biso   1.000  H
  H987     1.0000 0.31559  0.75442  0.66581  Biso   1.000  H
  H988     1.0000 0.31559  0.75442  0.66578  Biso   1.000  H
  H989     1.0000 0.22181  0.74540  0.60121  Biso   1.000  H
  C545     1.0000 0.34569  0.69871  0.76138  Biso   1.000  C
  C546     1.0000 0.36308  0.69230  0.75088  Biso   1.000  C
  H990     1.0000 0.35997  0.64609  0.69979  Biso   1.000  H
  H991     1.0000 0.29861  0.62679  0.73689  Biso   1.000  H
  H992     1.0000 0.32191  0.62121  0.72500  Biso   1.000  H
  H993     1.0000 0.39292  0.63771  0.69648  Biso   1.000  H
  H994     1.0000 0.22861  0.70572  0.70419  Biso   1.000  H
  H995     1.0000 0.23657  0.65721  0.66529  Biso   1.000  H
  C547     1.0000 0.39302  0.67141  0.80021  Biso   1.000  C
  H996     1.0000 0.37231  0.72760  0.74490  Biso   1.000  H
  H997     1.0000 0.30452  0.71450  0.77858  Biso   1.000  H
  H998     1.0000 0.31880  0.71141  0.75841  Biso   1.000  H
  H999     1.0000 0.39682  0.71850  0.73708  Biso   1.000  H
  N39      1.0000 0.35048  0.63122  0.82651  Biso   1.000  N
  C548     1.0000 0.41621  0.71189  0.83972  Biso   1.000  C
  H1000    1.0000 0.43482  0.65492  0.78362  Biso   1.000  H
  C549     1.0000 0.41621  0.71189  0.83968  Biso   1.000  C
  H1001    1.0000 0.43482  0.65492  0.78358  Biso   1.000  H
  H1002    1.0000 0.43730  0.65262  0.79039  Biso   1.000  H
  C550     1.0000 0.36677  0.58409  0.82320  Biso   1.000  C
  N40      1.0000 0.46002  0.68380  0.87670  Biso   1.000  N
  H1003    1.0000 0.37310  0.72499  0.85729  Biso   1.000  H
  C551     1.0000 0.45817  0.76012  0.82139  Biso   1.000  C
  C552     1.0000 0.46308  0.74809  0.80879  Biso   1.000  C
  H1004    1.0000 0.37557  0.73100  0.85541  Biso   1.000  H
  C553     1.0000 0.32692  0.54101  0.84799  Biso   1.000  C
  H1005    1.0000 0.40710  0.57500  0.80371  Biso   1.000  H
  C554     1.0000 0.44141  0.68621  0.92238  Biso   1.000  C
  H1006    1.0000 0.42897  0.78022  0.79720  Biso   1.000  H
  H1007    1.0000 0.50061  0.74762  0.80330  Biso   1.000  H
  C555     1.0000 0.48210  0.79889  0.86549  Biso   1.000  C
  C556     1.0000 0.48901  0.79102  0.84480  Biso   1.000  C
  H1008    1.0000 0.43619  0.76400  0.78068  Biso   1.000  H
  H1009    1.0000 0.50351  0.72811  0.79472  Biso   1.000  H
  C557     1.0000 0.34279  0.48961  0.84070  Biso   1.000  C
  C558     1.0000 0.26830  0.55371  0.87949  Biso   1.000  C
  C559     1.0000 0.48558  0.66042  0.96200  Biso   1.000  C
  H1010    1.0000 0.39940  0.70441  0.93148  Biso   1.000  H
  H1011    1.0000 0.51969  0.78140  0.88532  Biso   1.000  H
  C560     1.0000 0.51078  0.85500  0.84611  Biso   1.000  C
  H1012    1.0000 0.44162  0.80491  0.88818  Biso   1.000  H
  H1013    1.0000 0.51969  0.78140  0.88528  Biso   1.000  H
  C561     1.0000 0.51078  0.85500  0.84608  Biso   1.000  C
  H1014    1.0000 0.52127  0.77492  0.86982  Biso   1.000  H
  H1015    1.0000 0.44821  0.80570  0.86331  Biso   1.000  H
  C562     1.0000 0.52881  0.83759  0.81639  Biso   1.000  C
  C563     1.0000 0.30209  0.44961  0.85988  Biso   1.000  C
  H1016    1.0000 0.38348  0.48079  0.82169  Biso   1.000  H
  C564     1.0000 0.22761  0.51442  0.90029  Biso   1.000  C
  H1017    1.0000 0.25729  0.58979  0.88600  Biso   1.000  H
  C565     1.0000 0.54262  0.62912  0.95071  Biso   1.000  C
  C566     1.0000 0.46951  0.66920  0.01230  Biso   1.000  C
  H1018    1.0000 0.47599  0.87050  0.82248  Biso   1.000  H
  H1019    1.0000 0.51547  0.87929  0.87508  Biso   1.000  H
  C567     1.0000 0.57989  0.85021  0.82030  Biso   1.000  C
  C568     1.0000 0.56038  0.87581  0.85010  Biso   1.000  C
  H1020    1.0000 0.52290  0.89341  0.86989  Biso   1.000  H
  H1021    1.0000 0.57562  0.82421  0.79261  Biso   1.000  H
  H1022    1.0000 0.56607  0.82220  0.79479  Biso   1.000  H
  H1023    1.0000 0.49491  0.85598  0.79412  Biso   1.000  H
  C569     1.0000 0.31569  0.39209  0.84909  Biso   1.000  C
  C570     1.0000 0.24448  0.46192  0.88991  Biso   1.000  C
  C571     1.0000 0.16499  0.52831  0.93028  Biso   1.000  C
  C572     1.0000 0.58458  0.60752  0.98819  Biso   1.000  C
  H1024    1.0000 0.55337  0.62200  0.91651  Biso   1.000  H
  C573     1.0000 0.51110  0.64910  0.05068  Biso   1.000  C
  H1025    1.0000 0.42897  0.68950  0.02051  Biso   1.000  H
  H1026    1.0000 0.61510  0.83640  0.84450  Biso   1.000  H
  C574     1.0000 0.60772  0.90390  0.79810  Biso   1.000  C
  C575     1.0000 0.60382  0.91941  0.81951  Biso   1.000  C
  H1027    1.0000 0.59227  0.85741  0.87381  Biso   1.000  H
  N41      1.0000 0.36371  0.37618  0.82090  Biso   1.000  N
  H1028    1.0000 0.28612  0.36661  0.86451  Biso   1.000  H
  H1029    1.0000 0.21638  0.43430  0.90349  Biso   1.000  H
  N42      1.0000 0.12540  0.49420  0.94811  Biso   1.000  N
  N43      1.0000 0.12540  0.49420  0.94808  Biso   1.000  N
  H1030    1.0000 0.15482  0.56459  0.93607  Biso   1.000  H
  C576     1.0000 0.64667  0.57480  0.97411  Biso   1.000  C
  C577     1.0000 0.64667  0.57480  0.97408  Biso   1.000  C
  C578     1.0000 0.56887  0.61749  0.03747  Biso   1.000  C
  C579     1.0000 0.49528  0.65931  0.10339  Biso   1.000  C
  H1031    1.0000 0.65331  0.89812  0.78170  Biso   1.000  H
  H1032    1.0000 0.61320  0.92969  0.82531  Biso   1.000  H
  H1033    1.0000 0.57388  0.91739  0.77331  Biso   1.000  H
  H1034    1.0000 0.57219  0.93761  0.79588  Biso   1.000  H
  H1035    1.0000 0.64177  0.90212  0.80059  Biso   1.000  H
  H1036    1.0000 0.62390  0.94508  0.84299  Biso   1.000  H
  C580     1.0000 0.36862  0.31992  0.80999  Biso   1.000  C
  C581     1.0000 0.06030  0.51058  0.97411  Biso   1.000  C
  C582     1.0000 0.06030  0.51058  0.97408  Biso   1.000  C
  N44      1.0000 0.68657  0.55711  0.00579  Biso   1.000  N
  H1037    1.0000 0.65547  0.56760  0.93950  Biso   1.000  H
  H1038    1.0000 0.59760  0.60281  0.06321  Biso   1.000  H
  N45      1.0000 0.44589  0.68961  0.11803  Biso   1.000  N
  H1039    1.0000 0.52338  0.64229  0.12819  Biso   1.000  H
  C583     1.0000 0.35090  0.30651  0.75551  Biso   1.000  C
  C584     1.0000 0.43920  0.29939  0.82862  Biso   1.000  C
  H1040    1.0000 0.33187  0.30220  0.83118  Biso   1.000  H
  C585     1.0000 0.43920  0.29939  0.82858  Biso   1.000  C
  C586     1.0000 0.36398  0.31652  0.75310  Biso   1.000  C
  H1041    1.0000 0.32887  0.30010  0.82610  Biso   1.000  H
  C587     1.0000 0.99800  0.49199  0.94059  Biso   1.000  C
  C588     1.0000 0.98998  0.49701  0.95150  Biso   1.000  C
  H1042    1.0000 0.05941  0.55011  0.97588  Biso   1.000  H
  H1043    1.0000 0.06178  0.54999  0.97701  Biso   1.000  H
  C589     1.0000 0.06030  0.48942  0.02589  Biso   1.000  C
  C590     1.0000 0.75009  0.52661  0.98758  Biso   1.000  C
  C591     1.0000 0.43920  0.70061  0.17138  Biso   1.000  C
  H1044    1.0000 0.35138  0.26750  0.75160  Biso   1.000  H
  H1045    1.0000 0.38817  0.32119  0.73361  Biso   1.000  H
  C592     1.0000 0.27732  0.32799  0.73700  Biso   1.000  C
  H1046    1.0000 0.38817  0.32119  0.73358  Biso   1.000  H
  C593     1.0000 0.29002  0.33630  0.73538  Biso   1.000  C
  H1047    1.0000 0.37120  0.27949  0.74208  Biso   1.000  H
  N46      1.0000 0.44589  0.31039  0.88197  Biso   1.000  N
  H1048    1.0000 0.47831  0.31719  0.80981  Biso   1.000  H
  C594     1.0000 0.44420  0.23881  0.82151  Biso   1.000  C
  C595     1.0000 0.45801  0.24111  0.81801  Biso   1.000  C
  H1049    1.0000 0.47599  0.32119  0.81139  Biso   1.000  H
  H1050    1.0000 0.40140  0.33860  0.73768  Biso   1.000  H
  H1051    1.0000 0.95351  0.50010  0.95831  Biso   1.000  H
  C596     1.0000 0.99399  0.51561  0.88848  Biso   1.000  C
  C597     1.0000 0.98002  0.52099  0.89980  Biso   1.000  C
  H1052    1.0000 0.98619  0.45761  0.94849  Biso   1.000  H
  H1053    1.0000 0.00090  0.45302  0.93709  Biso   1.000  H
  H1054    1.0000 0.95193  0.50868  0.97430  Biso   1.000  H
  C598     1.0000 0.99800  0.50801  0.05941  Biso   1.000  C
  C599     1.0000 0.98998  0.50299  0.04850  Biso   1.000  C
  N47      1.0000 0.12540  0.50580  0.05189  Biso   1.000  N
  H1055    1.0000 0.05941  0.44989  0.02412  Biso   1.000  H
  H1056    1.0000 0.05941  0.44989  0.02408  Biso   1.000  H
  H1057    1.0000 0.06178  0.45001  0.02299  Biso   1.000  H
  C600     1.0000 0.75009  0.47339  0.01242  Biso   1.000  C
  C601     1.0000 0.75009  0.47339  0.01238  Biso   1.000  C
  H1058    1.0000 0.74988  0.52309  0.95011  Biso   1.000  H
  C602     1.0000 0.81830  0.55921  0.99959  Biso   1.000  C
  H1059    1.0000 0.74640  0.52158  0.95030  Biso   1.000  H
  C603     1.0000 0.81350  0.56138  0.00598  Biso   1.000  C
  C604     1.0000 0.36862  0.68012  0.19001  Biso   1.000  C
  H1060    1.0000 0.47831  0.68281  0.19019  Biso   1.000  H
  C605     1.0000 0.44420  0.76119  0.17849  Biso   1.000  C
  C606     1.0000 0.45801  0.75889  0.18199  Biso   1.000  C
  H1061    1.0000 0.47599  0.67881  0.18861  Biso   1.000  H
  H1062    1.0000 0.26931  0.36471  0.74870  Biso   1.000  H
  H1063    1.0000 0.23831  0.30528  0.74919  Biso   1.000  H
  C607     1.0000 0.28322  0.32570  0.67578  Biso   1.000  C
  C608     1.0000 0.25592  0.31759  0.68568  Biso   1.000  C
  H1064    1.0000 0.25650  0.32772  0.76259  Biso   1.000  H
  H1065    1.0000 0.29282  0.37539  0.73369  Biso   1.000  H
  C609     1.0000 0.49528  0.34069  0.89661  Biso   1.000  C
  H1066    1.0000 0.40757  0.22129  0.84209  Biso   1.000  H
  H1067    1.0000 0.43530  0.22991  0.78580  Biso   1.000  H
  C610     1.0000 0.51732  0.21808  0.83701  Biso   1.000  C
  C611     1.0000 0.53297  0.22500  0.83400  Biso   1.000  C
  H1068    1.0000 0.42428  0.21832  0.83641  Biso   1.000  H
  H1069    1.0000 0.45259  0.23418  0.78189  Biso   1.000  H
  H1070    1.0000 0.99868  0.55450  0.89100  Biso   1.000  H
  C612     1.0000 0.92568  0.50251  0.86180  Biso   1.000  C
  C613     1.0000 0.90702  0.50599  0.87478  Biso   1.000  C
  H1071    1.0000 0.98181  0.56040  0.90308  Biso   1.000  H
  H1072    1.0000 0.03400  0.50231  0.86820  Biso   1.000  H
  H1073    1.0000 0.01850  0.51019  0.87749  Biso   1.000  H
  H1074    1.0000 0.95351  0.49990  0.04169  Biso   1.000  H
  C614     1.0000 0.99399  0.48439  0.11148  Biso   1.000  C
  C615     1.0000 0.98002  0.47901  0.10020  Biso   1.000  C
  H1075    1.0000 0.98619  0.54239  0.05151  Biso   1.000  H
  H1076    1.0000 0.00090  0.54698  0.06291  Biso   1.000  H
  H1077    1.0000 0.95193  0.49132  0.02570  Biso   1.000  H
  C616     1.0000 0.16499  0.47169  0.06968  Biso   1.000  C
  N48      1.0000 0.68657  0.44289  0.99421  Biso   1.000  N
  C617     1.0000 0.81350  0.43862  0.99402  Biso   1.000  C
  C618     1.0000 0.81350  0.43862  0.99398  Biso   1.000  C
  H1078    1.0000 0.74988  0.47691  0.04989  Biso   1.000  H
  C619     1.0000 0.81830  0.44079  0.00038  Biso   1.000  C
  H1079    1.0000 0.74640  0.47842  0.04970  Biso   1.000  H
  C620     1.0000 0.82099  0.61179  0.97080  Biso   1.000  C
  C621     1.0000 0.80918  0.61951  0.99229  Biso   1.000  C
  H1080    1.0000 0.85689  0.54671  0.97750  Biso   1.000  H
  H1081    1.0000 0.80528  0.57282  0.04120  Biso   1.000  H
  H1082    1.0000 0.85747  0.54049  0.00508  Biso   1.000  H
  H1083    1.0000 0.83238  0.55228  0.03480  Biso   1.000  H
  N49      1.0000 0.36371  0.62382  0.17910  Biso   1.000  N
  H1084    1.0000 0.33187  0.69780  0.16879  Biso   1.000  H
  C622     1.0000 0.35090  0.69349  0.24449  Biso   1.000  C
  C623     1.0000 0.36398  0.68352  0.24690  Biso   1.000  C
  H1085    1.0000 0.32887  0.69990  0.17390  Biso   1.000  H
  H1086    1.0000 0.43530  0.77009  0.21420  Biso   1.000  H
  C624     1.0000 0.51732  0.78192  0.16299  Biso   1.000  C
  H1087    1.0000 0.40757  0.77871  0.15787  Biso   1.000  H
  C625     1.0000 0.53297  0.77500  0.16600  Biso   1.000  C
  H1088    1.0000 0.42428  0.78172  0.16359  Biso   1.000  H
  H1089    1.0000 0.45259  0.76582  0.21811  Biso   1.000  H
  H1090    1.0000 0.32281  0.34781  0.66382  Biso   1.000  H
  H1091    1.0000 0.29071  0.28890  0.66420  Biso   1.000  H
  C626     1.0000 0.21412  0.34671  0.65678  Biso   1.000  C
  H1092    1.0000 0.32281  0.34781  0.66378  Biso   1.000  H
  C627     1.0000 0.27932  0.34508  0.64158  Biso   1.000  C
  H1093    1.0000 0.26588  0.27941  0.68128  Biso   1.000  H
  H1094    1.0000 0.20421  0.32170  0.68858  Biso   1.000  H
  C628     1.0000 0.51110  0.35090  0.94932  Biso   1.000  C
  H1095    1.0000 0.52338  0.35771  0.87181  Biso   1.000  H
  C629     1.0000 0.51110  0.35090  0.94928  Biso   1.000  C
  H1096    1.0000 0.55390  0.23660  0.81710  Biso   1.000  H
  H1097    1.0000 0.52549  0.22631  0.87290  Biso   1.000  H
  C630     1.0000 0.52501  0.15810  0.82888  Biso   1.000  C
  C631     1.0000 0.55247  0.16752  0.81951  Biso   1.000  C
  H1098    1.0000 0.53719  0.22920  0.87049  Biso   1.000  H
  H1099    1.0000 0.56660  0.24942  0.81759  Biso   1.000  H
  H1100    1.0000 0.91961  0.46362  0.86169  Biso   1.000  H
  C632     1.0000 0.92098  0.52210  0.80841  Biso   1.000  C
  H1101    1.0000 0.88609  0.51778  0.88118  Biso   1.000  H
  C633     1.0000 0.92098  0.52210  0.80838  Biso   1.000  C
  C634     1.0000 0.90401  0.53401  0.82470  Biso   1.000  C
  H1102    1.0000 0.90438  0.46679  0.86948  Biso   1.000  H
  H1103    1.0000 0.86690  0.51640  0.89649  Biso   1.000  H
  H1104    1.0000 0.99868  0.44550  0.10900  Biso   1.000  H
  C635     1.0000 0.92568  0.49749  0.13820  Biso   1.000  C
  C636     1.0000 0.90702  0.49401  0.12522  Biso   1.000  C
  H1105    1.0000 0.98181  0.43960  0.09688  Biso   1.000  H
  H1106    1.0000 0.03400  0.49769  0.13180  Biso   1.000  H
  H1107    1.0000 0.01850  0.48981  0.12251  Biso   1.000  H
  C637     1.0000 0.22761  0.48562  0.09971  Biso   1.000  C
  H1108    1.0000 0.15482  0.43541  0.06389  Biso   1.000  H
  C638     1.0000 0.64667  0.42520  0.02589  Biso   1.000  C
  H1109    1.0000 0.85747  0.45951  0.99488  Biso   1.000  H
  H1110    1.0000 0.80528  0.42722  0.95880  Biso   1.000  H
  H1111    1.0000 0.83238  0.44772  0.96520  Biso   1.000  H
  C639     1.0000 0.82099  0.38821  0.02920  Biso   1.000  C
  C640     1.0000 0.80918  0.38049  0.00768  Biso   1.000  C
  H1112    1.0000 0.85689  0.45329  0.02250  Biso   1.000  H
  H1113    1.0000 0.78330  0.63802  0.97739  Biso   1.000  H
  H1114    1.0000 0.82030  0.60190  0.93468  Biso   1.000  H
  C641     1.0000 0.89827  0.63410  0.98788  Biso   1.000  C
  H1115    1.0000 0.80692  0.62710  0.95579  Biso   1.000  H
  C642     1.0000 0.86980  0.65409  0.01622  Biso   1.000  C
  H1116    1.0000 0.76369  0.63031  0.00730  Biso   1.000  H
  C643     1.0000 0.31569  0.60791  0.15088  Biso   1.000  C
  H1117    1.0000 0.35138  0.73250  0.24840  Biso   1.000  H
  H1118    1.0000 0.38817  0.67881  0.26639  Biso   1.000  H
  C644     1.0000 0.27732  0.67201  0.26300  Biso   1.000  C
  C645     1.0000 0.29002  0.66370  0.26458  Biso   1.000  C
  H1119    1.0000 0.37120  0.72051  0.25788  Biso   1.000  H
  H1120    1.0000 0.40140  0.66140  0.26228  Biso   1.000  H
  H1121    1.0000 0.55390  0.76340  0.18290  Biso   1.000  H
  H1122    1.0000 0.52549  0.77369  0.12710  Biso   1.000  H
  C646     1.0000 0.52501  0.84190  0.17108  Biso   1.000  C
  C647     1.0000 0.55247  0.83252  0.18049  Biso   1.000  C
  H1123    1.0000 0.53719  0.77080  0.12951  Biso   1.000  H
  H1124    1.0000 0.56660  0.75058  0.18241  Biso   1.000  H
  H1125    1.0000 0.20357  0.33250  0.62292  Biso   1.000  H
  H1126    1.0000 0.17521  0.33689  0.67981  Biso   1.000  H
  C648     1.0000 0.22292  0.40570  0.65490  Biso   1.000  C
  H1127    1.0000 0.20357  0.33250  0.62288  Biso   1.000  H
  C649     1.0000 0.21080  0.34362  0.60351  Biso   1.000  C
  H1128    1.0000 0.32028  0.32700  0.62631  Biso   1.000  H
  H1129    1.0000 0.29250  0.38200  0.64979  Biso   1.000  H
  C650     1.0000 0.56887  0.38251  0.96249  Biso   1.000  C
  C651     1.0000 0.46951  0.33080  0.98770  Biso   1.000  C
  H1130    1.0000 0.51352  0.14991  0.79351  Biso   1.000  H
  H1131    1.0000 0.49001  0.13970  0.85040  Biso   1.000  H
  C652     1.0000 0.59828  0.13618  0.84081  Biso   1.000  C
  H1132    1.0000 0.51352  0.14991  0.79348  Biso   1.000  H
  H1133    1.0000 0.54341  0.16269  0.78309  Biso   1.000  H
  C653     1.0000 0.62901  0.15058  0.83031  Biso   1.000  C
  H1134    1.0000 0.52048  0.14330  0.83780  Biso   1.000  H
  H1135    1.0000 0.93342  0.56012  0.80698  Biso   1.000  H
  C654     1.0000 0.84213  0.51339  0.78889  Biso   1.000  C
  H1136    1.0000 0.95440  0.50239  0.78678  Biso   1.000  H
  H1137    1.0000 0.94228  0.56051  0.82279  Biso   1.000  H
  C655     1.0000 0.83101  0.56301  0.81899  Biso   1.000  C
  H1138    1.0000 0.90970  0.50868  0.79690  Biso   1.000  H
  H1139    1.0000 0.91961  0.53642  0.13831  Biso   1.000  H
  H1140    1.0000 0.88609  0.48222  0.11878  Biso   1.000  H
  C656     1.0000 0.92098  0.47790  0.19159  Biso   1.000  C
  C657     1.0000 0.90401  0.46599  0.17530  Biso   1.000  C
  H1141    1.0000 0.90438  0.53321  0.13048  Biso   1.000  H
  H1142    1.0000 0.86690  0.48360  0.10351  Biso   1.000  H
  C658     1.0000 0.24448  0.53812  0.11009  Biso   1.000  C
  C659     1.0000 0.26830  0.44629  0.12048  Biso   1.000  C
  C660     1.0000 0.58458  0.39248  0.01181  Biso   1.000  C
  C661     1.0000 0.58458  0.39248  0.01178  Biso   1.000  C
  H1143    1.0000 0.65547  0.43240  0.06050  Biso   1.000  H
  H1144    1.0000 0.82030  0.39810  0.06532  Biso   1.000  H
  H1145    1.0000 0.78330  0.36202  0.02258  Biso   1.000  H
  H1146    1.0000 0.82030  0.39810  0.06528  Biso   1.000  H
  C662     1.0000 0.89827  0.36590  0.01208  Biso   1.000  C
  H1147    1.0000 0.80692  0.37290  0.04421  Biso   1.000  H
  C663     1.0000 0.86980  0.34591  0.98378  Biso   1.000  C
  H1148    1.0000 0.76369  0.36969  0.99270  Biso   1.000  H
  H1149    1.0000 0.89178  0.67221  0.99488  Biso   1.000  H
  C664     1.0000 0.95999  0.63011  0.95940  Biso   1.000  C
  H1150    1.0000 0.91171  0.65662  0.95459  Biso   1.000  H
  H1151    1.0000 0.94787  0.61919  0.99402  Biso   1.000  H
  H1152    1.0000 0.90881  0.61709  0.02062  Biso   1.000  H
  H1153    1.0000 0.90881  0.61709  0.02058  Biso   1.000  H
  C665     1.0000 0.92931  0.65551  0.98962  Biso   1.000  C
  H1154    1.0000 0.85230  0.69072  0.02039  Biso   1.000  H
  H1155    1.0000 0.88050  0.64000  0.05012  Biso   1.000  H
  C666     1.0000 0.30209  0.55039  0.14012  Biso   1.000  C
  C667     1.0000 0.30209  0.55039  0.14008  Biso   1.000  C
  H1156    1.0000 0.28612  0.63339  0.13549  Biso   1.000  H
  H1157    1.0000 0.26931  0.63529  0.25130  Biso   1.000  H
  H1158    1.0000 0.23831  0.69472  0.25081  Biso   1.000  H
  C668     1.0000 0.28322  0.67430  0.32418  Biso   1.000  C
  C669     1.0000 0.25592  0.68241  0.31428  Biso   1.000  C
  H1159    1.0000 0.25650  0.67228  0.23741  Biso   1.000  H
  H1160    1.0000 0.29282  0.62461  0.26631  Biso   1.000  H
  H1161    1.0000 0.51352  0.85009  0.20649  Biso   1.000  H
  H1162    1.0000 0.49001  0.86030  0.14960  Biso   1.000  H
  C670     1.0000 0.59828  0.86382  0.15919  Biso   1.000  C
  H1163    1.0000 0.54341  0.83731  0.21691  Biso   1.000  H
  C671     1.0000 0.62901  0.84942  0.16969  Biso   1.000  C
  H1164    1.0000 0.52048  0.85670  0.16220  Biso   1.000  H
  H1165    1.0000 0.17922  0.42200  0.64271  Biso   1.000  H
  H1166    1.0000 0.26161  0.41472  0.63210  Biso   1.000  H
  H1167    1.0000 0.23362  0.41899  0.68869  Biso   1.000  H
  H1168    1.0000 0.22440  0.35778  0.57058  Biso   1.000  H
  H1169    1.0000 0.17268  0.36518  0.61769  Biso   1.000  H
  H1170    1.0000 0.19461  0.30698  0.59959  Biso   1.000  H
  H1171    1.0000 0.59760  0.39719  0.93679  Biso   1.000  H
  H1172    1.0000 0.42897  0.31050  0.97949  Biso   1.000  H
  C672     1.0000 0.48558  0.33958  0.03800  Biso   1.000  C
  H1173    1.0000 0.61162  0.14671  0.87539  Biso   1.000  H
  H1174    1.0000 0.59649  0.09701  0.83972  Biso   1.000  H
  C673     1.0000 0.65537  0.15569  0.80371  Biso   1.000  C
  H1175    1.0000 0.59649  0.09701  0.83968  Biso   1.000  H
  C674     1.0000 0.63597  0.09642  0.79919  Biso   1.000  C
  H1176    1.0000 0.63618  0.14469  0.86669  Biso   1.000  H
  H1177    1.0000 0.66270  0.17749  0.81820  Biso   1.000  H
  H1178    1.0000 0.80939  0.53329  0.81029  Biso   1.000  H
  H1179    1.0000 0.83032  0.47569  0.79020  Biso   1.000  H
  H1180    1.0000 0.83812  0.52609  0.75408  Biso   1.000  H
  H1181    1.0000 0.82958  0.58121  0.78588  Biso   1.000  H
  H1182    1.0000 0.82600  0.58959  0.84559  Biso   1.000  H
  H1183    1.0000 0.79289  0.53749  0.82079  Biso   1.000  H
  H1184    1.0000 0.95440  0.49761  0.21318  Biso   1.000  H
  H1185    1.0000 0.93342  0.43992  0.19298  Biso   1.000  H
  C675     1.0000 0.84213  0.48661  0.21108  Biso   1.000  C
  H1186    1.0000 0.94228  0.43949  0.17721  Biso   1.000  H
  C676     1.0000 0.83101  0.43699  0.18101  Biso   1.000  C
  H1187    1.0000 0.90970  0.49132  0.20310  Biso   1.000  H
  H1188    1.0000 0.21638  0.56570  0.09651  Biso   1.000  H
  C677     1.0000 0.32692  0.45899  0.15201  Biso   1.000  C
  H1189    1.0000 0.25729  0.41021  0.11400  Biso   1.000  H
  C678     1.0000 0.54262  0.37092  0.04929  Biso   1.000  C
  H1190    1.0000 0.90881  0.38291  0.97938  Biso   1.000  H
  C679     1.0000 0.95999  0.36989  0.04060  Biso   1.000  C
  H1191    1.0000 0.89178  0.32779  0.00508  Biso   1.000  H
  H1192    1.0000 0.91171  0.34338  0.04538  Biso   1.000  H
  H1193    1.0000 0.94787  0.38081  0.00598  Biso   1.000  H
  H1194    1.0000 0.85230  0.30932  0.97961  Biso   1.000  H
  H1195    1.0000 0.88050  0.36000  0.94988  Biso   1.000  H
  C680     1.0000 0.92931  0.34449  0.01038  Biso   1.000  C
  H1196    1.0000 0.94961  0.63521  0.92328  Biso   1.000  H
  H1197    1.0000 0.98181  0.59482  0.96399  Biso   1.000  H
  C681     1.0000 0.01128  0.67490  0.97901  Biso   1.000  C
  C682     1.0000 0.99589  0.68831  0.98661  Biso   1.000  C
  C683     1.0000 0.34279  0.51039  0.15930  Biso   1.000  C
  H1198    1.0000 0.32281  0.65219  0.33618  Biso   1.000  H
  H1199    1.0000 0.29071  0.71110  0.33580  Biso   1.000  H
  C684     1.0000 0.21412  0.65329  0.34322  Biso   1.000  C
  C685     1.0000 0.21412  0.65329  0.34318  Biso   1.000  C
  C686     1.0000 0.27932  0.65492  0.35838  Biso   1.000  C
  H1200    1.0000 0.26588  0.72059  0.31868  Biso   1.000  H
  H1201    1.0000 0.20421  0.67830  0.31139  Biso   1.000  H
  H1202    1.0000 0.61162  0.85329  0.12461  Biso   1.000  H
  H1203    1.0000 0.59649  0.90299  0.16028  Biso   1.000  H
  C687     1.0000 0.65537  0.84431  0.19629  Biso   1.000  C
  H1204    1.0000 0.61162  0.85329  0.12458  Biso   1.000  H
  C688     1.0000 0.63597  0.90362  0.20081  Biso   1.000  C
  H1205    1.0000 0.63618  0.85531  0.13331  Biso   1.000  H
  H1206    1.0000 0.66270  0.82251  0.18180  Biso   1.000  H
  C689     1.0000 0.44141  0.31379  0.07758  Biso   1.000  C
  H1207    1.0000 0.70118  0.14121  0.81349  Biso   1.000  H
  H1208    1.0000 0.65737  0.19450  0.80450  Biso   1.000  H
  H1209    1.0000 0.64361  0.14390  0.76958  Biso   1.000  H
  H1210    1.0000 0.68457  0.08372  0.80108  Biso   1.000  H
  H1211    1.0000 0.62327  0.10271  0.76390  Biso   1.000  H
  H1212    1.0000 0.60419  0.06979  0.81349  Biso   1.000  H
  H1213    1.0000 0.83812  0.47391  0.24588  Biso   1.000  H
  H1214    1.0000 0.80939  0.46671  0.18971  Biso   1.000  H
  H1215    1.0000 0.83032  0.52431  0.20980  Biso   1.000  H
  H1216    1.0000 0.82958  0.41879  0.21409  Biso   1.000  H
  H1217    1.0000 0.82600  0.41041  0.15441  Biso   1.000  H
  H1218    1.0000 0.79289  0.46251  0.17921  Biso   1.000  H
  C690     1.0000 0.36677  0.41591  0.17680  Biso   1.000  C
  H1219    1.0000 0.55337  0.37800  0.08349  Biso   1.000  H
  H1220    1.0000 0.94961  0.36479  0.07672  Biso   1.000  H
  H1221    1.0000 0.98181  0.40518  0.03601  Biso   1.000  H
  H1222    1.0000 0.94961  0.36479  0.07668  Biso   1.000  H
  C691     1.0000 0.01128  0.32510  0.02099  Biso   1.000  C
  C692     1.0000 0.99589  0.31169  0.01339  Biso   1.000  C
  H1223    1.0000 0.98767  0.70932  0.97660  Biso   1.000  H
  H1224    1.0000 0.05408  0.67521  0.95831  Biso   1.000  H
  H1225    1.0000 0.03121  0.66940  0.96659  Biso   1.000  H
  H1226    1.0000 0.02388  0.66781  0.01411  Biso   1.000  H
  H1227    1.0000 0.01418  0.69440  0.02062  Biso   1.000  H
  H1228    1.0000 0.98529  0.72229  0.97069  Biso   1.000  H
  H1229    1.0000 0.38348  0.51921  0.17831  Biso   1.000  H
  H1230    1.0000 0.20357  0.66750  0.37708  Biso   1.000  H
  H1231    1.0000 0.17521  0.66311  0.32019  Biso   1.000  H
  C693     1.0000 0.22292  0.59430  0.34510  Biso   1.000  C
  C694     1.0000 0.21080  0.65642  0.39649  Biso   1.000  C
  H1232    1.0000 0.32028  0.67300  0.37369  Biso   1.000  H
  H1233    1.0000 0.29250  0.61800  0.35021  Biso   1.000  H
  H1234    1.0000 0.70118  0.85879  0.18651  Biso   1.000  H
  H1235    1.0000 0.65737  0.80550  0.19550  Biso   1.000  H
  H1236    1.0000 0.64361  0.85610  0.23038  Biso   1.000  H
  H1237    1.0000 0.68457  0.91632  0.19889  Biso   1.000  H
  H1238    1.0000 0.62327  0.89729  0.23610  Biso   1.000  H
  H1239    1.0000 0.60419  0.93021  0.18651  Biso   1.000  H
  N50      1.0000 0.46002  0.31620  0.12330  Biso   1.000  N
  H1240    1.0000 0.39940  0.29559  0.06852  Biso   1.000  H
  H1241    1.0000 0.39940  0.29559  0.06848  Biso   1.000  H
  N51      1.0000 0.35048  0.36878  0.17349  Biso   1.000  N
  H1242    1.0000 0.40710  0.42500  0.19629  Biso   1.000  H
  H1243    1.0000 0.98767  0.29068  0.02340  Biso   1.000  H
  H1244    1.0000 0.02388  0.33219  0.98589  Biso   1.000  H
  H1245    1.0000 0.01418  0.30560  0.97938  Biso   1.000  H
  H1246    1.0000 0.05408  0.32479  0.04169  Biso   1.000  H
  H1247    1.0000 0.03121  0.33060  0.03337  Biso   1.000  H
  H1248    1.0000 0.98529  0.27771  0.02931  Biso   1.000  H
  H1249    1.0000 0.17922  0.57800  0.35729  Biso   1.000  H
  H1250    1.0000 0.26161  0.58532  0.36790  Biso   1.000  H
  H1251    1.0000 0.23362  0.58101  0.31127  Biso   1.000  H
  H1252    1.0000 0.22440  0.64222  0.42942  Biso   1.000  H
  H1253    1.0000 0.17268  0.63482  0.38231  Biso   1.000  H
  H1254    1.0000 0.19461  0.69302  0.40041  Biso   1.000  H
  C695     1.0000 0.41621  0.28811  0.16028  Biso   1.000  C
  C696     1.0000 0.39302  0.32859  0.19979  Biso   1.000  C
  C697     1.0000 0.45817  0.23988  0.17861  Biso   1.000  C
  H1255    1.0000 0.37310  0.27501  0.14267  Biso   1.000  H
  C698     1.0000 0.46308  0.25191  0.19117  Biso   1.000  C
  H1256    1.0000 0.37557  0.26900  0.14459  Biso   1.000  H
  H1257    1.0000 0.43482  0.34508  0.21638  Biso   1.000  H
  C699     1.0000 0.34569  0.30129  0.23858  Biso   1.000  C
  C700     1.0000 0.36308  0.30770  0.24912  Biso   1.000  C
  H1258    1.0000 0.43730  0.34742  0.20961  Biso   1.000  H
  H1259    1.0000 0.42897  0.21978  0.20280  Biso   1.000  H
  H1260    1.0000 0.50061  0.25238  0.19670  Biso   1.000  H
  C701     1.0000 0.48210  0.20111  0.13451  Biso   1.000  C
  C702     1.0000 0.48901  0.20898  0.15520  Biso   1.000  C
  H1261    1.0000 0.43619  0.23600  0.21928  Biso   1.000  H
  H1262    1.0000 0.50351  0.27189  0.20528  Biso   1.000  H
  H1263    1.0000 0.37231  0.27240  0.25510  Biso   1.000  H
  H1264    1.0000 0.30452  0.28550  0.22139  Biso   1.000  H
  C703     1.0000 0.31938  0.34192  0.27978  Biso   1.000  C
  H1265    1.0000 0.31880  0.28859  0.24159  Biso   1.000  H
  H1266    1.0000 0.39682  0.28150  0.26289  Biso   1.000  H
  C704     1.0000 0.34800  0.34868  0.29020  Biso   1.000  C
  H1267    1.0000 0.44162  0.19509  0.11178  Biso   1.000  H
  H1268    1.0000 0.51969  0.21860  0.11468  Biso   1.000  H
  C705     1.0000 0.51078  0.14500  0.15389  Biso   1.000  C
  H1269    1.0000 0.52127  0.22508  0.13018  Biso   1.000  H
  H1270    1.0000 0.44821  0.19430  0.13669  Biso   1.000  H
  C706     1.0000 0.52881  0.16241  0.18357  Biso   1.000  C
  H1271    1.0000 0.35997  0.35391  0.30021  Biso   1.000  H
  H1272    1.0000 0.35997  0.35391  0.30017  Biso   1.000  H
  H1273    1.0000 0.29861  0.37321  0.26307  Biso   1.000  H
  C707     1.0000 0.26261  0.31561  0.31537  Biso   1.000  C
  C708     1.0000 0.30299  0.32590  0.33509  Biso   1.000  C
  H1274    1.0000 0.32191  0.37879  0.27500  Biso   1.000  H
  H1275    1.0000 0.39292  0.36229  0.30348  Biso   1.000  H
  H1276    1.0000 0.51547  0.12071  0.12492  Biso   1.000  H
  C709     1.0000 0.57989  0.14979  0.17970  Biso   1.000  C
  H1277    1.0000 0.47599  0.12950  0.17748  Biso   1.000  H
  H1278    1.0000 0.51547  0.12071  0.12488  Biso   1.000  H
  C710     1.0000 0.56038  0.12419  0.14990  Biso   1.000  C
  H1279    1.0000 0.52290  0.10659  0.13011  Biso   1.000  H
  H1280    1.0000 0.57562  0.17579  0.20739  Biso   1.000  H
  H1281    1.0000 0.56607  0.17780  0.20521  Biso   1.000  H
  H1282    1.0000 0.49491  0.14402  0.20588  Biso   1.000  H
  H1283    1.0000 0.22861  0.29428  0.29581  Biso   1.000  H
  C711     1.0000 0.30689  0.28000  0.35089  Biso   1.000  C
  H1284    1.0000 0.23657  0.34279  0.33468  Biso   1.000  H
  C712     1.0000 0.33899  0.29670  0.37719  Biso   1.000  C
  H1285    1.0000 0.27700  0.35589  0.35029  Biso   1.000  H
  H1286    1.0000 0.26720  0.30180  0.32060  Biso   1.000  H
  H1287    1.0000 0.61510  0.16360  0.15550  Biso   1.000  H
  C713     1.0000 0.60772  0.09610  0.20190  Biso   1.000  C
  C714     1.0000 0.60382  0.08059  0.18049  Biso   1.000  C
  H1288    1.0000 0.59227  0.14259  0.12619  Biso   1.000  H
  H1289    1.0000 0.31559  0.24562  0.33419  Biso   1.000  H
  C715     1.0000 0.26899  0.26959  0.40451  Biso   1.000  C
  H1290    1.0000 0.35317  0.29701  0.35687  Biso   1.000  H
  H1291    1.0000 0.36371  0.26611  0.36229  Biso   1.000  H
  C716     1.0000 0.29102  0.27501  0.42328  Biso   1.000  C
  H1292    1.0000 0.37510  0.32051  0.39149  Biso   1.000  H
  H1293    1.0000 0.65331  0.10192  0.21830  Biso   1.000  H
  H1294    1.0000 0.61320  0.07031  0.17469  Biso   1.000  H
  H1295    1.0000 0.57388  0.08261  0.22669  Biso   1.000  H
  H1296    1.0000 0.57219  0.06239  0.20408  Biso   1.000  H
  H1297    1.0000 0.64177  0.09788  0.19938  Biso   1.000  H
  H1298    1.0000 0.62390  0.05492  0.15701  Biso   1.000  H
  H1299    1.0000 0.29698  0.24471  0.42430  Biso   1.000  H
  H1300    1.0000 0.22181  0.25460  0.39879  Biso   1.000  H
  H1301    1.0000 0.26440  0.30311  0.42279  Biso   1.000  H
  H1302    1.0000 0.26251  0.24518  0.41169  Biso   1.000  H
  H1303    1.0000 0.26040  0.30338  0.43540  Biso   1.000  H
  H1304    1.0000 0.32207  0.26330  0.45071  Biso   1.000  H
