data_image0
_cell_length_a       19.129
_cell_length_b       19.129
_cell_length_c       50.923
_cell_angle_alpha    90
_cell_angle_beta     90
_cell_angle_gamma    120

_symmetry_space_group_name_H-M    "P 1"
_symmetry_int_tables_number       1

loop_
  _symmetry_equiv_pos_as_xyz
  'x, y, z'

loop_
  _atom_site_label
  _atom_site_occupancy
  _atom_site_fract_x
  _atom_site_fract_y
  _atom_site_fract_z
  _atom_site_thermal_displace_type
  _atom_site_B_iso_or_equiv
  _atom_site_type_symbol
  C1       1.0000 0.69717  0.61939  0.47882  Biso   1.000  C
  N1       1.0000 0.71214  0.61776  0.45384  Biso   1.000  N
  H1       1.0000 0.67563  0.57128  0.48817  Biso   1.000  H
  C2       1.0000 0.71159  0.68942  0.49235  Biso   1.000  C
  C3       1.0000 0.70193  0.54798  0.44112  Biso   1.000  C
  C4       1.0000 0.73851  0.76282  0.47941  Biso   1.000  C
  C5       1.0000 0.69769  0.68754  0.51977  Biso   1.000  C
  C6       1.0000 0.70363  0.54835  0.41372  Biso   1.000  C
  C7       1.0000 0.69017  0.47899  0.45429  Biso   1.000  C
  O1       1.0000 0.75175  0.76849  0.45315  Biso   1.000  O
  C8       1.0000 0.75232  0.82964  0.49349  Biso   1.000  C
  C9       1.0000 0.71178  0.75358  0.53392  Biso   1.000  C
  H2       1.0000 0.67786  0.63859  0.52846  Biso   1.000  H
  C10      1.0000 0.69173  0.48086  0.39974  Biso   1.000  C
  H3       1.0000 0.71294  0.59458  0.40467  Biso   1.000  H
  C11      1.0000 0.67974  0.41265  0.44053  Biso   1.000  C
  H4       1.0000 0.68934  0.47784  0.47258  Biso   1.000  H
  H5       1.0000 0.71062  0.73276  0.44546  Biso   1.000  H
  H6       1.0000 0.76983  0.87835  0.48477  Biso   1.000  H
  C12      1.0000 0.74097  0.82638  0.52037  Biso   1.000  C
  C13      1.0000 0.69768  0.74954  0.56318  Biso   1.000  C
  C14      1.0000 0.68015  0.41168  0.41270  Biso   1.000  C
  H7       1.0000 0.69157  0.48188  0.38146  Biso   1.000  H
  C15      1.0000 0.66667  0.33339  0.45188  Biso   1.000  C
  H8       1.0000 0.75286  0.87316  0.52956  Biso   1.000  H
  H9       1.0000 0.66493  0.69334  0.56837  Biso   1.000  H
  H10      1.0000 0.66744  0.77646  0.56727  Biso   1.000  H
  C16      1.0000 0.77355  0.78721  0.57887  Biso   1.000  C
  C17      1.0000 0.66667  0.33339  0.40153  Biso   1.000  C
  C18      1.0000 0.58734  0.26705  0.44053  Biso   1.000  C
  C19      1.0000 0.73294  0.32029  0.44053  Biso   1.000  C
  H11      1.0000 0.66667  0.33339  0.47116  Biso   1.000  H
  C20      1.0000 0.75969  0.77809  0.60796  Biso   1.000  C
  H12      1.0000 0.80554  0.76294  0.57387  Biso   1.000  H
  H13      1.0000 0.80434  0.84419  0.57467  Biso   1.000  H
  C21      1.0000 0.58829  0.26844  0.41270  Biso   1.000  C
  H14      1.0000 0.66667  0.33339  0.38226  Biso   1.000  H
  C22      1.0000 0.73153  0.31987  0.41270  Biso   1.000  C
  C23      1.0000 0.52102  0.21115  0.45429  Biso   1.000  C
  C24      1.0000 0.78883  0.30985  0.45429  Biso   1.000  C
  C25      1.0000 0.74212  0.83037  0.62194  Biso   1.000  C
  C26      1.0000 0.75564  0.71416  0.62147  Biso   1.000  C
  C27      1.0000 0.51914  0.21085  0.39974  Biso   1.000  C
  C28      1.0000 0.78914  0.30828  0.39974  Biso   1.000  C
  C29      1.0000 0.45203  0.15399  0.44112  Biso   1.000  C
  H15      1.0000 0.52211  0.21145  0.47258  Biso   1.000  H
  C30      1.0000 0.84604  0.29808  0.44112  Biso   1.000  C
  H16      1.0000 0.78852  0.31069  0.47258  Biso   1.000  H
  C31      1.0000 0.72404  0.81878  0.64833  Biso   1.000  C
  H17      1.0000 0.74271  0.87347  0.61326  Biso   1.000  H
  C32      1.0000 0.73755  0.70245  0.64839  Biso   1.000  C
  H18      1.0000 0.76526  0.67746  0.61247  Biso   1.000  H
  H19      1.0000 0.51812  0.20964  0.38146  Biso   1.000  H
  C33      1.0000 0.45162  0.15526  0.41372  Biso   1.000  C
  H20      1.0000 0.79033  0.30846  0.38146  Biso   1.000  H
  C34      1.0000 0.84473  0.29639  0.41372  Biso   1.000  C
  N2       1.0000 0.38222  0.09435  0.45384  Biso   1.000  N
  N3       1.0000 0.90566  0.28788  0.45384  Biso   1.000  N
  C35      1.0000 0.72064  0.75636  0.66153  Biso   1.000  C
  H21      1.0000 0.71397  0.85530  0.65727  Biso   1.000  H
  C36      1.0000 0.73302  0.63370  0.66143  Biso   1.000  C
  H22      1.0000 0.40542  0.11837  0.40467  Biso   1.000  H
  H23      1.0000 0.88164  0.28709  0.40467  Biso   1.000  H
  C37      1.0000 0.38061  0.07775  0.47882  Biso   1.000  C
  C38      1.0000 0.92224  0.30285  0.47882  Biso   1.000  C
  O2       1.0000 0.70134  0.74598  0.68782  Biso   1.000  O
  N4       1.0000 0.71460  0.61819  0.68590  Biso   1.000  N
  H24      1.0000 0.74395  0.59899  0.65177  Biso   1.000  H
  H25      1.0000 0.42873  0.10437  0.48817  Biso   1.000  H
  C39      1.0000 0.31060  0.02221  0.49235  Biso   1.000  C
  H26      1.0000 0.89564  0.32440  0.48817  Biso   1.000  H
  C40      1.0000 0.97778  0.28836  0.49235  Biso   1.000  C
  H27      1.0000 0.69752  0.70270  0.69307  Biso   1.000  H
  C41      1.0000 0.70584  0.54859  0.69823  Biso   1.000  C
  C42      1.0000 0.31251  0.01014  0.51977  Biso   1.000  C
  C43      1.0000 0.23717  0.97573  0.47941  Biso   1.000  C
  C44      1.0000 0.98986  0.30236  0.51977  Biso   1.000  C
  C45      1.0000 0.02428  0.26144  0.47941  Biso   1.000  C
  C46      1.0000 0.69389  0.47995  0.68413  Biso   1.000  C
  C47      1.0000 0.70529  0.54708  0.72555  Biso   1.000  C
  H28      1.0000 0.36140  0.03924  0.52846  Biso   1.000  H
  C48      1.0000 0.24643  0.95817  0.53392  Biso   1.000  C
  O3       1.0000 0.23159  0.98328  0.45315  Biso   1.000  O
  C49      1.0000 0.17034  0.92267  0.49349  Biso   1.000  C
  H29      1.0000 0.96076  0.32216  0.52846  Biso   1.000  H
  C50      1.0000 0.04181  0.28824  0.53392  Biso   1.000  C
  O4       1.0000 0.01676  0.24828  0.45315  Biso   1.000  O
  C51      1.0000 0.07736  0.24767  0.49349  Biso   1.000  C
  C52      1.0000 0.68250  0.41241  0.69794  Biso   1.000  C
  H30      1.0000 0.69363  0.47995  0.66587  Biso   1.000  H
  H31      1.0000 0.71263  0.59217  0.73478  Biso   1.000  H
  C53      1.0000 0.69389  0.47953  0.73914  Biso   1.000  C
  C54      1.0000 0.17361  0.91459  0.52037  Biso   1.000  C
  C55      1.0000 0.25046  0.94815  0.56318  Biso   1.000  C
  H32      1.0000 0.26727  0.97791  0.44546  Biso   1.000  H
  H33      1.0000 0.12164  0.89147  0.48477  Biso   1.000  H
  C56      1.0000 0.08544  0.25902  0.52037  Biso   1.000  C
  C57      1.0000 0.05186  0.30236  0.56318  Biso   1.000  C
  H34      1.0000 0.02216  0.28938  0.44546  Biso   1.000  H
  H35      1.0000 0.10855  0.23017  0.48477  Biso   1.000  H
  C58      1.0000 0.66667  0.33339  0.68655  Biso   1.000  C
  C59      1.0000 0.68247  0.41277  0.72561  Biso   1.000  C
  H36      1.0000 0.69403  0.47959  0.75736  Biso   1.000  H
  H37      1.0000 0.12689  0.87969  0.52956  Biso   1.000  H
  H38      1.0000 0.30666  0.97157  0.56837  Biso   1.000  H
  H39      1.0000 0.22355  0.89098  0.56727  Biso   1.000  H
  C60      1.0000 0.21285  0.98636  0.57887  Biso   1.000  C
  H40      1.0000 0.12035  0.24719  0.52956  Biso   1.000  H
  H41      1.0000 0.02843  0.33508  0.56837  Biso   1.000  H
  H42      1.0000 0.10903  0.33254  0.56727  Biso   1.000  H
  C61      1.0000 0.01366  0.22649  0.57887  Biso   1.000  C
  C62      1.0000 0.58759  0.27007  0.69794  Biso   1.000  C
  H43      1.0000 0.66667  0.33339  0.66726  Biso   1.000  H
  C63      1.0000 0.72993  0.31751  0.69794  Biso   1.000  C
  C64      1.0000 0.66667  0.33339  0.73731  Biso   1.000  C
  H44      1.0000 0.23702  0.04256  0.57387  Biso   1.000  H
  C65      1.0000 0.22186  0.98159  0.60796  Biso   1.000  C
  H45      1.0000 0.15578  0.96016  0.57467  Biso   1.000  H
  H46      1.0000 0.95746  0.19449  0.57387  Biso   1.000  H
  C66      1.0000 0.01842  0.24031  0.60796  Biso   1.000  C
  H47      1.0000 0.03984  0.19564  0.57467  Biso   1.000  H
  C67      1.0000 0.52005  0.21393  0.68413  Biso   1.000  C
  C68      1.0000 0.58720  0.26971  0.72561  Biso   1.000  C
  C69      1.0000 0.78607  0.30611  0.68413  Biso   1.000  C
  C70      1.0000 0.73030  0.31751  0.72561  Biso   1.000  C
  H48      1.0000 0.66667  0.33339  0.75657  Biso   1.000  H
  C71      1.0000 0.28583  0.04147  0.62147  Biso   1.000  C
  C72      1.0000 0.16961  0.91181  0.62194  Biso   1.000  C
  C73      1.0000 0.95855  0.24435  0.62147  Biso   1.000  C
  C74      1.0000 0.08821  0.25787  0.62194  Biso   1.000  C
  C75      1.0000 0.45141  0.15725  0.69823  Biso   1.000  C
  H49      1.0000 0.52004  0.21369  0.66587  Biso   1.000  H
  C76      1.0000 0.52048  0.21435  0.73914  Biso   1.000  C
  C77      1.0000 0.84277  0.29415  0.69823  Biso   1.000  C
  H50      1.0000 0.78635  0.30635  0.66587  Biso   1.000  H
  C78      1.0000 0.78565  0.30611  0.73914  Biso   1.000  C
  C79      1.0000 0.29753  0.03507  0.64839  Biso   1.000  C
  H51      1.0000 0.32252  0.08777  0.61247  Biso   1.000  H
  C80      1.0000 0.18120  0.90529  0.64833  Biso   1.000  C
  H52      1.0000 0.12653  0.86925  0.61326  Biso   1.000  H
  C81      1.0000 0.96489  0.26246  0.64839  Biso   1.000  C
  H53      1.0000 0.91224  0.23476  0.61247  Biso   1.000  H
  C82      1.0000 0.09476  0.27598  0.64833  Biso   1.000  C
  H54      1.0000 0.13073  0.25727  0.61326  Biso   1.000  H
  N5       1.0000 0.38186  0.09646  0.68590  Biso   1.000  N
  C83      1.0000 0.45294  0.15821  0.72555  Biso   1.000  C
  H55      1.0000 0.52043  0.21447  0.75736  Biso   1.000  H
  N6       1.0000 0.90353  0.28540  0.68590  Biso   1.000  N
  C84      1.0000 0.84182  0.29476  0.72555  Biso   1.000  C
  H56      1.0000 0.78554  0.30598  0.75736  Biso   1.000  H
  C85      1.0000 0.36629  0.09930  0.66143  Biso   1.000  C
  C86      1.0000 0.24367  0.96426  0.66153  Biso   1.000  C
  H57      1.0000 0.14472  0.85869  0.65727  Biso   1.000  H
  C87      1.0000 0.90068  0.26693  0.66143  Biso   1.000  C
  C88      1.0000 0.03576  0.27936  0.66153  Biso   1.000  C
  H58      1.0000 0.14131  0.28606  0.65727  Biso   1.000  H
  H59      1.0000 0.40783  0.12049  0.73478  Biso   1.000  H
  H60      1.0000 0.87954  0.28739  0.73478  Biso   1.000  H
  H61      1.0000 0.40106  0.14499  0.65177  Biso   1.000  H
  O5       1.0000 0.25395  0.95533  0.68782  Biso   1.000  O
  H62      1.0000 0.85504  0.25606  0.65177  Biso   1.000  H
  O6       1.0000 0.04468  0.29868  0.68782  Biso   1.000  O
  H63      1.0000 0.29735  0.99487  0.69307  Biso   1.000  H
  H64      1.0000 0.00513  0.30248  0.69307  Biso   1.000  H
  C89      1.0000 0.30237  0.31250  0.48023  Biso   1.000  C
  C90      1.0000 0.28824  0.24641  0.46608  Biso   1.000  C
  C91      1.0000 0.28838  0.31057  0.50765  Biso   1.000  C
  H65      1.0000 0.32219  0.36146  0.47154  Biso   1.000  H
  C92      1.0000 0.30234  0.25045  0.43682  Biso   1.000  C
  C93      1.0000 0.25905  0.17361  0.47963  Biso   1.000  C
  C94      1.0000 0.26146  0.23717  0.52059  Biso   1.000  C
  C95      1.0000 0.30285  0.38059  0.52118  Biso   1.000  C
  C96      1.0000 0.22647  0.21278  0.42113  Biso   1.000  C
  H66      1.0000 0.33509  0.30665  0.43163  Biso   1.000  H
  H67      1.0000 0.33258  0.22353  0.43273  Biso   1.000  H
  C97      1.0000 0.24765  0.17035  0.50651  Biso   1.000  C
  H68      1.0000 0.24716  0.12682  0.47044  Biso   1.000  H
  O7       1.0000 0.24830  0.23156  0.54685  Biso   1.000  O
  N7       1.0000 0.28788  0.38222  0.54616  Biso   1.000  N
  H69      1.0000 0.32434  0.42870  0.51183  Biso   1.000  H
  C98      1.0000 0.24028  0.22190  0.39204  Biso   1.000  C
  H70      1.0000 0.19448  0.23705  0.42613  Biso   1.000  H
  H71      1.0000 0.19566  0.15586  0.42533  Biso   1.000  H
  H72      1.0000 0.23014  0.12163  0.51523  Biso   1.000  H
  H73      1.0000 0.28935  0.26723  0.55454  Biso   1.000  H
  C99      1.0000 0.29804  0.45200  0.55888  Biso   1.000  C
  C100     1.0000 0.24433  0.28582  0.37853  Biso   1.000  C
  C101     1.0000 0.25785  0.16962  0.37806  Biso   1.000  C
  C102     1.0000 0.29639  0.45164  0.58628  Biso   1.000  C
  C103     1.0000 0.30985  0.52100  0.54571  Biso   1.000  C
  C104     1.0000 0.26247  0.29753  0.35161  Biso   1.000  C
  H74      1.0000 0.23476  0.32252  0.38753  Biso   1.000  H
  C105     1.0000 0.27598  0.18121  0.35167  Biso   1.000  C
  H75      1.0000 0.25726  0.12652  0.38674  Biso   1.000  H
  C106     1.0000 0.30829  0.51913  0.60026  Biso   1.000  C
  H76      1.0000 0.28708  0.40540  0.59533  Biso   1.000  H
  H77      1.0000 0.31068  0.52215  0.52742  Biso   1.000  H
  C107     1.0000 0.32028  0.58734  0.55947  Biso   1.000  C
  C108     1.0000 0.27938  0.24363  0.33847  Biso   1.000  C
  C109     1.0000 0.26694  0.36629  0.33857  Biso   1.000  C
  H78      1.0000 0.28608  0.14475  0.34273  Biso   1.000  H
  C110     1.0000 0.31987  0.58831  0.58730  Biso   1.000  C
  H79      1.0000 0.30848  0.51816  0.61854  Biso   1.000  H
  C111     1.0000 0.33338  0.66666  0.54812  Biso   1.000  C
  O8       1.0000 0.29868  0.25401  0.31218  Biso   1.000  O
  N8       1.0000 0.28539  0.38186  0.31410  Biso   1.000  N
  H80      1.0000 0.25610  0.40106  0.34823  Biso   1.000  H
  C112     1.0000 0.33338  0.66666  0.59847  Biso   1.000  C
  H81      1.0000 0.33338  0.66666  0.52884  Biso   1.000  H
  C113     1.0000 0.26706  0.67976  0.55947  Biso   1.000  C
  C114     1.0000 0.41268  0.73294  0.55947  Biso   1.000  C
  H82      1.0000 0.30247  0.29735  0.30693  Biso   1.000  H
  C115     1.0000 0.29413  0.45140  0.30177  Biso   1.000  C
  H83      1.0000 0.33338  0.66666  0.61774  Biso   1.000  H
  C116     1.0000 0.26844  0.68012  0.58730  Biso   1.000  C
  C117     1.0000 0.41167  0.73155  0.58730  Biso   1.000  C
  C118     1.0000 0.21119  0.69014  0.54571  Biso   1.000  C
  C119     1.0000 0.47900  0.78884  0.54571  Biso   1.000  C
  C120     1.0000 0.30613  0.52003  0.31587  Biso   1.000  C
  C121     1.0000 0.29473  0.45291  0.27445  Biso   1.000  C
  C122     1.0000 0.21088  0.69171  0.60026  Biso   1.000  C
  C123     1.0000 0.48088  0.78914  0.60026  Biso   1.000  C
  C124     1.0000 0.15396  0.70197  0.55888  Biso   1.000  C
  H84      1.0000 0.21148  0.68936  0.52742  Biso   1.000  H
  C125     1.0000 0.54797  0.84606  0.55888  Biso   1.000  C
  H85      1.0000 0.47786  0.78853  0.52742  Biso   1.000  H
  C126     1.0000 0.31755  0.58764  0.30206  Biso   1.000  C
  H86      1.0000 0.30639  0.52003  0.33413  Biso   1.000  H
  H87      1.0000 0.28734  0.40782  0.26522  Biso   1.000  H
  C127     1.0000 0.30613  0.52046  0.26086  Biso   1.000  C
  H88      1.0000 0.20969  0.69153  0.61854  Biso   1.000  H
  C128     1.0000 0.15527  0.70366  0.58628  Biso   1.000  C
  H89      1.0000 0.48185  0.79034  0.61854  Biso   1.000  H
  C129     1.0000 0.54835  0.84473  0.58628  Biso   1.000  C
  N9       1.0000 0.09436  0.71211  0.54616  Biso   1.000  N
  N10      1.0000 0.61780  0.90564  0.54616  Biso   1.000  N
  C130     1.0000 0.33338  0.66666  0.31345  Biso   1.000  C
  C131     1.0000 0.31750  0.58722  0.27439  Biso   1.000  C
  H90      1.0000 0.30597  0.52046  0.24264  Biso   1.000  H
  H91      1.0000 0.11836  0.71296  0.59533  Biso   1.000  H
  H92      1.0000 0.59455  0.88161  0.59533  Biso   1.000  H
  C132     1.0000 0.07778  0.69714  0.52118  Biso   1.000  C
  C133     1.0000 0.61936  0.92224  0.52118  Biso   1.000  C
  H93      1.0000 0.33338  0.66666  0.33274  Biso   1.000  H
  C134     1.0000 0.27009  0.68247  0.30206  Biso   1.000  C
  C135     1.0000 0.41237  0.72992  0.30206  Biso   1.000  C
  C136     1.0000 0.33338  0.66666  0.26269  Biso   1.000  C
  C137     1.0000 0.02219  0.71163  0.50765  Biso   1.000  C
  H94      1.0000 0.10436  0.67565  0.51183  Biso   1.000  H
  C138     1.0000 0.68945  0.97783  0.50765  Biso   1.000  C
  H95      1.0000 0.57123  0.89562  0.51183  Biso   1.000  H
  C139     1.0000 0.21390  0.69388  0.31587  Biso   1.000  C
  C140     1.0000 0.26972  0.68247  0.27439  Biso   1.000  C
  C141     1.0000 0.47997  0.78606  0.31587  Biso   1.000  C
  C142     1.0000 0.41277  0.73028  0.27439  Biso   1.000  C
  H96      1.0000 0.33338  0.66666  0.24343  Biso   1.000  H
  C143     1.0000 0.01011  0.69763  0.48023  Biso   1.000  C
  C144     1.0000 0.97569  0.73855  0.52059  Biso   1.000  C
  C145     1.0000 0.68751  0.98985  0.48023  Biso   1.000  C
  C146     1.0000 0.76279  0.02425  0.52059  Biso   1.000  C
  H97      1.0000 0.21367  0.69364  0.33413  Biso   1.000  H
  C147     1.0000 0.15725  0.70583  0.30177  Biso   1.000  C
  C148     1.0000 0.21432  0.69388  0.26086  Biso   1.000  C
  H98      1.0000 0.47996  0.78636  0.33413  Biso   1.000  H
  C149     1.0000 0.54861  0.84274  0.30177  Biso   1.000  C
  C150     1.0000 0.47954  0.78564  0.26086  Biso   1.000  C
  C151     1.0000 0.95815  0.71175  0.46608  Biso   1.000  C
  H99      1.0000 0.03926  0.67783  0.47154  Biso   1.000  H
  C152     1.0000 0.92266  0.75231  0.50651  Biso   1.000  C
  O9       1.0000 0.98326  0.75171  0.54685  Biso   1.000  O
  C153     1.0000 0.75354  0.04182  0.46608  Biso   1.000  C
  H100     1.0000 0.63856  0.96075  0.47154  Biso   1.000  H
  C154     1.0000 0.82963  0.07731  0.50651  Biso   1.000  C
  O10      1.0000 0.76851  0.01677  0.54685  Biso   1.000  O
  N11      1.0000 0.09643  0.71459  0.31410  Biso   1.000  N
  C155     1.0000 0.15823  0.70529  0.27445  Biso   1.000  C
  H101     1.0000 0.21443  0.69400  0.24264  Biso   1.000  H
  N12      1.0000 0.61816  0.90353  0.31410  Biso   1.000  N
  C156     1.0000 0.54708  0.84177  0.27445  Biso   1.000  C
  H102     1.0000 0.47954  0.78552  0.24264  Biso   1.000  H
  C157     1.0000 0.94811  0.69763  0.43682  Biso   1.000  C
  C158     1.0000 0.91458  0.74097  0.47963  Biso   1.000  C
  H103     1.0000 0.89147  0.76982  0.51523  Biso   1.000  H
  H104     1.0000 0.97786  0.71060  0.55454  Biso   1.000  H
  C159     1.0000 0.74951  0.05184  0.43682  Biso   1.000  C
  C160     1.0000 0.82635  0.08540  0.47963  Biso   1.000  C
  H105     1.0000 0.87832  0.10852  0.51523  Biso   1.000  H
  H106     1.0000 0.73272  0.02214  0.55454  Biso   1.000  H
  C161     1.0000 0.09934  0.73306  0.33857  Biso   1.000  C
  H107     1.0000 0.12046  0.71266  0.26522  Biso   1.000  H
  C162     1.0000 0.63373  0.90069  0.33857  Biso   1.000  C
  H108     1.0000 0.59217  0.87956  0.26522  Biso   1.000  H
  C163     1.0000 0.98631  0.77350  0.42113  Biso   1.000  C
  H109     1.0000 0.97154  0.66491  0.43163  Biso   1.000  H
  H110     1.0000 0.89099  0.66744  0.43273  Biso   1.000  H
  H111     1.0000 0.87970  0.75286  0.47044  Biso   1.000  H
  C164     1.0000 0.78726  0.01369  0.42113  Biso   1.000  C
  H112     1.0000 0.69331  0.02842  0.43163  Biso   1.000  H
  H113     1.0000 0.77642  0.10901  0.43273  Biso   1.000  H
  H114     1.0000 0.87313  0.12029  0.47044  Biso   1.000  H
  H115     1.0000 0.14498  0.74392  0.34823  Biso   1.000  H
  C165     1.0000 0.03508  0.73753  0.35161  Biso   1.000  C
  H116     1.0000 0.59899  0.85505  0.34823  Biso   1.000  H
  C166     1.0000 0.70244  0.96492  0.35161  Biso   1.000  C
  C167     1.0000 0.98163  0.75974  0.39204  Biso   1.000  C
  H117     1.0000 0.04259  0.80556  0.42613  Biso   1.000  H
  H118     1.0000 0.96018  0.80435  0.42533  Biso   1.000  H
  C168     1.0000 0.77811  0.01840  0.39204  Biso   1.000  C
  H119     1.0000 0.76294  0.95743  0.42613  Biso   1.000  H
  H120     1.0000 0.84413  0.03983  0.42533  Biso   1.000  H
  C169     1.0000 0.04147  0.75563  0.37853  Biso   1.000  C
  C170     1.0000 0.96426  0.72062  0.33847  Biso   1.000  C
  C171     1.0000 0.71419  0.95852  0.37853  Biso   1.000  C
  C172     1.0000 0.75635  0.03572  0.33847  Biso   1.000  C
  C173     1.0000 0.91175  0.74211  0.37806  Biso   1.000  C
  C174     1.0000 0.83039  0.08824  0.37806  Biso   1.000  C
  H121     1.0000 0.08778  0.76523  0.38753  Biso   1.000  H
  O11      1.0000 0.95534  0.70131  0.31218  Biso   1.000  O
  C175     1.0000 0.90526  0.72400  0.35167  Biso   1.000  C
  H122     1.0000 0.67745  0.91222  0.38753  Biso   1.000  H
  O12      1.0000 0.74602  0.04466  0.31218  Biso   1.000  O
  C176     1.0000 0.81872  0.09470  0.35167  Biso   1.000  C
  H123     1.0000 0.86924  0.74272  0.38674  Biso   1.000  H
  H124     1.0000 0.87349  0.13074  0.38674  Biso   1.000  H
  H125     1.0000 0.99484  0.69750  0.30693  Biso   1.000  H
  H126     1.0000 0.85866  0.71392  0.34273  Biso   1.000  H
  H127     1.0000 0.70267  0.00512  0.30693  Biso   1.000  H
  H128     1.0000 0.85524  0.14130  0.34273  Biso   1.000  H
  C177     1.0000 0.96137  0.78624  0.60780  Biso   1.000  C
  C178     1.0000 0.97277  0.85379  0.59419  Biso   1.000  C
  C179     1.0000 0.96082  0.78473  0.63510  Biso   1.000  C
  H129     1.0000 0.95403  0.74115  0.59857  Biso   1.000  H
  H130     1.0000 0.97266  0.85379  0.57597  Biso   1.000  H
  C180     1.0000 0.98419  0.92055  0.60772  Biso   1.000  C
  N13      1.0000 0.95209  0.71519  0.64743  Biso   1.000  N
  C181     1.0000 0.97276  0.85336  0.64920  Biso   1.000  C
  C182     1.0000 0.98419  0.92097  0.63539  Biso   1.000  C
  C183     1.0000 0.00002  0.99999  0.59602  Biso   1.000  C
  C184     1.0000 0.93363  0.69962  0.67192  Biso   1.000  C
  H131     1.0000 0.97303  0.85336  0.66746  Biso   1.000  H
  C185     1.0000 0.00002  0.99999  0.64680  Biso   1.000  C
  C186     1.0000 0.93641  0.01580  0.60772  Biso   1.000  C
  H132     1.0000 0.00002  0.99999  0.57677  Biso   1.000  H
  C187     1.0000 0.07946  0.06361  0.60772  Biso   1.000  C
  H133     1.0000 0.92274  0.73439  0.68156  Biso   1.000  H
  C188     1.0000 0.92911  0.63086  0.68494  Biso   1.000  C
  C189     1.0000 0.93678  0.01580  0.63539  Biso   1.000  C
  H134     1.0000 0.00002  0.99999  0.66606  Biso   1.000  H
  C190     1.0000 0.07907  0.06325  0.63539  Biso   1.000  C
  C191     1.0000 0.88095  0.02721  0.59419  Biso   1.000  C
  C192     1.0000 0.14618  0.11897  0.59419  Biso   1.000  C
  C193     1.0000 0.94601  0.57696  0.67180  Biso   1.000  C
  C194     1.0000 0.91102  0.61915  0.71186  Biso   1.000  C
  C195     1.0000 0.88054  0.02721  0.64920  Biso   1.000  C
  C196     1.0000 0.14660  0.11939  0.64920  Biso   1.000  C
  C197     1.0000 0.82492  0.03862  0.60780  Biso   1.000  C
  H135     1.0000 0.88112  0.02733  0.57597  Biso   1.000  H
  C198     1.0000 0.21377  0.17510  0.60780  Biso   1.000  C
  H136     1.0000 0.14623  0.11884  0.57597  Biso   1.000  H
  O13      1.0000 0.96532  0.58734  0.64550  Biso   1.000  O
  C199     1.0000 0.94262  0.51454  0.68501  Biso   1.000  C
  C200     1.0000 0.90697  0.55523  0.72537  Biso   1.000  C
  H137     1.0000 0.90140  0.65585  0.72087  Biso   1.000  H
  H138     1.0000 0.88036  0.02697  0.66746  Biso   1.000  H
  C201     1.0000 0.82394  0.03916  0.63510  Biso   1.000  C
  H139     1.0000 0.14662  0.11963  0.66746  Biso   1.000  H
  C202     1.0000 0.21525  0.17607  0.63510  Biso   1.000  C
  H140     1.0000 0.78712  0.04592  0.59857  Biso   1.000  H
  H141     1.0000 0.25878  0.21283  0.59857  Biso   1.000  H
  H142     1.0000 0.96916  0.63068  0.64026  Biso   1.000  H
  H143     1.0000 0.95272  0.47808  0.67606  Biso   1.000  H
  C203     1.0000 0.92454  0.50295  0.71139  Biso   1.000  C
  C204     1.0000 0.89311  0.54611  0.75445  Biso   1.000  C
  N14      1.0000 0.76307  0.04792  0.64743  Biso   1.000  N
  N15      1.0000 0.28485  0.23686  0.64743  Biso   1.000  N
  H144     1.0000 0.92395  0.45985  0.72007  Biso   1.000  H
  C205     1.0000 0.96898  0.58378  0.77014  Biso   1.000  C
  H145     1.0000 0.86112  0.57038  0.75946  Biso   1.000  H
  H146     1.0000 0.86235  0.48919  0.75867  Biso   1.000  H
  C206     1.0000 0.76603  0.06639  0.67192  Biso   1.000  C
  C207     1.0000 0.30037  0.23402  0.67192  Biso   1.000  C
  C208     1.0000 0.95488  0.57973  0.79942  Biso   1.000  C
  H147     1.0000 0.99922  0.55686  0.76606  Biso   1.000  H
  H148     1.0000 0.00173  0.63998  0.76496  Biso   1.000  H
  H149     1.0000 0.81167  0.07725  0.68156  Biso   1.000  H
  C209     1.0000 0.70177  0.07086  0.68494  Biso   1.000  C
  H150     1.0000 0.26569  0.18838  0.68156  Biso   1.000  H
  C210     1.0000 0.36913  0.29825  0.68494  Biso   1.000  C
  C211     1.0000 0.92569  0.50694  0.81295  Biso   1.000  C
  C212     1.0000 0.96900  0.64583  0.81358  Biso   1.000  C
  C213     1.0000 0.63090  0.05395  0.67180  Biso   1.000  C
  C214     1.0000 0.70816  0.08896  0.71186  Biso   1.000  C
  C215     1.0000 0.42304  0.36905  0.67180  Biso   1.000  C
  C216     1.0000 0.38088  0.29185  0.71186  Biso   1.000  C
  C217     1.0000 0.91434  0.50368  0.83984  Biso   1.000  C
  H151     1.0000 0.91380  0.46015  0.80376  Biso   1.000  H
  C218     1.0000 0.95507  0.64390  0.84100  Biso   1.000  C
  H152     1.0000 0.98883  0.69479  0.80486  Biso   1.000  H
  O14      1.0000 0.62198  0.03464  0.64550  Biso   1.000  O
  C219     1.0000 0.57195  0.05733  0.68501  Biso   1.000  C
  C220     1.0000 0.64823  0.09301  0.72537  Biso   1.000  C
  H153     1.0000 0.75447  0.09856  0.72087  Biso   1.000  H
  O15      1.0000 0.41271  0.37799  0.64550  Biso   1.000  O
  C221     1.0000 0.48546  0.42803  0.68501  Biso   1.000  C
  C222     1.0000 0.44480  0.35173  0.72537  Biso   1.000  C
  H154     1.0000 0.34414  0.24555  0.72087  Biso   1.000  H
  C223     1.0000 0.92815  0.57050  0.85392  Biso   1.000  C
  H155     1.0000 0.89683  0.45496  0.84858  Biso   1.000  H
  C224     1.0000 0.96952  0.71398  0.85451  Biso   1.000  C
  H156     1.0000 0.66153  0.03083  0.64026  Biso   1.000  H
  H157     1.0000 0.52535  0.04725  0.67606  Biso   1.000  H
  C225     1.0000 0.57839  0.07544  0.71139  Biso   1.000  C
  C226     1.0000 0.65300  0.10683  0.75445  Biso   1.000  C
  H158     1.0000 0.36937  0.33845  0.64026  Biso   1.000  H
  H159     1.0000 0.52188  0.47463  0.67606  Biso   1.000  H
  C227     1.0000 0.49703  0.42157  0.71139  Biso   1.000  C
  C228     1.0000 0.45390  0.34702  0.75445  Biso   1.000  C
  O16      1.0000 0.91494  0.56489  0.88019  Biso   1.000  O
  N16      1.0000 0.95451  0.71555  0.87948  Biso   1.000  N
  H160     1.0000 0.99106  0.76209  0.84516  Biso   1.000  H
  H161     1.0000 0.53588  0.07605  0.72007  Biso   1.000  H
  C229     1.0000 0.61475  0.03095  0.77014  Biso   1.000  C
  H162     1.0000 0.70925  0.13882  0.75946  Biso   1.000  H
  H163     1.0000 0.62681  0.13768  0.75867  Biso   1.000  H
  H164     1.0000 0.54018  0.46407  0.72007  Biso   1.000  H
  C230     1.0000 0.41615  0.38517  0.77014  Biso   1.000  C
  H165     1.0000 0.42963  0.29076  0.75946  Biso   1.000  H
  H166     1.0000 0.51088  0.37316  0.75867  Biso   1.000  H
  H167     1.0000 0.95604  0.60056  0.88787  Biso   1.000  H
  C231     1.0000 0.96473  0.78533  0.89221  Biso   1.000  C
  H168     1.0000 0.63823  0.99824  0.76496  Biso   1.000  H
  C232     1.0000 0.62479  0.04508  0.79942  Biso   1.000  C
  H169     1.0000 0.55763  0.00077  0.76606  Biso   1.000  H
  C233     1.0000 0.42023  0.37515  0.79942  Biso   1.000  C
  H170     1.0000 0.36005  0.36175  0.76496  Biso   1.000  H
  H171     1.0000 0.44311  0.44233  0.76606  Biso   1.000  H
  C234     1.0000 0.96303  0.78497  0.91962  Biso   1.000  C
  C235     1.0000 0.97649  0.85433  0.87903  Biso   1.000  C
  C236     1.0000 0.58127  0.07430  0.81295  Biso   1.000  C
  C237     1.0000 0.67680  0.03095  0.81358  Biso   1.000  C
  C238     1.0000 0.49308  0.41879  0.81295  Biso   1.000  C
  C239     1.0000 0.35415  0.32318  0.81358  Biso   1.000  C
  C240     1.0000 0.97493  0.85246  0.93361  Biso   1.000  C
  H172     1.0000 0.95375  0.73879  0.92866  Biso   1.000  H
  H173     1.0000 0.97732  0.85548  0.86077  Biso   1.000  H
  C241     1.0000 0.98692  0.92067  0.89280  Biso   1.000  C
  C242     1.0000 0.58930  0.08564  0.83984  Biso   1.000  C
  H174     1.0000 0.54630  0.08613  0.80376  Biso   1.000  H
  C243     1.0000 0.68888  0.04496  0.84100  Biso   1.000  C
  H175     1.0000 0.70595  0.01116  0.80486  Biso   1.000  H
  C244     1.0000 0.49637  0.41064  0.83984  Biso   1.000  C
  H176     1.0000 0.53985  0.45368  0.80376  Biso   1.000  H
  C245     1.0000 0.35609  0.31116  0.84100  Biso   1.000  C
  H177     1.0000 0.30526  0.29408  0.80486  Biso   1.000  H
  C246     1.0000 0.98654  0.92170  0.92063  Biso   1.000  C
  H178     1.0000 0.97512  0.85149  0.95187  Biso   1.000  H
  C247     1.0000 0.00002  0.99999  0.88145  Biso   1.000  C
  C248     1.0000 0.64232  0.07188  0.85392  Biso   1.000  C
  H179     1.0000 0.55816  0.10315  0.84858  Biso   1.000  H
  C249     1.0000 0.74447  0.03047  0.85451  Biso   1.000  C
  C250     1.0000 0.42951  0.35764  0.85392  Biso   1.000  C
  H180     1.0000 0.54501  0.44185  0.84858  Biso   1.000  H
  C251     1.0000 0.28600  0.25557  0.85451  Biso   1.000  C
  C252     1.0000 0.00002  0.99999  0.93180  Biso   1.000  C
  C253     1.0000 0.93367  0.01303  0.89280  Biso   1.000  C
  H181     1.0000 0.00002  0.99999  0.86216  Biso   1.000  H
  C254     1.0000 0.07932  0.06627  0.89280  Biso   1.000  C
  O17      1.0000 0.64990  0.08504  0.88019  Biso   1.000  O
  N17      1.0000 0.76105  0.04544  0.87948  Biso   1.000  N
  H182     1.0000 0.77100  0.00898  0.84516  Biso   1.000  H
  O18      1.0000 0.43515  0.35010  0.88019  Biso   1.000  O
  N18      1.0000 0.28444  0.23897  0.87948  Biso   1.000  N
  H183     1.0000 0.23787  0.22895  0.84516  Biso   1.000  H
  C255     1.0000 0.93508  0.01345  0.92063  Biso   1.000  C
  H184     1.0000 0.00002  0.99999  0.95106  Biso   1.000  H
  C256     1.0000 0.07836  0.06488  0.92063  Biso   1.000  C
  C257     1.0000 0.87783  0.02347  0.87903  Biso   1.000  C
  C258     1.0000 0.14564  0.12216  0.87903  Biso   1.000  C
  H185     1.0000 0.64456  0.04393  0.88787  Biso   1.000  H
  C259     1.0000 0.82056  0.03524  0.89221  Biso   1.000  C
  H186     1.0000 0.39947  0.35547  0.88787  Biso   1.000  H
  C260     1.0000 0.21458  0.17933  0.89221  Biso   1.000  C
  C261     1.0000 0.87752  0.02504  0.93361  Biso   1.000  C
  C262     1.0000 0.14757  0.12247  0.93361  Biso   1.000  C
  H187     1.0000 0.87812  0.02268  0.86077  Biso   1.000  H
  H188     1.0000 0.14455  0.12186  0.86077  Biso   1.000  H
  C263     1.0000 0.82188  0.03693  0.91962  Biso   1.000  C
  C264     1.0000 0.21504  0.17806  0.91962  Biso   1.000  C
  H189     1.0000 0.87638  0.02486  0.95187  Biso   1.000  H
  H190     1.0000 0.14854  0.12367  0.95187  Biso   1.000  H
  H191     1.0000 0.78502  0.04623  0.92866  Biso   1.000  H
  H192     1.0000 0.26119  0.21494  0.92866  Biso   1.000  H
  O19      1.0000 0.03465  0.41265  0.35450  Biso   1.000  O
  C265     1.0000 0.05395  0.42303  0.32820  Biso   1.000  C
  H193     1.0000 0.03086  0.36931  0.35974  Biso   1.000  H
  C266     1.0000 0.07086  0.36913  0.31506  Biso   1.000  C
  C267     1.0000 0.05735  0.48545  0.31499  Biso   1.000  C
  C268     1.0000 0.06639  0.30037  0.32808  Biso   1.000  C
  C269     1.0000 0.08900  0.38084  0.28814  Biso   1.000  C
  H194     1.0000 0.04725  0.52191  0.32394  Biso   1.000  H
  C270     1.0000 0.07548  0.49704  0.28861  Biso   1.000  C
  N19      1.0000 0.04793  0.28480  0.35257  Biso   1.000  N
  H195     1.0000 0.07726  0.26566  0.31844  Biso   1.000  H
  C271     1.0000 0.09305  0.44476  0.27463  Biso   1.000  C
  H196     1.0000 0.09857  0.34413  0.27913  Biso   1.000  H
  H197     1.0000 0.07607  0.54014  0.27993  Biso   1.000  H
  C272     1.0000 0.03920  0.21526  0.36490  Biso   1.000  C
  C273     1.0000 0.10686  0.45388  0.24555  Biso   1.000  C
  C274     1.0000 0.02720  0.14662  0.35080  Biso   1.000  C
  C275     1.0000 0.03860  0.21375  0.39220  Biso   1.000  C
  C276     1.0000 0.03099  0.41621  0.22986  Biso   1.000  C
  H198     1.0000 0.13885  0.42961  0.24054  Biso   1.000  H
  H199     1.0000 0.13770  0.51086  0.24133  Biso   1.000  H
  C277     1.0000 0.01580  0.07908  0.36461  Biso   1.000  C
  H200     1.0000 0.02694  0.14662  0.33254  Biso   1.000  H
  C278     1.0000 0.02720  0.14620  0.40581  Biso   1.000  C
  H201     1.0000 0.04599  0.25884  0.40143  Biso   1.000  H
  H202     1.0000 0.99824  0.36001  0.23504  Biso   1.000  H
  C279     1.0000 0.04509  0.42025  0.20058  Biso   1.000  C
  H203     1.0000 0.00075  0.44313  0.23394  Biso   1.000  H
  C280     1.0000 0.99998  0.00006  0.35320  Biso   1.000  C
  C281     1.0000 0.01583  0.07944  0.39228  Biso   1.000  C
  H204     1.0000 0.02739  0.14626  0.42403  Biso   1.000  H
  C282     1.0000 0.07427  0.49305  0.18705  Biso   1.000  C
  C283     1.0000 0.03096  0.35415  0.18642  Biso   1.000  C
  H205     1.0000 0.99998  0.00006  0.33394  Biso   1.000  H
  C284     1.0000 0.92090  0.93674  0.36461  Biso   1.000  C
  C285     1.0000 0.06332  0.98425  0.36461  Biso   1.000  C
  C286     1.0000 0.99998  0.00006  0.40398  Biso   1.000  C
  C287     1.0000 0.08568  0.49631  0.16016  Biso   1.000  C
  H206     1.0000 0.08616  0.53983  0.19624  Biso   1.000  H
  C288     1.0000 0.04495  0.35609  0.15900  Biso   1.000  C
  H207     1.0000 0.01117  0.30526  0.19514  Biso   1.000  H
  C289     1.0000 0.85336  0.88060  0.35080  Biso   1.000  C
  C290     1.0000 0.92056  0.93638  0.39228  Biso   1.000  C
  C291     1.0000 0.11943  0.97278  0.35080  Biso   1.000  C
  C292     1.0000 0.06361  0.98418  0.39228  Biso   1.000  C
  H208     1.0000 0.99998  0.00006  0.42323  Biso   1.000  H
  C293     1.0000 0.07187  0.42949  0.14608  Biso   1.000  C
  H209     1.0000 0.10319  0.54503  0.15142  Biso   1.000  H
  C294     1.0000 0.03048  0.28606  0.14549  Biso   1.000  C
  H210     1.0000 0.85335  0.88036  0.33254  Biso   1.000  H
  C295     1.0000 0.78472  0.82392  0.36490  Biso   1.000  C
  C296     1.0000 0.85384  0.88102  0.40581  Biso   1.000  C
  H211     1.0000 0.11971  0.97302  0.33254  Biso   1.000  H
  C297     1.0000 0.17608  0.96082  0.36490  Biso   1.000  C
  C298     1.0000 0.11901  0.97278  0.40581  Biso   1.000  C
  O20      1.0000 0.08506  0.43516  0.11981  Biso   1.000  O
  N20      1.0000 0.04545  0.28443  0.12052  Biso   1.000  N
  H212     1.0000 0.00899  0.23795  0.15484  Biso   1.000  H
  N21      1.0000 0.71522  0.76313  0.35257  Biso   1.000  N
  C299     1.0000 0.78625  0.82488  0.39220  Biso   1.000  C
  H213     1.0000 0.85374  0.88114  0.42403  Biso   1.000  H
  N22      1.0000 0.23690  0.95207  0.35257  Biso   1.000  N
  C300     1.0000 0.17518  0.96143  0.39220  Biso   1.000  C
  H214     1.0000 0.11890  0.97266  0.42403  Biso   1.000  H
  H215     1.0000 0.04398  0.39943  0.11213  Biso   1.000  H
  C301     1.0000 0.03529  0.21465  0.10779  Biso   1.000  C
  C302     1.0000 0.69963  0.76603  0.32808  Biso   1.000  C
  H216     1.0000 0.74114  0.78716  0.40143  Biso   1.000  H
  C303     1.0000 0.23407  0.93366  0.32808  Biso   1.000  C
  H217     1.0000 0.21285  0.95406  0.40143  Biso   1.000  H
  C304     1.0000 0.03693  0.21502  0.08038  Biso   1.000  C
  C305     1.0000 0.02348  0.14566  0.12097  Biso   1.000  C
  H218     1.0000 0.73442  0.81166  0.31844  Biso   1.000  H
  C306     1.0000 0.63089  0.70174  0.31506  Biso   1.000  C
  H219     1.0000 0.18835  0.92273  0.31844  Biso   1.000  H
  C307     1.0000 0.29825  0.92913  0.31506  Biso   1.000  C
  C308     1.0000 0.02504  0.14753  0.06639  Biso   1.000  C
  H220     1.0000 0.04625  0.26125  0.07134  Biso   1.000  H
  H221     1.0000 0.02265  0.14451  0.13923  Biso   1.000  H
  C309     1.0000 0.01305  0.07932  0.10720  Biso   1.000  C
  C310     1.0000 0.57693  0.63094  0.32820  Biso   1.000  C
  C311     1.0000 0.61919  0.70814  0.28814  Biso   1.000  C
  C312     1.0000 0.36912  0.94603  0.32820  Biso   1.000  C
  C313     1.0000 0.29191  0.91102  0.28814  Biso   1.000  C
  C314     1.0000 0.01346  0.07835  0.07937  Biso   1.000  C
  H222     1.0000 0.02488  0.14856  0.04813  Biso   1.000  H
  C315     1.0000 0.99998  0.00006  0.11855  Biso   1.000  C
  O21      1.0000 0.58736  0.62200  0.35450  Biso   1.000  O
  C316     1.0000 0.51461  0.57196  0.31499  Biso   1.000  C
  C317     1.0000 0.55522  0.64826  0.27463  Biso   1.000  C
  H223     1.0000 0.65588  0.75444  0.27913  Biso   1.000  H
  O22      1.0000 0.37804  0.96535  0.35450  Biso   1.000  O
  C318     1.0000 0.42807  0.94265  0.31499  Biso   1.000  C
  C319     1.0000 0.35173  0.90698  0.27463  Biso   1.000  C
  H224     1.0000 0.24561  0.90143  0.27913  Biso   1.000  H
  C320     1.0000 0.99998  0.00006  0.06820  Biso   1.000  C
  C321     1.0000 0.92065  0.93372  0.10720  Biso   1.000  C
  C322     1.0000 0.06625  0.98696  0.10720  Biso   1.000  C
  H225     1.0000 0.99998  0.00006  0.13784  Biso   1.000  H
  H226     1.0000 0.63071  0.66154  0.35974  Biso   1.000  H
  H227     1.0000 0.47803  0.52536  0.32394  Biso   1.000  H
  C323     1.0000 0.50294  0.57842  0.28861  Biso   1.000  C
  C324     1.0000 0.54610  0.65303  0.24555  Biso   1.000  C
  H228     1.0000 0.33844  0.96915  0.35974  Biso   1.000  H
  H229     1.0000 0.47462  0.95274  0.32394  Biso   1.000  H
  C325     1.0000 0.42158  0.92455  0.28861  Biso   1.000  C
  C326     1.0000 0.34696  0.89316  0.24555  Biso   1.000  C
  C327     1.0000 0.92163  0.93517  0.07937  Biso   1.000  C
  C328     1.0000 0.06484  0.98654  0.07937  Biso   1.000  C
  H230     1.0000 0.99998  0.00006  0.04894  Biso   1.000  H
  C329     1.0000 0.85441  0.87788  0.12097  Biso   1.000  C
  C330     1.0000 0.12219  0.97652  0.12097  Biso   1.000  C
  H231     1.0000 0.45989  0.53592  0.27993  Biso   1.000  H
  C331     1.0000 0.58377  0.61482  0.22986  Biso   1.000  C
  H232     1.0000 0.57033  0.70923  0.24054  Biso   1.000  H
  H233     1.0000 0.48920  0.62683  0.24133  Biso   1.000  H
  H234     1.0000 0.46404  0.92394  0.27993  Biso   1.000  H
  C332     1.0000 0.38522  0.96903  0.22986  Biso   1.000  C
  H235     1.0000 0.29082  0.86116  0.24054  Biso   1.000  H
  H236     1.0000 0.37318  0.86237  0.24133  Biso   1.000  H
  C333     1.0000 0.85250  0.87752  0.06639  Biso   1.000  C
  C334     1.0000 0.12251  0.97495  0.06639  Biso   1.000  C
  C335     1.0000 0.78534  0.82066  0.10779  Biso   1.000  C
  H237     1.0000 0.85542  0.87813  0.13923  Biso   1.000  H
  C336     1.0000 0.17940  0.96475  0.10779  Biso   1.000  C
  H238     1.0000 0.12188  0.97736  0.13923  Biso   1.000  H
  C337     1.0000 0.57974  0.62484  0.20058  Biso   1.000  C
  H239     1.0000 0.64002  0.63824  0.23504  Biso   1.000  H
  H240     1.0000 0.55686  0.55765  0.23394  Biso   1.000  H
  C338     1.0000 0.37512  0.95491  0.20058  Biso   1.000  C
  H241     1.0000 0.44239  0.99922  0.23394  Biso   1.000  H
  H242     1.0000 0.36179  0.00175  0.23504  Biso   1.000  H
  C339     1.0000 0.78492  0.82193  0.08038  Biso   1.000  C
  H243     1.0000 0.85151  0.87637  0.04813  Biso   1.000  H
  C340     1.0000 0.17809  0.96306  0.08038  Biso   1.000  C
  H244     1.0000 0.12369  0.97513  0.04813  Biso   1.000  H
  N23      1.0000 0.71552  0.76102  0.12052  Biso   1.000  N
  N24      1.0000 0.23902  0.95455  0.12052  Biso   1.000  N
  C341     1.0000 0.50697  0.58126  0.18705  Biso   1.000  C
  C342     1.0000 0.64582  0.67681  0.18642  Biso   1.000  C
  C343     1.0000 0.41883  0.92575  0.18705  Biso   1.000  C
  C344     1.0000 0.32322  0.96903  0.18642  Biso   1.000  C
  H245     1.0000 0.73878  0.78504  0.07134  Biso   1.000  H
  H246     1.0000 0.21495  0.95376  0.07134  Biso   1.000  H
  C345     1.0000 0.71397  0.74442  0.14549  Biso   1.000  C
  C346     1.0000 0.25555  0.96952  0.14549  Biso   1.000  C
  C347     1.0000 0.50365  0.58934  0.16016  Biso   1.000  C
  H247     1.0000 0.46020  0.54637  0.19624  Biso   1.000  H
  C348     1.0000 0.64391  0.68888  0.15900  Biso   1.000  C
  H248     1.0000 0.69474  0.70597  0.19514  Biso   1.000  H
  C349     1.0000 0.41072  0.91434  0.16016  Biso   1.000  C
  H249     1.0000 0.45366  0.91386  0.19624  Biso   1.000  H
  C350     1.0000 0.31117  0.95509  0.15900  Biso   1.000  C
  H250     1.0000 0.29407  0.98883  0.19514  Biso   1.000  H
  H251     1.0000 0.76204  0.77104  0.15484  Biso   1.000  H
  H252     1.0000 0.22900  0.99107  0.15484  Biso   1.000  H
  C351     1.0000 0.57054  0.64240  0.14608  Biso   1.000  C
  H253     1.0000 0.45501  0.55814  0.15142  Biso   1.000  H
  C352     1.0000 0.35759  0.92811  0.14608  Biso   1.000  C
  H254     1.0000 0.44191  0.89684  0.15142  Biso   1.000  H
  O23      1.0000 0.56485  0.64995  0.11981  Biso   1.000  O
  O24      1.0000 0.35012  0.91495  0.11981  Biso   1.000  O
  H255     1.0000 0.60061  0.64452  0.11213  Biso   1.000  H
  H256     1.0000 0.35546  0.95606  0.11213  Biso   1.000  H
  C353     1.0000 0.54419  0.35838  0.26693  Biso   1.000  C
  C354     1.0000 0.48860  0.37027  0.25295  Biso   1.000  C
  C355     1.0000 0.60180  0.34679  0.25395  Biso   1.000  C
  H257     1.0000 0.54300  0.35820  0.28520  Biso   1.000  H
  C356     1.0000 0.48729  0.36858  0.22556  Biso   1.000  C
  H258     1.0000 0.45172  0.37963  0.26200  Biso   1.000  H
  C357     1.0000 0.60042  0.34643  0.22615  Biso   1.000  C
  C358     1.0000 0.66669  0.33333  0.26515  Biso   1.000  C
  N25      1.0000 0.42767  0.37878  0.21281  Biso   1.000  N
  C359     1.0000 0.54450  0.35681  0.21238  Biso   1.000  C
  C360     1.0000 0.66669  0.33333  0.21479  Biso   1.000  C
  H259     1.0000 0.66669  0.33333  0.28441  Biso   1.000  H
  C361     1.0000 0.65318  0.25498  0.25395  Biso   1.000  C
  C362     1.0000 0.74504  0.39822  0.25395  Biso   1.000  C
  C363     1.0000 0.41109  0.36381  0.18783  Biso   1.000  C
  H260     1.0000 0.54484  0.35603  0.19410  Biso   1.000  H
  H261     1.0000 0.66669  0.33333  0.19549  Biso   1.000  H
  C364     1.0000 0.65359  0.25401  0.22615  Biso   1.000  C
  C365     1.0000 0.74599  0.39961  0.22615  Biso   1.000  C
  C366     1.0000 0.64160  0.18580  0.26693  Biso   1.000  C
  C367     1.0000 0.81419  0.45581  0.26693  Biso   1.000  C
  C368     1.0000 0.35555  0.37830  0.17432  Biso   1.000  C
  H262     1.0000 0.43772  0.34232  0.17850  Biso   1.000  H
  C369     1.0000 0.64316  0.18767  0.21238  Biso   1.000  C
  C370     1.0000 0.81231  0.45551  0.21238  Biso   1.000  C
  H263     1.0000 0.64176  0.18477  0.28520  Biso   1.000  H
  C371     1.0000 0.62970  0.11831  0.25295  Biso   1.000  C
  H264     1.0000 0.81521  0.45701  0.28520  Biso   1.000  H
  C372     1.0000 0.88171  0.51140  0.25295  Biso   1.000  C
  C373     1.0000 0.30905  0.40522  0.18724  Biso   1.000  C
  C374     1.0000 0.34347  0.36430  0.14691  Biso   1.000  C
  C375     1.0000 0.63140  0.11868  0.22556  Biso   1.000  C
  H265     1.0000 0.64399  0.18882  0.19410  Biso   1.000  H
  C376     1.0000 0.88130  0.51267  0.22556  Biso   1.000  C
  H266     1.0000 0.81122  0.45520  0.19410  Biso   1.000  H
  H267     1.0000 0.62039  0.07207  0.26200  Biso   1.000  H
  H268     1.0000 0.92791  0.54829  0.26200  Biso   1.000  H
  O25      1.0000 0.31657  0.41838  0.21352  Biso   1.000  O
  C377     1.0000 0.25597  0.41899  0.17316  Biso   1.000  C
  C378     1.0000 0.29152  0.37842  0.13275  Biso   1.000  C
  H269     1.0000 0.37257  0.34450  0.13821  Biso   1.000  H
  N26      1.0000 0.62119  0.04889  0.21281  Biso   1.000  N
  N27      1.0000 0.95111  0.57231  0.21281  Biso   1.000  N
  H270     1.0000 0.31117  0.37727  0.22120  Biso   1.000  H
  H271     1.0000 0.22478  0.43649  0.18190  Biso   1.000  H
  C379     1.0000 0.24789  0.40764  0.14630  Biso   1.000  C
  C380     1.0000 0.28147  0.36430  0.10349  Biso   1.000  C
  C381     1.0000 0.63616  0.04726  0.18783  Biso   1.000  C
  C382     1.0000 0.95272  0.58891  0.18783  Biso   1.000  C
  H272     1.0000 0.21301  0.41953  0.13711  Biso   1.000  H
  H273     1.0000 0.30490  0.33158  0.09831  Biso   1.000  H
  H274     1.0000 0.22430  0.33411  0.09940  Biso   1.000  H
  C383     1.0000 0.31967  0.44017  0.08780  Biso   1.000  C
  H275     1.0000 0.65770  0.09537  0.17850  Biso   1.000  H
  C384     1.0000 0.62174  0.97724  0.17432  Biso   1.000  C
  H276     1.0000 0.90460  0.56229  0.17850  Biso   1.000  H
  C385     1.0000 0.02276  0.64451  0.17432  Biso   1.000  C
  C386     1.0000 0.31491  0.42635  0.05870  Biso   1.000  C
  H277     1.0000 0.37590  0.47223  0.09281  Biso   1.000  H
  H278     1.0000 0.29348  0.47102  0.09200  Biso   1.000  H
  C387     1.0000 0.59477  0.90384  0.18724  Biso   1.000  C
  C388     1.0000 0.63573  0.97917  0.14691  Biso   1.000  C
  C389     1.0000 0.09619  0.69099  0.18724  Biso   1.000  C
  C390     1.0000 0.02082  0.65652  0.14691  Biso   1.000  C
  C391     1.0000 0.24512  0.40878  0.04473  Biso   1.000  C
  C392     1.0000 0.37478  0.42231  0.04521  Biso   1.000  C
  O26      1.0000 0.58166  0.89823  0.21352  Biso   1.000  O
  C393     1.0000 0.58096  0.83702  0.17316  Biso   1.000  C
  H279     1.0000 0.65550  0.02813  0.13821  Biso   1.000  H
  C394     1.0000 0.62160  0.91308  0.13275  Biso   1.000  C
  O27      1.0000 0.10182  0.68344  0.21352  Biso   1.000  O
  C395     1.0000 0.16299  0.74398  0.17316  Biso   1.000  C
  H280     1.0000 0.97193  0.62742  0.13821  Biso   1.000  H
  C396     1.0000 0.08690  0.70849  0.13275  Biso   1.000  C
  C397     1.0000 0.23857  0.39067  0.01834  Biso   1.000  C
  H281     1.0000 0.20260  0.40939  0.05339  Biso   1.000  H
  C398     1.0000 0.36844  0.40420  0.01826  Biso   1.000  C
  H282     1.0000 0.42109  0.43190  0.05420  Biso   1.000  H
  H283     1.0000 0.62266  0.93390  0.22120  Biso   1.000  H
  H284     1.0000 0.56345  0.78830  0.18190  Biso   1.000  H
  C399     1.0000 0.59242  0.84028  0.14630  Biso   1.000  C
  C400     1.0000 0.63573  0.91718  0.10349  Biso   1.000  C
  H285     1.0000 0.06609  0.68881  0.22120  Biso   1.000  H
  H286     1.0000 0.21169  0.77519  0.18190  Biso   1.000  H
  C401     1.0000 0.15975  0.75213  0.14630  Biso   1.000  C
  C402     1.0000 0.08287  0.71851  0.10349  Biso   1.000  C
  C403     1.0000 0.29757  0.38729  0.00515  Biso   1.000  C
  H287     1.0000 0.19202  0.38059  0.00941  Biso   1.000  H
  C404     1.0000 0.43265  0.39973  0.00524  Biso   1.000  C
  H288     1.0000 0.58047  0.79350  0.13711  Biso   1.000  H
  H289     1.0000 0.66840  0.97332  0.09831  Biso   1.000  H
  H290     1.0000 0.66594  0.89020  0.09940  Biso   1.000  H
  C405     1.0000 0.55978  0.87945  0.08780  Biso   1.000  C
  H291     1.0000 0.20652  0.78702  0.13711  Biso   1.000  H
  H292     1.0000 0.02667  0.69509  0.09831  Biso   1.000  H
  H293     1.0000 0.10978  0.77568  0.09940  Biso   1.000  H
  C406     1.0000 0.12057  0.68036  0.08780  Biso   1.000  C
  O28      1.0000 0.28865  0.36798  0.97883  Biso   1.000  O
  H294     1.0000 0.47829  0.41060  0.01490  Biso   1.000  H
  N28      1.0000 0.42979  0.38126  0.98077  Biso   1.000  N
  C407     1.0000 0.57364  0.88857  0.05870  Biso   1.000  C
  H295     1.0000 0.52784  0.90372  0.09281  Biso   1.000  H
  H296     1.0000 0.52897  0.82253  0.09200  Biso   1.000  H
  C408     1.0000 0.11147  0.68507  0.05870  Biso   1.000  C
  H297     1.0000 0.09631  0.62410  0.09281  Biso   1.000  H
  H298     1.0000 0.17750  0.70650  0.09200  Biso   1.000  H
  H299     1.0000 0.32820  0.36418  0.97361  Biso   1.000  H
  C409     1.0000 0.49056  0.37251  0.96842  Biso   1.000  C
  C410     1.0000 0.59116  0.83629  0.04473  Biso   1.000  C
  C411     1.0000 0.57769  0.95249  0.04521  Biso   1.000  C
  C412     1.0000 0.16370  0.75491  0.04473  Biso   1.000  C
  C413     1.0000 0.04750  0.62519  0.04521  Biso   1.000  C
  C414     1.0000 0.54726  0.36055  0.98252  Biso   1.000  C
  C415     1.0000 0.49154  0.37196  0.94113  Biso   1.000  C
  C416     1.0000 0.60934  0.84788  0.01834  Biso   1.000  C
  H300     1.0000 0.59057  0.79319  0.05339  Biso   1.000  H
  C417     1.0000 0.59578  0.96420  0.01826  Biso   1.000  C
  H301     1.0000 0.56807  0.98919  0.05420  Biso   1.000  H
  C418     1.0000 0.15211  0.76143  0.01834  Biso   1.000  C
  H302     1.0000 0.20680  0.79741  0.05339  Biso   1.000  H
  C419     1.0000 0.03580  0.63159  0.01826  Biso   1.000  C
  H303     1.0000 0.01081  0.57889  0.05420  Biso   1.000  H
  H304     1.0000 0.54698  0.36031  0.00081  Biso   1.000  H
  C420     1.0000 0.60340  0.34914  0.96874  Biso   1.000  C
  H305     1.0000 0.45382  0.37933  0.93190  Biso   1.000  H
  C421     1.0000 0.54768  0.36055  0.92754  Biso   1.000  C
  C422     1.0000 0.61274  0.91030  0.00515  Biso   1.000  C
  H306     1.0000 0.61939  0.81142  0.00941  Biso   1.000  H
  C423     1.0000 0.60030  0.03296  0.00524  Biso   1.000  C
  C424     1.0000 0.08971  0.70239  0.00515  Biso   1.000  C
  H307     1.0000 0.18861  0.80797  0.00941  Biso   1.000  H
  C425     1.0000 0.96704  0.56736  0.00524  Biso   1.000  C
  C426     1.0000 0.66669  0.33333  0.98013  Biso   1.000  C
  C427     1.0000 0.60303  0.34914  0.94107  Biso   1.000  C
  H308     1.0000 0.54779  0.36067  0.90929  Biso   1.000  H
  O29      1.0000 0.63199  0.92068  0.97883  Biso   1.000  O
  N29      1.0000 0.61876  0.04853  0.98077  Biso   1.000  N
  H309     1.0000 0.58941  0.06773  0.01490  Biso   1.000  H
  O30      1.0000 0.07933  0.71133  0.97883  Biso   1.000  O
  N30      1.0000 0.95147  0.57020  0.98077  Biso   1.000  N
  H310     1.0000 0.93230  0.52172  0.01490  Biso   1.000  H
  H311     1.0000 0.66669  0.33333  0.99939  Biso   1.000  H
  C428     1.0000 0.65083  0.25425  0.96874  Biso   1.000  C
  C429     1.0000 0.74574  0.39659  0.96874  Biso   1.000  C
  C430     1.0000 0.66669  0.33333  0.92934  Biso   1.000  C
  H312     1.0000 0.63584  0.96402  0.97361  Biso   1.000  H
  C431     1.0000 0.62749  0.11807  0.96842  Biso   1.000  C
  H313     1.0000 0.03598  0.67179  0.97361  Biso   1.000  H
  C432     1.0000 0.88192  0.50941  0.96842  Biso   1.000  C
  C433     1.0000 0.63943  0.18671  0.98252  Biso   1.000  C
  C434     1.0000 0.65086  0.25389  0.94107  Biso   1.000  C
  C435     1.0000 0.81327  0.45273  0.98252  Biso   1.000  C
  C436     1.0000 0.74613  0.39695  0.94107  Biso   1.000  C
  H314     1.0000 0.66669  0.33333  0.91010  Biso   1.000  H
  C437     1.0000 0.62804  0.11958  0.94113  Biso   1.000  C
  C438     1.0000 0.88039  0.50844  0.94113  Biso   1.000  C
  H315     1.0000 0.63970  0.18671  0.00081  Biso   1.000  H
  C439     1.0000 0.63944  0.18713  0.92754  Biso   1.000  C
  H316     1.0000 0.81329  0.45297  0.00081  Biso   1.000  H
  C440     1.0000 0.81285  0.45231  0.92754  Biso   1.000  C
  H317     1.0000 0.62070  0.07449  0.93190  Biso   1.000  H
  H318     1.0000 0.92550  0.54617  0.93190  Biso   1.000  H
  H319     1.0000 0.63933  0.18713  0.90929  Biso   1.000  H
  H320     1.0000 0.81290  0.45219  0.90929  Biso   1.000  H
  C441     1.0000 0.45578  0.64161  0.73307  Biso   1.000  C
  C442     1.0000 0.39822  0.65320  0.74605  Biso   1.000  C
  H321     1.0000 0.45697  0.64179  0.71480  Biso   1.000  H
  C443     1.0000 0.51142  0.62972  0.74705  Biso   1.000  C
  C444     1.0000 0.33331  0.66672  0.73485  Biso   1.000  C
  C445     1.0000 0.39963  0.65362  0.77385  Biso   1.000  C
  H322     1.0000 0.54833  0.62042  0.73800  Biso   1.000  H
  C446     1.0000 0.51273  0.63141  0.77444  Biso   1.000  C
  C447     1.0000 0.25502  0.60183  0.74605  Biso   1.000  C
  H323     1.0000 0.33331  0.66672  0.71559  Biso   1.000  H
  C448     1.0000 0.34679  0.74501  0.74605  Biso   1.000  C
  C449     1.0000 0.33331  0.66672  0.78521  Biso   1.000  C
  C450     1.0000 0.45547  0.64318  0.78762  Biso   1.000  C
  N31      1.0000 0.57230  0.62120  0.78719  Biso   1.000  N
  C451     1.0000 0.18578  0.54418  0.73307  Biso   1.000  C
  C452     1.0000 0.25398  0.60038  0.77385  Biso   1.000  C
  C453     1.0000 0.35837  0.81419  0.73307  Biso   1.000  C
  C454     1.0000 0.34638  0.74598  0.77385  Biso   1.000  C
  H324     1.0000 0.33331  0.66672  0.80451  Biso   1.000  H
  H325     1.0000 0.45521  0.64402  0.80590  Biso   1.000  H
  C455     1.0000 0.58888  0.63617  0.81217  Biso   1.000  C
  H326     1.0000 0.18481  0.54297  0.71480  Biso   1.000  H
  C456     1.0000 0.11831  0.48859  0.74705  Biso   1.000  C
  C457     1.0000 0.18766  0.54448  0.78762  Biso   1.000  C
  H327     1.0000 0.35821  0.81521  0.71480  Biso   1.000  H
  C458     1.0000 0.37026  0.88167  0.74705  Biso   1.000  C
  C459     1.0000 0.35681  0.81232  0.78762  Biso   1.000  C
  H328     1.0000 0.56233  0.65772  0.82150  Biso   1.000  H
  C460     1.0000 0.64450  0.62175  0.82568  Biso   1.000  C
  H329     1.0000 0.07211  0.45170  0.73800  Biso   1.000  H
  C461     1.0000 0.11872  0.48732  0.77444  Biso   1.000  C
  H330     1.0000 0.18880  0.54478  0.80590  Biso   1.000  H
  H331     1.0000 0.37958  0.92791  0.73800  Biso   1.000  H
  C462     1.0000 0.36862  0.88131  0.77444  Biso   1.000  C
  H332     1.0000 0.35600  0.81123  0.80590  Biso   1.000  H
  C463     1.0000 0.69097  0.59477  0.81276  Biso   1.000  C
  C464     1.0000 0.65655  0.63569  0.85309  Biso   1.000  C
  N32      1.0000 0.04885  0.42768  0.78719  Biso   1.000  N
  N33      1.0000 0.37878  0.95109  0.78719  Biso   1.000  N
  O31      1.0000 0.68340  0.58161  0.78648  Biso   1.000  O
  C465     1.0000 0.74400  0.58100  0.82684  Biso   1.000  C
  C466     1.0000 0.70850  0.62157  0.86725  Biso   1.000  C
  H333     1.0000 0.62740  0.65549  0.86179  Biso   1.000  H
  C467     1.0000 0.04730  0.41108  0.81217  Biso   1.000  C
  C468     1.0000 0.36381  0.95272  0.81217  Biso   1.000  C
  H334     1.0000 0.68879  0.62271  0.77880  Biso   1.000  H
  H335     1.0000 0.77519  0.56350  0.81810  Biso   1.000  H
  C469     1.0000 0.75208  0.59235  0.85370  Biso   1.000  C
  C470     1.0000 0.71855  0.63569  0.89651  Biso   1.000  C
  H336     1.0000 0.09542  0.43770  0.82150  Biso   1.000  H
  C471     1.0000 0.97724  0.35554  0.82568  Biso   1.000  C
  H337     1.0000 0.34232  0.90461  0.82150  Biso   1.000  H
  C472     1.0000 0.37828  0.02275  0.82568  Biso   1.000  C
  H338     1.0000 0.78699  0.58052  0.86289  Biso   1.000  H
  H339     1.0000 0.69512  0.66841  0.90169  Biso   1.000  H
  H340     1.0000 0.77567  0.66587  0.90060  Biso   1.000  H
  C473     1.0000 0.68035  0.55981  0.91220  Biso   1.000  C
  C474     1.0000 0.90386  0.30906  0.81276  Biso   1.000  C
  C475     1.0000 0.97915  0.34347  0.85309  Biso   1.000  C
  C476     1.0000 0.40520  0.09615  0.81276  Biso   1.000  C
  C477     1.0000 0.36429  0.02081  0.85309  Biso   1.000  C
  C478     1.0000 0.68506  0.57364  0.94130  Biso   1.000  C
  H341     1.0000 0.62410  0.52782  0.90719  Biso   1.000  H
  H342     1.0000 0.70651  0.52903  0.90800  Biso   1.000  H
  O32      1.0000 0.89823  0.31661  0.78648  Biso   1.000  O
  C479     1.0000 0.83698  0.25600  0.82684  Biso   1.000  C
  H343     1.0000 0.02812  0.37263  0.86179  Biso   1.000  H
  C480     1.0000 0.91307  0.29150  0.86725  Biso   1.000  C
  O33      1.0000 0.41841  0.10176  0.78648  Biso   1.000  O
  C481     1.0000 0.41901  0.16297  0.82684  Biso   1.000  C
  H344     1.0000 0.34450  0.97192  0.86179  Biso   1.000  H
  C482     1.0000 0.37847  0.08691  0.86725  Biso   1.000  C
  C483     1.0000 0.75490  0.59120  0.95527  Biso   1.000  C
  C484     1.0000 0.62519  0.57768  0.95479  Biso   1.000  C
  H345     1.0000 0.93388  0.31118  0.77880  Biso   1.000  H
  H346     1.0000 0.78828  0.22480  0.81810  Biso   1.000  H
  C485     1.0000 0.84030  0.24791  0.85370  Biso   1.000  C
  C486     1.0000 0.91715  0.28148  0.89651  Biso   1.000  C
  H347     1.0000 0.37731  0.06609  0.77880  Biso   1.000  H
  H348     1.0000 0.43647  0.21168  0.81810  Biso   1.000  H
  C487     1.0000 0.40760  0.15971  0.85370  Biso   1.000  C
  C488     1.0000 0.36432  0.08287  0.89651  Biso   1.000  C
  C489     1.0000 0.76140  0.60931  0.98166  Biso   1.000  C
  H349     1.0000 0.79742  0.59060  0.94661  Biso   1.000  H
  C490     1.0000 0.63158  0.59579  0.98174  Biso   1.000  C
  H350     1.0000 0.57888  0.56808  0.94580  Biso   1.000  H
  H351     1.0000 0.79353  0.21302  0.86289  Biso   1.000  H
  H352     1.0000 0.97330  0.30490  0.90169  Biso   1.000  H
  H353     1.0000 0.89019  0.22431  0.90060  Biso   1.000  H
  C491     1.0000 0.87948  0.31969  0.91220  Biso   1.000  C
  H354     1.0000 0.41955  0.20649  0.86289  Biso   1.000  H
  H355     1.0000 0.33157  0.02667  0.90169  Biso   1.000  H
  H356     1.0000 0.33413  0.10979  0.90060  Biso   1.000  H
  C492     1.0000 0.44024  0.12053  0.91220  Biso   1.000  C
  C493     1.0000 0.70239  0.61269  0.99485  Biso   1.000  C
  H357     1.0000 0.80800  0.61939  0.99059  Biso   1.000  H
  C494     1.0000 0.56735  0.60032  0.99476  Biso   1.000  C
  C495     1.0000 0.88855  0.31492  0.94130  Biso   1.000  C
  H358     1.0000 0.90371  0.37589  0.90719  Biso   1.000  H
  H359     1.0000 0.82247  0.29349  0.90800  Biso   1.000  H
  C496     1.0000 0.42638  0.11142  0.94130  Biso   1.000  C
  H360     1.0000 0.47223  0.09627  0.90719  Biso   1.000  H
  H361     1.0000 0.47103  0.17752  0.90800  Biso   1.000  H
  O34      1.0000 0.71132  0.63201  0.02117  Biso   1.000  O
  H362     1.0000 0.52168  0.58939  0.98510  Biso   1.000  H
  N34      1.0000 0.57023  0.61873  0.01923  Biso   1.000  N
  C497     1.0000 0.83627  0.24508  0.95527  Biso   1.000  C
  C498     1.0000 0.95247  0.37480  0.95479  Biso   1.000  C
  C499     1.0000 0.40876  0.16369  0.95527  Biso   1.000  C
  C500     1.0000 0.42233  0.04749  0.95479  Biso   1.000  C
  H363     1.0000 0.67182  0.63581  0.02639  Biso   1.000  H
  C501     1.0000 0.50941  0.62748  0.03158  Biso   1.000  C
  C502     1.0000 0.84789  0.23862  0.98166  Biso   1.000  C
  H364     1.0000 0.79317  0.20258  0.94661  Biso   1.000  H
  C503     1.0000 0.96422  0.36840  0.98174  Biso   1.000  C
  H365     1.0000 0.98921  0.42110  0.94580  Biso   1.000  H
  C504     1.0000 0.39068  0.15210  0.98166  Biso   1.000  C
  H366     1.0000 0.40935  0.20679  0.94661  Biso   1.000  H
  C505     1.0000 0.40419  0.03578  0.98174  Biso   1.000  C
  H367     1.0000 0.43195  0.01079  0.94580  Biso   1.000  H
  C506     1.0000 0.45276  0.63943  0.01748  Biso   1.000  C
  C507     1.0000 0.50846  0.62809  0.05887  Biso   1.000  C
  C508     1.0000 0.91031  0.29759  0.99485  Biso   1.000  C
  H368     1.0000 0.81141  0.19202  0.99059  Biso   1.000  H
  C509     1.0000 0.03296  0.43269  0.99476  Biso   1.000  C
  C510     1.0000 0.38728  0.08969  0.99485  Biso   1.000  C
  H369     1.0000 0.38058  0.18856  0.99059  Biso   1.000  H
  C511     1.0000 0.39972  0.96703  0.99476  Biso   1.000  C
  C512     1.0000 0.39657  0.65084  0.03126  Biso   1.000  C
  H370     1.0000 0.45299  0.63968  0.99919  Biso   1.000  H
  H371     1.0000 0.54623  0.62072  0.06810  Biso   1.000  H
  C513     1.0000 0.45234  0.63943  0.07246  Biso   1.000  C
  O35      1.0000 0.92064  0.28866  0.02117  Biso   1.000  O
  H372     1.0000 0.06769  0.47832  0.98510  Biso   1.000  H
  N35      1.0000 0.04850  0.42979  0.01923  Biso   1.000  N
  O36      1.0000 0.36798  0.07931  0.02117  Biso   1.000  O
  H373     1.0000 0.41059  0.93232  0.98510  Biso   1.000  H
  N36      1.0000 0.38129  0.95152  0.01923  Biso   1.000  N
  C514     1.0000 0.33331  0.66672  0.01987  Biso   1.000  C
  C515     1.0000 0.39694  0.65084  0.05893  Biso   1.000  C
  H374     1.0000 0.45223  0.63931  0.09071  Biso   1.000  H
  H375     1.0000 0.96398  0.32820  0.02639  Biso   1.000  H
  C516     1.0000 0.11805  0.49058  0.03158  Biso   1.000  C
  H376     1.0000 0.36418  0.03596  0.02639  Biso   1.000  H
  C517     1.0000 0.37253  0.88192  0.03158  Biso   1.000  C
  C518     1.0000 0.25428  0.60340  0.03126  Biso   1.000  C
  H377     1.0000 0.33331  0.66672  0.00061  Biso   1.000  H
  C519     1.0000 0.34913  0.74574  0.03126  Biso   1.000  C
  C520     1.0000 0.33331  0.66672  0.07066  Biso   1.000  C
  C521     1.0000 0.18669  0.54726  0.01748  Biso   1.000  C
  C522     1.0000 0.11958  0.49154  0.05887  Biso   1.000  C
  C523     1.0000 0.36053  0.81328  0.01748  Biso   1.000  C
  C524     1.0000 0.37193  0.88041  0.05887  Biso   1.000  C
  C525     1.0000 0.25389  0.60304  0.05893  Biso   1.000  C
  C526     1.0000 0.34916  0.74610  0.05893  Biso   1.000  C
  H378     1.0000 0.33331  0.66672  0.08990  Biso   1.000  H
  H379     1.0000 0.18673  0.54702  0.99919  Biso   1.000  H
  H380     1.0000 0.07452  0.45382  0.06810  Biso   1.000  H
  C527     1.0000 0.18711  0.54768  0.07246  Biso   1.000  C
  H381     1.0000 0.36027  0.81328  0.99919  Biso   1.000  H
  H382     1.0000 0.37932  0.92550  0.06810  Biso   1.000  H
  C528     1.0000 0.36053  0.81286  0.07246  Biso   1.000  C
  H383     1.0000 0.18712  0.54780  0.09071  Biso   1.000  H
  H384     1.0000 0.36072  0.81292  0.09071  Biso   1.000  H
  Ne1      1.0000 0.33333  0.66666  0.42988  Biso   1.000  Ne
  He1      1.0000 0.28447  0.68005  0.43079  Biso   1.000  He
  He2      1.0000 0.32340  0.60605  0.43079  Biso   1.000  He
  He3      1.0000 0.26594  0.64493  0.43079  Biso   1.000  He
  Ar1      1.0000 0.33333  0.66666  0.43079  Biso   1.000  Ar
  Ne2      1.0000 0.66667  0.33333  0.09655  Biso   1.000  Ne
  He4      1.0000 0.61777  0.34673  0.09744  Biso   1.000  He
  He5      1.0000 0.65669  0.27269  0.09744  Biso   1.000  He
  He6      1.0000 0.59922  0.31160  0.09744  Biso   1.000  He
  Ar2      1.0000 0.66667  0.33333  0.09744  Biso   1.000  Ar
  Ne3      1.0000 0.66667  0.33334  0.57012  Biso   1.000  Ne
  He7      1.0000 0.55468  0.34373  0.56559  Biso   1.000  He
  He8      1.0000 0.65384  0.22918  0.56921  Biso   1.000  He
  He9      1.0000 0.66802  0.38992  0.56921  Biso   1.000  He
  Ar3      1.0000 0.60203  0.28709  0.56921  Biso   1.000  Ar
  Ne4      1.0000 0.00000  0.00001  0.23679  Biso   1.000  Ne
  He10     1.0000 0.99023  0.79764  0.22105  Biso   1.000  He
  He11     1.0000 0.98607  0.04939  0.23589  Biso   1.000  He
  He12     1.0000 0.94640  0.94147  0.23589  Biso   1.000  He
  Ar4      1.0000 0.00000  0.00001  0.23589  Biso   1.000  Ar
  Ne5      1.0000 1.00000  0.99999  0.76321  Biso   1.000  Ne
  He13     1.0000 0.95114  0.01334  0.76411  Biso   1.000  He
  He14     1.0000 0.99004  0.93938  0.76411  Biso   1.000  He
  He15     1.0000 0.93264  0.97829  0.76411  Biso   1.000  He
  Ar5      1.0000 1.00000  0.99999  0.76411  Biso   1.000  Ar
  Ne6      1.0000 0.33333  0.66667  0.90345  Biso   1.000  Ne
  He16     1.0000 0.32306  0.53230  0.89723  Biso   1.000  He
  He17     1.0000 0.20920  0.67697  0.89723  Biso   1.000  He
  He18     1.0000 0.49024  0.79059  0.91147  Biso   1.000  He
  Ar6      1.0000 0.29596  0.59001  0.90256  Biso   1.000  Ar
