data_image0
_cell_length_a       24.765
_cell_length_b       24.765
_cell_length_c       24.765
_cell_angle_alpha    90
_cell_angle_beta     90
_cell_angle_gamma    90

_symmetry_space_group_name_H-M    "P 1"
_symmetry_int_tables_number       1

loop_
  _symmetry_equiv_pos_as_xyz
  'x, y, z'

loop_
  _atom_site_label
  _atom_site_occupancy
  _atom_site_fract_x
  _atom_site_fract_y
  _atom_site_fract_z
  _atom_site_thermal_displace_type
  _atom_site_B_iso_or_equiv
  _atom_site_type_symbol
  C1       1.0000 0.51141  0.47192  0.37291  Biso   1.000  C
  C2       1.0000 0.54670  0.46509  0.32231  Biso   1.000  C
  C3       1.0000 0.48859  0.52808  0.37291  Biso   1.000  C
  H1       1.0000 0.48181  0.44498  0.37258  Biso   1.000  H
  H2       1.0000 0.53341  0.46598  0.40581  Biso   1.000  H
  C4       1.0000 0.51108  0.47179  0.26929  Biso   1.000  C
  H3       1.0000 0.56382  0.42899  0.32251  Biso   1.000  H
  H4       1.0000 0.57581  0.49259  0.32239  Biso   1.000  H
  C5       1.0000 0.45330  0.53491  0.32231  Biso   1.000  C
  H5       1.0000 0.51819  0.55502  0.37258  Biso   1.000  H
  H6       1.0000 0.46659  0.53402  0.40581  Biso   1.000  H
  N1       1.0000 0.54730  0.46239  0.22342  Biso   1.000  N
  C6       1.0000 0.48892  0.52821  0.26929  Biso   1.000  C
  H7       1.0000 0.48088  0.44490  0.26921  Biso   1.000  H
  H8       1.0000 0.43618  0.57101  0.32251  Biso   1.000  H
  H9       1.0000 0.42419  0.50741  0.32239  Biso   1.000  H
  C7       1.0000 0.53071  0.42891  0.18991  Biso   1.000  C
  N2       1.0000 0.45270  0.53761  0.22342  Biso   1.000  N
  H10      1.0000 0.51912  0.55510  0.26921  Biso   1.000  H
  C8       1.0000 0.56491  0.41530  0.14230  Biso   1.000  C
  H11      1.0000 0.49651  0.41211  0.19451  Biso   1.000  H
  C9       1.0000 0.46929  0.57109  0.18991  Biso   1.000  C
  C10      1.0000 0.55118  0.36980  0.11052  Biso   1.000  C
  C11      1.0000 0.61050  0.44882  0.13018  Biso   1.000  C
  C12      1.0000 0.43509  0.58470  0.14230  Biso   1.000  C
  H12      1.0000 0.50349  0.58789  0.19451  Biso   1.000  H
  C13      1.0000 0.50131  0.34270  0.13321  Biso   1.000  C
  H13      1.0000 0.52082  0.34811  0.11912  Biso   1.000  H
  C14      1.0000 0.58470  0.35768  0.06489  Biso   1.000  C
  C15      1.0000 0.64232  0.43509  0.08472  Biso   1.000  C
  H14      1.0000 0.61910  0.47918  0.15191  Biso   1.000  H
  C16      1.0000 0.63319  0.49869  0.15732  Biso   1.000  C
  C17      1.0000 0.44882  0.63020  0.11052  Biso   1.000  C
  C18      1.0000 0.38950  0.55118  0.13018  Biso   1.000  C
  H15      1.0000 0.49950  0.34892  0.17222  Biso   1.000  H
  H16      1.0000 0.50309  0.30382  0.12611  Biso   1.000  H
  H17      1.0000 0.46901  0.35768  0.11589  Biso   1.000  H
  C19      1.0000 0.57109  0.31012  0.03069  Biso   1.000  C
  C20      1.0000 0.63020  0.38950  0.05120  Biso   1.000  C
  C21      1.0000 0.68988  0.46929  0.07111  Biso   1.000  C
  H18      1.0000 0.67220  0.50050  0.15110  Biso   1.000  H
  H19      1.0000 0.62609  0.49691  0.19620  Biso   1.000  H
  H20      1.0000 0.61591  0.53099  0.14230  Biso   1.000  H
  C22      1.0000 0.41530  0.64232  0.06489  Biso   1.000  C
  H21      1.0000 0.47918  0.65189  0.11912  Biso   1.000  H
  C23      1.0000 0.49869  0.65730  0.13321  Biso   1.000  C
  C24      1.0000 0.35768  0.56491  0.08472  Biso   1.000  C
  H22      1.0000 0.38090  0.52082  0.15191  Biso   1.000  H
  C25      1.0000 0.36681  0.50131  0.15732  Biso   1.000  C
  N3       1.0000 0.53761  0.27660  0.04728  Biso   1.000  N
  H23      1.0000 0.58789  0.30551  0.99649  Biso   1.000  H
  H24      1.0000 0.65189  0.38090  0.02080  Biso   1.000  H
  C26      1.0000 0.65730  0.36681  0.00129  Biso   1.000  C
  N4       1.0000 0.72340  0.45270  0.03759  Biso   1.000  N
  H25      1.0000 0.69449  0.50349  0.08791  Biso   1.000  H
  C27      1.0000 0.42891  0.68988  0.03069  Biso   1.000  C
  C28      1.0000 0.36980  0.61050  0.05120  Biso   1.000  C
  H26      1.0000 0.50050  0.65108  0.17222  Biso   1.000  H
  H27      1.0000 0.49691  0.69618  0.12611  Biso   1.000  H
  H28      1.0000 0.53099  0.64232  0.11589  Biso   1.000  H
  C29      1.0000 0.31012  0.53071  0.07111  Biso   1.000  C
  H29      1.0000 0.32780  0.49950  0.15110  Biso   1.000  H
  H30      1.0000 0.37391  0.50309  0.19620  Biso   1.000  H
  H31      1.0000 0.38409  0.46901  0.14230  Biso   1.000  H
  C30      1.0000 0.52821  0.23069  0.01110  Biso   1.000  C
  H32      1.0000 0.69618  0.37391  0.00311  Biso   1.000  H
  H33      1.0000 0.65108  0.32780  0.99952  Biso   1.000  H
  H34      1.0000 0.64232  0.38409  0.96899  Biso   1.000  H
  C31      1.0000 0.76931  0.48892  0.02818  Biso   1.000  C
  N5       1.0000 0.46239  0.72340  0.04728  Biso   1.000  N
  H35      1.0000 0.41211  0.69449  0.99649  Biso   1.000  H
  H36      1.0000 0.34811  0.61910  0.02080  Biso   1.000  H
  C32      1.0000 0.34270  0.63319  0.00129  Biso   1.000  C
  N6       1.0000 0.27660  0.54730  0.03759  Biso   1.000  N
  H37      1.0000 0.30551  0.49651  0.08791  Biso   1.000  H
  C33      1.0000 0.53491  0.17771  0.04672  Biso   1.000  C
  C34      1.0000 0.47179  0.23069  0.98890  Biso   1.000  C
  H38      1.0000 0.55510  0.23081  0.98090  Biso   1.000  H
  H39      1.0000 0.76919  0.51912  0.05512  Biso   1.000  H
  C35      1.0000 0.82229  0.45330  0.03489  Biso   1.000  C
  C36      1.0000 0.76931  0.51108  0.97182  Biso   1.000  C
  C37      1.0000 0.47179  0.76931  0.01110  Biso   1.000  C
  H40      1.0000 0.30382  0.62609  0.00311  Biso   1.000  H
  H41      1.0000 0.34892  0.67220  0.99952  Biso   1.000  H
  H42      1.0000 0.35768  0.61591  0.96899  Biso   1.000  H
  C38      1.0000 0.23069  0.51108  0.02818  Biso   1.000  C
  H43      1.0000 0.57101  0.17751  0.06380  Biso   1.000  H
  H44      1.0000 0.50741  0.17759  0.07579  Biso   1.000  H
  C39      1.0000 0.52808  0.12711  0.01139  Biso   1.000  C
  H45      1.0000 0.44490  0.23081  0.01910  Biso   1.000  H
  N7       1.0000 0.46239  0.27660  0.95272  Biso   1.000  N
  C40      1.0000 0.46509  0.17771  0.95328  Biso   1.000  C
  H46      1.0000 0.82249  0.43618  0.07099  Biso   1.000  H
  H47      1.0000 0.82241  0.42419  0.00739  Biso   1.000  H
  C41      1.0000 0.87289  0.48859  0.02810  Biso   1.000  C
  N8       1.0000 0.72340  0.54730  0.96241  Biso   1.000  N
  H48      1.0000 0.76919  0.48088  0.94488  Biso   1.000  H
  C42      1.0000 0.82229  0.54670  0.96511  Biso   1.000  C
  C43      1.0000 0.46509  0.82229  0.04672  Biso   1.000  C
  C44      1.0000 0.52821  0.76931  0.98890  Biso   1.000  C
  H49      1.0000 0.44490  0.76919  0.98090  Biso   1.000  H
  C45      1.0000 0.23069  0.48892  0.97182  Biso   1.000  C
  H50      1.0000 0.23081  0.48088  0.05512  Biso   1.000  H
  C46      1.0000 0.17771  0.54670  0.03489  Biso   1.000  C
  H51      1.0000 0.53402  0.09421  0.03339  Biso   1.000  H
  C47      1.0000 0.47192  0.12711  0.98861  Biso   1.000  C
  H52      1.0000 0.55502  0.12740  0.98179  Biso   1.000  H
  C48      1.0000 0.42891  0.31012  0.96931  Biso   1.000  C
  H53      1.0000 0.42899  0.17751  0.93620  Biso   1.000  H
  H54      1.0000 0.49259  0.17759  0.92421  Biso   1.000  H
  H55      1.0000 0.87260  0.51819  0.05500  Biso   1.000  H
  H56      1.0000 0.90579  0.46659  0.03400  Biso   1.000  H
  C49      1.0000 0.87289  0.51141  0.97190  Biso   1.000  C
  C50      1.0000 0.68988  0.53071  0.92889  Biso   1.000  C
  H57      1.0000 0.82249  0.56382  0.92901  Biso   1.000  H
  H58      1.0000 0.82241  0.57581  0.99261  Biso   1.000  H
  H59      1.0000 0.42899  0.82249  0.06380  Biso   1.000  H
  H60      1.0000 0.49259  0.82241  0.07579  Biso   1.000  H
  C51      1.0000 0.47192  0.87289  0.01139  Biso   1.000  C
  N9       1.0000 0.53761  0.72340  0.95272  Biso   1.000  N
  H61      1.0000 0.55510  0.76919  0.01910  Biso   1.000  H
  C52      1.0000 0.53491  0.82229  0.95328  Biso   1.000  C
  N10      1.0000 0.27660  0.45270  0.96241  Biso   1.000  N
  H62      1.0000 0.23081  0.51912  0.94488  Biso   1.000  H
  C53      1.0000 0.17771  0.45330  0.96511  Biso   1.000  C
  H63      1.0000 0.17751  0.56382  0.07099  Biso   1.000  H
  H64      1.0000 0.17759  0.57581  0.00739  Biso   1.000  H
  C54      1.0000 0.12711  0.51141  0.02810  Biso   1.000  C
  H65      1.0000 0.44498  0.12740  0.01821  Biso   1.000  H
  H66      1.0000 0.46598  0.09421  0.96661  Biso   1.000  H
  H67      1.0000 0.41211  0.30551  0.00351  Biso   1.000  H
  C55      1.0000 0.41530  0.35768  0.93511  Biso   1.000  C
  H68      1.0000 0.87260  0.48181  0.94500  Biso   1.000  H
  H69      1.0000 0.90579  0.53341  0.96600  Biso   1.000  H
  C56      1.0000 0.64232  0.56491  0.91528  Biso   1.000  C
  H70      1.0000 0.69449  0.49651  0.91209  Biso   1.000  H
  H71      1.0000 0.46598  0.90579  0.03339  Biso   1.000  H
  C57      1.0000 0.52808  0.87289  0.98861  Biso   1.000  C
  H72      1.0000 0.44498  0.87260  0.98179  Biso   1.000  H
  C58      1.0000 0.57109  0.68988  0.96931  Biso   1.000  C
  H73      1.0000 0.57101  0.82249  0.93620  Biso   1.000  H
  H74      1.0000 0.50741  0.82241  0.92421  Biso   1.000  H
  C59      1.0000 0.31012  0.46929  0.92889  Biso   1.000  C
  H75      1.0000 0.17751  0.43618  0.92901  Biso   1.000  H
  H76      1.0000 0.17759  0.42419  0.99261  Biso   1.000  H
  C60      1.0000 0.12711  0.48859  0.97190  Biso   1.000  C
  H77      1.0000 0.12740  0.48181  0.05500  Biso   1.000  H
  H78      1.0000 0.09421  0.53341  0.03400  Biso   1.000  H
  C61      1.0000 0.44882  0.36980  0.88948  Biso   1.000  C
  C62      1.0000 0.36980  0.38950  0.94880  Biso   1.000  C
  C63      1.0000 0.63020  0.61050  0.94880  Biso   1.000  C
  C64      1.0000 0.61050  0.55118  0.86982  Biso   1.000  C
  H79      1.0000 0.55502  0.87260  0.01821  Biso   1.000  H
  H80      1.0000 0.53402  0.90579  0.96661  Biso   1.000  H
  C65      1.0000 0.58470  0.64232  0.93511  Biso   1.000  C
  H81      1.0000 0.58789  0.69449  0.00351  Biso   1.000  H
  C66      1.0000 0.35768  0.43509  0.91528  Biso   1.000  C
  H82      1.0000 0.30551  0.50349  0.91209  Biso   1.000  H
  H83      1.0000 0.12740  0.51819  0.94500  Biso   1.000  H
  H84      1.0000 0.09421  0.46659  0.96600  Biso   1.000  H
  C67      1.0000 0.43509  0.41530  0.85770  Biso   1.000  C
  H85      1.0000 0.47918  0.34811  0.88088  Biso   1.000  H
  C68      1.0000 0.49869  0.34270  0.86679  Biso   1.000  C
  H86      1.0000 0.34811  0.38090  0.97920  Biso   1.000  H
  C69      1.0000 0.34270  0.36681  0.99871  Biso   1.000  C
  H87      1.0000 0.65189  0.61910  0.97920  Biso   1.000  H
  C70      1.0000 0.65730  0.63319  0.99871  Biso   1.000  C
  C71      1.0000 0.56491  0.58470  0.85770  Biso   1.000  C
  H88      1.0000 0.61910  0.52082  0.84809  Biso   1.000  H
  C72      1.0000 0.63319  0.50131  0.84268  Biso   1.000  C
  C73      1.0000 0.55118  0.63020  0.88948  Biso   1.000  C
  C74      1.0000 0.38950  0.44882  0.86982  Biso   1.000  C
  C75      1.0000 0.46929  0.42891  0.81009  Biso   1.000  C
  H89      1.0000 0.50050  0.34892  0.82778  Biso   1.000  H
  H90      1.0000 0.49691  0.30382  0.87389  Biso   1.000  H
  H91      1.0000 0.53099  0.35768  0.88411  Biso   1.000  H
  H92      1.0000 0.34892  0.32780  0.00048  Biso   1.000  H
  H93      1.0000 0.35768  0.38409  0.03101  Biso   1.000  H
  H94      1.0000 0.30382  0.37391  0.99689  Biso   1.000  H
  H95      1.0000 0.65108  0.67220  0.00048  Biso   1.000  H
  H96      1.0000 0.64232  0.61591  0.03101  Biso   1.000  H
  H97      1.0000 0.69618  0.62609  0.99689  Biso   1.000  H
  C76      1.0000 0.53071  0.57109  0.81009  Biso   1.000  C
  H98      1.0000 0.67220  0.49950  0.84890  Biso   1.000  H
  H99      1.0000 0.62609  0.50309  0.80380  Biso   1.000  H
  H100     1.0000 0.61591  0.46901  0.85770  Biso   1.000  H
  H101     1.0000 0.52082  0.65189  0.88088  Biso   1.000  H
  C77      1.0000 0.50131  0.65730  0.86679  Biso   1.000  C
  H102     1.0000 0.38090  0.47918  0.84809  Biso   1.000  H
  C78      1.0000 0.36681  0.49869  0.84268  Biso   1.000  C
  N11      1.0000 0.45270  0.46239  0.77658  Biso   1.000  N
  H103     1.0000 0.50349  0.41211  0.80549  Biso   1.000  H
  N12      1.0000 0.54730  0.53761  0.77658  Biso   1.000  N
  H104     1.0000 0.49651  0.58789  0.80549  Biso   1.000  H
  H105     1.0000 0.49950  0.65108  0.82778  Biso   1.000  H
  H106     1.0000 0.50309  0.69618  0.87389  Biso   1.000  H
  H107     1.0000 0.46901  0.64232  0.88411  Biso   1.000  H
  H108     1.0000 0.32780  0.50050  0.84890  Biso   1.000  H
  H109     1.0000 0.37391  0.49691  0.80380  Biso   1.000  H
  H110     1.0000 0.38409  0.53099  0.85770  Biso   1.000  H
  C79      1.0000 0.48892  0.47179  0.73071  Biso   1.000  C
  C80      1.0000 0.51108  0.52821  0.73071  Biso   1.000  C
  H111     1.0000 0.51912  0.44490  0.73079  Biso   1.000  H
  C81      1.0000 0.45330  0.46509  0.67769  Biso   1.000  C
  H112     1.0000 0.48088  0.55510  0.73079  Biso   1.000  H
  C82      1.0000 0.54670  0.53491  0.67769  Biso   1.000  C
  H113     1.0000 0.43618  0.42899  0.67749  Biso   1.000  H
  H114     1.0000 0.42419  0.49259  0.67761  Biso   1.000  H
  C83      1.0000 0.48859  0.47192  0.62709  Biso   1.000  C
  H115     1.0000 0.56382  0.57101  0.67749  Biso   1.000  H
  H116     1.0000 0.57581  0.50741  0.67761  Biso   1.000  H
  C84      1.0000 0.51141  0.52808  0.62709  Biso   1.000  C
  H117     1.0000 0.51819  0.44498  0.62742  Biso   1.000  H
  H118     1.0000 0.46659  0.46598  0.59419  Biso   1.000  H
  H119     1.0000 0.48181  0.55502  0.62742  Biso   1.000  H
  H120     1.0000 0.53341  0.53402  0.59419  Biso   1.000  H
  C85      1.0000 0.47192  0.37291  0.51141  Biso   1.000  C
  C86      1.0000 0.46509  0.32231  0.54670  Biso   1.000  C
  C87      1.0000 0.52808  0.37291  0.48859  Biso   1.000  C
  H121     1.0000 0.44498  0.37258  0.48181  Biso   1.000  H
  H122     1.0000 0.46598  0.40581  0.53341  Biso   1.000  H
  C88      1.0000 0.47179  0.26929  0.51108  Biso   1.000  C
  H123     1.0000 0.42899  0.32251  0.56382  Biso   1.000  H
  H124     1.0000 0.49259  0.32239  0.57581  Biso   1.000  H
  C89      1.0000 0.53491  0.32231  0.45330  Biso   1.000  C
  H125     1.0000 0.55502  0.37258  0.51819  Biso   1.000  H
  H126     1.0000 0.53402  0.40581  0.46659  Biso   1.000  H
  C90      1.0000 0.52821  0.26929  0.48892  Biso   1.000  C
  N13      1.0000 0.46239  0.22342  0.54730  Biso   1.000  N
  H127     1.0000 0.44490  0.26921  0.48088  Biso   1.000  H
  H128     1.0000 0.57101  0.32251  0.43618  Biso   1.000  H
  H129     1.0000 0.50741  0.32239  0.42419  Biso   1.000  H
  N14      1.0000 0.53761  0.22342  0.45270  Biso   1.000  N
  H130     1.0000 0.55510  0.26921  0.51912  Biso   1.000  H
  C91      1.0000 0.42891  0.18991  0.53071  Biso   1.000  C
  C92      1.0000 0.57109  0.18991  0.46929  Biso   1.000  C
  C93      1.0000 0.41530  0.14230  0.56491  Biso   1.000  C
  H131     1.0000 0.41211  0.19451  0.49651  Biso   1.000  H
  C94      1.0000 0.58470  0.14230  0.43509  Biso   1.000  C
  H132     1.0000 0.58789  0.19451  0.50349  Biso   1.000  H
  C95      1.0000 0.36980  0.11052  0.55118  Biso   1.000  C
  C96      1.0000 0.44882  0.13018  0.61050  Biso   1.000  C
  C97      1.0000 0.55118  0.13018  0.38950  Biso   1.000  C
  C98      1.0000 0.63020  0.11052  0.44882  Biso   1.000  C
  C99      1.0000 0.35768  0.06489  0.58470  Biso   1.000  C
  H133     1.0000 0.34811  0.11912  0.52082  Biso   1.000  H
  C100     1.0000 0.34270  0.13321  0.50131  Biso   1.000  C
  C101     1.0000 0.43509  0.08472  0.64232  Biso   1.000  C
  H134     1.0000 0.47918  0.15191  0.61910  Biso   1.000  H
  C102     1.0000 0.49869  0.15732  0.63319  Biso   1.000  C
  C103     1.0000 0.50131  0.15732  0.36681  Biso   1.000  C
  H135     1.0000 0.52082  0.15191  0.38090  Biso   1.000  H
  C104     1.0000 0.56491  0.08472  0.35768  Biso   1.000  C
  C105     1.0000 0.64232  0.06489  0.41530  Biso   1.000  C
  H136     1.0000 0.65189  0.11912  0.47918  Biso   1.000  H
  C106     1.0000 0.65730  0.13321  0.49869  Biso   1.000  C
  C107     1.0000 0.31012  0.03069  0.57109  Biso   1.000  C
  C108     1.0000 0.38950  0.05120  0.63020  Biso   1.000  C
  H137     1.0000 0.34892  0.17222  0.49950  Biso   1.000  H
  H138     1.0000 0.30382  0.12611  0.50309  Biso   1.000  H
  H139     1.0000 0.35768  0.11589  0.46901  Biso   1.000  H
  C109     1.0000 0.46929  0.07111  0.68988  Biso   1.000  C
  H140     1.0000 0.50050  0.15110  0.67220  Biso   1.000  H
  H141     1.0000 0.49691  0.19620  0.62609  Biso   1.000  H
  H142     1.0000 0.53099  0.14230  0.61591  Biso   1.000  H
  H143     1.0000 0.49950  0.15110  0.32780  Biso   1.000  H
  H144     1.0000 0.50309  0.19620  0.37391  Biso   1.000  H
  H145     1.0000 0.46901  0.14230  0.38409  Biso   1.000  H
  C110     1.0000 0.53071  0.07111  0.31012  Biso   1.000  C
  C111     1.0000 0.61050  0.05120  0.36980  Biso   1.000  C
  C112     1.0000 0.68988  0.03069  0.42891  Biso   1.000  C
  H146     1.0000 0.65108  0.17222  0.50050  Biso   1.000  H
  H147     1.0000 0.69618  0.12611  0.49691  Biso   1.000  H
  H148     1.0000 0.64232  0.11589  0.53099  Biso   1.000  H
  N15      1.0000 0.27660  0.04728  0.53761  Biso   1.000  N
  H149     1.0000 0.30551  0.99649  0.58789  Biso   1.000  H
  H150     1.0000 0.38090  0.02080  0.65189  Biso   1.000  H
  C113     1.0000 0.36681  0.00129  0.65730  Biso   1.000  C
  N16      1.0000 0.45270  0.03759  0.72340  Biso   1.000  N
  H151     1.0000 0.50349  0.08791  0.69449  Biso   1.000  H
  N17      1.0000 0.54730  0.03759  0.27660  Biso   1.000  N
  H152     1.0000 0.49651  0.08791  0.30551  Biso   1.000  H
  H153     1.0000 0.61910  0.02080  0.34811  Biso   1.000  H
  C114     1.0000 0.63319  0.00129  0.34270  Biso   1.000  C
  N18      1.0000 0.72340  0.04728  0.46239  Biso   1.000  N
  H154     1.0000 0.69449  0.99649  0.41211  Biso   1.000  H
  C115     1.0000 0.23069  0.01110  0.52821  Biso   1.000  C
  H155     1.0000 0.37391  0.00311  0.69618  Biso   1.000  H
  H156     1.0000 0.32780  0.99952  0.65108  Biso   1.000  H
  H157     1.0000 0.38409  0.96899  0.64232  Biso   1.000  H
  C116     1.0000 0.48892  0.02818  0.76931  Biso   1.000  C
  C117     1.0000 0.51108  0.02818  0.23069  Biso   1.000  C
  H158     1.0000 0.62609  0.00311  0.30382  Biso   1.000  H
  H159     1.0000 0.67220  0.99952  0.34892  Biso   1.000  H
  H160     1.0000 0.61591  0.96899  0.35768  Biso   1.000  H
  C118     1.0000 0.76931  0.01110  0.47179  Biso   1.000  C
  C119     1.0000 0.23069  0.98890  0.47179  Biso   1.000  C
  C120     1.0000 0.17771  0.04672  0.53491  Biso   1.000  C
  H161     1.0000 0.23081  0.98090  0.55510  Biso   1.000  H
  H162     1.0000 0.51912  0.05512  0.76919  Biso   1.000  H
  C121     1.0000 0.45330  0.03489  0.82229  Biso   1.000  C
  C122     1.0000 0.51108  0.97182  0.76931  Biso   1.000  C
  H163     1.0000 0.48088  0.05512  0.23081  Biso   1.000  H
  C123     1.0000 0.54670  0.03489  0.17771  Biso   1.000  C
  C124     1.0000 0.48892  0.97182  0.23069  Biso   1.000  C
  C125     1.0000 0.82229  0.04672  0.46509  Biso   1.000  C
  C126     1.0000 0.76931  0.98890  0.52821  Biso   1.000  C
  H164     1.0000 0.76919  0.98090  0.44490  Biso   1.000  H
  N19      1.0000 0.27660  0.95272  0.46239  Biso   1.000  N
  H165     1.0000 0.23081  0.01910  0.44490  Biso   1.000  H
  C127     1.0000 0.17771  0.95328  0.46509  Biso   1.000  C
  H166     1.0000 0.17751  0.06380  0.57101  Biso   1.000  H
  H167     1.0000 0.17759  0.07579  0.50741  Biso   1.000  H
  C128     1.0000 0.12711  0.01139  0.52808  Biso   1.000  C
  H168     1.0000 0.43618  0.07099  0.82249  Biso   1.000  H
  H169     1.0000 0.42419  0.00739  0.82241  Biso   1.000  H
  C129     1.0000 0.48859  0.02810  0.87289  Biso   1.000  C
  N20      1.0000 0.54730  0.96241  0.72340  Biso   1.000  N
  H170     1.0000 0.48088  0.94488  0.76919  Biso   1.000  H
  C130     1.0000 0.54670  0.96511  0.82229  Biso   1.000  C
  H171     1.0000 0.56382  0.07099  0.17751  Biso   1.000  H
  H172     1.0000 0.57581  0.00739  0.17759  Biso   1.000  H
  C131     1.0000 0.51141  0.02810  0.12711  Biso   1.000  C
  N21      1.0000 0.45270  0.96241  0.27660  Biso   1.000  N
  H173     1.0000 0.51912  0.94488  0.23081  Biso   1.000  H
  C132     1.0000 0.45330  0.96511  0.17771  Biso   1.000  C
  H174     1.0000 0.82249  0.06380  0.42899  Biso   1.000  H
  H175     1.0000 0.82241  0.07579  0.49259  Biso   1.000  H
  C133     1.0000 0.87289  0.01139  0.47192  Biso   1.000  C
  H176     1.0000 0.76919  0.01910  0.55510  Biso   1.000  H
  N22      1.0000 0.72340  0.95272  0.53761  Biso   1.000  N
  C134     1.0000 0.82229  0.95328  0.53491  Biso   1.000  C
  C135     1.0000 0.31012  0.96931  0.42891  Biso   1.000  C
  H177     1.0000 0.17751  0.93620  0.42899  Biso   1.000  H
  H178     1.0000 0.17759  0.92421  0.49259  Biso   1.000  H
  C136     1.0000 0.12711  0.98861  0.47192  Biso   1.000  C
  H179     1.0000 0.09421  0.03339  0.53402  Biso   1.000  H
  H180     1.0000 0.12740  0.98179  0.55502  Biso   1.000  H
  H181     1.0000 0.51819  0.05500  0.87260  Biso   1.000  H
  H182     1.0000 0.46659  0.03400  0.90579  Biso   1.000  H
  C137     1.0000 0.51141  0.97190  0.87289  Biso   1.000  C
  C138     1.0000 0.53071  0.92889  0.68988  Biso   1.000  C
  H183     1.0000 0.56382  0.92901  0.82249  Biso   1.000  H
  H184     1.0000 0.57581  0.99261  0.82241  Biso   1.000  H
  H185     1.0000 0.48181  0.05500  0.12740  Biso   1.000  H
  H186     1.0000 0.53341  0.03400  0.09421  Biso   1.000  H
  C139     1.0000 0.48859  0.97190  0.12711  Biso   1.000  C
  C140     1.0000 0.46929  0.92889  0.31012  Biso   1.000  C
  H187     1.0000 0.43618  0.92901  0.17751  Biso   1.000  H
  H188     1.0000 0.42419  0.99261  0.17759  Biso   1.000  H
  H189     1.0000 0.90579  0.03339  0.46598  Biso   1.000  H
  C141     1.0000 0.87289  0.98861  0.52808  Biso   1.000  C
  H190     1.0000 0.87260  0.98179  0.44498  Biso   1.000  H
  C142     1.0000 0.68988  0.96931  0.57109  Biso   1.000  C
  H191     1.0000 0.82249  0.93620  0.57101  Biso   1.000  H
  H192     1.0000 0.82241  0.92421  0.50741  Biso   1.000  H
  C143     1.0000 0.35768  0.93511  0.41530  Biso   1.000  C
  H193     1.0000 0.30551  0.00351  0.41211  Biso   1.000  H
  H194     1.0000 0.12740  0.01821  0.44498  Biso   1.000  H
  H195     1.0000 0.09421  0.96661  0.46598  Biso   1.000  H
  H196     1.0000 0.48181  0.94500  0.87260  Biso   1.000  H
  H197     1.0000 0.53341  0.96600  0.90579  Biso   1.000  H
  C144     1.0000 0.56491  0.91528  0.64232  Biso   1.000  C
  H198     1.0000 0.49651  0.91209  0.69449  Biso   1.000  H
  H199     1.0000 0.51819  0.94500  0.12740  Biso   1.000  H
  H200     1.0000 0.46659  0.96600  0.09421  Biso   1.000  H
  C145     1.0000 0.43509  0.91528  0.35768  Biso   1.000  C
  H201     1.0000 0.50349  0.91209  0.30551  Biso   1.000  H
  H202     1.0000 0.87260  0.01821  0.55502  Biso   1.000  H
  H203     1.0000 0.90579  0.96661  0.53402  Biso   1.000  H
  H204     1.0000 0.69449  0.00351  0.58789  Biso   1.000  H
  C146     1.0000 0.64232  0.93511  0.58470  Biso   1.000  C
  C147     1.0000 0.38950  0.94880  0.36980  Biso   1.000  C
  C148     1.0000 0.36980  0.88948  0.44882  Biso   1.000  C
  C149     1.0000 0.61050  0.94880  0.63020  Biso   1.000  C
  C150     1.0000 0.55118  0.86982  0.61050  Biso   1.000  C
  C151     1.0000 0.44882  0.86982  0.38950  Biso   1.000  C
  C152     1.0000 0.63020  0.88948  0.55118  Biso   1.000  C
  H205     1.0000 0.38090  0.97920  0.34811  Biso   1.000  H
  C153     1.0000 0.36681  0.99871  0.34270  Biso   1.000  C
  C154     1.0000 0.41530  0.85770  0.43509  Biso   1.000  C
  H206     1.0000 0.34811  0.88088  0.47918  Biso   1.000  H
  C155     1.0000 0.34270  0.86679  0.49869  Biso   1.000  C
  H207     1.0000 0.61910  0.97920  0.65189  Biso   1.000  H
  C156     1.0000 0.63319  0.99871  0.65730  Biso   1.000  C
  C157     1.0000 0.58470  0.85770  0.56491  Biso   1.000  C
  H208     1.0000 0.52082  0.84809  0.61910  Biso   1.000  H
  C158     1.0000 0.50131  0.84268  0.63319  Biso   1.000  C
  H209     1.0000 0.47918  0.84809  0.38090  Biso   1.000  H
  C159     1.0000 0.49869  0.84268  0.36681  Biso   1.000  C
  H210     1.0000 0.65189  0.88088  0.52082  Biso   1.000  H
  C160     1.0000 0.65730  0.86679  0.50131  Biso   1.000  C
  H211     1.0000 0.32780  0.00048  0.34892  Biso   1.000  H
  H212     1.0000 0.38409  0.03101  0.35768  Biso   1.000  H
  H213     1.0000 0.37391  0.99689  0.30382  Biso   1.000  H
  C161     1.0000 0.42891  0.81009  0.46929  Biso   1.000  C
  H214     1.0000 0.34892  0.82778  0.50050  Biso   1.000  H
  H215     1.0000 0.30382  0.87389  0.49691  Biso   1.000  H
  H216     1.0000 0.35768  0.88411  0.53099  Biso   1.000  H
  H217     1.0000 0.67220  0.00048  0.65108  Biso   1.000  H
  H218     1.0000 0.61591  0.03101  0.64232  Biso   1.000  H
  H219     1.0000 0.62609  0.99689  0.69618  Biso   1.000  H
  C162     1.0000 0.57109  0.81009  0.53071  Biso   1.000  C
  H220     1.0000 0.49950  0.84890  0.67220  Biso   1.000  H
  H221     1.0000 0.50309  0.80380  0.62609  Biso   1.000  H
  H222     1.0000 0.46901  0.85770  0.61591  Biso   1.000  H
  H223     1.0000 0.50050  0.84890  0.32780  Biso   1.000  H
  H224     1.0000 0.49691  0.80380  0.37391  Biso   1.000  H
  H225     1.0000 0.53099  0.85770  0.38409  Biso   1.000  H
  H226     1.0000 0.65108  0.82778  0.49950  Biso   1.000  H
  H227     1.0000 0.69618  0.87389  0.50309  Biso   1.000  H
  H228     1.0000 0.64232  0.88411  0.46901  Biso   1.000  H
  N23      1.0000 0.46239  0.77658  0.45270  Biso   1.000  N
  H229     1.0000 0.41211  0.80549  0.50349  Biso   1.000  H
  N24      1.0000 0.53761  0.77658  0.54730  Biso   1.000  N
  H230     1.0000 0.58789  0.80549  0.49651  Biso   1.000  H
  C163     1.0000 0.47179  0.73071  0.48892  Biso   1.000  C
  C164     1.0000 0.52821  0.73071  0.51108  Biso   1.000  C
  H231     1.0000 0.44490  0.73079  0.51912  Biso   1.000  H
  C165     1.0000 0.46509  0.67769  0.45330  Biso   1.000  C
  H232     1.0000 0.55510  0.73079  0.48088  Biso   1.000  H
  C166     1.0000 0.53491  0.67769  0.54670  Biso   1.000  C
  H233     1.0000 0.42899  0.67749  0.43618  Biso   1.000  H
  H234     1.0000 0.49259  0.67761  0.42419  Biso   1.000  H
  C167     1.0000 0.47192  0.62709  0.48859  Biso   1.000  C
  H235     1.0000 0.57101  0.67749  0.56382  Biso   1.000  H
  H236     1.0000 0.50741  0.67761  0.57581  Biso   1.000  H
  C168     1.0000 0.52808  0.62709  0.51141  Biso   1.000  C
  H237     1.0000 0.44498  0.62742  0.51819  Biso   1.000  H
  H238     1.0000 0.46598  0.59419  0.46659  Biso   1.000  H
  H239     1.0000 0.55502  0.62742  0.48181  Biso   1.000  H
  H240     1.0000 0.53402  0.59419  0.53341  Biso   1.000  H
  C169     1.0000 0.37291  0.51141  0.47192  Biso   1.000  C
  C170     1.0000 0.32231  0.54670  0.46509  Biso   1.000  C
  C171     1.0000 0.37291  0.48859  0.52808  Biso   1.000  C
  H241     1.0000 0.37258  0.48181  0.44498  Biso   1.000  H
  H242     1.0000 0.40581  0.53341  0.46598  Biso   1.000  H
  C172     1.0000 0.26929  0.51108  0.47179  Biso   1.000  C
  H243     1.0000 0.32251  0.56382  0.42899  Biso   1.000  H
  H244     1.0000 0.32239  0.57581  0.49259  Biso   1.000  H
  C173     1.0000 0.32231  0.45330  0.53491  Biso   1.000  C
  H245     1.0000 0.37258  0.51819  0.55502  Biso   1.000  H
  H246     1.0000 0.40581  0.46659  0.53402  Biso   1.000  H
  C174     1.0000 0.26929  0.48892  0.52821  Biso   1.000  C
  N25      1.0000 0.22342  0.54730  0.46239  Biso   1.000  N
  H247     1.0000 0.26921  0.48088  0.44490  Biso   1.000  H
  H248     1.0000 0.32251  0.43618  0.57101  Biso   1.000  H
  H249     1.0000 0.32239  0.42419  0.50741  Biso   1.000  H
  N26      1.0000 0.22342  0.45270  0.53761  Biso   1.000  N
  H250     1.0000 0.26921  0.51912  0.55510  Biso   1.000  H
  C175     1.0000 0.18991  0.53071  0.42891  Biso   1.000  C
  C176     1.0000 0.18991  0.46929  0.57109  Biso   1.000  C
  C177     1.0000 0.14230  0.56491  0.41530  Biso   1.000  C
  H251     1.0000 0.19451  0.49651  0.41211  Biso   1.000  H
  C178     1.0000 0.14230  0.43509  0.58470  Biso   1.000  C
  H252     1.0000 0.19451  0.50349  0.58789  Biso   1.000  H
  C179     1.0000 0.11052  0.55118  0.36980  Biso   1.000  C
  C180     1.0000 0.13018  0.61050  0.44882  Biso   1.000  C
  C181     1.0000 0.13018  0.38950  0.55118  Biso   1.000  C
  C182     1.0000 0.11052  0.44882  0.63020  Biso   1.000  C
  C183     1.0000 0.06489  0.58470  0.35768  Biso   1.000  C
  H253     1.0000 0.11912  0.52082  0.34811  Biso   1.000  H
  C184     1.0000 0.13321  0.50131  0.34270  Biso   1.000  C
  C185     1.0000 0.08472  0.64232  0.43509  Biso   1.000  C
  H254     1.0000 0.15191  0.61910  0.47918  Biso   1.000  H
  C186     1.0000 0.15732  0.63319  0.49869  Biso   1.000  C
  C187     1.0000 0.15732  0.36681  0.50131  Biso   1.000  C
  H255     1.0000 0.15191  0.38090  0.52082  Biso   1.000  H
  C188     1.0000 0.08472  0.35768  0.56491  Biso   1.000  C
  C189     1.0000 0.06489  0.41530  0.64232  Biso   1.000  C
  H256     1.0000 0.11912  0.47918  0.65189  Biso   1.000  H
  C190     1.0000 0.13321  0.49869  0.65730  Biso   1.000  C
  C191     1.0000 0.03069  0.57109  0.31012  Biso   1.000  C
  C192     1.0000 0.05120  0.63020  0.38950  Biso   1.000  C
  H257     1.0000 0.17222  0.49950  0.34892  Biso   1.000  H
  H258     1.0000 0.12611  0.50309  0.30382  Biso   1.000  H
  H259     1.0000 0.11589  0.46901  0.35768  Biso   1.000  H
  C193     1.0000 0.07111  0.68988  0.46929  Biso   1.000  C
  H260     1.0000 0.15110  0.67220  0.50050  Biso   1.000  H
  H261     1.0000 0.19620  0.62609  0.49691  Biso   1.000  H
  H262     1.0000 0.14230  0.61591  0.53099  Biso   1.000  H
  H263     1.0000 0.15110  0.32780  0.49950  Biso   1.000  H
  H264     1.0000 0.19620  0.37391  0.50309  Biso   1.000  H
  H265     1.0000 0.14230  0.38409  0.46901  Biso   1.000  H
  C194     1.0000 0.07111  0.31012  0.53071  Biso   1.000  C
  C195     1.0000 0.05120  0.36980  0.61050  Biso   1.000  C
  C196     1.0000 0.03069  0.42891  0.68988  Biso   1.000  C
  H266     1.0000 0.17222  0.50050  0.65108  Biso   1.000  H
  H267     1.0000 0.12611  0.49691  0.69618  Biso   1.000  H
  H268     1.0000 0.11589  0.53099  0.64232  Biso   1.000  H
  N27      1.0000 0.04728  0.53761  0.27660  Biso   1.000  N
  H269     1.0000 0.99649  0.58789  0.30551  Biso   1.000  H
  H270     1.0000 0.02080  0.65189  0.38090  Biso   1.000  H
  C197     1.0000 0.00129  0.65730  0.36681  Biso   1.000  C
  N28      1.0000 0.03759  0.72340  0.45270  Biso   1.000  N
  H271     1.0000 0.08791  0.69449  0.50349  Biso   1.000  H
  N29      1.0000 0.03759  0.27660  0.54730  Biso   1.000  N
  H272     1.0000 0.08791  0.30551  0.49651  Biso   1.000  H
  H273     1.0000 0.02080  0.34811  0.61910  Biso   1.000  H
  C198     1.0000 0.00129  0.34270  0.63319  Biso   1.000  C
  N30      1.0000 0.04728  0.46239  0.72340  Biso   1.000  N
  H274     1.0000 0.99649  0.41211  0.69449  Biso   1.000  H
  C199     1.0000 0.01110  0.52821  0.23069  Biso   1.000  C
  H275     1.0000 0.00311  0.69618  0.37391  Biso   1.000  H
  H276     1.0000 0.99952  0.65108  0.32780  Biso   1.000  H
  H277     1.0000 0.96899  0.64232  0.38409  Biso   1.000  H
  C200     1.0000 0.02818  0.76931  0.48892  Biso   1.000  C
  C201     1.0000 0.02818  0.23069  0.51108  Biso   1.000  C
  H278     1.0000 0.00311  0.30382  0.62609  Biso   1.000  H
  H279     1.0000 0.99952  0.34892  0.67220  Biso   1.000  H
  H280     1.0000 0.96899  0.35768  0.61591  Biso   1.000  H
  C202     1.0000 0.01110  0.47179  0.76931  Biso   1.000  C
  C203     1.0000 0.98890  0.47179  0.23069  Biso   1.000  C
  C204     1.0000 0.04672  0.53491  0.17771  Biso   1.000  C
  H281     1.0000 0.98090  0.55510  0.23081  Biso   1.000  H
  H282     1.0000 0.05512  0.76919  0.51912  Biso   1.000  H
  C205     1.0000 0.03489  0.82229  0.45330  Biso   1.000  C
  C206     1.0000 0.97182  0.76931  0.51108  Biso   1.000  C
  H283     1.0000 0.05512  0.23081  0.48088  Biso   1.000  H
  C207     1.0000 0.03489  0.17771  0.54670  Biso   1.000  C
  C208     1.0000 0.97182  0.23069  0.48892  Biso   1.000  C
  C209     1.0000 0.04672  0.46509  0.82229  Biso   1.000  C
  C210     1.0000 0.98890  0.52821  0.76931  Biso   1.000  C
  H284     1.0000 0.98090  0.44490  0.76919  Biso   1.000  H
  N31      1.0000 0.95272  0.46239  0.27660  Biso   1.000  N
  H285     1.0000 0.01910  0.44490  0.23081  Biso   1.000  H
  C211     1.0000 0.95328  0.46509  0.17771  Biso   1.000  C
  H286     1.0000 0.06380  0.57101  0.17751  Biso   1.000  H
  H287     1.0000 0.07579  0.50741  0.17759  Biso   1.000  H
  C212     1.0000 0.01139  0.52808  0.12711  Biso   1.000  C
  H288     1.0000 0.07099  0.82249  0.43618  Biso   1.000  H
  H289     1.0000 0.00739  0.82241  0.42419  Biso   1.000  H
  C213     1.0000 0.02810  0.87289  0.48859  Biso   1.000  C
  N32      1.0000 0.96241  0.72340  0.54730  Biso   1.000  N
  H290     1.0000 0.94488  0.76919  0.48088  Biso   1.000  H
  C214     1.0000 0.96511  0.82229  0.54670  Biso   1.000  C
  H291     1.0000 0.07099  0.17751  0.56382  Biso   1.000  H
  H292     1.0000 0.00739  0.17759  0.57581  Biso   1.000  H
  C215     1.0000 0.02810  0.12711  0.51141  Biso   1.000  C
  N33      1.0000 0.96241  0.27660  0.45270  Biso   1.000  N
  H293     1.0000 0.94488  0.23081  0.51912  Biso   1.000  H
  C216     1.0000 0.96511  0.17771  0.45330  Biso   1.000  C
  H294     1.0000 0.06380  0.42899  0.82249  Biso   1.000  H
  H295     1.0000 0.07579  0.49259  0.82241  Biso   1.000  H
  C217     1.0000 0.01139  0.47192  0.87289  Biso   1.000  C
  H296     1.0000 0.01910  0.55510  0.76919  Biso   1.000  H
  N34      1.0000 0.95272  0.53761  0.72340  Biso   1.000  N
  C218     1.0000 0.95328  0.53491  0.82229  Biso   1.000  C
  C219     1.0000 0.96931  0.42891  0.31012  Biso   1.000  C
  H297     1.0000 0.93620  0.42899  0.17751  Biso   1.000  H
  H298     1.0000 0.92421  0.49259  0.17759  Biso   1.000  H
  C220     1.0000 0.98861  0.47192  0.12711  Biso   1.000  C
  H299     1.0000 0.03339  0.53402  0.09421  Biso   1.000  H
  H300     1.0000 0.98179  0.55502  0.12740  Biso   1.000  H
  H301     1.0000 0.05500  0.87260  0.51819  Biso   1.000  H
  H302     1.0000 0.03400  0.90579  0.46659  Biso   1.000  H
  C221     1.0000 0.97190  0.87289  0.51141  Biso   1.000  C
  C222     1.0000 0.92889  0.68988  0.53071  Biso   1.000  C
  H303     1.0000 0.92901  0.82249  0.56382  Biso   1.000  H
  H304     1.0000 0.99261  0.82241  0.57581  Biso   1.000  H
  H305     1.0000 0.05500  0.12740  0.48181  Biso   1.000  H
  H306     1.0000 0.03400  0.09421  0.53341  Biso   1.000  H
  C223     1.0000 0.97190  0.12711  0.48859  Biso   1.000  C
  C224     1.0000 0.92889  0.31012  0.46929  Biso   1.000  C
  H307     1.0000 0.92901  0.17751  0.43618  Biso   1.000  H
  H308     1.0000 0.99261  0.17759  0.42419  Biso   1.000  H
  H309     1.0000 0.03339  0.46598  0.90579  Biso   1.000  H
  C225     1.0000 0.98861  0.52808  0.87289  Biso   1.000  C
  H310     1.0000 0.98179  0.44498  0.87260  Biso   1.000  H
  C226     1.0000 0.96931  0.57109  0.68988  Biso   1.000  C
  H311     1.0000 0.93620  0.57101  0.82249  Biso   1.000  H
  H312     1.0000 0.92421  0.50741  0.82241  Biso   1.000  H
  C227     1.0000 0.93511  0.41530  0.35768  Biso   1.000  C
  H313     1.0000 0.00351  0.41211  0.30551  Biso   1.000  H
  H314     1.0000 0.01821  0.44498  0.12740  Biso   1.000  H
  H315     1.0000 0.96661  0.46598  0.09421  Biso   1.000  H
  H316     1.0000 0.94500  0.87260  0.48181  Biso   1.000  H
  H317     1.0000 0.96600  0.90579  0.53341  Biso   1.000  H
  C228     1.0000 0.91528  0.64232  0.56491  Biso   1.000  C
  H318     1.0000 0.91209  0.69449  0.49651  Biso   1.000  H
  H319     1.0000 0.94500  0.12740  0.51819  Biso   1.000  H
  H320     1.0000 0.96600  0.09421  0.46659  Biso   1.000  H
  C229     1.0000 0.91528  0.35768  0.43509  Biso   1.000  C
  H321     1.0000 0.91209  0.30551  0.50349  Biso   1.000  H
  H322     1.0000 0.01821  0.55502  0.87260  Biso   1.000  H
  H323     1.0000 0.96661  0.53402  0.90579  Biso   1.000  H
  H324     1.0000 0.00351  0.58789  0.69449  Biso   1.000  H
  C230     1.0000 0.93511  0.58470  0.64232  Biso   1.000  C
  C231     1.0000 0.94880  0.36980  0.38950  Biso   1.000  C
  C232     1.0000 0.88948  0.44882  0.36980  Biso   1.000  C
  C233     1.0000 0.94880  0.63020  0.61050  Biso   1.000  C
  C234     1.0000 0.86982  0.61050  0.55118  Biso   1.000  C
  C235     1.0000 0.86982  0.38950  0.44882  Biso   1.000  C
  C236     1.0000 0.88948  0.55118  0.63020  Biso   1.000  C
  H325     1.0000 0.97920  0.34811  0.38090  Biso   1.000  H
  C237     1.0000 0.99871  0.34270  0.36681  Biso   1.000  C
  C238     1.0000 0.85770  0.43509  0.41530  Biso   1.000  C
  H326     1.0000 0.88088  0.47918  0.34811  Biso   1.000  H
  C239     1.0000 0.86679  0.49869  0.34270  Biso   1.000  C
  H327     1.0000 0.97920  0.65189  0.61910  Biso   1.000  H
  C240     1.0000 0.99871  0.65730  0.63319  Biso   1.000  C
  C241     1.0000 0.85770  0.56491  0.58470  Biso   1.000  C
  H328     1.0000 0.84809  0.61910  0.52082  Biso   1.000  H
  C242     1.0000 0.84268  0.63319  0.50131  Biso   1.000  C
  H329     1.0000 0.84809  0.38090  0.47918  Biso   1.000  H
  C243     1.0000 0.84268  0.36681  0.49869  Biso   1.000  C
  H330     1.0000 0.88088  0.52082  0.65189  Biso   1.000  H
  C244     1.0000 0.86679  0.50131  0.65730  Biso   1.000  C
  H331     1.0000 0.00048  0.34892  0.32780  Biso   1.000  H
  H332     1.0000 0.03101  0.35768  0.38409  Biso   1.000  H
  H333     1.0000 0.99689  0.30382  0.37391  Biso   1.000  H
  C245     1.0000 0.81009  0.46929  0.42891  Biso   1.000  C
  H334     1.0000 0.82778  0.50050  0.34892  Biso   1.000  H
  H335     1.0000 0.87389  0.49691  0.30382  Biso   1.000  H
  H336     1.0000 0.88411  0.53099  0.35768  Biso   1.000  H
  H337     1.0000 0.00048  0.65108  0.67220  Biso   1.000  H
  H338     1.0000 0.03101  0.64232  0.61591  Biso   1.000  H
  H339     1.0000 0.99689  0.69618  0.62609  Biso   1.000  H
  C246     1.0000 0.81009  0.53071  0.57109  Biso   1.000  C
  H340     1.0000 0.84890  0.67220  0.49950  Biso   1.000  H
  H341     1.0000 0.80380  0.62609  0.50309  Biso   1.000  H
  H342     1.0000 0.85770  0.61591  0.46901  Biso   1.000  H
  H343     1.0000 0.84890  0.32780  0.50050  Biso   1.000  H
  H344     1.0000 0.80380  0.37391  0.49691  Biso   1.000  H
  H345     1.0000 0.85770  0.38409  0.53099  Biso   1.000  H
  H346     1.0000 0.82778  0.49950  0.65108  Biso   1.000  H
  H347     1.0000 0.87389  0.50309  0.69618  Biso   1.000  H
  H348     1.0000 0.88411  0.46901  0.64232  Biso   1.000  H
  N35      1.0000 0.77658  0.45270  0.46239  Biso   1.000  N
  H349     1.0000 0.80549  0.50349  0.41211  Biso   1.000  H
  N36      1.0000 0.77658  0.54730  0.53761  Biso   1.000  N
  H350     1.0000 0.80549  0.49651  0.58789  Biso   1.000  H
  C247     1.0000 0.73071  0.48892  0.47179  Biso   1.000  C
  C248     1.0000 0.73071  0.51108  0.52821  Biso   1.000  C
  H351     1.0000 0.73079  0.51912  0.44490  Biso   1.000  H
  C249     1.0000 0.67769  0.45330  0.46509  Biso   1.000  C
  H352     1.0000 0.73079  0.48088  0.55510  Biso   1.000  H
  C250     1.0000 0.67769  0.54670  0.53491  Biso   1.000  C
  H353     1.0000 0.67749  0.43618  0.42899  Biso   1.000  H
  H354     1.0000 0.67761  0.42419  0.49259  Biso   1.000  H
  C251     1.0000 0.62709  0.48859  0.47192  Biso   1.000  C
  H355     1.0000 0.67749  0.56382  0.57101  Biso   1.000  H
  H356     1.0000 0.67761  0.57581  0.50741  Biso   1.000  H
  C252     1.0000 0.62709  0.51141  0.52808  Biso   1.000  C
  H357     1.0000 0.62742  0.51819  0.44498  Biso   1.000  H
  H358     1.0000 0.59419  0.46659  0.46598  Biso   1.000  H
  H359     1.0000 0.62742  0.48181  0.55502  Biso   1.000  H
  H360     1.0000 0.59419  0.53341  0.53402  Biso   1.000  H
  C253     1.0000 0.39229  0.33471  0.31488  Biso   1.000  C
  C254     1.0000 0.43990  0.32110  0.28072  Biso   1.000  C
  C255     1.0000 0.36051  0.38021  0.30119  Biso   1.000  C
  C256     1.0000 0.38021  0.30119  0.36051  Biso   1.000  C
  N37      1.0000 0.47341  0.28758  0.29731  Biso   1.000  N
  H361     1.0000 0.44450  0.33790  0.24652  Biso   1.000  H
  C257     1.0000 0.31488  0.39229  0.33471  Biso   1.000  C
  H362     1.0000 0.36911  0.40190  0.27079  Biso   1.000  H
  C258     1.0000 0.38320  0.40731  0.25128  Biso   1.000  C
  C259     1.0000 0.33471  0.31488  0.39229  Biso   1.000  C
  H363     1.0000 0.40190  0.27079  0.36911  Biso   1.000  H
  C260     1.0000 0.40731  0.25128  0.38320  Biso   1.000  C
  C261     1.0000 0.51928  0.27822  0.26109  Biso   1.000  C
  C262     1.0000 0.28072  0.43990  0.32110  Biso   1.000  C
  C263     1.0000 0.30119  0.36051  0.38021  Biso   1.000  C
  H364     1.0000 0.42221  0.40109  0.24951  Biso   1.000  H
  H365     1.0000 0.37610  0.44619  0.25310  Biso   1.000  H
  H366     1.0000 0.36592  0.39229  0.21902  Biso   1.000  H
  C264     1.0000 0.32110  0.28072  0.43990  Biso   1.000  C
  H367     1.0000 0.40109  0.24951  0.42221  Biso   1.000  H
  H368     1.0000 0.44619  0.25310  0.37610  Biso   1.000  H
  H369     1.0000 0.39229  0.21902  0.36592  Biso   1.000  H
  C265     1.0000 0.51928  0.22180  0.23889  Biso   1.000  C
  H370     1.0000 0.51920  0.30511  0.23089  Biso   1.000  H
  C266     1.0000 0.57230  0.28492  0.29671  Biso   1.000  C
  N38      1.0000 0.29731  0.47341  0.28758  Biso   1.000  N
  H371     1.0000 0.24652  0.44450  0.33790  Biso   1.000  H
  H372     1.0000 0.27079  0.36911  0.40190  Biso   1.000  H
  C267     1.0000 0.25128  0.38320  0.40731  Biso   1.000  C
  N39      1.0000 0.28758  0.29731  0.47341  Biso   1.000  N
  H373     1.0000 0.33790  0.24652  0.44450  Biso   1.000  H
  N40      1.0000 0.47341  0.21240  0.20271  Biso   1.000  N
  H374     1.0000 0.51920  0.19491  0.26909  Biso   1.000  H
  C268     1.0000 0.57230  0.21510  0.20331  Biso   1.000  C
  H375     1.0000 0.57250  0.32102  0.31379  Biso   1.000  H
  H376     1.0000 0.57238  0.25742  0.32578  Biso   1.000  H
  C269     1.0000 0.62290  0.27809  0.26142  Biso   1.000  C
  C270     1.0000 0.26109  0.51928  0.27822  Biso   1.000  C
  H377     1.0000 0.24951  0.42221  0.40109  Biso   1.000  H
  H378     1.0000 0.25310  0.37610  0.44619  Biso   1.000  H
  H379     1.0000 0.21902  0.36592  0.39229  Biso   1.000  H
  C271     1.0000 0.27822  0.26109  0.51928  Biso   1.000  C
  C272     1.0000 0.43990  0.17888  0.21930  Biso   1.000  C
  H380     1.0000 0.57250  0.17900  0.18619  Biso   1.000  H
  H381     1.0000 0.57238  0.24260  0.17420  Biso   1.000  H
  C273     1.0000 0.62290  0.22189  0.23860  Biso   1.000  C
  H382     1.0000 0.62261  0.30499  0.23182  Biso   1.000  H
  H383     1.0000 0.65580  0.28399  0.28338  Biso   1.000  H
  C274     1.0000 0.23889  0.51928  0.22180  Biso   1.000  C
  H384     1.0000 0.23089  0.51920  0.30511  Biso   1.000  H
  C275     1.0000 0.29671  0.57230  0.28492  Biso   1.000  C
  C276     1.0000 0.22180  0.23889  0.51928  Biso   1.000  C
  H385     1.0000 0.30511  0.23089  0.51920  Biso   1.000  H
  C277     1.0000 0.28492  0.29671  0.57230  Biso   1.000  C
  C278     1.0000 0.39229  0.16531  0.18510  Biso   1.000  C
  H386     1.0000 0.44450  0.16208  0.25350  Biso   1.000  H
  H387     1.0000 0.62261  0.19499  0.26820  Biso   1.000  H
  H388     1.0000 0.65580  0.21599  0.21660  Biso   1.000  H
  N41      1.0000 0.20271  0.47341  0.21240  Biso   1.000  N
  H389     1.0000 0.26909  0.51920  0.19491  Biso   1.000  H
  C279     1.0000 0.20331  0.57230  0.21510  Biso   1.000  C
  H390     1.0000 0.31379  0.57250  0.32102  Biso   1.000  H
  H391     1.0000 0.32578  0.57238  0.25742  Biso   1.000  H
  C280     1.0000 0.26142  0.62290  0.27809  Biso   1.000  C
  N42      1.0000 0.21240  0.20271  0.47341  Biso   1.000  N
  H392     1.0000 0.19491  0.26909  0.51920  Biso   1.000  H
  C281     1.0000 0.21510  0.20331  0.57230  Biso   1.000  C
  H393     1.0000 0.32102  0.31379  0.57250  Biso   1.000  H
  H394     1.0000 0.25742  0.32578  0.57238  Biso   1.000  H
  C282     1.0000 0.27809  0.26142  0.62290  Biso   1.000  C
  C283     1.0000 0.36051  0.11981  0.19879  Biso   1.000  C
  C284     1.0000 0.38021  0.19879  0.13951  Biso   1.000  C
  C285     1.0000 0.21930  0.43990  0.17888  Biso   1.000  C
  H395     1.0000 0.18619  0.57250  0.17900  Biso   1.000  H
  H396     1.0000 0.17420  0.57238  0.24260  Biso   1.000  H
  C286     1.0000 0.23860  0.62290  0.22189  Biso   1.000  C
  H397     1.0000 0.23182  0.62261  0.30499  Biso   1.000  H
  H398     1.0000 0.28338  0.65580  0.28399  Biso   1.000  H
  C287     1.0000 0.17888  0.21930  0.43990  Biso   1.000  C
  H399     1.0000 0.17900  0.18619  0.57250  Biso   1.000  H
  H400     1.0000 0.24260  0.17420  0.57238  Biso   1.000  H
  C288     1.0000 0.22189  0.23860  0.62290  Biso   1.000  C
  H401     1.0000 0.30499  0.23182  0.62261  Biso   1.000  H
  H402     1.0000 0.28399  0.28338  0.65580  Biso   1.000  H
  C289     1.0000 0.31488  0.10769  0.16531  Biso   1.000  C
  H403     1.0000 0.36911  0.09808  0.22919  Biso   1.000  H
  C290     1.0000 0.38320  0.09271  0.24870  Biso   1.000  C
  C291     1.0000 0.33471  0.18510  0.10769  Biso   1.000  C
  H404     1.0000 0.40190  0.22919  0.13091  Biso   1.000  H
  C292     1.0000 0.40731  0.24870  0.11682  Biso   1.000  C
  C293     1.0000 0.18510  0.39229  0.16531  Biso   1.000  C
  H405     1.0000 0.25350  0.44450  0.16208  Biso   1.000  H
  H406     1.0000 0.26820  0.62261  0.19499  Biso   1.000  H
  H407     1.0000 0.21660  0.65580  0.21599  Biso   1.000  H
  C294     1.0000 0.16531  0.18510  0.39229  Biso   1.000  C
  H408     1.0000 0.16208  0.25350  0.44450  Biso   1.000  H
  H409     1.0000 0.19499  0.26820  0.62261  Biso   1.000  H
  H410     1.0000 0.21599  0.21660  0.65580  Biso   1.000  H
  C295     1.0000 0.28072  0.06008  0.17888  Biso   1.000  C
  C296     1.0000 0.30119  0.13951  0.11981  Biso   1.000  C
  H411     1.0000 0.42221  0.09889  0.25051  Biso   1.000  H
  H412     1.0000 0.37610  0.05379  0.24688  Biso   1.000  H
  H413     1.0000 0.36592  0.10769  0.28100  Biso   1.000  H
  C297     1.0000 0.32110  0.21930  0.06008  Biso   1.000  C
  H414     1.0000 0.40109  0.25051  0.07781  Biso   1.000  H
  H415     1.0000 0.44619  0.24688  0.12388  Biso   1.000  H
  H416     1.0000 0.39229  0.28100  0.13410  Biso   1.000  H
  C298     1.0000 0.19879  0.36051  0.11981  Biso   1.000  C
  C299     1.0000 0.13951  0.38021  0.19879  Biso   1.000  C
  C300     1.0000 0.19879  0.13951  0.38021  Biso   1.000  C
  C301     1.0000 0.11981  0.19879  0.36051  Biso   1.000  C
  N43      1.0000 0.29731  0.02661  0.21240  Biso   1.000  N
  H417     1.0000 0.24652  0.05548  0.16208  Biso   1.000  H
  H418     1.0000 0.27079  0.13091  0.09808  Biso   1.000  H
  C302     1.0000 0.25128  0.11682  0.09271  Biso   1.000  C
  N44      1.0000 0.28758  0.20271  0.02661  Biso   1.000  N
  H419     1.0000 0.33790  0.25350  0.05548  Biso   1.000  H
  C303     1.0000 0.16531  0.31488  0.10769  Biso   1.000  C
  H420     1.0000 0.22919  0.36911  0.09808  Biso   1.000  H
  C304     1.0000 0.24870  0.38320  0.09271  Biso   1.000  C
  C305     1.0000 0.10769  0.33471  0.18510  Biso   1.000  C
  H421     1.0000 0.13091  0.40190  0.22919  Biso   1.000  H
  C306     1.0000 0.11682  0.40731  0.24870  Biso   1.000  C
  C307     1.0000 0.18510  0.10769  0.33471  Biso   1.000  C
  H422     1.0000 0.22919  0.13091  0.40190  Biso   1.000  H
  C308     1.0000 0.24870  0.11682  0.40731  Biso   1.000  C
  C309     1.0000 0.10769  0.16531  0.31488  Biso   1.000  C
  H423     1.0000 0.09808  0.22919  0.36911  Biso   1.000  H
  C310     1.0000 0.09271  0.24870  0.38320  Biso   1.000  C
  C311     1.0000 0.26109  0.98070  0.22180  Biso   1.000  C
  H424     1.0000 0.24951  0.07781  0.09889  Biso   1.000  H
  H425     1.0000 0.25310  0.12388  0.05379  Biso   1.000  H
  H426     1.0000 0.21902  0.13410  0.10769  Biso   1.000  H
  C312     1.0000 0.27822  0.23889  0.98070  Biso   1.000  C
  C313     1.0000 0.17888  0.28072  0.06008  Biso   1.000  C
  C314     1.0000 0.11981  0.30119  0.13951  Biso   1.000  C
  H427     1.0000 0.25051  0.42221  0.09889  Biso   1.000  H
  H428     1.0000 0.24688  0.37610  0.05379  Biso   1.000  H
  H429     1.0000 0.28100  0.36592  0.10769  Biso   1.000  H
  C315     1.0000 0.06008  0.32110  0.21930  Biso   1.000  C
  H430     1.0000 0.07781  0.40109  0.25051  Biso   1.000  H
  H431     1.0000 0.12388  0.44619  0.24688  Biso   1.000  H
  H432     1.0000 0.13410  0.39229  0.28100  Biso   1.000  H
  C316     1.0000 0.21930  0.06008  0.32110  Biso   1.000  C
  C317     1.0000 0.13951  0.11981  0.30119  Biso   1.000  C
  H433     1.0000 0.25051  0.07781  0.40109  Biso   1.000  H
  H434     1.0000 0.24688  0.12388  0.44619  Biso   1.000  H
  H435     1.0000 0.28100  0.13410  0.39229  Biso   1.000  H
  C318     1.0000 0.06008  0.17888  0.28072  Biso   1.000  C
  H436     1.0000 0.09889  0.25051  0.42221  Biso   1.000  H
  H437     1.0000 0.05379  0.24688  0.37610  Biso   1.000  H
  H438     1.0000 0.10769  0.28100  0.36592  Biso   1.000  H
  C319     1.0000 0.23889  0.98070  0.27822  Biso   1.000  C
  H439     1.0000 0.23089  0.98082  0.19491  Biso   1.000  H
  C320     1.0000 0.29671  0.92768  0.21510  Biso   1.000  C
  C321     1.0000 0.22180  0.26109  0.98070  Biso   1.000  C
  H440     1.0000 0.30511  0.26909  0.98082  Biso   1.000  H
  C322     1.0000 0.28492  0.20331  0.92768  Biso   1.000  C
  N45      1.0000 0.21240  0.29731  0.02661  Biso   1.000  N
  H441     1.0000 0.16208  0.24652  0.05548  Biso   1.000  H
  H442     1.0000 0.09808  0.27079  0.13091  Biso   1.000  H
  C323     1.0000 0.09271  0.25128  0.11682  Biso   1.000  C
  N46      1.0000 0.02661  0.28758  0.20271  Biso   1.000  N
  H443     1.0000 0.05548  0.33790  0.25350  Biso   1.000  H
  N47      1.0000 0.20271  0.02661  0.28758  Biso   1.000  N
  H444     1.0000 0.25350  0.05548  0.33790  Biso   1.000  H
  H445     1.0000 0.13091  0.09808  0.27079  Biso   1.000  H
  C324     1.0000 0.11682  0.09271  0.25128  Biso   1.000  C
  N48      1.0000 0.02661  0.21240  0.29731  Biso   1.000  N
  H446     1.0000 0.05548  0.16208  0.24652  Biso   1.000  H
  H447     1.0000 0.26909  0.98082  0.30511  Biso   1.000  H
  C325     1.0000 0.20331  0.92768  0.28492  Biso   1.000  C
  H448     1.0000 0.31379  0.92752  0.17900  Biso   1.000  H
  H449     1.0000 0.32578  0.92760  0.24260  Biso   1.000  H
  C326     1.0000 0.26142  0.87708  0.22189  Biso   1.000  C
  H450     1.0000 0.19491  0.23089  0.98082  Biso   1.000  H
  C327     1.0000 0.21510  0.29671  0.92768  Biso   1.000  C
  H451     1.0000 0.32102  0.18619  0.92752  Biso   1.000  H
  H452     1.0000 0.25742  0.17420  0.92760  Biso   1.000  H
  C328     1.0000 0.27809  0.23860  0.87708  Biso   1.000  C
  H453     1.0000 0.09889  0.24951  0.07781  Biso   1.000  H
  H454     1.0000 0.05379  0.25310  0.12388  Biso   1.000  H
  H455     1.0000 0.10769  0.21902  0.13410  Biso   1.000  H
  C329     1.0000 0.98070  0.27822  0.23889  Biso   1.000  C
  H456     1.0000 0.07781  0.09889  0.24951  Biso   1.000  H
  H457     1.0000 0.12388  0.05379  0.25310  Biso   1.000  H
  H458     1.0000 0.13410  0.10769  0.21902  Biso   1.000  H
  C330     1.0000 0.98070  0.22180  0.26109  Biso   1.000  C
  H459     1.0000 0.18619  0.92752  0.32102  Biso   1.000  H
  H460     1.0000 0.17420  0.92760  0.25742  Biso   1.000  H
  C331     1.0000 0.23860  0.87708  0.27809  Biso   1.000  C
  H461     1.0000 0.23182  0.87741  0.19499  Biso   1.000  H
  H462     1.0000 0.28338  0.84422  0.21599  Biso   1.000  H
  H463     1.0000 0.17900  0.31379  0.92752  Biso   1.000  H
  H464     1.0000 0.24260  0.32578  0.92760  Biso   1.000  H
  C332     1.0000 0.22189  0.26142  0.87708  Biso   1.000  C
  H465     1.0000 0.30499  0.26820  0.87741  Biso   1.000  H
  H466     1.0000 0.28399  0.21660  0.84422  Biso   1.000  H
  H467     1.0000 0.98082  0.30511  0.26909  Biso   1.000  H
  C333     1.0000 0.92768  0.28492  0.20331  Biso   1.000  C
  H468     1.0000 0.98082  0.19491  0.23089  Biso   1.000  H
  C334     1.0000 0.92768  0.21510  0.29671  Biso   1.000  C
  H469     1.0000 0.26820  0.87741  0.30499  Biso   1.000  H
  H470     1.0000 0.21660  0.84422  0.28399  Biso   1.000  H
  H471     1.0000 0.19499  0.23182  0.87741  Biso   1.000  H
  H472     1.0000 0.21599  0.28338  0.84422  Biso   1.000  H
  H473     1.0000 0.92752  0.32102  0.18619  Biso   1.000  H
  H474     1.0000 0.92760  0.25742  0.17420  Biso   1.000  H
  C335     1.0000 0.87708  0.27809  0.23860  Biso   1.000  C
  H475     1.0000 0.92752  0.17900  0.31379  Biso   1.000  H
  H476     1.0000 0.92760  0.24260  0.32578  Biso   1.000  H
  C336     1.0000 0.87708  0.22189  0.26142  Biso   1.000  C
  H477     1.0000 0.87741  0.30499  0.26820  Biso   1.000  H
  H478     1.0000 0.84422  0.28399  0.21660  Biso   1.000  H
  H479     1.0000 0.87741  0.19499  0.23182  Biso   1.000  H
  H480     1.0000 0.84422  0.21599  0.28338  Biso   1.000  H
  C337     1.0000 0.61680  0.59269  0.25128  Biso   1.000  C
  C338     1.0000 0.63949  0.61979  0.30119  Biso   1.000  C
  H481     1.0000 0.63089  0.59810  0.27079  Biso   1.000  H
  H482     1.0000 0.57779  0.59891  0.24951  Biso   1.000  H
  H483     1.0000 0.62390  0.55381  0.25310  Biso   1.000  H
  H484     1.0000 0.63408  0.60771  0.21902  Biso   1.000  H
  C339     1.0000 0.68512  0.60771  0.33471  Biso   1.000  C
  C340     1.0000 0.60771  0.66529  0.31488  Biso   1.000  C
  C341     1.0000 0.71928  0.56010  0.32110  Biso   1.000  C
  C342     1.0000 0.69881  0.63949  0.38021  Biso   1.000  C
  C343     1.0000 0.61979  0.69881  0.36051  Biso   1.000  C
  C344     1.0000 0.56010  0.67890  0.28072  Biso   1.000  C
  N49      1.0000 0.70269  0.52659  0.28758  Biso   1.000  N
  H485     1.0000 0.75348  0.55550  0.33790  Biso   1.000  H
  C345     1.0000 0.66529  0.68512  0.39229  Biso   1.000  C
  H486     1.0000 0.72921  0.63089  0.40190  Biso   1.000  H
  C346     1.0000 0.74872  0.61680  0.40731  Biso   1.000  C
  H487     1.0000 0.59810  0.72921  0.36911  Biso   1.000  H
  C347     1.0000 0.59269  0.74872  0.38320  Biso   1.000  C
  N50      1.0000 0.52659  0.71242  0.29731  Biso   1.000  N
  H488     1.0000 0.55550  0.66210  0.24652  Biso   1.000  H
  C348     1.0000 0.73891  0.48072  0.27822  Biso   1.000  C
  C349     1.0000 0.67890  0.71928  0.43990  Biso   1.000  C
  H489     1.0000 0.75049  0.57779  0.40109  Biso   1.000  H
  H490     1.0000 0.74690  0.62390  0.44619  Biso   1.000  H
  H491     1.0000 0.78098  0.63408  0.39229  Biso   1.000  H
  H492     1.0000 0.59891  0.75049  0.42221  Biso   1.000  H
  H493     1.0000 0.55381  0.74690  0.37610  Biso   1.000  H
  H494     1.0000 0.60771  0.78098  0.36592  Biso   1.000  H
  C350     1.0000 0.48072  0.72178  0.26109  Biso   1.000  C
  C351     1.0000 0.70329  0.42770  0.28492  Biso   1.000  C
  C352     1.0000 0.76111  0.48072  0.22180  Biso   1.000  C
  H495     1.0000 0.76911  0.48080  0.30511  Biso   1.000  H
  N51      1.0000 0.71242  0.70269  0.47341  Biso   1.000  N
  H496     1.0000 0.66210  0.75348  0.44450  Biso   1.000  H
  C353     1.0000 0.48072  0.77820  0.23889  Biso   1.000  C
  H497     1.0000 0.48080  0.69489  0.23089  Biso   1.000  H
  C354     1.0000 0.42770  0.71508  0.29671  Biso   1.000  C
  H498     1.0000 0.68621  0.42750  0.32102  Biso   1.000  H
  H499     1.0000 0.67422  0.42762  0.25742  Biso   1.000  H
  C355     1.0000 0.73858  0.37710  0.27809  Biso   1.000  C
  N52      1.0000 0.79729  0.52659  0.21240  Biso   1.000  N
  H500     1.0000 0.73091  0.48080  0.19491  Biso   1.000  H
  C356     1.0000 0.79669  0.42770  0.21510  Biso   1.000  C
  C357     1.0000 0.72178  0.73891  0.51928  Biso   1.000  C
  N53      1.0000 0.52659  0.78760  0.20271  Biso   1.000  N
  H501     1.0000 0.48080  0.80509  0.26909  Biso   1.000  H
  C358     1.0000 0.42770  0.78490  0.20331  Biso   1.000  C
  H502     1.0000 0.42750  0.67898  0.31379  Biso   1.000  H
  H503     1.0000 0.42762  0.74258  0.32578  Biso   1.000  H
  C359     1.0000 0.37710  0.72191  0.26142  Biso   1.000  C
  C360     1.0000 0.76140  0.37710  0.22189  Biso   1.000  C
  H504     1.0000 0.76818  0.37739  0.30499  Biso   1.000  H
  H505     1.0000 0.71662  0.34420  0.28399  Biso   1.000  H
  C361     1.0000 0.78070  0.56010  0.17888  Biso   1.000  C
  H506     1.0000 0.81381  0.42750  0.17900  Biso   1.000  H
  H507     1.0000 0.82580  0.42762  0.24260  Biso   1.000  H
  C362     1.0000 0.77820  0.76111  0.51928  Biso   1.000  C
  H508     1.0000 0.69489  0.76911  0.51920  Biso   1.000  H
  C363     1.0000 0.71508  0.70329  0.57230  Biso   1.000  C
  C364     1.0000 0.56010  0.82112  0.21930  Biso   1.000  C
  H509     1.0000 0.42750  0.82100  0.18619  Biso   1.000  H
  H510     1.0000 0.42762  0.75740  0.17420  Biso   1.000  H
  C365     1.0000 0.37710  0.77811  0.23860  Biso   1.000  C
  H511     1.0000 0.37739  0.69501  0.23182  Biso   1.000  H
  H512     1.0000 0.34420  0.71601  0.28338  Biso   1.000  H
  H513     1.0000 0.73180  0.37739  0.19499  Biso   1.000  H
  H514     1.0000 0.78340  0.34420  0.21599  Biso   1.000  H
  C366     1.0000 0.81490  0.60771  0.16531  Biso   1.000  C
  H515     1.0000 0.74650  0.55550  0.16208  Biso   1.000  H
  N54      1.0000 0.78760  0.79729  0.47341  Biso   1.000  N
  H516     1.0000 0.80509  0.73091  0.51920  Biso   1.000  H
  C367     1.0000 0.78490  0.79669  0.57230  Biso   1.000  C
  H517     1.0000 0.67898  0.68621  0.57250  Biso   1.000  H
  H518     1.0000 0.74258  0.67422  0.57238  Biso   1.000  H
  C368     1.0000 0.72191  0.73858  0.62290  Biso   1.000  C
  C369     1.0000 0.60771  0.83469  0.18510  Biso   1.000  C
  H519     1.0000 0.55550  0.83792  0.25350  Biso   1.000  H
  H520     1.0000 0.37739  0.80501  0.26820  Biso   1.000  H
  H521     1.0000 0.34420  0.78401  0.21660  Biso   1.000  H
  C370     1.0000 0.80121  0.63949  0.11981  Biso   1.000  C
  C371     1.0000 0.86049  0.61979  0.19879  Biso   1.000  C
  C372     1.0000 0.82112  0.78070  0.43990  Biso   1.000  C
  H522     1.0000 0.82100  0.81381  0.57250  Biso   1.000  H
  H523     1.0000 0.75740  0.82580  0.57238  Biso   1.000  H
  C373     1.0000 0.77811  0.76140  0.62290  Biso   1.000  C
  H524     1.0000 0.69501  0.76818  0.62261  Biso   1.000  H
  H525     1.0000 0.71601  0.71662  0.65580  Biso   1.000  H
  C374     1.0000 0.61979  0.80121  0.13951  Biso   1.000  C
  C375     1.0000 0.63949  0.88019  0.19879  Biso   1.000  C
  C376     1.0000 0.83469  0.68512  0.10769  Biso   1.000  C
  H526     1.0000 0.77081  0.63089  0.09808  Biso   1.000  H
  C377     1.0000 0.75130  0.61680  0.09271  Biso   1.000  C
  C378     1.0000 0.89231  0.66529  0.18510  Biso   1.000  C
  H527     1.0000 0.86909  0.59810  0.22919  Biso   1.000  H
  C379     1.0000 0.88318  0.59269  0.24870  Biso   1.000  C
  C380     1.0000 0.83469  0.81490  0.39229  Biso   1.000  C
  H528     1.0000 0.83792  0.74650  0.44450  Biso   1.000  H
  H529     1.0000 0.80501  0.73180  0.62261  Biso   1.000  H
  H530     1.0000 0.78401  0.78340  0.65580  Biso   1.000  H
  C381     1.0000 0.66529  0.81490  0.10769  Biso   1.000  C
  H531     1.0000 0.59810  0.77081  0.13091  Biso   1.000  H
  C382     1.0000 0.59269  0.75130  0.11682  Biso   1.000  C
  C383     1.0000 0.68512  0.89231  0.16531  Biso   1.000  C
  H532     1.0000 0.63089  0.90192  0.22919  Biso   1.000  H
  C384     1.0000 0.61680  0.90729  0.24870  Biso   1.000  C
  C385     1.0000 0.82112  0.71928  0.06008  Biso   1.000  C
  C386     1.0000 0.88019  0.69881  0.13951  Biso   1.000  C
  H533     1.0000 0.74949  0.57779  0.09889  Biso   1.000  H
  H534     1.0000 0.75312  0.62390  0.05379  Biso   1.000  H
  H535     1.0000 0.71900  0.63408  0.10769  Biso   1.000  H
  C387     1.0000 0.93992  0.67890  0.21930  Biso   1.000  C
  H536     1.0000 0.92219  0.59891  0.25051  Biso   1.000  H
  H537     1.0000 0.87612  0.55381  0.24688  Biso   1.000  H
  H538     1.0000 0.86590  0.60771  0.28100  Biso   1.000  H
  C388     1.0000 0.88019  0.80121  0.36051  Biso   1.000  C
  C389     1.0000 0.80121  0.86049  0.38021  Biso   1.000  C
  C390     1.0000 0.67890  0.78070  0.06008  Biso   1.000  C
  C391     1.0000 0.69881  0.86049  0.11981  Biso   1.000  C
  H539     1.0000 0.59891  0.74949  0.07781  Biso   1.000  H
  H540     1.0000 0.55381  0.75312  0.12388  Biso   1.000  H
  H541     1.0000 0.60771  0.71900  0.13410  Biso   1.000  H
  C392     1.0000 0.71928  0.93992  0.17888  Biso   1.000  C
  H542     1.0000 0.57779  0.90111  0.25051  Biso   1.000  H
  H543     1.0000 0.62390  0.94621  0.24688  Biso   1.000  H
  H544     1.0000 0.63408  0.89231  0.28100  Biso   1.000  H
  N55      1.0000 0.78760  0.70269  0.02661  Biso   1.000  N
  H545     1.0000 0.83792  0.75348  0.05548  Biso   1.000  H
  H546     1.0000 0.90192  0.72921  0.13091  Biso   1.000  H
  C393     1.0000 0.90729  0.74872  0.11682  Biso   1.000  C
  N56      1.0000 0.97339  0.71242  0.20271  Biso   1.000  N
  H547     1.0000 0.94452  0.66210  0.25350  Biso   1.000  H
  C394     1.0000 0.89231  0.83469  0.31488  Biso   1.000  C
  H548     1.0000 0.90192  0.77081  0.36911  Biso   1.000  H
  C395     1.0000 0.90729  0.75130  0.38320  Biso   1.000  C
  C396     1.0000 0.81490  0.89231  0.33471  Biso   1.000  C
  H549     1.0000 0.77081  0.86909  0.40190  Biso   1.000  H
  C397     1.0000 0.75130  0.88318  0.40731  Biso   1.000  C
  N57      1.0000 0.71242  0.79729  0.02661  Biso   1.000  N
  H550     1.0000 0.66210  0.74650  0.05548  Biso   1.000  H
  H551     1.0000 0.72921  0.86909  0.09808  Biso   1.000  H
  C398     1.0000 0.74872  0.88318  0.09271  Biso   1.000  C
  N58      1.0000 0.70269  0.97339  0.21240  Biso   1.000  N
  H552     1.0000 0.75348  0.94452  0.16208  Biso   1.000  H
  C399     1.0000 0.77820  0.73891  0.98070  Biso   1.000  C
  H553     1.0000 0.90111  0.75049  0.07781  Biso   1.000  H
  H554     1.0000 0.94621  0.74690  0.12388  Biso   1.000  H
  H555     1.0000 0.89231  0.78098  0.13410  Biso   1.000  H
  C400     1.0000 0.01930  0.72178  0.23889  Biso   1.000  C
  C401     1.0000 0.93992  0.82112  0.28072  Biso   1.000  C
  C402     1.0000 0.86049  0.88019  0.30119  Biso   1.000  C
  H556     1.0000 0.90111  0.74949  0.42221  Biso   1.000  H
  H557     1.0000 0.94621  0.75312  0.37610  Biso   1.000  H
  H558     1.0000 0.89231  0.71900  0.36592  Biso   1.000  H
  C403     1.0000 0.78070  0.93992  0.32110  Biso   1.000  C
  H559     1.0000 0.74949  0.92219  0.40109  Biso   1.000  H
  H560     1.0000 0.75312  0.87612  0.44619  Biso   1.000  H
  H561     1.0000 0.71900  0.86590  0.39229  Biso   1.000  H
  C404     1.0000 0.72178  0.76111  0.98070  Biso   1.000  C
  H562     1.0000 0.75049  0.92219  0.09889  Biso   1.000  H
  H563     1.0000 0.74690  0.87612  0.05379  Biso   1.000  H
  H564     1.0000 0.78098  0.86590  0.10769  Biso   1.000  H
  C405     1.0000 0.73891  0.01930  0.22180  Biso   1.000  C
  H565     1.0000 0.80509  0.76911  0.98082  Biso   1.000  H
  C406     1.0000 0.78490  0.70329  0.92768  Biso   1.000  C
  C407     1.0000 0.01930  0.77820  0.26109  Biso   1.000  C
  H566     1.0000 0.01918  0.69489  0.26909  Biso   1.000  H
  C408     1.0000 0.07232  0.71508  0.20331  Biso   1.000  C
  N59      1.0000 0.97339  0.78760  0.29731  Biso   1.000  N
  H567     1.0000 0.94452  0.83792  0.24652  Biso   1.000  H
  H568     1.0000 0.86909  0.90192  0.27079  Biso   1.000  H
  C409     1.0000 0.88318  0.90729  0.25128  Biso   1.000  C
  N60      1.0000 0.79729  0.97339  0.28758  Biso   1.000  N
  H569     1.0000 0.74650  0.94452  0.33790  Biso   1.000  H
  H570     1.0000 0.69489  0.73091  0.98082  Biso   1.000  H
  C410     1.0000 0.71508  0.79669  0.92768  Biso   1.000  C
  C411     1.0000 0.76111  0.01930  0.27822  Biso   1.000  C
  H571     1.0000 0.76911  0.01918  0.19491  Biso   1.000  H
  C412     1.0000 0.70329  0.07232  0.21510  Biso   1.000  C
  H572     1.0000 0.82100  0.68621  0.92752  Biso   1.000  H
  H573     1.0000 0.75740  0.67422  0.92760  Biso   1.000  H
  C413     1.0000 0.77811  0.73858  0.87708  Biso   1.000  C
  H574     1.0000 0.01918  0.80509  0.23089  Biso   1.000  H
  C414     1.0000 0.07232  0.78490  0.29671  Biso   1.000  C
  H575     1.0000 0.07248  0.67898  0.18619  Biso   1.000  H
  H576     1.0000 0.07240  0.74258  0.17420  Biso   1.000  H
  C415     1.0000 0.12292  0.72191  0.23860  Biso   1.000  C
  H577     1.0000 0.92219  0.90111  0.24951  Biso   1.000  H
  H578     1.0000 0.87612  0.94621  0.25310  Biso   1.000  H
  H579     1.0000 0.86590  0.89231  0.21902  Biso   1.000  H
  H580     1.0000 0.67898  0.81381  0.92752  Biso   1.000  H
  H581     1.0000 0.74258  0.82580  0.92760  Biso   1.000  H
  C416     1.0000 0.72191  0.76140  0.87708  Biso   1.000  C
  H582     1.0000 0.73091  0.01918  0.30511  Biso   1.000  H
  C417     1.0000 0.79669  0.07232  0.28492  Biso   1.000  C
  H583     1.0000 0.68621  0.07248  0.17900  Biso   1.000  H
  H584     1.0000 0.67422  0.07240  0.24260  Biso   1.000  H
  C418     1.0000 0.73858  0.12292  0.22189  Biso   1.000  C
  H585     1.0000 0.80501  0.76818  0.87741  Biso   1.000  H
  H586     1.0000 0.78401  0.71662  0.84422  Biso   1.000  H
  H587     1.0000 0.07248  0.82100  0.31379  Biso   1.000  H
  H588     1.0000 0.07240  0.75740  0.32578  Biso   1.000  H
  C419     1.0000 0.12292  0.77811  0.26142  Biso   1.000  C
  H589     1.0000 0.12259  0.69501  0.26820  Biso   1.000  H
  H590     1.0000 0.15578  0.71601  0.21660  Biso   1.000  H
  H591     1.0000 0.69501  0.73180  0.87741  Biso   1.000  H
  H592     1.0000 0.71601  0.78340  0.84422  Biso   1.000  H
  H593     1.0000 0.81381  0.07248  0.32102  Biso   1.000  H
  H594     1.0000 0.82580  0.07240  0.25742  Biso   1.000  H
  C420     1.0000 0.76140  0.12292  0.27809  Biso   1.000  C
  H595     1.0000 0.76818  0.12259  0.19499  Biso   1.000  H
  H596     1.0000 0.71662  0.15578  0.21599  Biso   1.000  H
  H597     1.0000 0.12259  0.80501  0.23182  Biso   1.000  H
  H598     1.0000 0.15578  0.78401  0.28338  Biso   1.000  H
  H599     1.0000 0.73180  0.12259  0.30499  Biso   1.000  H
  H600     1.0000 0.78340  0.15578  0.28399  Biso   1.000  H
  C421     1.0000 0.59269  0.25128  0.61680  Biso   1.000  C
  C422     1.0000 0.61979  0.30119  0.63949  Biso   1.000  C
  H601     1.0000 0.59810  0.27079  0.63089  Biso   1.000  H
  H602     1.0000 0.59891  0.24951  0.57779  Biso   1.000  H
  H603     1.0000 0.55381  0.25310  0.62390  Biso   1.000  H
  H604     1.0000 0.60771  0.21902  0.63408  Biso   1.000  H
  C423     1.0000 0.66529  0.31488  0.60771  Biso   1.000  C
  C424     1.0000 0.60771  0.33471  0.68512  Biso   1.000  C
  C425     1.0000 0.67890  0.28072  0.56010  Biso   1.000  C
  C426     1.0000 0.69881  0.36051  0.61979  Biso   1.000  C
  C427     1.0000 0.63949  0.38021  0.69881  Biso   1.000  C
  C428     1.0000 0.56010  0.32110  0.71928  Biso   1.000  C
  N61      1.0000 0.71242  0.29731  0.52659  Biso   1.000  N
  H605     1.0000 0.66210  0.24652  0.55550  Biso   1.000  H
  C429     1.0000 0.68512  0.39229  0.66529  Biso   1.000  C
  H606     1.0000 0.72921  0.36911  0.59810  Biso   1.000  H
  C430     1.0000 0.74872  0.38320  0.59269  Biso   1.000  C
  H607     1.0000 0.63089  0.40190  0.72921  Biso   1.000  H
  C431     1.0000 0.61680  0.40731  0.74872  Biso   1.000  C
  N62      1.0000 0.52659  0.28758  0.70269  Biso   1.000  N
  H608     1.0000 0.55550  0.33790  0.75348  Biso   1.000  H
  C432     1.0000 0.72178  0.26109  0.48072  Biso   1.000  C
  C433     1.0000 0.71928  0.43990  0.67890  Biso   1.000  C
  H609     1.0000 0.75049  0.42221  0.59891  Biso   1.000  H
  H610     1.0000 0.74690  0.37610  0.55381  Biso   1.000  H
  H611     1.0000 0.78098  0.36592  0.60771  Biso   1.000  H
  H612     1.0000 0.57779  0.40109  0.75049  Biso   1.000  H
  H613     1.0000 0.62390  0.44619  0.74690  Biso   1.000  H
  H614     1.0000 0.63408  0.39229  0.78098  Biso   1.000  H
  C434     1.0000 0.48072  0.27822  0.73891  Biso   1.000  C
  C435     1.0000 0.71508  0.29671  0.42770  Biso   1.000  C
  C436     1.0000 0.77820  0.23889  0.48072  Biso   1.000  C
  H615     1.0000 0.69489  0.23089  0.48080  Biso   1.000  H
  N63      1.0000 0.70269  0.47341  0.71242  Biso   1.000  N
  H616     1.0000 0.75348  0.44450  0.66210  Biso   1.000  H
  C437     1.0000 0.48072  0.22180  0.76111  Biso   1.000  C
  H617     1.0000 0.48080  0.30511  0.76911  Biso   1.000  H
  C438     1.0000 0.42770  0.28492  0.70329  Biso   1.000  C
  C439     1.0000 0.72191  0.26142  0.37710  Biso   1.000  C
  H618     1.0000 0.67898  0.31379  0.42750  Biso   1.000  H
  H619     1.0000 0.74258  0.32578  0.42762  Biso   1.000  H
  C440     1.0000 0.78490  0.20331  0.42770  Biso   1.000  C
  N64      1.0000 0.78760  0.20271  0.52659  Biso   1.000  N
  H620     1.0000 0.80509  0.26909  0.48080  Biso   1.000  H
  C441     1.0000 0.73891  0.51928  0.72178  Biso   1.000  C
  N65      1.0000 0.52659  0.21240  0.79729  Biso   1.000  N
  H621     1.0000 0.48080  0.19491  0.73091  Biso   1.000  H
  C442     1.0000 0.42770  0.21510  0.79669  Biso   1.000  C
  H622     1.0000 0.42750  0.32102  0.68621  Biso   1.000  H
  H623     1.0000 0.42762  0.25742  0.67422  Biso   1.000  H
  C443     1.0000 0.37710  0.27809  0.73858  Biso   1.000  C
  C444     1.0000 0.77811  0.23860  0.37710  Biso   1.000  C
  H624     1.0000 0.69501  0.23182  0.37739  Biso   1.000  H
  H625     1.0000 0.71601  0.28338  0.34420  Biso   1.000  H
  H626     1.0000 0.82100  0.18619  0.42750  Biso   1.000  H
  H627     1.0000 0.75740  0.17420  0.42762  Biso   1.000  H
  C445     1.0000 0.82112  0.21930  0.56010  Biso   1.000  C
  C446     1.0000 0.76111  0.51928  0.77820  Biso   1.000  C
  H628     1.0000 0.76911  0.51920  0.69489  Biso   1.000  H
  C447     1.0000 0.70329  0.57230  0.71508  Biso   1.000  C
  C448     1.0000 0.56010  0.17888  0.78070  Biso   1.000  C
  H629     1.0000 0.42750  0.17900  0.81381  Biso   1.000  H
  H630     1.0000 0.42762  0.24260  0.82580  Biso   1.000  H
  C449     1.0000 0.37710  0.22189  0.76140  Biso   1.000  C
  H631     1.0000 0.37739  0.30499  0.76818  Biso   1.000  H
  H632     1.0000 0.34420  0.28399  0.71662  Biso   1.000  H
  H633     1.0000 0.80501  0.26820  0.37739  Biso   1.000  H
  H634     1.0000 0.78401  0.21660  0.34420  Biso   1.000  H
  C450     1.0000 0.83469  0.18510  0.60771  Biso   1.000  C
  H635     1.0000 0.83792  0.25350  0.55550  Biso   1.000  H
  N66      1.0000 0.79729  0.47341  0.78760  Biso   1.000  N
  H636     1.0000 0.73091  0.51920  0.80509  Biso   1.000  H
  C451     1.0000 0.79669  0.57230  0.78490  Biso   1.000  C
  H637     1.0000 0.68621  0.57250  0.67898  Biso   1.000  H
  H638     1.0000 0.67422  0.57238  0.74258  Biso   1.000  H
  C452     1.0000 0.73858  0.62290  0.72191  Biso   1.000  C
  C453     1.0000 0.60771  0.16531  0.81490  Biso   1.000  C
  H639     1.0000 0.55550  0.16208  0.74650  Biso   1.000  H
  H640     1.0000 0.37739  0.19499  0.73180  Biso   1.000  H
  H641     1.0000 0.34420  0.21599  0.78340  Biso   1.000  H
  C454     1.0000 0.80121  0.13951  0.61979  Biso   1.000  C
  C455     1.0000 0.88019  0.19879  0.63949  Biso   1.000  C
  C456     1.0000 0.78070  0.43990  0.82112  Biso   1.000  C
  H642     1.0000 0.81381  0.57250  0.82100  Biso   1.000  H
  H643     1.0000 0.82580  0.57238  0.75740  Biso   1.000  H
  C457     1.0000 0.76140  0.62290  0.77811  Biso   1.000  C
  H644     1.0000 0.76818  0.62261  0.69501  Biso   1.000  H
  H645     1.0000 0.71662  0.65580  0.71601  Biso   1.000  H
  C458     1.0000 0.61979  0.19879  0.86049  Biso   1.000  C
  C459     1.0000 0.63949  0.11981  0.80121  Biso   1.000  C
  C460     1.0000 0.81490  0.10769  0.66529  Biso   1.000  C
  H646     1.0000 0.77081  0.13091  0.59810  Biso   1.000  H
  C461     1.0000 0.75130  0.11682  0.59269  Biso   1.000  C
  C462     1.0000 0.89231  0.16531  0.68512  Biso   1.000  C
  H647     1.0000 0.90192  0.22919  0.63089  Biso   1.000  H
  C463     1.0000 0.90729  0.24870  0.61680  Biso   1.000  C
  C464     1.0000 0.81490  0.39229  0.83469  Biso   1.000  C
  H648     1.0000 0.74650  0.44450  0.83792  Biso   1.000  H
  H649     1.0000 0.73180  0.62261  0.80501  Biso   1.000  H
  H650     1.0000 0.78340  0.65580  0.78401  Biso   1.000  H
  C465     1.0000 0.66529  0.18510  0.89231  Biso   1.000  C
  H651     1.0000 0.59810  0.22919  0.86909  Biso   1.000  H
  C466     1.0000 0.59269  0.24870  0.88318  Biso   1.000  C
  C467     1.0000 0.68512  0.10769  0.83469  Biso   1.000  C
  H652     1.0000 0.63089  0.09808  0.77081  Biso   1.000  H
  C468     1.0000 0.61680  0.09271  0.75130  Biso   1.000  C
  C469     1.0000 0.78070  0.06008  0.67890  Biso   1.000  C
  C470     1.0000 0.86049  0.11981  0.69881  Biso   1.000  C
  H653     1.0000 0.74949  0.07781  0.59891  Biso   1.000  H
  H654     1.0000 0.75312  0.12388  0.55381  Biso   1.000  H
  H655     1.0000 0.71900  0.13410  0.60771  Biso   1.000  H
  C471     1.0000 0.93992  0.17888  0.71928  Biso   1.000  C
  H656     1.0000 0.90111  0.25051  0.57779  Biso   1.000  H
  H657     1.0000 0.94621  0.24688  0.62390  Biso   1.000  H
  H658     1.0000 0.89231  0.28100  0.63408  Biso   1.000  H
  C472     1.0000 0.80121  0.36051  0.88019  Biso   1.000  C
  C473     1.0000 0.86049  0.38021  0.80121  Biso   1.000  C
  C474     1.0000 0.69881  0.13951  0.88019  Biso   1.000  C
  C475     1.0000 0.67890  0.21930  0.93992  Biso   1.000  C
  H659     1.0000 0.59891  0.25051  0.92219  Biso   1.000  H
  H660     1.0000 0.55381  0.24688  0.87612  Biso   1.000  H
  H661     1.0000 0.60771  0.28100  0.86590  Biso   1.000  H
  C476     1.0000 0.71928  0.06008  0.82112  Biso   1.000  C
  H662     1.0000 0.57779  0.09889  0.74949  Biso   1.000  H
  H663     1.0000 0.62390  0.05379  0.75312  Biso   1.000  H
  H664     1.0000 0.63408  0.10769  0.71900  Biso   1.000  H
  N67      1.0000 0.79729  0.02661  0.71242  Biso   1.000  N
  H665     1.0000 0.74650  0.05548  0.66210  Biso   1.000  H
  H666     1.0000 0.86909  0.09808  0.72921  Biso   1.000  H
  C477     1.0000 0.88318  0.09271  0.74872  Biso   1.000  C
  N68      1.0000 0.97339  0.21240  0.70269  Biso   1.000  N
  H667     1.0000 0.94452  0.16208  0.75348  Biso   1.000  H
  C478     1.0000 0.83469  0.31488  0.89231  Biso   1.000  C
  H668     1.0000 0.77081  0.36911  0.90192  Biso   1.000  H
  C479     1.0000 0.75130  0.38320  0.90729  Biso   1.000  C
  C480     1.0000 0.89231  0.33471  0.81490  Biso   1.000  C
  H669     1.0000 0.86909  0.40190  0.77081  Biso   1.000  H
  C481     1.0000 0.88318  0.40731  0.75130  Biso   1.000  C
  H670     1.0000 0.72921  0.13091  0.90192  Biso   1.000  H
  C482     1.0000 0.74872  0.11682  0.90729  Biso   1.000  C
  N69      1.0000 0.71242  0.20271  0.97339  Biso   1.000  N
  H671     1.0000 0.66210  0.25350  0.94452  Biso   1.000  H
  N70      1.0000 0.70269  0.02661  0.78760  Biso   1.000  N
  H672     1.0000 0.75348  0.05548  0.83792  Biso   1.000  H
  C483     1.0000 0.76111  0.98070  0.72178  Biso   1.000  C
  H673     1.0000 0.92219  0.09889  0.75049  Biso   1.000  H
  H674     1.0000 0.87612  0.05379  0.74690  Biso   1.000  H
  H675     1.0000 0.86590  0.10769  0.78098  Biso   1.000  H
  C484     1.0000 0.01930  0.22180  0.73891  Biso   1.000  C
  C485     1.0000 0.88019  0.30119  0.86049  Biso   1.000  C
  C486     1.0000 0.82112  0.28072  0.93992  Biso   1.000  C
  H676     1.0000 0.74949  0.42221  0.90111  Biso   1.000  H
  H677     1.0000 0.75312  0.37610  0.94621  Biso   1.000  H
  H678     1.0000 0.71900  0.36592  0.89231  Biso   1.000  H
  C487     1.0000 0.93992  0.32110  0.78070  Biso   1.000  C
  H679     1.0000 0.92219  0.40109  0.74949  Biso   1.000  H
  H680     1.0000 0.87612  0.44619  0.75312  Biso   1.000  H
  H681     1.0000 0.86590  0.39229  0.71900  Biso   1.000  H
  H682     1.0000 0.75049  0.07781  0.90111  Biso   1.000  H
  H683     1.0000 0.74690  0.12388  0.94621  Biso   1.000  H
  H684     1.0000 0.78098  0.13410  0.89231  Biso   1.000  H
  C488     1.0000 0.72178  0.23889  0.01930  Biso   1.000  C
  C489     1.0000 0.73891  0.98070  0.77820  Biso   1.000  C
  H685     1.0000 0.73091  0.98082  0.69489  Biso   1.000  H
  C490     1.0000 0.79669  0.92768  0.71508  Biso   1.000  C
  C491     1.0000 0.01930  0.27822  0.76111  Biso   1.000  C
  H686     1.0000 0.01918  0.19491  0.76911  Biso   1.000  H
  C492     1.0000 0.07232  0.21510  0.70329  Biso   1.000  C
  H687     1.0000 0.90192  0.27079  0.86909  Biso   1.000  H
  C493     1.0000 0.90729  0.25128  0.88318  Biso   1.000  C
  N71      1.0000 0.78760  0.29731  0.97339  Biso   1.000  N
  H688     1.0000 0.83792  0.24652  0.94452  Biso   1.000  H
  N72      1.0000 0.97339  0.28758  0.79729  Biso   1.000  N
  H689     1.0000 0.94452  0.33790  0.74650  Biso   1.000  H
  C494     1.0000 0.77820  0.26109  0.01930  Biso   1.000  C
  H690     1.0000 0.69489  0.26909  0.01918  Biso   1.000  H
  C495     1.0000 0.71508  0.20331  0.07232  Biso   1.000  C
  H691     1.0000 0.76911  0.98082  0.80509  Biso   1.000  H
  C496     1.0000 0.70329  0.92768  0.78490  Biso   1.000  C
  H692     1.0000 0.81381  0.92752  0.67898  Biso   1.000  H
  H693     1.0000 0.82580  0.92760  0.74258  Biso   1.000  H
  C497     1.0000 0.76140  0.87708  0.72191  Biso   1.000  C
  H694     1.0000 0.01918  0.30511  0.73091  Biso   1.000  H
  C498     1.0000 0.07232  0.28492  0.79669  Biso   1.000  C
  H695     1.0000 0.07248  0.17900  0.68621  Biso   1.000  H
  H696     1.0000 0.07240  0.24260  0.67422  Biso   1.000  H
  C499     1.0000 0.12292  0.22189  0.73858  Biso   1.000  C
  H697     1.0000 0.90111  0.24951  0.92219  Biso   1.000  H
  H698     1.0000 0.94621  0.25310  0.87612  Biso   1.000  H
  H699     1.0000 0.89231  0.21902  0.86590  Biso   1.000  H
  H700     1.0000 0.80509  0.23089  0.01918  Biso   1.000  H
  C500     1.0000 0.78490  0.29671  0.07232  Biso   1.000  C
  H701     1.0000 0.67898  0.18619  0.07248  Biso   1.000  H
  H702     1.0000 0.74258  0.17420  0.07240  Biso   1.000  H
  C501     1.0000 0.72191  0.23860  0.12292  Biso   1.000  C
  H703     1.0000 0.68621  0.92752  0.82100  Biso   1.000  H
  H704     1.0000 0.67422  0.92760  0.75740  Biso   1.000  H
  C502     1.0000 0.73858  0.87708  0.77811  Biso   1.000  C
  H705     1.0000 0.73180  0.87741  0.69501  Biso   1.000  H
  H706     1.0000 0.78340  0.84422  0.71601  Biso   1.000  H
  H707     1.0000 0.07248  0.32102  0.81381  Biso   1.000  H
  H708     1.0000 0.07240  0.25742  0.82580  Biso   1.000  H
  C503     1.0000 0.12292  0.27809  0.76140  Biso   1.000  C
  H709     1.0000 0.12259  0.19499  0.76818  Biso   1.000  H
  H710     1.0000 0.15578  0.21599  0.71662  Biso   1.000  H
  H711     1.0000 0.82100  0.31379  0.07248  Biso   1.000  H
  H712     1.0000 0.75740  0.32578  0.07240  Biso   1.000  H
  C504     1.0000 0.77811  0.26142  0.12292  Biso   1.000  C
  H713     1.0000 0.69501  0.26820  0.12259  Biso   1.000  H
  H714     1.0000 0.71601  0.21660  0.15578  Biso   1.000  H
  H715     1.0000 0.76818  0.87741  0.80501  Biso   1.000  H
  H716     1.0000 0.71662  0.84422  0.78401  Biso   1.000  H
  H717     1.0000 0.12259  0.30499  0.73180  Biso   1.000  H
  H718     1.0000 0.15578  0.28399  0.78340  Biso   1.000  H
  H719     1.0000 0.80501  0.23182  0.12259  Biso   1.000  H
  H720     1.0000 0.78401  0.28338  0.15578  Biso   1.000  H
  C505     1.0000 0.25128  0.61680  0.59269  Biso   1.000  C
  C506     1.0000 0.30119  0.63949  0.61979  Biso   1.000  C
  H721     1.0000 0.27079  0.63089  0.59810  Biso   1.000  H
  H722     1.0000 0.24951  0.57779  0.59891  Biso   1.000  H
  H723     1.0000 0.25310  0.62390  0.55381  Biso   1.000  H
  H724     1.0000 0.21902  0.63408  0.60771  Biso   1.000  H
  C507     1.0000 0.33471  0.68512  0.60771  Biso   1.000  C
  C508     1.0000 0.31488  0.60771  0.66529  Biso   1.000  C
  C509     1.0000 0.32110  0.71928  0.56010  Biso   1.000  C
  C510     1.0000 0.38021  0.69881  0.63949  Biso   1.000  C
  C511     1.0000 0.36051  0.61979  0.69881  Biso   1.000  C
  C512     1.0000 0.28072  0.56010  0.67890  Biso   1.000  C
  N73      1.0000 0.28758  0.70269  0.52659  Biso   1.000  N
  H725     1.0000 0.33790  0.75348  0.55550  Biso   1.000  H
  C513     1.0000 0.39229  0.66529  0.68512  Biso   1.000  C
  H726     1.0000 0.40190  0.72921  0.63089  Biso   1.000  H
  C514     1.0000 0.40731  0.74872  0.61680  Biso   1.000  C
  H727     1.0000 0.36911  0.59810  0.72921  Biso   1.000  H
  C515     1.0000 0.38320  0.59269  0.74872  Biso   1.000  C
  N74      1.0000 0.29731  0.52659  0.71242  Biso   1.000  N
  H728     1.0000 0.24652  0.55550  0.66210  Biso   1.000  H
  C516     1.0000 0.27822  0.73891  0.48072  Biso   1.000  C
  C517     1.0000 0.43990  0.67890  0.71928  Biso   1.000  C
  H729     1.0000 0.40109  0.75049  0.57779  Biso   1.000  H
  H730     1.0000 0.44619  0.74690  0.62390  Biso   1.000  H
  H731     1.0000 0.39229  0.78098  0.63408  Biso   1.000  H
  H732     1.0000 0.42221  0.59891  0.75049  Biso   1.000  H
  H733     1.0000 0.37610  0.55381  0.74690  Biso   1.000  H
  H734     1.0000 0.36592  0.60771  0.78098  Biso   1.000  H
  C518     1.0000 0.26109  0.48072  0.72178  Biso   1.000  C
  C519     1.0000 0.28492  0.70329  0.42770  Biso   1.000  C
  C520     1.0000 0.22180  0.76111  0.48072  Biso   1.000  C
  H735     1.0000 0.30511  0.76911  0.48080  Biso   1.000  H
  N75      1.0000 0.47341  0.71242  0.70269  Biso   1.000  N
  H736     1.0000 0.44450  0.66210  0.75348  Biso   1.000  H
  C521     1.0000 0.23889  0.48072  0.77820  Biso   1.000  C
  H737     1.0000 0.23089  0.48080  0.69489  Biso   1.000  H
  C522     1.0000 0.29671  0.42770  0.71508  Biso   1.000  C
  H738     1.0000 0.32102  0.68621  0.42750  Biso   1.000  H
  H739     1.0000 0.25742  0.67422  0.42762  Biso   1.000  H
  C523     1.0000 0.27809  0.73858  0.37710  Biso   1.000  C
  N76      1.0000 0.21240  0.79729  0.52659  Biso   1.000  N
  H740     1.0000 0.19491  0.73091  0.48080  Biso   1.000  H
  C524     1.0000 0.21510  0.79669  0.42770  Biso   1.000  C
  C525     1.0000 0.51928  0.72178  0.73891  Biso   1.000  C
  N77      1.0000 0.20271  0.52659  0.78760  Biso   1.000  N
  H741     1.0000 0.26909  0.48080  0.80509  Biso   1.000  H
  C526     1.0000 0.20331  0.42770  0.78490  Biso   1.000  C
  H742     1.0000 0.31379  0.42750  0.67898  Biso   1.000  H
  H743     1.0000 0.32578  0.42762  0.74258  Biso   1.000  H
  C527     1.0000 0.26142  0.37710  0.72191  Biso   1.000  C
  C528     1.0000 0.22189  0.76140  0.37710  Biso   1.000  C
  H744     1.0000 0.30499  0.76818  0.37739  Biso   1.000  H
  H745     1.0000 0.28399  0.71662  0.34420  Biso   1.000  H
  C529     1.0000 0.17888  0.78070  0.56010  Biso   1.000  C
  H746     1.0000 0.17900  0.81381  0.42750  Biso   1.000  H
  H747     1.0000 0.24260  0.82580  0.42762  Biso   1.000  H
  C530     1.0000 0.51928  0.77820  0.76111  Biso   1.000  C
  H748     1.0000 0.51920  0.69489  0.76911  Biso   1.000  H
  C531     1.0000 0.57230  0.71508  0.70329  Biso   1.000  C
  C532     1.0000 0.21930  0.56010  0.82112  Biso   1.000  C
  H749     1.0000 0.18619  0.42750  0.82100  Biso   1.000  H
  H750     1.0000 0.17420  0.42762  0.75740  Biso   1.000  H
  C533     1.0000 0.23860  0.37710  0.77811  Biso   1.000  C
  H751     1.0000 0.23182  0.37739  0.69501  Biso   1.000  H
  H752     1.0000 0.28338  0.34420  0.71601  Biso   1.000  H
  H753     1.0000 0.19499  0.73180  0.37739  Biso   1.000  H
  H754     1.0000 0.21599  0.78340  0.34420  Biso   1.000  H
  C534     1.0000 0.16531  0.81490  0.60771  Biso   1.000  C
  H755     1.0000 0.16208  0.74650  0.55550  Biso   1.000  H
  N78      1.0000 0.47341  0.78760  0.79729  Biso   1.000  N
  H756     1.0000 0.51920  0.80509  0.73091  Biso   1.000  H
  C535     1.0000 0.57230  0.78490  0.79669  Biso   1.000  C
  H757     1.0000 0.57250  0.67898  0.68621  Biso   1.000  H
  H758     1.0000 0.57238  0.74258  0.67422  Biso   1.000  H
  C536     1.0000 0.62290  0.72191  0.73858  Biso   1.000  C
  C537     1.0000 0.18510  0.60771  0.83469  Biso   1.000  C
  H759     1.0000 0.25350  0.55550  0.83792  Biso   1.000  H
  H760     1.0000 0.26820  0.37739  0.80501  Biso   1.000  H
  H761     1.0000 0.21660  0.34420  0.78401  Biso   1.000  H
  C538     1.0000 0.11981  0.80121  0.63949  Biso   1.000  C
  C539     1.0000 0.19879  0.86049  0.61979  Biso   1.000  C
  C540     1.0000 0.43990  0.82112  0.78070  Biso   1.000  C
  H762     1.0000 0.57250  0.82100  0.81381  Biso   1.000  H
  H763     1.0000 0.57238  0.75740  0.82580  Biso   1.000  H
  C541     1.0000 0.62290  0.77811  0.76140  Biso   1.000  C
  H764     1.0000 0.62261  0.69501  0.76818  Biso   1.000  H
  H765     1.0000 0.65580  0.71601  0.71662  Biso   1.000  H
  C542     1.0000 0.13951  0.61979  0.80121  Biso   1.000  C
  C543     1.0000 0.19879  0.63949  0.88019  Biso   1.000  C
  C544     1.0000 0.10769  0.83469  0.68512  Biso   1.000  C
  H766     1.0000 0.09808  0.77081  0.63089  Biso   1.000  H
  C545     1.0000 0.09271  0.75130  0.61680  Biso   1.000  C
  C546     1.0000 0.18510  0.89231  0.66529  Biso   1.000  C
  H767     1.0000 0.22919  0.86909  0.59810  Biso   1.000  H
  C547     1.0000 0.24870  0.88318  0.59269  Biso   1.000  C
  C548     1.0000 0.39229  0.83469  0.81490  Biso   1.000  C
  H768     1.0000 0.44450  0.83792  0.74650  Biso   1.000  H
  H769     1.0000 0.62261  0.80501  0.73180  Biso   1.000  H
  H770     1.0000 0.65580  0.78401  0.78340  Biso   1.000  H
  C549     1.0000 0.10769  0.66529  0.81490  Biso   1.000  C
  H771     1.0000 0.13091  0.59810  0.77081  Biso   1.000  H
  C550     1.0000 0.11682  0.59269  0.75130  Biso   1.000  C
  C551     1.0000 0.16531  0.68512  0.89231  Biso   1.000  C
  H772     1.0000 0.22919  0.63089  0.90192  Biso   1.000  H
  C552     1.0000 0.24870  0.61680  0.90729  Biso   1.000  C
  C553     1.0000 0.06008  0.82112  0.71928  Biso   1.000  C
  C554     1.0000 0.13951  0.88019  0.69881  Biso   1.000  C
  H773     1.0000 0.09889  0.74949  0.57779  Biso   1.000  H
  H774     1.0000 0.05379  0.75312  0.62390  Biso   1.000  H
  H775     1.0000 0.10769  0.71900  0.63408  Biso   1.000  H
  C555     1.0000 0.21930  0.93992  0.67890  Biso   1.000  C
  H776     1.0000 0.25051  0.92219  0.59891  Biso   1.000  H
  H777     1.0000 0.24688  0.87612  0.55381  Biso   1.000  H
  H778     1.0000 0.28100  0.86590  0.60771  Biso   1.000  H
  C556     1.0000 0.36051  0.88019  0.80121  Biso   1.000  C
  C557     1.0000 0.38021  0.80121  0.86049  Biso   1.000  C
  C558     1.0000 0.06008  0.67890  0.78070  Biso   1.000  C
  C559     1.0000 0.11981  0.69881  0.86049  Biso   1.000  C
  H779     1.0000 0.07781  0.59891  0.74949  Biso   1.000  H
  H780     1.0000 0.12388  0.55381  0.75312  Biso   1.000  H
  H781     1.0000 0.13410  0.60771  0.71900  Biso   1.000  H
  C560     1.0000 0.17888  0.71928  0.93992  Biso   1.000  C
  H782     1.0000 0.25051  0.57779  0.90111  Biso   1.000  H
  H783     1.0000 0.24688  0.62390  0.94621  Biso   1.000  H
  H784     1.0000 0.28100  0.63408  0.89231  Biso   1.000  H
  N79      1.0000 0.02661  0.78760  0.70269  Biso   1.000  N
  H785     1.0000 0.05548  0.83792  0.75348  Biso   1.000  H
  H786     1.0000 0.13091  0.90192  0.72921  Biso   1.000  H
  C561     1.0000 0.11682  0.90729  0.74872  Biso   1.000  C
  N80      1.0000 0.20271  0.97339  0.71242  Biso   1.000  N
  H787     1.0000 0.25350  0.94452  0.66210  Biso   1.000  H
  C562     1.0000 0.31488  0.89231  0.83469  Biso   1.000  C
  H788     1.0000 0.36911  0.90192  0.77081  Biso   1.000  H
  C563     1.0000 0.38320  0.90729  0.75130  Biso   1.000  C
  C564     1.0000 0.33471  0.81490  0.89231  Biso   1.000  C
  H789     1.0000 0.40190  0.77081  0.86909  Biso   1.000  H
  C565     1.0000 0.40731  0.75130  0.88318  Biso   1.000  C
  N81      1.0000 0.02661  0.71242  0.79729  Biso   1.000  N
  H790     1.0000 0.05548  0.66210  0.74650  Biso   1.000  H
  H791     1.0000 0.09808  0.72921  0.86909  Biso   1.000  H
  C566     1.0000 0.09271  0.74872  0.88318  Biso   1.000  C
  N82      1.0000 0.21240  0.70269  0.97339  Biso   1.000  N
  H792     1.0000 0.16208  0.75348  0.94452  Biso   1.000  H
  C567     1.0000 0.98070  0.77820  0.73891  Biso   1.000  C
  H793     1.0000 0.07781  0.90111  0.75049  Biso   1.000  H
  H794     1.0000 0.12388  0.94621  0.74690  Biso   1.000  H
  H795     1.0000 0.13410  0.89231  0.78098  Biso   1.000  H
  C568     1.0000 0.23889  0.01930  0.72178  Biso   1.000  C
  C569     1.0000 0.28072  0.93992  0.82112  Biso   1.000  C
  C570     1.0000 0.30119  0.86049  0.88019  Biso   1.000  C
  H796     1.0000 0.42221  0.90111  0.74949  Biso   1.000  H
  H797     1.0000 0.37610  0.94621  0.75312  Biso   1.000  H
  H798     1.0000 0.36592  0.89231  0.71900  Biso   1.000  H
  C571     1.0000 0.32110  0.78070  0.93992  Biso   1.000  C
  H799     1.0000 0.40109  0.74949  0.92219  Biso   1.000  H
  H800     1.0000 0.44619  0.75312  0.87612  Biso   1.000  H
  H801     1.0000 0.39229  0.71900  0.86590  Biso   1.000  H
  C572     1.0000 0.98070  0.72178  0.76111  Biso   1.000  C
  H802     1.0000 0.09889  0.75049  0.92219  Biso   1.000  H
  H803     1.0000 0.05379  0.74690  0.87612  Biso   1.000  H
  H804     1.0000 0.10769  0.78098  0.86590  Biso   1.000  H
  C573     1.0000 0.22180  0.73891  0.01930  Biso   1.000  C
  H805     1.0000 0.98082  0.80509  0.76911  Biso   1.000  H
  C574     1.0000 0.92768  0.78490  0.70329  Biso   1.000  C
  C575     1.0000 0.26109  0.01930  0.77820  Biso   1.000  C
  H806     1.0000 0.26909  0.01918  0.69489  Biso   1.000  H
  C576     1.0000 0.20331  0.07232  0.71508  Biso   1.000  C
  N83      1.0000 0.29731  0.97339  0.78760  Biso   1.000  N
  H807     1.0000 0.24652  0.94452  0.83792  Biso   1.000  H
  H808     1.0000 0.27079  0.86909  0.90192  Biso   1.000  H
  C577     1.0000 0.25128  0.88318  0.90729  Biso   1.000  C
  N84      1.0000 0.28758  0.79729  0.97339  Biso   1.000  N
  H809     1.0000 0.33790  0.74650  0.94452  Biso   1.000  H
  H810     1.0000 0.98082  0.69489  0.73091  Biso   1.000  H
  C578     1.0000 0.92768  0.71508  0.79669  Biso   1.000  C
  C579     1.0000 0.27822  0.76111  0.01930  Biso   1.000  C
  H811     1.0000 0.19491  0.76911  0.01918  Biso   1.000  H
  C580     1.0000 0.21510  0.70329  0.07232  Biso   1.000  C
  H812     1.0000 0.92752  0.82100  0.68621  Biso   1.000  H
  H813     1.0000 0.92760  0.75740  0.67422  Biso   1.000  H
  C581     1.0000 0.87708  0.77811  0.73858  Biso   1.000  C
  H814     1.0000 0.23089  0.01918  0.80509  Biso   1.000  H
  C582     1.0000 0.29671  0.07232  0.78490  Biso   1.000  C
  H815     1.0000 0.18619  0.07248  0.67898  Biso   1.000  H
  H816     1.0000 0.17420  0.07240  0.74258  Biso   1.000  H
  C583     1.0000 0.23860  0.12292  0.72191  Biso   1.000  C
  H817     1.0000 0.24951  0.92219  0.90111  Biso   1.000  H
  H818     1.0000 0.25310  0.87612  0.94621  Biso   1.000  H
  H819     1.0000 0.21902  0.86590  0.89231  Biso   1.000  H
  H820     1.0000 0.92752  0.67898  0.81381  Biso   1.000  H
  H821     1.0000 0.92760  0.74258  0.82580  Biso   1.000  H
  C584     1.0000 0.87708  0.72191  0.76140  Biso   1.000  C
  H822     1.0000 0.30511  0.73091  0.01918  Biso   1.000  H
  C585     1.0000 0.28492  0.79669  0.07232  Biso   1.000  C
  H823     1.0000 0.17900  0.68621  0.07248  Biso   1.000  H
  H824     1.0000 0.24260  0.67422  0.07240  Biso   1.000  H
  C586     1.0000 0.22189  0.73858  0.12292  Biso   1.000  C
  H825     1.0000 0.87741  0.80501  0.76818  Biso   1.000  H
  H826     1.0000 0.84422  0.78401  0.71662  Biso   1.000  H
  H827     1.0000 0.31379  0.07248  0.82100  Biso   1.000  H
  H828     1.0000 0.32578  0.07240  0.75740  Biso   1.000  H
  C587     1.0000 0.26142  0.12292  0.77811  Biso   1.000  C
  H829     1.0000 0.26820  0.12259  0.69501  Biso   1.000  H
  H830     1.0000 0.21660  0.15578  0.71601  Biso   1.000  H
  H831     1.0000 0.87741  0.69501  0.73180  Biso   1.000  H
  H832     1.0000 0.84422  0.71601  0.78340  Biso   1.000  H
  H833     1.0000 0.32102  0.81381  0.07248  Biso   1.000  H
  H834     1.0000 0.25742  0.82580  0.07240  Biso   1.000  H
  C588     1.0000 0.27809  0.76140  0.12292  Biso   1.000  C
  H835     1.0000 0.19499  0.76818  0.12259  Biso   1.000  H
  H836     1.0000 0.21599  0.71662  0.15578  Biso   1.000  H
  H837     1.0000 0.23182  0.12259  0.80501  Biso   1.000  H
  H838     1.0000 0.28338  0.15578  0.78401  Biso   1.000  H
  H839     1.0000 0.30499  0.73180  0.12259  Biso   1.000  H
  H840     1.0000 0.28399  0.78340  0.15578  Biso   1.000  H
  Ne1      1.0000 0.25000  0.25000  0.25000  Biso   1.000  Ne
  He1      1.0000 0.15191  0.34809  0.34810  Biso   1.000  He
  He2      1.0000 0.34747  0.15254  0.34746  Biso   1.000  He
  He3      1.0000 0.15131  0.15130  0.15131  Biso   1.000  He
  He4      1.0000 0.34959  0.34961  0.15041  Biso   1.000  He
  Ar1      1.0000 0.25000  0.25000  0.25000  Biso   1.000  Ar
  Ne2      1.0000 0.50000  0.50000  0.00000  Biso   1.000  Ne
  He5      1.0000 0.40131  0.40130  0.09870  Biso   1.000  He
  He6      1.0000 0.59847  0.59848  0.09848  Biso   1.000  He
  He7      1.0000 0.40135  0.59866  0.90134  Biso   1.000  He
  He8      1.0000 0.59651  0.40348  0.90348  Biso   1.000  He
  Ar2      1.0000 0.50000  0.50000  0.00000  Biso   1.000  Ar
  Ne3      1.0000 0.50000  0.00000  0.50000  Biso   1.000  Ne
  He9      1.0000 0.40129  0.90128  0.59871  Biso   1.000  He
  He10     1.0000 0.59848  0.09848  0.59847  Biso   1.000  He
  He11     1.0000 0.40134  0.09867  0.40135  Biso   1.000  He
  He12     1.0000 0.59650  0.90349  0.40350  Biso   1.000  He
  Ar3      1.0000 0.50000  0.00000  0.50000  Biso   1.000  Ar
  Ne4      1.0000 0.00000  0.50000  0.50000  Biso   1.000  Ne
  He13     1.0000 0.90130  0.40131  0.59870  Biso   1.000  He
  He14     1.0000 0.09850  0.59849  0.59849  Biso   1.000  He
  He15     1.0000 0.90132  0.59867  0.40133  Biso   1.000  He
  He16     1.0000 0.09651  0.40350  0.40350  Biso   1.000  He
  Ar4      1.0000 0.00000  0.50000  0.50000  Biso   1.000  Ar
  Ne5      1.0000 0.75000  0.75000  0.25000  Biso   1.000  Ne
  He17     1.0000 0.65188  0.84810  0.34810  Biso   1.000  He
  He18     1.0000 0.84747  0.65253  0.34749  Biso   1.000  He
  He19     1.0000 0.65131  0.65129  0.15131  Biso   1.000  He
  He20     1.0000 0.84960  0.84960  0.15040  Biso   1.000  He
  Ar5      1.0000 0.75000  0.75000  0.25000  Biso   1.000  Ar
  Ne6      1.0000 0.75000  0.25000  0.75000  Biso   1.000  Ne
  He21     1.0000 0.65191  0.34810  0.84809  Biso   1.000  He
  He22     1.0000 0.84746  0.15254  0.84746  Biso   1.000  He
  He23     1.0000 0.65128  0.15130  0.65130  Biso   1.000  He
  He24     1.0000 0.84959  0.34960  0.65039  Biso   1.000  He
  Ar6      1.0000 0.75000  0.25000  0.75000  Biso   1.000  Ar
  Ne7      1.0000 0.25000  0.75000  0.75000  Biso   1.000  Ne
  He25     1.0000 0.15191  0.84809  0.84809  Biso   1.000  He
  He26     1.0000 0.34746  0.65253  0.84746  Biso   1.000  He
  He27     1.0000 0.15131  0.65131  0.65130  Biso   1.000  He
  He28     1.0000 0.34962  0.84961  0.65039  Biso   1.000  He
  Ar7      1.0000 0.25000  0.75000  0.75000  Biso   1.000  Ar
