data_image0
_cell_length_a       26.8
_cell_length_b       26.8
_cell_length_c       11.403
_cell_angle_alpha    90
_cell_angle_beta     90
_cell_angle_gamma    120

_symmetry_space_group_name_H-M    "P 1"
_symmetry_int_tables_number       1

loop_
  _symmetry_equiv_pos_as_xyz
  'x, y, z'

loop_
  _atom_site_label
  _atom_site_occupancy
  _atom_site_fract_x
  _atom_site_fract_y
  _atom_site_fract_z
  _atom_site_thermal_displace_type
  _atom_site_B_iso_or_equiv
  _atom_site_type_symbol
  C1       1.0000 0.79874  0.31315  0.44602  Biso   1.000  C
  C2       1.0000 0.78535  0.35921  0.48645  Biso   1.000  C
  H1       1.0000 0.76353  0.27907  0.42427  Biso   1.000  H
  H2       1.0000 0.82413  0.32706  0.37964  Biso   1.000  H
  H3       1.0000 0.81683  0.30419  0.50864  Biso   1.000  H
  C3       1.0000 0.72420  0.34563  0.48356  Biso   1.000  C
  N1       1.0000 0.82265  0.40970  0.52153  Biso   1.000  N
  C4       1.0000 0.71141  0.39006  0.48286  Biso   1.000  C
  C5       1.0000 0.67866  0.28859  0.48286  Biso   1.000  C
  C6       1.0000 0.88425  0.42948  0.52653  Biso   1.000  C
  C7       1.0000 0.65435  0.37855  0.48356  Biso   1.000  C
  H4       1.0000 0.74134  0.42806  0.48189  Biso   1.000  H
  C8       1.0000 0.62144  0.27579  0.48356  Biso   1.000  C
  H5       1.0000 0.68673  0.25869  0.48189  Biso   1.000  H
  C9       1.0000 0.91654  0.48248  0.44988  Biso   1.000  C
  C10      1.0000 0.90394  0.44146  0.65509  Biso   1.000  C
  H6       1.0000 0.89064  0.39897  0.49636  Biso   1.000  H
  C11      1.0000 0.64080  0.42616  0.48645  Biso   1.000  C
  C12      1.0000 0.60992  0.32133  0.48286  Biso   1.000  C
  C13      1.0000 0.57386  0.21465  0.48645  Biso   1.000  C
  N2       1.0000 0.89930  0.46576  0.32746  Biso   1.000  N
  H7       1.0000 0.90723  0.51208  0.47356  Biso   1.000  H
  C14      1.0000 0.98242  0.50656  0.45970  Biso   1.000  C
  C15      1.0000 0.96822  0.46606  0.66465  Biso   1.000  C
  H8       1.0000 0.89375  0.46839  0.68833  Biso   1.000  H
  H9       1.0000 0.88435  0.40587  0.69947  Biso   1.000  H
  N3       1.0000 0.59027  0.41293  0.52153  Biso   1.000  N
  C16      1.0000 0.68686  0.48558  0.44602  Biso   1.000  C
  H10      1.0000 0.57194  0.31328  0.48189  Biso   1.000  H
  N4       1.0000 0.58707  0.17734  0.52153  Biso   1.000  N
  C17      1.0000 0.51443  0.20125  0.44602  Biso   1.000  C
  C18      1.0000 0.87334  0.48489  0.26677  Biso   1.000  C
  H11      1.0000 0.99204  0.47937  0.42480  Biso   1.000  H
  H12      1.0000 0.00264  0.54236  0.41603  Biso   1.000  H
  C19      1.0000 0.00264  0.51737  0.58686  Biso   1.000  C
  H13      1.0000 0.97982  0.47726  0.74533  Biso   1.000  H
  H14      1.0000 0.97733  0.43637  0.64474  Biso   1.000  H
  C20      1.0000 0.57052  0.45477  0.52653  Biso   1.000  C
  H15      1.0000 0.72092  0.48446  0.42427  Biso   1.000  H
  H16      1.0000 0.67294  0.49708  0.37964  Biso   1.000  H
  H17      1.0000 0.69585  0.51268  0.50864  Biso   1.000  H
  C21      1.0000 0.54524  0.11577  0.52653  Biso   1.000  C
  H18      1.0000 0.51554  0.23646  0.42427  Biso   1.000  H
  H19      1.0000 0.50294  0.17588  0.37964  Biso   1.000  H
  H20      1.0000 0.48733  0.18316  0.50864  Biso   1.000  H
  C22      1.0000 0.85382  0.45787  0.14628  Biso   1.000  C
  C23      1.0000 0.85623  0.52806  0.30457  Biso   1.000  C
  H21      1.0000 0.99985  0.54978  0.61677  Biso   1.000  H
  H22      1.0000 0.04283  0.52767  0.58984  Biso   1.000  H
  C24      1.0000 0.51751  0.43405  0.44988  Biso   1.000  C
  C25      1.0000 0.55856  0.46248  0.65509  Biso   1.000  C
  H23      1.0000 0.60101  0.49165  0.49636  Biso   1.000  H
  C26      1.0000 0.56595  0.08346  0.44988  Biso   1.000  C
  C27      1.0000 0.53756  0.09608  0.65509  Biso   1.000  C
  H24      1.0000 0.50833  0.10935  0.49636  Biso   1.000  H
  C28      1.0000 0.83395  0.48118  0.06051  Biso   1.000  C
  C29      1.0000 0.85343  0.40716  0.12014  Biso   1.000  C
  H25      1.0000 0.83706  0.53508  0.24108  Biso   1.000  H
  H26      1.0000 0.83086  0.51328  0.37069  Biso   1.000  H
  H27      1.0000 0.89013  0.56348  0.32588  Biso   1.000  H
  N5       1.0000 0.53423  0.43353  0.32746  Biso   1.000  N
  H28      1.0000 0.48793  0.39518  0.47356  Biso   1.000  H
  C30      1.0000 0.49343  0.47588  0.45970  Biso   1.000  C
  C31      1.0000 0.53392  0.50217  0.66465  Biso   1.000  C
  H29      1.0000 0.53165  0.42539  0.68833  Biso   1.000  H
  H30      1.0000 0.59412  0.47847  0.69947  Biso   1.000  H
  N6       1.0000 0.56647  0.10069  0.32746  Biso   1.000  N
  H31      1.0000 0.60481  0.09276  0.47356  Biso   1.000  H
  C32      1.0000 0.52413  0.01758  0.45970  Biso   1.000  C
  C33      1.0000 0.49782  0.03175  0.66465  Biso   1.000  C
  H32      1.0000 0.57462  0.10625  0.68833  Biso   1.000  H
  H33      1.0000 0.52154  0.11569  0.69947  Biso   1.000  H
  C34      1.0000 0.81353  0.45318  0.95308  Biso   1.000  C
  H34      1.0000 0.83423  0.51548  0.07516  Biso   1.000  H
  C35      1.0000 0.83424  0.37937  0.01491  Biso   1.000  C
  H35      1.0000 0.86675  0.39148  0.17627  Biso   1.000  H
  C36      1.0000 0.51513  0.38846  0.26677  Biso   1.000  C
  H36      1.0000 0.52063  0.51268  0.42480  Biso   1.000  H
  H37      1.0000 0.45764  0.46029  0.41603  Biso   1.000  H
  C37      1.0000 0.48264  0.48528  0.58686  Biso   1.000  C
  H38      1.0000 0.52273  0.50255  0.74533  Biso   1.000  H
  H39      1.0000 0.56363  0.54099  0.64474  Biso   1.000  H
  C38      1.0000 0.61155  0.12667  0.26677  Biso   1.000  C
  H40      1.0000 0.48734  0.00797  0.42480  Biso   1.000  H
  H41      1.0000 0.53973  0.99737  0.41603  Biso   1.000  H
  C39      1.0000 0.51473  0.99737  0.58686  Biso   1.000  C
  H42      1.0000 0.49743  0.02016  0.74533  Biso   1.000  H
  H43      1.0000 0.45902  0.02266  0.64474  Biso   1.000  H
  C40      1.0000 0.78983  0.47795  0.86319  Biso   1.000  C
  C41      1.0000 0.81501  0.40406  0.92984  Biso   1.000  C
  C42      1.0000 0.83273  0.32366  0.98904  Biso   1.000  C
  C43      1.0000 0.47193  0.32818  0.30457  Biso   1.000  C
  C44      1.0000 0.54212  0.39596  0.14628  Biso   1.000  C
  H44      1.0000 0.47233  0.51518  0.58984  Biso   1.000  H
  H45      1.0000 0.45022  0.45007  0.61677  Biso   1.000  H
  C45      1.0000 0.60401  0.14615  0.14628  Biso   1.000  C
  C46      1.0000 0.67185  0.14378  0.30457  Biso   1.000  C
  H46      1.0000 0.54994  0.00017  0.61677  Biso   1.000  H
  H47      1.0000 0.48482  0.95717  0.58984  Biso   1.000  H
  N7       1.0000 0.80524  0.53168  0.87363  Biso   1.000  N
  C47      1.0000 0.74773  0.43517  0.77348  Biso   1.000  C
  H48      1.0000 0.80313  0.38657  0.85688  Biso   1.000  H
  C48      1.0000 0.83211  0.28885  0.09296  Biso   1.000  C
  N8       1.0000 0.83064  0.30918  0.88407  Biso   1.000  N
  H49      1.0000 0.46493  0.30195  0.24108  Biso   1.000  H
  H50      1.0000 0.48674  0.31759  0.37069  Biso   1.000  H
  H51      1.0000 0.43655  0.32668  0.32588  Biso   1.000  H
  C49      1.0000 0.59284  0.44628  0.12014  Biso   1.000  C
  C50      1.0000 0.51886  0.35279  0.06051  Biso   1.000  C
  C51      1.0000 0.55374  0.14658  0.12014  Biso   1.000  C
  C52      1.0000 0.64724  0.16605  0.06051  Biso   1.000  C
  H52      1.0000 0.69804  0.16295  0.24108  Biso   1.000  H
  H53      1.0000 0.68241  0.16916  0.37069  Biso   1.000  H
  H54      1.0000 0.67333  0.10987  0.32588  Biso   1.000  H
  C53      1.0000 0.78623  0.55925  0.79006  Biso   1.000  C
  H55      1.0000 0.74412  0.39816  0.78558  Biso   1.000  H
  H56      1.0000 0.71074  0.43215  0.78278  Biso   1.000  H
  H57      1.0000 0.76185  0.44848  0.69569  Biso   1.000  H
  H58      1.0000 0.83412  0.30905  0.16390  Biso   1.000  H
  H59      1.0000 0.79725  0.25218  0.09243  Biso   1.000  H
  H60      1.0000 0.86471  0.28316  0.08884  Biso   1.000  H
  C54      1.0000 0.83102  0.25645  0.84978  Biso   1.000  C
  H61      1.0000 0.60854  0.47528  0.17627  Biso   1.000  H
  C55      1.0000 0.62064  0.45486  0.01491  Biso   1.000  C
  H62      1.0000 0.48452  0.31875  0.07516  Biso   1.000  H
  C56      1.0000 0.54683  0.36037  0.95308  Biso   1.000  C
  C57      1.0000 0.54511  0.16575  0.01491  Biso   1.000  C
  H63      1.0000 0.52473  0.13326  0.17627  Biso   1.000  H
  C58      1.0000 0.63966  0.18648  0.95308  Biso   1.000  C
  H64      1.0000 0.68123  0.16575  0.07516  Biso   1.000  H
  C59      1.0000 0.74354  0.57455  0.84978  Biso   1.000  C
  C60      1.0000 0.83804  0.61518  0.74761  Biso   1.000  C
  H65      1.0000 0.76753  0.53358  0.72341  Biso   1.000  H
  C61      1.0000 0.77303  0.21375  0.79006  Biso   1.000  C
  H66      1.0000 0.83641  0.23835  0.91967  Biso   1.000  H
  C62      1.0000 0.88064  0.27217  0.76436  Biso   1.000  C
  C63      1.0000 0.59592  0.41095  0.92984  Biso   1.000  C
  C64      1.0000 0.67632  0.50906  0.98904  Biso   1.000  C
  C65      1.0000 0.52201  0.31186  0.86319  Biso   1.000  C
  C66      1.0000 0.49094  0.16726  0.98904  Biso   1.000  C
  C67      1.0000 0.58905  0.18497  0.92984  Biso   1.000  C
  C68      1.0000 0.68815  0.21017  0.86319  Biso   1.000  C
  N9       1.0000 0.69085  0.52147  0.88407  Biso   1.000  N
  H67      1.0000 0.76165  0.59807  0.91967  Biso   1.000  H
  C69      1.0000 0.72781  0.60846  0.76436  Biso   1.000  C
  C70      1.0000 0.82042  0.65025  0.66781  Biso   1.000  C
  H68      1.0000 0.86373  0.60605  0.70473  Biso   1.000  H
  H69      1.0000 0.85881  0.63845  0.81487  Biso   1.000  H
  N10      1.0000 0.72644  0.19475  0.87363  Biso   1.000  N
  C71      1.0000 0.77714  0.16196  0.74761  Biso   1.000  C
  H70      1.0000 0.76604  0.23245  0.72341  Biso   1.000  H
  H71      1.0000 0.87615  0.29238  0.69824  Biso   1.000  H
  H72      1.0000 0.91643  0.29867  0.80339  Biso   1.000  H
  C72      1.0000 0.88564  0.22396  0.71955  Biso   1.000  C
  H73      1.0000 0.61343  0.41655  0.85688  Biso   1.000  H
  C73      1.0000 0.71115  0.54327  0.09296  Biso   1.000  C
  C74      1.0000 0.56484  0.31259  0.77348  Biso   1.000  C
  N11      1.0000 0.46834  0.27355  0.87363  Biso   1.000  N
  N12      1.0000 0.47853  0.16937  0.88407  Biso   1.000  N
  C75      1.0000 0.45673  0.16786  0.09296  Biso   1.000  C
  H74      1.0000 0.58343  0.19686  0.85688  Biso   1.000  H
  C76      1.0000 0.68744  0.25227  0.77348  Biso   1.000  C
  H75      1.0000 0.70763  0.58377  0.69824  Biso   1.000  H
  H76      1.0000 0.70135  0.61776  0.80339  Biso   1.000  H
  C77      1.0000 0.77602  0.66167  0.71955  Biso   1.000  C
  H77      1.0000 0.85442  0.68675  0.64974  Biso   1.000  H
  H78      1.0000 0.80572  0.62966  0.59449  Biso   1.000  H
  C78      1.0000 0.82983  0.17958  0.66781  Biso   1.000  C
  H79      1.0000 0.74236  0.13628  0.70473  Biso   1.000  H
  H80      1.0000 0.77964  0.14115  0.81487  Biso   1.000  H
  H81      1.0000 0.89645  0.20707  0.78286  Biso   1.000  H
  H82      1.0000 0.91562  0.23766  0.66035  Biso   1.000  H
  H83      1.0000 0.69094  0.52509  0.16390  Biso   1.000  H
  H84      1.0000 0.74784  0.54508  0.09243  Biso   1.000  H
  H85      1.0000 0.71683  0.58157  0.08884  Biso   1.000  H
  H86      1.0000 0.60183  0.34598  0.78558  Biso   1.000  H
  H87      1.0000 0.56782  0.27855  0.78278  Biso   1.000  H
  H88      1.0000 0.55153  0.31336  0.69569  Biso   1.000  H
  C79      1.0000 0.44073  0.22698  0.79006  Biso   1.000  C
  C80      1.0000 0.42542  0.16898  0.84978  Biso   1.000  C
  H89      1.0000 0.47496  0.16588  0.16390  Biso   1.000  H
  H90      1.0000 0.45493  0.20276  0.09243  Biso   1.000  H
  H91      1.0000 0.41841  0.13525  0.08884  Biso   1.000  H
  H92      1.0000 0.65403  0.25589  0.78558  Biso   1.000  H
  H93      1.0000 0.72143  0.28928  0.78278  Biso   1.000  H
  H94      1.0000 0.68663  0.23818  0.69569  Biso   1.000  H
  H95      1.0000 0.79293  0.68937  0.78286  Biso   1.000  H
  H96      1.0000 0.76234  0.67796  0.66035  Biso   1.000  H
  H97      1.0000 0.83235  0.14559  0.64974  Biso   1.000  H
  H98      1.0000 0.82393  0.19427  0.59449  Biso   1.000  H
  C81      1.0000 0.38484  0.22288  0.74761  Biso   1.000  C
  H99      1.0000 0.46642  0.23396  0.72341  Biso   1.000  H
  H100     1.0000 0.40193  0.16355  0.91967  Biso   1.000  H
  C82      1.0000 0.39154  0.11935  0.76436  Biso   1.000  C
  C83      1.0000 0.34974  0.17015  0.66781  Biso   1.000  C
  H101     1.0000 0.39394  0.25765  0.70473  Biso   1.000  H
  H102     1.0000 0.36154  0.22038  0.81487  Biso   1.000  H
  H103     1.0000 0.41623  0.12387  0.69824  Biso   1.000  H
  H104     1.0000 0.38224  0.08359  0.80339  Biso   1.000  H
  C84      1.0000 0.33833  0.11435  0.71955  Biso   1.000  C
  H105     1.0000 0.31323  0.16765  0.64974  Biso   1.000  H
  H106     1.0000 0.37034  0.17605  0.59449  Biso   1.000  H
  H107     1.0000 0.31063  0.10358  0.78286  Biso   1.000  H
  H108     1.0000 0.32203  0.08436  0.66035  Biso   1.000  H
  C85      1.0000 0.92619  0.11297  0.78681  Biso   1.000  C
  C86      1.0000 0.87547  0.06265  0.81294  Biso   1.000  C
  H109     1.0000 0.94186  0.14192  0.84294  Biso   1.000  H
  C87      1.0000 0.95398  0.12155  0.68158  Biso   1.000  C
  H110     1.0000 0.94188  0.14197  0.84294  Biso   1.000  H
  C88      1.0000 0.85220  0.01947  0.72718  Biso   1.000  C
  C89      1.0000 0.92617  0.11293  0.78681  Biso   1.000  C
  C90      1.0000 0.85218  0.01943  0.72718  Biso   1.000  C
  C91      1.0000 0.84847  0.05515  0.93344  Biso   1.000  C
  C92      1.0000 0.92927  0.07764  0.59651  Biso   1.000  C
  C93      1.0000 0.00966  0.17575  0.65570  Biso   1.000  C
  C94      1.0000 0.88015  0.02701  0.61975  Biso   1.000  C
  C95      1.0000 0.88017  0.02706  0.61975  Biso   1.000  C
  H111     1.0000 0.81787  0.98544  0.74182  Biso   1.000  H
  N13      1.0000 0.86755  0.10017  0.99412  Biso   1.000  N
  N14      1.0000 0.86757  0.10022  0.99412  Biso   1.000  N
  C96      1.0000 0.80525  0.99483  0.97124  Biso   1.000  C
  C97      1.0000 0.80527  0.99487  0.97124  Biso   1.000  C
  H112     1.0000 0.94677  0.08324  0.52355  Biso   1.000  H
  N15      1.0000 0.02417  0.18811  0.55073  Biso   1.000  N
  C98      1.0000 0.04447  0.20991  0.75962  Biso   1.000  C
  N16      1.0000 0.02419  0.18816  0.55073  Biso   1.000  N
  C99      1.0000 0.04449  0.20996  0.75962  Biso   1.000  C
  C100     1.0000 0.85535  0.97854  0.52986  Biso   1.000  C
  C101     1.0000 0.85085  0.10073  0.11655  Biso   1.000  C
  H113     1.0000 0.79827  0.96863  0.90774  Biso   1.000  H
  H114     1.0000 0.76987  0.99332  0.99255  Biso   1.000  H
  H115     1.0000 0.76989  0.99336  0.99255  Biso   1.000  H
  H116     1.0000 0.82006  0.98423  0.03736  Biso   1.000  H
  H117     1.0000 0.82008  0.98427  0.03736  Biso   1.000  H
  C102     1.0000 0.07689  0.24124  0.51644  Biso   1.000  C
  H118     1.0000 0.02426  0.19173  0.83057  Biso   1.000  H
  H119     1.0000 0.08116  0.21172  0.75910  Biso   1.000  H
  H120     1.0000 0.05015  0.24822  0.75550  Biso   1.000  H
  H121     1.0000 0.02428  0.19178  0.83057  Biso   1.000  H
  H122     1.0000 0.08118  0.21177  0.75910  Biso   1.000  H
  H123     1.0000 0.05018  0.24826  0.75550  Biso   1.000  H
  C103     1.0000 0.89816  0.97923  0.44015  Biso   1.000  C
  N17      1.0000 0.80169  0.94024  0.54030  Biso   1.000  N
  H124     1.0000 0.82125  0.06183  0.14023  Biso   1.000  H
  C104     1.0000 0.82675  0.14253  0.12637  Biso   1.000  C
  C105     1.0000 0.90384  0.12142  0.19319  Biso   1.000  C
  H125     1.0000 0.82127  0.06187  0.14023  Biso   1.000  H
  C106     1.0000 0.82677  0.14257  0.12637  Biso   1.000  C
  C107     1.0000 0.90386  0.12146  0.19319  Biso   1.000  C
  H126     1.0000 0.09497  0.26472  0.58634  Biso   1.000  H
  C108     1.0000 0.06116  0.27515  0.43103  Biso   1.000  C
  C109     1.0000 0.11958  0.22594  0.45672  Biso   1.000  C
  H127     1.0000 0.09499  0.26476  0.58634  Biso   1.000  H
  H128     1.0000 0.93516  0.01262  0.45225  Biso   1.000  H
  H129     1.0000 0.93518  0.01267  0.45225  Biso   1.000  H
  H130     1.0000 0.90116  0.94524  0.44944  Biso   1.000  H
  H131     1.0000 0.88488  0.98005  0.36236  Biso   1.000  H
  C110     1.0000 0.77405  0.89362  0.45672  Biso   1.000  C
  C111     1.0000 0.77407  0.89366  0.45672  Biso   1.000  C
  H132     1.0000 0.85395  0.17932  0.09147  Biso   1.000  H
  H133     1.0000 0.79097  0.12693  0.08270  Biso   1.000  H
  C112     1.0000 0.81596  0.15192  0.25353  Biso   1.000  C
  H134     1.0000 0.85397  0.17937  0.09147  Biso   1.000  H
  H135     1.0000 0.79099  0.12697  0.08270  Biso   1.000  H
  C113     1.0000 0.81598  0.15196  0.25353  Biso   1.000  C
  N18      1.0000 0.92362  0.07962  0.18820  Biso   1.000  N
  C114     1.0000 0.89188  0.12913  0.32176  Biso   1.000  C
  H136     1.0000 0.93436  0.15834  0.16303  Biso   1.000  H
  C115     1.0000 0.89190  0.12917  0.32176  Biso   1.000  C
  H137     1.0000 0.04095  0.25041  0.36490  Biso   1.000  H
  H138     1.0000 0.03469  0.28445  0.47005  Biso   1.000  H
  C116     1.0000 0.10934  0.32831  0.38621  Biso   1.000  C
  H139     1.0000 0.04098  0.25046  0.36490  Biso   1.000  H
  C117     1.0000 0.10937  0.32836  0.38621  Biso   1.000  C
  N19      1.0000 0.13857  0.19832  0.54030  Biso   1.000  N
  C118     1.0000 0.17136  0.28182  0.41428  Biso   1.000  C
  H140     1.0000 0.10086  0.20022  0.39007  Biso   1.000  H
  N20      1.0000 0.13859  0.19837  0.54030  Biso   1.000  N
  C119     1.0000 0.17138  0.28187  0.41428  Biso   1.000  C
  H141     1.0000 0.10088  0.20026  0.39007  Biso   1.000  H
  C120     1.0000 0.75875  0.83563  0.51644  Biso   1.000  C
  C121     1.0000 0.71816  0.88953  0.41428  Biso   1.000  C
  H142     1.0000 0.79976  0.90064  0.39007  Biso   1.000  H
  C122     1.0000 0.75877  0.83567  0.51644  Biso   1.000  C
  C123     1.0000 0.71818  0.88957  0.41428  Biso   1.000  C
  H143     1.0000 0.80565  0.18182  0.25651  Biso   1.000  H
  H144     1.0000 0.78355  0.11672  0.28343  Biso   1.000  H
  C124     1.0000 0.86726  0.16885  0.33132  Biso   1.000  C
  H145     1.0000 0.80567  0.18187  0.25651  Biso   1.000  H
  H146     1.0000 0.78357  0.11676  0.28343  Biso   1.000  H
  C125     1.0000 0.97413  0.09281  0.15312  Biso   1.000  C
  C126     1.0000 0.97415  0.09285  0.15312  Biso   1.000  C
  H147     1.0000 0.86497  0.09203  0.35499  Biso   1.000  H
  H148     1.0000 0.92744  0.14511  0.36613  Biso   1.000  H
  H149     1.0000 0.86499  0.09207  0.35499  Biso   1.000  H
  H150     1.0000 0.92747  0.14516  0.36613  Biso   1.000  H
  H151     1.0000 0.12626  0.35602  0.44953  Biso   1.000  H
  H152     1.0000 0.09568  0.34464  0.32702  Biso   1.000  H
  C127     1.0000 0.15377  0.31694  0.33447  Biso   1.000  C
  H153     1.0000 0.12628  0.35606  0.44953  Biso   1.000  H
  C128     1.0000 0.12318  0.14464  0.52986  Biso   1.000  C
  H154     1.0000 0.19708  0.27273  0.37139  Biso   1.000  H
  H155     1.0000 0.19216  0.30513  0.48154  Biso   1.000  H
  N21      1.0000 0.81185  0.83602  0.55073  Biso   1.000  N
  H156     1.0000 0.73527  0.83024  0.58634  Biso   1.000  H
  C129     1.0000 0.72488  0.78604  0.43103  Biso   1.000  C
  N22      1.0000 0.81187  0.83606  0.55073  Biso   1.000  N
  C130     1.0000 0.68308  0.83683  0.33447  Biso   1.000  C
  H157     1.0000 0.72728  0.92434  0.37139  Biso   1.000  H
  H158     1.0000 0.69486  0.88703  0.48154  Biso   1.000  H
  H159     1.0000 0.69488  0.88707  0.48154  Biso   1.000  H
  H160     1.0000 0.85608  0.16924  0.41200  Biso   1.000  H
  H161     1.0000 0.89695  0.20763  0.31141  Biso   1.000  H
  H162     1.0000 0.89697  0.20767  0.31141  Biso   1.000  H
  C131     1.0000 0.98767  0.04520  0.15022  Biso   1.000  C
  C132     1.0000 0.98769  0.04524  0.15022  Biso   1.000  C
  C133     1.0000 0.02018  0.15222  0.11269  Biso   1.000  C
  C134     1.0000 0.02020  0.15227  0.11269  Biso   1.000  C
  H163     1.0000 0.18776  0.35343  0.31641  Biso   1.000  H
  H164     1.0000 0.13907  0.29634  0.26116  Biso   1.000  H
  C135     1.0000 0.14685  0.11982  0.61975  Biso   1.000  C
  C136     1.0000 0.08106  0.10181  0.44015  Biso   1.000  C
  C137     1.0000 0.14687  0.11986  0.61975  Biso   1.000  C
  C138     1.0000 0.08108  0.10185  0.44015  Biso   1.000  C
  C139     1.0000 0.82429  0.83395  0.65570  Biso   1.000  C
  H165     1.0000 0.74955  0.79052  0.36490  Biso   1.000  H
  H166     1.0000 0.71556  0.75023  0.47005  Biso   1.000  H
  C140     1.0000 0.67168  0.78104  0.38621  Biso   1.000  C
  H167     1.0000 0.74957  0.79056  0.36490  Biso   1.000  H
  H168     1.0000 0.71558  0.75027  0.47005  Biso   1.000  H
  H169     1.0000 0.64657  0.83433  0.31641  Biso   1.000  H
  H170     1.0000 0.70368  0.84274  0.26116  Biso   1.000  H
  C141     1.0000 0.94326  0.98802  0.14952  Biso   1.000  C
  C142     1.0000 0.04475  0.05674  0.14952  Biso   1.000  C
  H171     1.0000 0.05427  0.15115  0.09094  Biso   1.000  H
  H172     1.0000 0.00627  0.16373  0.04630  Biso   1.000  H
  H173     1.0000 0.02918  0.17932  0.17530  Biso   1.000  H
  H174     1.0000 0.00629  0.16377  0.04630  Biso   1.000  H
  H175     1.0000 0.02920  0.17937  0.17530  Biso   1.000  H
  C143     1.0000 0.14836  0.07075  0.59651  Biso   1.000  C
  C144     1.0000 0.16727  0.14783  0.72718  Biso   1.000  C
  C145     1.0000 0.16729  0.14787  0.72718  Biso   1.000  C
  H176     1.0000 0.07746  0.06484  0.45225  Biso   1.000  H
  H177     1.0000 0.04408  0.09884  0.44944  Biso   1.000  H
  H178     1.0000 0.09517  0.11513  0.36236  Biso   1.000  H
  H179     1.0000 0.09520  0.11517  0.36236  Biso   1.000  H
  C146     1.0000 0.87846  0.83244  0.68158  Biso   1.000  C
  C147     1.0000 0.79007  0.83455  0.75962  Biso   1.000  C
  H180     1.0000 0.64395  0.77022  0.44953  Biso   1.000  H
  H181     1.0000 0.65538  0.75105  0.32702  Biso   1.000  H
  H182     1.0000 0.64398  0.77027  0.44953  Biso   1.000  H
  H183     1.0000 0.90526  0.97992  0.14856  Biso   1.000  H
  C148     1.0000 0.95478  0.94248  0.15022  Biso   1.000  C
  H184     1.0000 0.90528  0.97997  0.14856  Biso   1.000  H
  H185     1.0000 0.07469  0.09475  0.14856  Biso   1.000  H
  C149     1.0000 0.05754  0.01232  0.15022  Biso   1.000  C
  H186     1.0000 0.13648  0.05325  0.52355  Biso   1.000  H
  C150     1.0000 0.16756  0.04602  0.68158  Biso   1.000  C
  C151     1.0000 0.16758  0.04606  0.68158  Biso   1.000  C
  C152     1.0000 0.18715  0.12452  0.81294  Biso   1.000  C
  H187     1.0000 0.16755  0.18212  0.74182  Biso   1.000  H
  C153     1.0000 0.18717  0.12456  0.81294  Biso   1.000  C
  H188     1.0000 0.16758  0.18217  0.74182  Biso   1.000  H
  C154     1.0000 0.92237  0.85161  0.59651  Biso   1.000  C
  C155     1.0000 0.88706  0.81322  0.78681  Biso   1.000  C
  C156     1.0000 0.92239  0.85166  0.59651  Biso   1.000  C
  C157     1.0000 0.88708  0.81327  0.78681  Biso   1.000  C
  H189     1.0000 0.80828  0.83253  0.83057  Biso   1.000  H
  H190     1.0000 0.78827  0.86945  0.75910  Biso   1.000  H
  H191     1.0000 0.75175  0.80193  0.75550  Biso   1.000  H
  H192     1.0000 0.80830  0.83257  0.83057  Biso   1.000  H
  C158     1.0000 0.90720  0.88134  0.15312  Biso   1.000  C
  C159     1.0000 0.01198  0.95523  0.14952  Biso   1.000  C
  C160     1.0000 0.01200  0.95528  0.14952  Biso   1.000  C
  C161     1.0000 0.11867  0.02585  0.15312  Biso   1.000  C
  C162     1.0000 0.11869  0.02589  0.15312  Biso   1.000  C
  C163     1.0000 0.16607  0.99035  0.65570  Biso   1.000  C
  C164     1.0000 0.18678  0.07385  0.78681  Biso   1.000  C
  C165     1.0000 0.20666  0.15153  0.93344  Biso   1.000  C
  H193     1.0000 0.91677  0.86355  0.52355  Biso   1.000  H
  C166     1.0000 0.97298  0.85312  0.61975  Biso   1.000  C
  C167     1.0000 0.97300  0.85316  0.61975  Biso   1.000  C
  C168     1.0000 0.93735  0.81284  0.81294  Biso   1.000  C
  H194     1.0000 0.85807  0.79995  0.84294  Biso   1.000  H
  N23      1.0000 0.92041  0.84403  0.18820  Biso   1.000  N
  C169     1.0000 0.84778  0.86794  0.11269  Biso   1.000  C
  H195     1.0000 0.02005  0.92533  0.14856  Biso   1.000  H
  H196     1.0000 0.02008  0.92538  0.14856  Biso   1.000  H
  C170     1.0000 0.13208  0.97984  0.11269  Biso   1.000  C
  N24      1.0000 0.15599  0.07639  0.18820  Biso   1.000  N
  N25      1.0000 0.16396  0.97583  0.55073  Biso   1.000  N
  C171     1.0000 0.16545  0.95554  0.75962  Biso   1.000  C
  N26      1.0000 0.16398  0.97587  0.55073  Biso   1.000  N
  H197     1.0000 0.20007  0.05812  0.84294  Biso   1.000  H
  H198     1.0000 0.20009  0.05817  0.84294  Biso   1.000  H
  N27      1.0000 0.23264  0.13245  0.99412  Biso   1.000  N
  C172     1.0000 0.18958  0.19475  0.97124  Biso   1.000  C
  C173     1.0000 0.98059  0.83274  0.72718  Biso   1.000  C
  C174     1.0000 0.02147  0.87682  0.52986  Biso   1.000  C
  C175     1.0000 0.02149  0.87686  0.52986  Biso   1.000  C
  C176     1.0000 0.94487  0.79332  0.93344  Biso   1.000  C
  C177     1.0000 0.94489  0.79336  0.93344  Biso   1.000  C
  C178     1.0000 0.87856  0.78242  0.19319  Biso   1.000  C
  C179     1.0000 0.87858  0.78246  0.19319  Biso   1.000  C
  H199     1.0000 0.84888  0.90314  0.09094  Biso   1.000  H
  H200     1.0000 0.83626  0.84252  0.04630  Biso   1.000  H
  H201     1.0000 0.82067  0.84985  0.17530  Biso   1.000  H
  H202     1.0000 0.83628  0.84256  0.04630  Biso   1.000  H
  H203     1.0000 0.09685  0.94571  0.09094  Biso   1.000  H
  H204     1.0000 0.15747  0.99375  0.04630  Biso   1.000  H
  H205     1.0000 0.15015  0.97083  0.17530  Biso   1.000  H
  H206     1.0000 0.09687  0.94575  0.09094  Biso   1.000  H
  H207     1.0000 0.15018  0.97087  0.17530  Biso   1.000  H
  C180     1.0000 0.21758  0.09612  0.19319  Biso   1.000  C
  C181     1.0000 0.21760  0.09617  0.19319  Biso   1.000  C
  C182     1.0000 0.16437  0.92313  0.51644  Biso   1.000  C
  H208     1.0000 0.16746  0.97574  0.83057  Biso   1.000  H
  H209     1.0000 0.13057  0.91883  0.75910  Biso   1.000  H
  H210     1.0000 0.19806  0.94985  0.75550  Biso   1.000  H
  H211     1.0000 0.13059  0.91887  0.75910  Biso   1.000  H
  C183     1.0000 0.24986  0.14912  0.11655  Biso   1.000  C
  C184     1.0000 0.24988  0.14916  0.11655  Biso   1.000  C
  H212     1.0000 0.17038  0.20173  0.90774  Biso   1.000  H
  H213     1.0000 0.22346  0.23012  0.99255  Biso   1.000  H
  H214     1.0000 0.17040  0.20177  0.90774  Biso   1.000  H
  H215     1.0000 0.22348  0.23016  0.99255  Biso   1.000  H
  H216     1.0000 0.16418  0.17993  0.03736  Biso   1.000  H
  H217     1.0000 0.16420  0.17997  0.03736  Biso   1.000  H
  H218     1.0000 0.01458  0.83244  0.74182  Biso   1.000  H
  N28      1.0000 0.05979  0.86144  0.54030  Biso   1.000  N
  C185     1.0000 0.02076  0.91891  0.44015  Biso   1.000  C
  C186     1.0000 0.02078  0.91896  0.44015  Biso   1.000  C
  N29      1.0000 0.89981  0.76738  0.99412  Biso   1.000  N
  C187     1.0000 0.00517  0.81042  0.97124  Biso   1.000  C
  C188     1.0000 0.00520  0.81047  0.97124  Biso   1.000  C
  C189     1.0000 0.89929  0.75015  0.11655  Biso   1.000  C
  C190     1.0000 0.87088  0.76273  0.32176  Biso   1.000  C
  H219     1.0000 0.84168  0.77604  0.16303  Biso   1.000  H
  C191     1.0000 0.87090  0.76277  0.32176  Biso   1.000  C
  C192     1.0000 0.23728  0.10815  0.32176  Biso   1.000  C
  H220     1.0000 0.22397  0.06562  0.16303  Biso   1.000  H
  H221     1.0000 0.22399  0.06566  0.16303  Biso   1.000  H
  C193     1.0000 0.10638  0.88044  0.45672  Biso   1.000  C
  H222     1.0000 0.16976  0.90504  0.58634  Biso   1.000  H
  C194     1.0000 0.21396  0.93882  0.43103  Biso   1.000  C
  C195     1.0000 0.21398  0.93886  0.43103  Biso   1.000  C
  H223     1.0000 0.24055  0.17872  0.14023  Biso   1.000  H
  C196     1.0000 0.31577  0.17325  0.12637  Biso   1.000  C
  H224     1.0000 0.24058  0.17876  0.14023  Biso   1.000  H
  H225     1.0000 0.98735  0.92253  0.45225  Biso   1.000  H
  H226     1.0000 0.98737  0.92257  0.45225  Biso   1.000  H
  H227     1.0000 0.05475  0.95592  0.44944  Biso   1.000  H
  H228     1.0000 0.01995  0.90482  0.36236  Biso   1.000  H
  H229     1.0000 0.05477  0.95597  0.44944  Biso   1.000  H
  H230     1.0000 0.01997  0.90487  0.36236  Biso   1.000  H
  H231     1.0000 0.03139  0.82964  0.90774  Biso   1.000  H
  H232     1.0000 0.00665  0.77651  0.99255  Biso   1.000  H
  H233     1.0000 0.00667  0.77656  0.99255  Biso   1.000  H
  H234     1.0000 0.01576  0.83584  0.03736  Biso   1.000  H
  H235     1.0000 0.93816  0.75945  0.14023  Biso   1.000  H
  C197     1.0000 0.85745  0.68422  0.12637  Biso   1.000  C
  C198     1.0000 0.85747  0.68427  0.12637  Biso   1.000  C
  C199     1.0000 0.83116  0.69844  0.33132  Biso   1.000  C
  H236     1.0000 0.90796  0.77294  0.35499  Biso   1.000  H
  H237     1.0000 0.85486  0.78233  0.36613  Biso   1.000  H
  H238     1.0000 0.85488  0.78237  0.36613  Biso   1.000  H
  C200     1.0000 0.30156  0.13275  0.33132  Biso   1.000  C
  H239     1.0000 0.22707  0.13503  0.35499  Biso   1.000  H
  H240     1.0000 0.21767  0.07251  0.36613  Biso   1.000  H
  H241     1.0000 0.22709  0.13507  0.35499  Biso   1.000  H
  H242     1.0000 0.21770  0.07256  0.36613  Biso   1.000  H
  C201     1.0000 0.11048  0.82865  0.41428  Biso   1.000  C
  H243     1.0000 0.09938  0.89914  0.39007  Biso   1.000  H
  H244     1.0000 0.20948  0.95903  0.36490  Biso   1.000  H
  H245     1.0000 0.24975  0.96532  0.47005  Biso   1.000  H
  C202     1.0000 0.21898  0.89065  0.38621  Biso   1.000  C
  H246     1.0000 0.20950  0.95907  0.36490  Biso   1.000  H
  H247     1.0000 0.24977  0.96536  0.47005  Biso   1.000  H
  H248     1.0000 0.32536  0.14602  0.09147  Biso   1.000  H
  H249     1.0000 0.33598  0.20905  0.08270  Biso   1.000  H
  C203     1.0000 0.33597  0.18402  0.25353  Biso   1.000  C
  H250     1.0000 0.32538  0.14606  0.09147  Biso   1.000  H
  C204     1.0000 0.33599  0.18406  0.25353  Biso   1.000  C
  H251     1.0000 0.82067  0.67462  0.09147  Biso   1.000  H
  H252     1.0000 0.87305  0.66402  0.08270  Biso   1.000  H
  C205     1.0000 0.84805  0.66402  0.25353  Biso   1.000  C
  H253     1.0000 0.82069  0.67466  0.09147  Biso   1.000  H
  H254     1.0000 0.87307  0.66406  0.08270  Biso   1.000  H
  C206     1.0000 0.84807  0.66406  0.25353  Biso   1.000  C
  H255     1.0000 0.83078  0.68685  0.41200  Biso   1.000  H
  H256     1.0000 0.79236  0.68935  0.31141  Biso   1.000  H
  H257     1.0000 0.31317  0.14395  0.41200  Biso   1.000  H
  H258     1.0000 0.31065  0.10302  0.31141  Biso   1.000  H
  H259     1.0000 0.31067  0.10306  0.31141  Biso   1.000  H
  C207     1.0000 0.16315  0.84623  0.33447  Biso   1.000  C
  H260     1.0000 0.07568  0.80293  0.37139  Biso   1.000  H
  H261     1.0000 0.11299  0.80784  0.48154  Biso   1.000  H
  C208     1.0000 0.16317  0.84627  0.33447  Biso   1.000  C
  H262     1.0000 0.07570  0.80297  0.37139  Biso   1.000  H
  H263     1.0000 0.22977  0.87372  0.44953  Biso   1.000  H
  H264     1.0000 0.24897  0.90435  0.32702  Biso   1.000  H
  H265     1.0000 0.22979  0.87376  0.44953  Biso   1.000  H
  H266     1.0000 0.37615  0.19432  0.25651  Biso   1.000  H
  H267     1.0000 0.33317  0.21642  0.28343  Biso   1.000  H
  H268     1.0000 0.37617  0.19436  0.25651  Biso   1.000  H
  H269     1.0000 0.33319  0.21646  0.28343  Biso   1.000  H
  H270     1.0000 0.81814  0.62382  0.25651  Biso   1.000  H
  H271     1.0000 0.88326  0.66682  0.28343  Biso   1.000  H
  H272     1.0000 0.81820  0.62386  0.25651  Biso   1.000  H
  H273     1.0000 0.88328  0.66686  0.28343  Biso   1.000  H
  H274     1.0000 0.16567  0.81223  0.31641  Biso   1.000  H
  H275     1.0000 0.15725  0.86092  0.26116  Biso   1.000  H
  H276     1.0000 0.16569  0.81227  0.31641  Biso   1.000  H
  H277     1.0000 0.15727  0.86096  0.26116  Biso   1.000  H
  C209     1.0000 0.92619  0.11297  0.78681  Biso   1.000  C
  C210     1.0000 0.87547  0.06265  0.81294  Biso   1.000  C
  C211     1.0000 0.95398  0.12155  0.68158  Biso   1.000  C
  H278     1.0000 0.94186  0.14192  0.84294  Biso   1.000  H
  H279     1.0000 0.94188  0.14197  0.84294  Biso   1.000  H
  C212     1.0000 0.85220  0.01947  0.72718  Biso   1.000  C
  C213     1.0000 0.84847  0.05515  0.93344  Biso   1.000  C
  C214     1.0000 0.92617  0.11293  0.78681  Biso   1.000  C
  C215     1.0000 0.85218  0.01943  0.72718  Biso   1.000  C
  C216     1.0000 0.92927  0.07764  0.59651  Biso   1.000  C
  C217     1.0000 0.00966  0.17575  0.65570  Biso   1.000  C
  C218     1.0000 0.88015  0.02701  0.61975  Biso   1.000  C
  C219     1.0000 0.88017  0.02706  0.61975  Biso   1.000  C
  H280     1.0000 0.81787  0.98544  0.74182  Biso   1.000  H
  N30      1.0000 0.86755  0.10017  0.99412  Biso   1.000  N
  N31      1.0000 0.86757  0.10022  0.99412  Biso   1.000  N
  C220     1.0000 0.80525  0.99483  0.97124  Biso   1.000  C
  C221     1.0000 0.80527  0.99487  0.97124  Biso   1.000  C
  H281     1.0000 0.94677  0.08324  0.52355  Biso   1.000  H
  N32      1.0000 0.02417  0.18811  0.55073  Biso   1.000  N
  C222     1.0000 0.04447  0.20991  0.75962  Biso   1.000  C
  N33      1.0000 0.02419  0.18816  0.55073  Biso   1.000  N
  C223     1.0000 0.04449  0.20996  0.75962  Biso   1.000  C
  C224     1.0000 0.85535  0.97854  0.52986  Biso   1.000  C
  C225     1.0000 0.85085  0.10073  0.11655  Biso   1.000  C
  H282     1.0000 0.79827  0.96863  0.90774  Biso   1.000  H
  H283     1.0000 0.76987  0.99332  0.99255  Biso   1.000  H
  H284     1.0000 0.76989  0.99336  0.99255  Biso   1.000  H
  H285     1.0000 0.82006  0.98423  0.03736  Biso   1.000  H
  H286     1.0000 0.82008  0.98427  0.03736  Biso   1.000  H
  C226     1.0000 0.07689  0.24124  0.51644  Biso   1.000  C
  H287     1.0000 0.02426  0.19173  0.83057  Biso   1.000  H
  H288     1.0000 0.08116  0.21172  0.75910  Biso   1.000  H
  H289     1.0000 0.05015  0.24822  0.75550  Biso   1.000  H
  H290     1.0000 0.02428  0.19178  0.83057  Biso   1.000  H
  H291     1.0000 0.08118  0.21177  0.75910  Biso   1.000  H
  H292     1.0000 0.05018  0.24826  0.75550  Biso   1.000  H
  C227     1.0000 0.89816  0.97923  0.44015  Biso   1.000  C
  N34      1.0000 0.80169  0.94024  0.54030  Biso   1.000  N
  H293     1.0000 0.82125  0.06183  0.14023  Biso   1.000  H
  C228     1.0000 0.82675  0.14253  0.12637  Biso   1.000  C
  C229     1.0000 0.90384  0.12142  0.19319  Biso   1.000  C
  H294     1.0000 0.82127  0.06187  0.14023  Biso   1.000  H
  C230     1.0000 0.82677  0.14257  0.12637  Biso   1.000  C
  C231     1.0000 0.90386  0.12146  0.19319  Biso   1.000  C
  H295     1.0000 0.09497  0.26472  0.58634  Biso   1.000  H
  C232     1.0000 0.06116  0.27515  0.43103  Biso   1.000  C
  C233     1.0000 0.11958  0.22594  0.45672  Biso   1.000  C
  H296     1.0000 0.09499  0.26476  0.58634  Biso   1.000  H
  H297     1.0000 0.93516  0.01262  0.45225  Biso   1.000  H
  H298     1.0000 0.93518  0.01267  0.45225  Biso   1.000  H
  H299     1.0000 0.90116  0.94524  0.44944  Biso   1.000  H
  H300     1.0000 0.88488  0.98005  0.36236  Biso   1.000  H
  C234     1.0000 0.77405  0.89362  0.45672  Biso   1.000  C
  C235     1.0000 0.77407  0.89366  0.45672  Biso   1.000  C
  H301     1.0000 0.85395  0.17932  0.09147  Biso   1.000  H
  H302     1.0000 0.79097  0.12693  0.08270  Biso   1.000  H
  C236     1.0000 0.81596  0.15192  0.25353  Biso   1.000  C
  H303     1.0000 0.85397  0.17937  0.09147  Biso   1.000  H
  H304     1.0000 0.79099  0.12697  0.08270  Biso   1.000  H
  C237     1.0000 0.81598  0.15196  0.25353  Biso   1.000  C
  N35      1.0000 0.92362  0.07962  0.18820  Biso   1.000  N
  C238     1.0000 0.89188  0.12913  0.32176  Biso   1.000  C
  H305     1.0000 0.93436  0.15834  0.16303  Biso   1.000  H
  C239     1.0000 0.89190  0.12917  0.32176  Biso   1.000  C
  H306     1.0000 0.04095  0.25041  0.36490  Biso   1.000  H
  H307     1.0000 0.03469  0.28445  0.47005  Biso   1.000  H
  C240     1.0000 0.10934  0.32831  0.38621  Biso   1.000  C
  H308     1.0000 0.04098  0.25046  0.36490  Biso   1.000  H
  C241     1.0000 0.10937  0.32836  0.38621  Biso   1.000  C
  N36      1.0000 0.13857  0.19832  0.54030  Biso   1.000  N
  C242     1.0000 0.17136  0.28182  0.41428  Biso   1.000  C
  H309     1.0000 0.10086  0.20022  0.39007  Biso   1.000  H
  N37      1.0000 0.13859  0.19837  0.54030  Biso   1.000  N
  C243     1.0000 0.17138  0.28187  0.41428  Biso   1.000  C
  H310     1.0000 0.10088  0.20026  0.39007  Biso   1.000  H
  C244     1.0000 0.75875  0.83563  0.51644  Biso   1.000  C
  C245     1.0000 0.71816  0.88953  0.41428  Biso   1.000  C
  H311     1.0000 0.79976  0.90064  0.39007  Biso   1.000  H
  C246     1.0000 0.75877  0.83567  0.51644  Biso   1.000  C
  C247     1.0000 0.71818  0.88957  0.41428  Biso   1.000  C
  H312     1.0000 0.80565  0.18182  0.25651  Biso   1.000  H
  H313     1.0000 0.78355  0.11672  0.28343  Biso   1.000  H
  C248     1.0000 0.86726  0.16885  0.33132  Biso   1.000  C
  H314     1.0000 0.80567  0.18187  0.25651  Biso   1.000  H
  H315     1.0000 0.78357  0.11676  0.28343  Biso   1.000  H
  C249     1.0000 0.97413  0.09281  0.15312  Biso   1.000  C
  C250     1.0000 0.97415  0.09285  0.15312  Biso   1.000  C
  H316     1.0000 0.86497  0.09203  0.35499  Biso   1.000  H
  H317     1.0000 0.92744  0.14511  0.36613  Biso   1.000  H
  H318     1.0000 0.86499  0.09207  0.35499  Biso   1.000  H
  H319     1.0000 0.92747  0.14516  0.36613  Biso   1.000  H
  H320     1.0000 0.12626  0.35602  0.44953  Biso   1.000  H
  H321     1.0000 0.09568  0.34464  0.32702  Biso   1.000  H
  C251     1.0000 0.15377  0.31694  0.33447  Biso   1.000  C
  H322     1.0000 0.12628  0.35606  0.44953  Biso   1.000  H
  C252     1.0000 0.12318  0.14464  0.52986  Biso   1.000  C
  H323     1.0000 0.19708  0.27273  0.37139  Biso   1.000  H
  H324     1.0000 0.19216  0.30513  0.48154  Biso   1.000  H
  N38      1.0000 0.81185  0.83602  0.55073  Biso   1.000  N
  H325     1.0000 0.73527  0.83024  0.58634  Biso   1.000  H
  C253     1.0000 0.72488  0.78604  0.43103  Biso   1.000  C
  N39      1.0000 0.81187  0.83606  0.55073  Biso   1.000  N
  C254     1.0000 0.68308  0.83683  0.33447  Biso   1.000  C
  H326     1.0000 0.72728  0.92434  0.37139  Biso   1.000  H
  H327     1.0000 0.69486  0.88703  0.48154  Biso   1.000  H
  H328     1.0000 0.69488  0.88707  0.48154  Biso   1.000  H
  H329     1.0000 0.85608  0.16924  0.41200  Biso   1.000  H
  H330     1.0000 0.89695  0.20763  0.31141  Biso   1.000  H
  H331     1.0000 0.89697  0.20767  0.31141  Biso   1.000  H
  C255     1.0000 0.98767  0.04520  0.15022  Biso   1.000  C
  C256     1.0000 0.98769  0.04524  0.15022  Biso   1.000  C
  C257     1.0000 0.02018  0.15222  0.11269  Biso   1.000  C
  C258     1.0000 0.02020  0.15227  0.11269  Biso   1.000  C
  H332     1.0000 0.18776  0.35343  0.31641  Biso   1.000  H
  H333     1.0000 0.13907  0.29634  0.26116  Biso   1.000  H
  C259     1.0000 0.14685  0.11982  0.61975  Biso   1.000  C
  C260     1.0000 0.08106  0.10181  0.44015  Biso   1.000  C
  C261     1.0000 0.14687  0.11986  0.61975  Biso   1.000  C
  C262     1.0000 0.08108  0.10185  0.44015  Biso   1.000  C
  C263     1.0000 0.82429  0.83395  0.65570  Biso   1.000  C
  H334     1.0000 0.74955  0.79052  0.36490  Biso   1.000  H
  H335     1.0000 0.71556  0.75023  0.47005  Biso   1.000  H
  C264     1.0000 0.67168  0.78104  0.38621  Biso   1.000  C
  H336     1.0000 0.74957  0.79056  0.36490  Biso   1.000  H
  H337     1.0000 0.71558  0.75027  0.47005  Biso   1.000  H
  H338     1.0000 0.64657  0.83433  0.31641  Biso   1.000  H
  H339     1.0000 0.70368  0.84274  0.26116  Biso   1.000  H
  C265     1.0000 0.94326  0.98802  0.14952  Biso   1.000  C
  C266     1.0000 0.04475  0.05674  0.14952  Biso   1.000  C
  H340     1.0000 0.05427  0.15115  0.09094  Biso   1.000  H
  H341     1.0000 0.00627  0.16373  0.04630  Biso   1.000  H
  H342     1.0000 0.02918  0.17932  0.17530  Biso   1.000  H
  H343     1.0000 0.00629  0.16377  0.04630  Biso   1.000  H
  H344     1.0000 0.02920  0.17937  0.17530  Biso   1.000  H
  C267     1.0000 0.14836  0.07075  0.59651  Biso   1.000  C
  C268     1.0000 0.16727  0.14783  0.72718  Biso   1.000  C
  C269     1.0000 0.16729  0.14787  0.72718  Biso   1.000  C
  H345     1.0000 0.07746  0.06484  0.45225  Biso   1.000  H
  H346     1.0000 0.04408  0.09884  0.44944  Biso   1.000  H
  H347     1.0000 0.09517  0.11513  0.36236  Biso   1.000  H
  H348     1.0000 0.09520  0.11517  0.36236  Biso   1.000  H
  C270     1.0000 0.87846  0.83244  0.68158  Biso   1.000  C
  C271     1.0000 0.79007  0.83455  0.75962  Biso   1.000  C
  H349     1.0000 0.64395  0.77022  0.44953  Biso   1.000  H
  H350     1.0000 0.65538  0.75105  0.32702  Biso   1.000  H
  H351     1.0000 0.64398  0.77027  0.44953  Biso   1.000  H
  H352     1.0000 0.90526  0.97992  0.14856  Biso   1.000  H
  C272     1.0000 0.95478  0.94248  0.15022  Biso   1.000  C
  H353     1.0000 0.90528  0.97997  0.14856  Biso   1.000  H
  H354     1.0000 0.07469  0.09475  0.14856  Biso   1.000  H
  C273     1.0000 0.05754  0.01232  0.15022  Biso   1.000  C
  H355     1.0000 0.13648  0.05325  0.52355  Biso   1.000  H
  C274     1.0000 0.16756  0.04602  0.68158  Biso   1.000  C
  C275     1.0000 0.16758  0.04606  0.68158  Biso   1.000  C
  C276     1.0000 0.18715  0.12452  0.81294  Biso   1.000  C
  H356     1.0000 0.16755  0.18212  0.74182  Biso   1.000  H
  C277     1.0000 0.18717  0.12456  0.81294  Biso   1.000  C
  H357     1.0000 0.16758  0.18217  0.74182  Biso   1.000  H
  C278     1.0000 0.92237  0.85161  0.59651  Biso   1.000  C
  C279     1.0000 0.88706  0.81322  0.78681  Biso   1.000  C
  C280     1.0000 0.92239  0.85166  0.59651  Biso   1.000  C
  C281     1.0000 0.88708  0.81327  0.78681  Biso   1.000  C
  H358     1.0000 0.80828  0.83253  0.83057  Biso   1.000  H
  H359     1.0000 0.78827  0.86945  0.75910  Biso   1.000  H
  H360     1.0000 0.75175  0.80193  0.75550  Biso   1.000  H
  H361     1.0000 0.80830  0.83257  0.83057  Biso   1.000  H
  C282     1.0000 0.90720  0.88134  0.15312  Biso   1.000  C
  C283     1.0000 0.01198  0.95523  0.14952  Biso   1.000  C
  C284     1.0000 0.01200  0.95528  0.14952  Biso   1.000  C
  C285     1.0000 0.11867  0.02585  0.15312  Biso   1.000  C
  C286     1.0000 0.11869  0.02589  0.15312  Biso   1.000  C
  C287     1.0000 0.16607  0.99035  0.65570  Biso   1.000  C
  C288     1.0000 0.18678  0.07385  0.78681  Biso   1.000  C
  C289     1.0000 0.20666  0.15153  0.93344  Biso   1.000  C
  H362     1.0000 0.91677  0.86355  0.52355  Biso   1.000  H
  C290     1.0000 0.97298  0.85312  0.61975  Biso   1.000  C
  C291     1.0000 0.97300  0.85316  0.61975  Biso   1.000  C
  C292     1.0000 0.93735  0.81284  0.81294  Biso   1.000  C
  H363     1.0000 0.85807  0.79995  0.84294  Biso   1.000  H
  N40      1.0000 0.92041  0.84403  0.18820  Biso   1.000  N
  C293     1.0000 0.84778  0.86794  0.11269  Biso   1.000  C
  H364     1.0000 0.02005  0.92533  0.14856  Biso   1.000  H
  H365     1.0000 0.02008  0.92538  0.14856  Biso   1.000  H
  C294     1.0000 0.13208  0.97984  0.11269  Biso   1.000  C
  N41      1.0000 0.15599  0.07639  0.18820  Biso   1.000  N
  N42      1.0000 0.16396  0.97583  0.55073  Biso   1.000  N
  C295     1.0000 0.16545  0.95554  0.75962  Biso   1.000  C
  N43      1.0000 0.16398  0.97587  0.55073  Biso   1.000  N
  H366     1.0000 0.20007  0.05812  0.84294  Biso   1.000  H
  H367     1.0000 0.20009  0.05817  0.84294  Biso   1.000  H
  N44      1.0000 0.23264  0.13245  0.99412  Biso   1.000  N
  C296     1.0000 0.18958  0.19475  0.97124  Biso   1.000  C
  C297     1.0000 0.98059  0.83274  0.72718  Biso   1.000  C
  C298     1.0000 0.02147  0.87682  0.52986  Biso   1.000  C
  C299     1.0000 0.02149  0.87686  0.52986  Biso   1.000  C
  C300     1.0000 0.94487  0.79332  0.93344  Biso   1.000  C
  C301     1.0000 0.94489  0.79336  0.93344  Biso   1.000  C
  C302     1.0000 0.87856  0.78242  0.19319  Biso   1.000  C
  C303     1.0000 0.87858  0.78246  0.19319  Biso   1.000  C
  H368     1.0000 0.84888  0.90314  0.09094  Biso   1.000  H
  H369     1.0000 0.83626  0.84252  0.04630  Biso   1.000  H
  H370     1.0000 0.82067  0.84985  0.17530  Biso   1.000  H
  H371     1.0000 0.83628  0.84256  0.04630  Biso   1.000  H
  H372     1.0000 0.09685  0.94571  0.09094  Biso   1.000  H
  H373     1.0000 0.15747  0.99375  0.04630  Biso   1.000  H
  H374     1.0000 0.15015  0.97083  0.17530  Biso   1.000  H
  H375     1.0000 0.09687  0.94575  0.09094  Biso   1.000  H
  H376     1.0000 0.15018  0.97087  0.17530  Biso   1.000  H
  C304     1.0000 0.21758  0.09612  0.19319  Biso   1.000  C
  C305     1.0000 0.21760  0.09617  0.19319  Biso   1.000  C
  C306     1.0000 0.16437  0.92313  0.51644  Biso   1.000  C
  H377     1.0000 0.16746  0.97574  0.83057  Biso   1.000  H
  H378     1.0000 0.13057  0.91883  0.75910  Biso   1.000  H
  H379     1.0000 0.19806  0.94985  0.75550  Biso   1.000  H
  H380     1.0000 0.13059  0.91887  0.75910  Biso   1.000  H
  C307     1.0000 0.24986  0.14912  0.11655  Biso   1.000  C
  C308     1.0000 0.24988  0.14916  0.11655  Biso   1.000  C
  H381     1.0000 0.17038  0.20173  0.90774  Biso   1.000  H
  H382     1.0000 0.22346  0.23012  0.99255  Biso   1.000  H
  H383     1.0000 0.17040  0.20177  0.90774  Biso   1.000  H
  H384     1.0000 0.22348  0.23016  0.99255  Biso   1.000  H
  H385     1.0000 0.16418  0.17993  0.03736  Biso   1.000  H
  H386     1.0000 0.16420  0.17997  0.03736  Biso   1.000  H
  H387     1.0000 0.01458  0.83244  0.74182  Biso   1.000  H
  N45      1.0000 0.05979  0.86144  0.54030  Biso   1.000  N
  C309     1.0000 0.02076  0.91891  0.44015  Biso   1.000  C
  C310     1.0000 0.02078  0.91896  0.44015  Biso   1.000  C
  N46      1.0000 0.89981  0.76738  0.99412  Biso   1.000  N
  C311     1.0000 0.00517  0.81042  0.97124  Biso   1.000  C
  C312     1.0000 0.00520  0.81047  0.97124  Biso   1.000  C
  C313     1.0000 0.89929  0.75015  0.11655  Biso   1.000  C
  C314     1.0000 0.87088  0.76273  0.32176  Biso   1.000  C
  H388     1.0000 0.84168  0.77604  0.16303  Biso   1.000  H
  C315     1.0000 0.87090  0.76277  0.32176  Biso   1.000  C
  C316     1.0000 0.23728  0.10815  0.32176  Biso   1.000  C
  H389     1.0000 0.22397  0.06562  0.16303  Biso   1.000  H
  H390     1.0000 0.22399  0.06566  0.16303  Biso   1.000  H
  C317     1.0000 0.10638  0.88044  0.45672  Biso   1.000  C
  H391     1.0000 0.16976  0.90504  0.58634  Biso   1.000  H
  C318     1.0000 0.21396  0.93882  0.43103  Biso   1.000  C
  C319     1.0000 0.21398  0.93886  0.43103  Biso   1.000  C
  H392     1.0000 0.24055  0.17872  0.14023  Biso   1.000  H
  C320     1.0000 0.31577  0.17325  0.12637  Biso   1.000  C
  H393     1.0000 0.24058  0.17876  0.14023  Biso   1.000  H
  H394     1.0000 0.98735  0.92253  0.45225  Biso   1.000  H
  H395     1.0000 0.98737  0.92257  0.45225  Biso   1.000  H
  H396     1.0000 0.05475  0.95592  0.44944  Biso   1.000  H
  H397     1.0000 0.01995  0.90482  0.36236  Biso   1.000  H
  H398     1.0000 0.05477  0.95597  0.44944  Biso   1.000  H
  H399     1.0000 0.01997  0.90487  0.36236  Biso   1.000  H
  H400     1.0000 0.03139  0.82964  0.90774  Biso   1.000  H
  H401     1.0000 0.00665  0.77651  0.99255  Biso   1.000  H
  H402     1.0000 0.00667  0.77656  0.99255  Biso   1.000  H
  H403     1.0000 0.01576  0.83584  0.03736  Biso   1.000  H
  H404     1.0000 0.93816  0.75945  0.14023  Biso   1.000  H
  C321     1.0000 0.85745  0.68422  0.12637  Biso   1.000  C
  C322     1.0000 0.85747  0.68427  0.12637  Biso   1.000  C
  C323     1.0000 0.83116  0.69844  0.33132  Biso   1.000  C
  H405     1.0000 0.90796  0.77294  0.35499  Biso   1.000  H
  H406     1.0000 0.85486  0.78233  0.36613  Biso   1.000  H
  H407     1.0000 0.85488  0.78237  0.36613  Biso   1.000  H
  C324     1.0000 0.30156  0.13275  0.33132  Biso   1.000  C
  H408     1.0000 0.22707  0.13503  0.35499  Biso   1.000  H
  H409     1.0000 0.21767  0.07251  0.36613  Biso   1.000  H
  H410     1.0000 0.22709  0.13507  0.35499  Biso   1.000  H
  H411     1.0000 0.21770  0.07256  0.36613  Biso   1.000  H
  C325     1.0000 0.11048  0.82865  0.41428  Biso   1.000  C
  H412     1.0000 0.09938  0.89914  0.39007  Biso   1.000  H
  H413     1.0000 0.20948  0.95903  0.36490  Biso   1.000  H
  H414     1.0000 0.24975  0.96532  0.47005  Biso   1.000  H
  C326     1.0000 0.21898  0.89065  0.38621  Biso   1.000  C
  H415     1.0000 0.20950  0.95907  0.36490  Biso   1.000  H
  H416     1.0000 0.24977  0.96536  0.47005  Biso   1.000  H
  H417     1.0000 0.32536  0.14602  0.09147  Biso   1.000  H
  H418     1.0000 0.33598  0.20905  0.08270  Biso   1.000  H
  C327     1.0000 0.33597  0.18402  0.25353  Biso   1.000  C
  H419     1.0000 0.32538  0.14606  0.09147  Biso   1.000  H
  C328     1.0000 0.33599  0.18406  0.25353  Biso   1.000  C
  H420     1.0000 0.82067  0.67462  0.09147  Biso   1.000  H
  H421     1.0000 0.87305  0.66402  0.08270  Biso   1.000  H
  C329     1.0000 0.84805  0.66402  0.25353  Biso   1.000  C
  H422     1.0000 0.82069  0.67466  0.09147  Biso   1.000  H
  H423     1.0000 0.87307  0.66406  0.08270  Biso   1.000  H
  C330     1.0000 0.84807  0.66406  0.25353  Biso   1.000  C
  H424     1.0000 0.83078  0.68685  0.41200  Biso   1.000  H
  H425     1.0000 0.79236  0.68935  0.31141  Biso   1.000  H
  H426     1.0000 0.31317  0.14395  0.41200  Biso   1.000  H
  H427     1.0000 0.31065  0.10302  0.31141  Biso   1.000  H
  H428     1.0000 0.31067  0.10306  0.31141  Biso   1.000  H
  C331     1.0000 0.16315  0.84623  0.33447  Biso   1.000  C
  H429     1.0000 0.07568  0.80293  0.37139  Biso   1.000  H
  H430     1.0000 0.11299  0.80784  0.48154  Biso   1.000  H
  C332     1.0000 0.16317  0.84627  0.33447  Biso   1.000  C
  H431     1.0000 0.07570  0.80297  0.37139  Biso   1.000  H
  H432     1.0000 0.22977  0.87372  0.44953  Biso   1.000  H
  H433     1.0000 0.24897  0.90435  0.32702  Biso   1.000  H
  H434     1.0000 0.22979  0.87376  0.44953  Biso   1.000  H
  H435     1.0000 0.37615  0.19432  0.25651  Biso   1.000  H
  H436     1.0000 0.33317  0.21642  0.28343  Biso   1.000  H
  H437     1.0000 0.37617  0.19436  0.25651  Biso   1.000  H
  H438     1.0000 0.33319  0.21646  0.28343  Biso   1.000  H
  H439     1.0000 0.81814  0.62382  0.25651  Biso   1.000  H
  H440     1.0000 0.88326  0.66682  0.28343  Biso   1.000  H
  H441     1.0000 0.81820  0.62386  0.25651  Biso   1.000  H
  H442     1.0000 0.88328  0.66686  0.28343  Biso   1.000  H
  H443     1.0000 0.16567  0.81223  0.31641  Biso   1.000  H
  H444     1.0000 0.15725  0.86092  0.26116  Biso   1.000  H
  H445     1.0000 0.16569  0.81227  0.31641  Biso   1.000  H
  H446     1.0000 0.15727  0.86096  0.26116  Biso   1.000  H
  C333     1.0000 0.92619  0.11297  0.78681  Biso   1.000  C
  C334     1.0000 0.87547  0.06265  0.81294  Biso   1.000  C
  C335     1.0000 0.95398  0.12155  0.68158  Biso   1.000  C
  H447     1.0000 0.94186  0.14192  0.84294  Biso   1.000  H
  H448     1.0000 0.94188  0.14197  0.84294  Biso   1.000  H
  C336     1.0000 0.84847  0.05515  0.93344  Biso   1.000  C
  C337     1.0000 0.92617  0.11293  0.78681  Biso   1.000  C
  C338     1.0000 0.85218  0.01943  0.72718  Biso   1.000  C
  C339     1.0000 0.85220  0.01947  0.72718  Biso   1.000  C
  C340     1.0000 0.92927  0.07764  0.59651  Biso   1.000  C
  C341     1.0000 0.00966  0.17575  0.65570  Biso   1.000  C
  C342     1.0000 0.80525  0.99483  0.97124  Biso   1.000  C
  C343     1.0000 0.80527  0.99487  0.97124  Biso   1.000  C
  N47      1.0000 0.86755  0.10017  0.99412  Biso   1.000  N
  N48      1.0000 0.86757  0.10022  0.99412  Biso   1.000  N
  H449     1.0000 0.81787  0.98544  0.74182  Biso   1.000  H
  C344     1.0000 0.88015  0.02701  0.61975  Biso   1.000  C
  C345     1.0000 0.88017  0.02706  0.61975  Biso   1.000  C
  H450     1.0000 0.94677  0.08324  0.52355  Biso   1.000  H
  N49      1.0000 0.02417  0.18811  0.55073  Biso   1.000  N
  C346     1.0000 0.04447  0.20991  0.75962  Biso   1.000  C
  N50      1.0000 0.02419  0.18816  0.55073  Biso   1.000  N
  C347     1.0000 0.04449  0.20996  0.75962  Biso   1.000  C
  H451     1.0000 0.79827  0.96863  0.90774  Biso   1.000  H
  H452     1.0000 0.76987  0.99332  0.99255  Biso   1.000  H
  H453     1.0000 0.76989  0.99336  0.99255  Biso   1.000  H
  H454     1.0000 0.82006  0.98423  0.03736  Biso   1.000  H
  H455     1.0000 0.82008  0.98427  0.03736  Biso   1.000  H
  C348     1.0000 0.85085  0.10073  0.11655  Biso   1.000  C
  C349     1.0000 0.85535  0.97854  0.52986  Biso   1.000  C
  C350     1.0000 0.07689  0.24124  0.51644  Biso   1.000  C
  H456     1.0000 0.02426  0.19173  0.83057  Biso   1.000  H
  H457     1.0000 0.08116  0.21172  0.75910  Biso   1.000  H
  H458     1.0000 0.05015  0.24822  0.75550  Biso   1.000  H
  H459     1.0000 0.02428  0.19178  0.83057  Biso   1.000  H
  H460     1.0000 0.08118  0.21177  0.75910  Biso   1.000  H
  H461     1.0000 0.05018  0.24826  0.75550  Biso   1.000  H
  H462     1.0000 0.82125  0.06183  0.14023  Biso   1.000  H
  C351     1.0000 0.82675  0.14253  0.12637  Biso   1.000  C
  C352     1.0000 0.90384  0.12142  0.19319  Biso   1.000  C
  H463     1.0000 0.82127  0.06187  0.14023  Biso   1.000  H
  C353     1.0000 0.82677  0.14257  0.12637  Biso   1.000  C
  C354     1.0000 0.90386  0.12146  0.19319  Biso   1.000  C
  C355     1.0000 0.89816  0.97923  0.44015  Biso   1.000  C
  N51      1.0000 0.80169  0.94024  0.54030  Biso   1.000  N
  H464     1.0000 0.09497  0.26472  0.58634  Biso   1.000  H
  C356     1.0000 0.06116  0.27515  0.43103  Biso   1.000  C
  C357     1.0000 0.11958  0.22594  0.45672  Biso   1.000  C
  H465     1.0000 0.09499  0.26476  0.58634  Biso   1.000  H
  H466     1.0000 0.85395  0.17932  0.09147  Biso   1.000  H
  H467     1.0000 0.79097  0.12693  0.08270  Biso   1.000  H
  C358     1.0000 0.81596  0.15192  0.25353  Biso   1.000  C
  H468     1.0000 0.85397  0.17937  0.09147  Biso   1.000  H
  H469     1.0000 0.79099  0.12697  0.08270  Biso   1.000  H
  C359     1.0000 0.81598  0.15196  0.25353  Biso   1.000  C
  N52      1.0000 0.92362  0.07962  0.18820  Biso   1.000  N
  C360     1.0000 0.89188  0.12913  0.32176  Biso   1.000  C
  H470     1.0000 0.93436  0.15834  0.16303  Biso   1.000  H
  C361     1.0000 0.89190  0.12917  0.32176  Biso   1.000  C
  H471     1.0000 0.90116  0.94524  0.44944  Biso   1.000  H
  H472     1.0000 0.88488  0.98005  0.36236  Biso   1.000  H
  H473     1.0000 0.93516  0.01262  0.45225  Biso   1.000  H
  H474     1.0000 0.93518  0.01267  0.45225  Biso   1.000  H
  C362     1.0000 0.77405  0.89362  0.45672  Biso   1.000  C
  C363     1.0000 0.77407  0.89366  0.45672  Biso   1.000  C
  H475     1.0000 0.04095  0.25041  0.36490  Biso   1.000  H
  H476     1.0000 0.03469  0.28445  0.47005  Biso   1.000  H
  C364     1.0000 0.10934  0.32831  0.38621  Biso   1.000  C
  H477     1.0000 0.04098  0.25046  0.36490  Biso   1.000  H
  C365     1.0000 0.10937  0.32836  0.38621  Biso   1.000  C
  N53      1.0000 0.13857  0.19832  0.54030  Biso   1.000  N
  C366     1.0000 0.17136  0.28182  0.41428  Biso   1.000  C
  H478     1.0000 0.10086  0.20022  0.39007  Biso   1.000  H
  N54      1.0000 0.13859  0.19837  0.54030  Biso   1.000  N
  C367     1.0000 0.17138  0.28187  0.41428  Biso   1.000  C
  H479     1.0000 0.10088  0.20026  0.39007  Biso   1.000  H
  H480     1.0000 0.80565  0.18182  0.25651  Biso   1.000  H
  H481     1.0000 0.78355  0.11672  0.28343  Biso   1.000  H
  C368     1.0000 0.86726  0.16885  0.33132  Biso   1.000  C
  H482     1.0000 0.80567  0.18187  0.25651  Biso   1.000  H
  H483     1.0000 0.78357  0.11676  0.28343  Biso   1.000  H
  C369     1.0000 0.97413  0.09281  0.15312  Biso   1.000  C
  C370     1.0000 0.97415  0.09285  0.15312  Biso   1.000  C
  H484     1.0000 0.86497  0.09203  0.35499  Biso   1.000  H
  H485     1.0000 0.92744  0.14511  0.36613  Biso   1.000  H
  H486     1.0000 0.86499  0.09207  0.35499  Biso   1.000  H
  H487     1.0000 0.92747  0.14516  0.36613  Biso   1.000  H
  C371     1.0000 0.75875  0.83563  0.51644  Biso   1.000  C
  C372     1.0000 0.71816  0.88953  0.41428  Biso   1.000  C
  H488     1.0000 0.79976  0.90064  0.39007  Biso   1.000  H
  C373     1.0000 0.75877  0.83567  0.51644  Biso   1.000  C
  C374     1.0000 0.71818  0.88957  0.41428  Biso   1.000  C
  H489     1.0000 0.12626  0.35602  0.44953  Biso   1.000  H
  H490     1.0000 0.09568  0.34464  0.32702  Biso   1.000  H
  C375     1.0000 0.15377  0.31694  0.33447  Biso   1.000  C
  H491     1.0000 0.12628  0.35606  0.44953  Biso   1.000  H
  C376     1.0000 0.12318  0.14464  0.52986  Biso   1.000  C
  H492     1.0000 0.19708  0.27273  0.37139  Biso   1.000  H
  H493     1.0000 0.19216  0.30513  0.48154  Biso   1.000  H
  H494     1.0000 0.85608  0.16924  0.41200  Biso   1.000  H
  H495     1.0000 0.89695  0.20763  0.31141  Biso   1.000  H
  H496     1.0000 0.89697  0.20767  0.31141  Biso   1.000  H
  C377     1.0000 0.98767  0.04520  0.15022  Biso   1.000  C
  C378     1.0000 0.98769  0.04524  0.15022  Biso   1.000  C
  C379     1.0000 0.02018  0.15222  0.11269  Biso   1.000  C
  C380     1.0000 0.02020  0.15227  0.11269  Biso   1.000  C
  N55      1.0000 0.81185  0.83602  0.55073  Biso   1.000  N
  H497     1.0000 0.73527  0.83024  0.58634  Biso   1.000  H
  C381     1.0000 0.72488  0.78604  0.43103  Biso   1.000  C
  N56      1.0000 0.81187  0.83606  0.55073  Biso   1.000  N
  C382     1.0000 0.68308  0.83683  0.33447  Biso   1.000  C
  H498     1.0000 0.72728  0.92434  0.37139  Biso   1.000  H
  H499     1.0000 0.69486  0.88703  0.48154  Biso   1.000  H
  H500     1.0000 0.69488  0.88707  0.48154  Biso   1.000  H
  H501     1.0000 0.18776  0.35343  0.31641  Biso   1.000  H
  H502     1.0000 0.13907  0.29634  0.26116  Biso   1.000  H
  C383     1.0000 0.14685  0.11982  0.61975  Biso   1.000  C
  C384     1.0000 0.08106  0.10181  0.44015  Biso   1.000  C
  C385     1.0000 0.14687  0.11986  0.61975  Biso   1.000  C
  C386     1.0000 0.08108  0.10185  0.44015  Biso   1.000  C
  C387     1.0000 0.94326  0.98802  0.14952  Biso   1.000  C
  C388     1.0000 0.04475  0.05674  0.14952  Biso   1.000  C
  H503     1.0000 0.05427  0.15115  0.09094  Biso   1.000  H
  H504     1.0000 0.00627  0.16373  0.04630  Biso   1.000  H
  H505     1.0000 0.02918  0.17932  0.17530  Biso   1.000  H
  H506     1.0000 0.00629  0.16377  0.04630  Biso   1.000  H
  H507     1.0000 0.02920  0.17937  0.17530  Biso   1.000  H
  C389     1.0000 0.82429  0.83395  0.65570  Biso   1.000  C
  H508     1.0000 0.74955  0.79052  0.36490  Biso   1.000  H
  H509     1.0000 0.71556  0.75023  0.47005  Biso   1.000  H
  C390     1.0000 0.67168  0.78104  0.38621  Biso   1.000  C
  H510     1.0000 0.74957  0.79056  0.36490  Biso   1.000  H
  H511     1.0000 0.71558  0.75027  0.47005  Biso   1.000  H
  H512     1.0000 0.64657  0.83433  0.31641  Biso   1.000  H
  H513     1.0000 0.70368  0.84274  0.26116  Biso   1.000  H
  C391     1.0000 0.14836  0.07075  0.59651  Biso   1.000  C
  C392     1.0000 0.16727  0.14783  0.72718  Biso   1.000  C
  C393     1.0000 0.16729  0.14787  0.72718  Biso   1.000  C
  H514     1.0000 0.07746  0.06484  0.45225  Biso   1.000  H
  H515     1.0000 0.04408  0.09884  0.44944  Biso   1.000  H
  H516     1.0000 0.09517  0.11513  0.36236  Biso   1.000  H
  H517     1.0000 0.09520  0.11517  0.36236  Biso   1.000  H
  H518     1.0000 0.90526  0.97992  0.14856  Biso   1.000  H
  C394     1.0000 0.95478  0.94248  0.15022  Biso   1.000  C
  H519     1.0000 0.90528  0.97997  0.14856  Biso   1.000  H
  H520     1.0000 0.07469  0.09475  0.14856  Biso   1.000  H
  C395     1.0000 0.05754  0.01232  0.15022  Biso   1.000  C
  C396     1.0000 0.87846  0.83244  0.68158  Biso   1.000  C
  C397     1.0000 0.79007  0.83455  0.75962  Biso   1.000  C
  H521     1.0000 0.64395  0.77022  0.44953  Biso   1.000  H
  H522     1.0000 0.65538  0.75105  0.32702  Biso   1.000  H
  H523     1.0000 0.64398  0.77027  0.44953  Biso   1.000  H
  H524     1.0000 0.13648  0.05325  0.52355  Biso   1.000  H
  C398     1.0000 0.16756  0.04602  0.68158  Biso   1.000  C
  C399     1.0000 0.16758  0.04606  0.68158  Biso   1.000  C
  C400     1.0000 0.18715  0.12452  0.81294  Biso   1.000  C
  H525     1.0000 0.16755  0.18212  0.74182  Biso   1.000  H
  C401     1.0000 0.18717  0.12456  0.81294  Biso   1.000  C
  H526     1.0000 0.16758  0.18217  0.74182  Biso   1.000  H
  C402     1.0000 0.90720  0.88134  0.15312  Biso   1.000  C
  C403     1.0000 0.01198  0.95523  0.14952  Biso   1.000  C
  C404     1.0000 0.01200  0.95528  0.14952  Biso   1.000  C
  C405     1.0000 0.11867  0.02585  0.15312  Biso   1.000  C
  C406     1.0000 0.11869  0.02589  0.15312  Biso   1.000  C
  C407     1.0000 0.92237  0.85161  0.59651  Biso   1.000  C
  C408     1.0000 0.88706  0.81322  0.78681  Biso   1.000  C
  C409     1.0000 0.92239  0.85166  0.59651  Biso   1.000  C
  C410     1.0000 0.88708  0.81327  0.78681  Biso   1.000  C
  H527     1.0000 0.80828  0.83253  0.83057  Biso   1.000  H
  H528     1.0000 0.78827  0.86945  0.75910  Biso   1.000  H
  H529     1.0000 0.75175  0.80193  0.75550  Biso   1.000  H
  H530     1.0000 0.80830  0.83257  0.83057  Biso   1.000  H
  C411     1.0000 0.16607  0.99035  0.65570  Biso   1.000  C
  C412     1.0000 0.18678  0.07385  0.78681  Biso   1.000  C
  C413     1.0000 0.20666  0.15153  0.93344  Biso   1.000  C
  N57      1.0000 0.92041  0.84403  0.18820  Biso   1.000  N
  C414     1.0000 0.84778  0.86794  0.11269  Biso   1.000  C
  H531     1.0000 0.02005  0.92533  0.14856  Biso   1.000  H
  H532     1.0000 0.02008  0.92538  0.14856  Biso   1.000  H
  C415     1.0000 0.13208  0.97984  0.11269  Biso   1.000  C
  N58      1.0000 0.15599  0.07639  0.18820  Biso   1.000  N
  H533     1.0000 0.91677  0.86355  0.52355  Biso   1.000  H
  C416     1.0000 0.97298  0.85312  0.61975  Biso   1.000  C
  C417     1.0000 0.97300  0.85316  0.61975  Biso   1.000  C
  C418     1.0000 0.93735  0.81284  0.81294  Biso   1.000  C
  H534     1.0000 0.85807  0.79995  0.84294  Biso   1.000  H
  N59      1.0000 0.16396  0.97583  0.55073  Biso   1.000  N
  C419     1.0000 0.16545  0.95554  0.75962  Biso   1.000  C
  N60      1.0000 0.16398  0.97587  0.55073  Biso   1.000  N
  H535     1.0000 0.20007  0.05812  0.84294  Biso   1.000  H
  H536     1.0000 0.20009  0.05817  0.84294  Biso   1.000  H
  N61      1.0000 0.23264  0.13245  0.99412  Biso   1.000  N
  C420     1.0000 0.18958  0.19475  0.97124  Biso   1.000  C
  C421     1.0000 0.87856  0.78242  0.19319  Biso   1.000  C
  C422     1.0000 0.87858  0.78246  0.19319  Biso   1.000  C
  H537     1.0000 0.84888  0.90314  0.09094  Biso   1.000  H
  H538     1.0000 0.83626  0.84252  0.04630  Biso   1.000  H
  H539     1.0000 0.82067  0.84985  0.17530  Biso   1.000  H
  H540     1.0000 0.83628  0.84256  0.04630  Biso   1.000  H
  H541     1.0000 0.09685  0.94571  0.09094  Biso   1.000  H
  H542     1.0000 0.15747  0.99375  0.04630  Biso   1.000  H
  H543     1.0000 0.15015  0.97083  0.17530  Biso   1.000  H
  H544     1.0000 0.09687  0.94575  0.09094  Biso   1.000  H
  H545     1.0000 0.15018  0.97087  0.17530  Biso   1.000  H
  C423     1.0000 0.21758  0.09612  0.19319  Biso   1.000  C
  C424     1.0000 0.21760  0.09617  0.19319  Biso   1.000  C
  C425     1.0000 0.98059  0.83274  0.72718  Biso   1.000  C
  C426     1.0000 0.02147  0.87682  0.52986  Biso   1.000  C
  C427     1.0000 0.02149  0.87686  0.52986  Biso   1.000  C
  C428     1.0000 0.94487  0.79332  0.93344  Biso   1.000  C
  C429     1.0000 0.94489  0.79336  0.93344  Biso   1.000  C
  C430     1.0000 0.16437  0.92313  0.51644  Biso   1.000  C
  H546     1.0000 0.16746  0.97574  0.83057  Biso   1.000  H
  H547     1.0000 0.13057  0.91883  0.75910  Biso   1.000  H
  H548     1.0000 0.19806  0.94985  0.75550  Biso   1.000  H
  H549     1.0000 0.13059  0.91887  0.75910  Biso   1.000  H
  C431     1.0000 0.24986  0.14912  0.11655  Biso   1.000  C
  C432     1.0000 0.24988  0.14916  0.11655  Biso   1.000  C
  H550     1.0000 0.17038  0.20173  0.90774  Biso   1.000  H
  H551     1.0000 0.22346  0.23012  0.99255  Biso   1.000  H
  H552     1.0000 0.17040  0.20177  0.90774  Biso   1.000  H
  H553     1.0000 0.22348  0.23016  0.99255  Biso   1.000  H
  H554     1.0000 0.16418  0.17993  0.03736  Biso   1.000  H
  H555     1.0000 0.16420  0.17997  0.03736  Biso   1.000  H
  C433     1.0000 0.89929  0.75015  0.11655  Biso   1.000  C
  C434     1.0000 0.87088  0.76273  0.32176  Biso   1.000  C
  H556     1.0000 0.84168  0.77604  0.16303  Biso   1.000  H
  C435     1.0000 0.87090  0.76277  0.32176  Biso   1.000  C
  C436     1.0000 0.23728  0.10815  0.32176  Biso   1.000  C
  H557     1.0000 0.22397  0.06562  0.16303  Biso   1.000  H
  H558     1.0000 0.22399  0.06566  0.16303  Biso   1.000  H
  H559     1.0000 0.01458  0.83244  0.74182  Biso   1.000  H
  N62      1.0000 0.05979  0.86144  0.54030  Biso   1.000  N
  C437     1.0000 0.02076  0.91891  0.44015  Biso   1.000  C
  C438     1.0000 0.02078  0.91896  0.44015  Biso   1.000  C
  N63      1.0000 0.89981  0.76738  0.99412  Biso   1.000  N
  C439     1.0000 0.00517  0.81042  0.97124  Biso   1.000  C
  C440     1.0000 0.00520  0.81047  0.97124  Biso   1.000  C
  C441     1.0000 0.10638  0.88044  0.45672  Biso   1.000  C
  H560     1.0000 0.16976  0.90504  0.58634  Biso   1.000  H
  C442     1.0000 0.21396  0.93882  0.43103  Biso   1.000  C
  C443     1.0000 0.21398  0.93886  0.43103  Biso   1.000  C
  H561     1.0000 0.24055  0.17872  0.14023  Biso   1.000  H
  C444     1.0000 0.31577  0.17325  0.12637  Biso   1.000  C
  H562     1.0000 0.24058  0.17876  0.14023  Biso   1.000  H
  H563     1.0000 0.93816  0.75945  0.14023  Biso   1.000  H
  C445     1.0000 0.85745  0.68422  0.12637  Biso   1.000  C
  C446     1.0000 0.85747  0.68427  0.12637  Biso   1.000  C
  C447     1.0000 0.83116  0.69844  0.33132  Biso   1.000  C
  H564     1.0000 0.90796  0.77294  0.35499  Biso   1.000  H
  H565     1.0000 0.85486  0.78233  0.36613  Biso   1.000  H
  H566     1.0000 0.85488  0.78237  0.36613  Biso   1.000  H
  C448     1.0000 0.30156  0.13275  0.33132  Biso   1.000  C
  H567     1.0000 0.22707  0.13503  0.35499  Biso   1.000  H
  H568     1.0000 0.21767  0.07251  0.36613  Biso   1.000  H
  H569     1.0000 0.22709  0.13507  0.35499  Biso   1.000  H
  H570     1.0000 0.21770  0.07256  0.36613  Biso   1.000  H
  H571     1.0000 0.98735  0.92253  0.45225  Biso   1.000  H
  H572     1.0000 0.98737  0.92257  0.45225  Biso   1.000  H
  H573     1.0000 0.05475  0.95592  0.44944  Biso   1.000  H
  H574     1.0000 0.01995  0.90482  0.36236  Biso   1.000  H
  H575     1.0000 0.05477  0.95597  0.44944  Biso   1.000  H
  H576     1.0000 0.01997  0.90487  0.36236  Biso   1.000  H
  H577     1.0000 0.03139  0.82964  0.90774  Biso   1.000  H
  H578     1.0000 0.00665  0.77651  0.99255  Biso   1.000  H
  H579     1.0000 0.00667  0.77656  0.99255  Biso   1.000  H
  H580     1.0000 0.01576  0.83584  0.03736  Biso   1.000  H
  C449     1.0000 0.11048  0.82865  0.41428  Biso   1.000  C
  H581     1.0000 0.09938  0.89914  0.39007  Biso   1.000  H
  H582     1.0000 0.20948  0.95903  0.36490  Biso   1.000  H
  H583     1.0000 0.24975  0.96532  0.47005  Biso   1.000  H
  C450     1.0000 0.21898  0.89065  0.38621  Biso   1.000  C
  H584     1.0000 0.20950  0.95907  0.36490  Biso   1.000  H
  H585     1.0000 0.24977  0.96536  0.47005  Biso   1.000  H
  H586     1.0000 0.32536  0.14602  0.09147  Biso   1.000  H
  H587     1.0000 0.33598  0.20905  0.08270  Biso   1.000  H
  C451     1.0000 0.33597  0.18402  0.25353  Biso   1.000  C
  H588     1.0000 0.32538  0.14606  0.09147  Biso   1.000  H
  C452     1.0000 0.33599  0.18406  0.25353  Biso   1.000  C
  H589     1.0000 0.82067  0.67462  0.09147  Biso   1.000  H
  H590     1.0000 0.87305  0.66402  0.08270  Biso   1.000  H
  C453     1.0000 0.84805  0.66402  0.25353  Biso   1.000  C
  H591     1.0000 0.82069  0.67466  0.09147  Biso   1.000  H
  H592     1.0000 0.87307  0.66406  0.08270  Biso   1.000  H
  C454     1.0000 0.84807  0.66406  0.25353  Biso   1.000  C
  H593     1.0000 0.83078  0.68685  0.41200  Biso   1.000  H
  H594     1.0000 0.79236  0.68935  0.31141  Biso   1.000  H
  H595     1.0000 0.31317  0.14395  0.41200  Biso   1.000  H
  H596     1.0000 0.31065  0.10302  0.31141  Biso   1.000  H
  H597     1.0000 0.31067  0.10306  0.31141  Biso   1.000  H
  C455     1.0000 0.16315  0.84623  0.33447  Biso   1.000  C
  H598     1.0000 0.07568  0.80293  0.37139  Biso   1.000  H
  H599     1.0000 0.11299  0.80784  0.48154  Biso   1.000  H
  C456     1.0000 0.16317  0.84627  0.33447  Biso   1.000  C
  H600     1.0000 0.07570  0.80297  0.37139  Biso   1.000  H
  H601     1.0000 0.22977  0.87372  0.44953  Biso   1.000  H
  H602     1.0000 0.24897  0.90435  0.32702  Biso   1.000  H
  H603     1.0000 0.22979  0.87376  0.44953  Biso   1.000  H
  H604     1.0000 0.37615  0.19432  0.25651  Biso   1.000  H
  H605     1.0000 0.33317  0.21642  0.28343  Biso   1.000  H
  H606     1.0000 0.37617  0.19436  0.25651  Biso   1.000  H
  H607     1.0000 0.33319  0.21646  0.28343  Biso   1.000  H
  H608     1.0000 0.81814  0.62382  0.25651  Biso   1.000  H
  H609     1.0000 0.88326  0.66682  0.28343  Biso   1.000  H
  H610     1.0000 0.81820  0.62386  0.25651  Biso   1.000  H
  H611     1.0000 0.88328  0.66686  0.28343  Biso   1.000  H
  H612     1.0000 0.16567  0.81223  0.31641  Biso   1.000  H
  H613     1.0000 0.15725  0.86092  0.26116  Biso   1.000  H
  H614     1.0000 0.16569  0.81227  0.31641  Biso   1.000  H
  H615     1.0000 0.15727  0.86096  0.26116  Biso   1.000  H
  C457     1.0000 0.92619  0.11297  0.78681  Biso   1.000  C
  C458     1.0000 0.87547  0.06265  0.81294  Biso   1.000  C
  C459     1.0000 0.95398  0.12155  0.68158  Biso   1.000  C
  H616     1.0000 0.94186  0.14192  0.84294  Biso   1.000  H
  H617     1.0000 0.94188  0.14197  0.84294  Biso   1.000  H
  C460     1.0000 0.84847  0.05515  0.93344  Biso   1.000  C
  C461     1.0000 0.92617  0.11293  0.78681  Biso   1.000  C
  C462     1.0000 0.85218  0.01943  0.72718  Biso   1.000  C
  C463     1.0000 0.85220  0.01947  0.72718  Biso   1.000  C
  C464     1.0000 0.92927  0.07764  0.59651  Biso   1.000  C
  C465     1.0000 0.00966  0.17575  0.65570  Biso   1.000  C
  C466     1.0000 0.80525  0.99483  0.97124  Biso   1.000  C
  C467     1.0000 0.80527  0.99487  0.97124  Biso   1.000  C
  N64      1.0000 0.86755  0.10017  0.99412  Biso   1.000  N
  N65      1.0000 0.86757  0.10022  0.99412  Biso   1.000  N
  H618     1.0000 0.81787  0.98544  0.74182  Biso   1.000  H
  C468     1.0000 0.88015  0.02701  0.61975  Biso   1.000  C
  C469     1.0000 0.88017  0.02706  0.61975  Biso   1.000  C
  H619     1.0000 0.94677  0.08324  0.52355  Biso   1.000  H
  N66      1.0000 0.02417  0.18811  0.55073  Biso   1.000  N
  C470     1.0000 0.04447  0.20991  0.75962  Biso   1.000  C
  N67      1.0000 0.02419  0.18816  0.55073  Biso   1.000  N
  C471     1.0000 0.04449  0.20996  0.75962  Biso   1.000  C
  H620     1.0000 0.79827  0.96863  0.90774  Biso   1.000  H
  H621     1.0000 0.76987  0.99332  0.99255  Biso   1.000  H
  H622     1.0000 0.76989  0.99336  0.99255  Biso   1.000  H
  H623     1.0000 0.82006  0.98423  0.03736  Biso   1.000  H
  H624     1.0000 0.82008  0.98427  0.03736  Biso   1.000  H
  C472     1.0000 0.85085  0.10073  0.11655  Biso   1.000  C
  C473     1.0000 0.85535  0.97854  0.52986  Biso   1.000  C
  C474     1.0000 0.07689  0.24124  0.51644  Biso   1.000  C
  H625     1.0000 0.02426  0.19173  0.83057  Biso   1.000  H
  H626     1.0000 0.08116  0.21172  0.75910  Biso   1.000  H
  H627     1.0000 0.05015  0.24822  0.75550  Biso   1.000  H
  H628     1.0000 0.02428  0.19178  0.83057  Biso   1.000  H
  H629     1.0000 0.08118  0.21177  0.75910  Biso   1.000  H
  H630     1.0000 0.05018  0.24826  0.75550  Biso   1.000  H
  H631     1.0000 0.82125  0.06183  0.14023  Biso   1.000  H
  C475     1.0000 0.82675  0.14253  0.12637  Biso   1.000  C
  C476     1.0000 0.90384  0.12142  0.19319  Biso   1.000  C
  H632     1.0000 0.82127  0.06187  0.14023  Biso   1.000  H
  C477     1.0000 0.82677  0.14257  0.12637  Biso   1.000  C
  C478     1.0000 0.90386  0.12146  0.19319  Biso   1.000  C
  C479     1.0000 0.89816  0.97923  0.44015  Biso   1.000  C
  N68      1.0000 0.80169  0.94024  0.54030  Biso   1.000  N
  H633     1.0000 0.09497  0.26472  0.58634  Biso   1.000  H
  C480     1.0000 0.06116  0.27515  0.43103  Biso   1.000  C
  C481     1.0000 0.11958  0.22594  0.45672  Biso   1.000  C
  H634     1.0000 0.09499  0.26476  0.58634  Biso   1.000  H
  H635     1.0000 0.85395  0.17932  0.09147  Biso   1.000  H
  H636     1.0000 0.79097  0.12693  0.08270  Biso   1.000  H
  C482     1.0000 0.81596  0.15192  0.25353  Biso   1.000  C
  H637     1.0000 0.85397  0.17937  0.09147  Biso   1.000  H
  H638     1.0000 0.79099  0.12697  0.08270  Biso   1.000  H
  C483     1.0000 0.81598  0.15196  0.25353  Biso   1.000  C
  N69      1.0000 0.92362  0.07962  0.18820  Biso   1.000  N
  C484     1.0000 0.89188  0.12913  0.32176  Biso   1.000  C
  H639     1.0000 0.93436  0.15834  0.16303  Biso   1.000  H
  C485     1.0000 0.89190  0.12917  0.32176  Biso   1.000  C
  H640     1.0000 0.90116  0.94524  0.44944  Biso   1.000  H
  H641     1.0000 0.88488  0.98005  0.36236  Biso   1.000  H
  H642     1.0000 0.93516  0.01262  0.45225  Biso   1.000  H
  H643     1.0000 0.93518  0.01267  0.45225  Biso   1.000  H
  C486     1.0000 0.77405  0.89362  0.45672  Biso   1.000  C
  C487     1.0000 0.77407  0.89366  0.45672  Biso   1.000  C
  H644     1.0000 0.04095  0.25041  0.36490  Biso   1.000  H
  H645     1.0000 0.03469  0.28445  0.47005  Biso   1.000  H
  C488     1.0000 0.10934  0.32831  0.38621  Biso   1.000  C
  H646     1.0000 0.04098  0.25046  0.36490  Biso   1.000  H
  C489     1.0000 0.10937  0.32836  0.38621  Biso   1.000  C
  N70      1.0000 0.13857  0.19832  0.54030  Biso   1.000  N
  C490     1.0000 0.17136  0.28182  0.41428  Biso   1.000  C
  H647     1.0000 0.10086  0.20022  0.39007  Biso   1.000  H
  N71      1.0000 0.13859  0.19837  0.54030  Biso   1.000  N
  C491     1.0000 0.17138  0.28187  0.41428  Biso   1.000  C
  H648     1.0000 0.10088  0.20026  0.39007  Biso   1.000  H
  H649     1.0000 0.80565  0.18182  0.25651  Biso   1.000  H
  H650     1.0000 0.78355  0.11672  0.28343  Biso   1.000  H
  C492     1.0000 0.86726  0.16885  0.33132  Biso   1.000  C
  H651     1.0000 0.80567  0.18187  0.25651  Biso   1.000  H
  H652     1.0000 0.78357  0.11676  0.28343  Biso   1.000  H
  C493     1.0000 0.97413  0.09281  0.15312  Biso   1.000  C
  C494     1.0000 0.97415  0.09285  0.15312  Biso   1.000  C
  H653     1.0000 0.86497  0.09203  0.35499  Biso   1.000  H
  H654     1.0000 0.92744  0.14511  0.36613  Biso   1.000  H
  H655     1.0000 0.86499  0.09207  0.35499  Biso   1.000  H
  H656     1.0000 0.92747  0.14516  0.36613  Biso   1.000  H
  C495     1.0000 0.75875  0.83563  0.51644  Biso   1.000  C
  C496     1.0000 0.71816  0.88953  0.41428  Biso   1.000  C
  H657     1.0000 0.79976  0.90064  0.39007  Biso   1.000  H
  C497     1.0000 0.75877  0.83567  0.51644  Biso   1.000  C
  C498     1.0000 0.71818  0.88957  0.41428  Biso   1.000  C
  H658     1.0000 0.12626  0.35602  0.44953  Biso   1.000  H
  H659     1.0000 0.09568  0.34464  0.32702  Biso   1.000  H
  C499     1.0000 0.15377  0.31694  0.33447  Biso   1.000  C
  H660     1.0000 0.12628  0.35606  0.44953  Biso   1.000  H
  C500     1.0000 0.12318  0.14464  0.52986  Biso   1.000  C
  H661     1.0000 0.19708  0.27273  0.37139  Biso   1.000  H
  H662     1.0000 0.19216  0.30513  0.48154  Biso   1.000  H
  H663     1.0000 0.85608  0.16924  0.41200  Biso   1.000  H
  H664     1.0000 0.89695  0.20763  0.31141  Biso   1.000  H
  H665     1.0000 0.89697  0.20767  0.31141  Biso   1.000  H
  C501     1.0000 0.98767  0.04520  0.15022  Biso   1.000  C
  C502     1.0000 0.98769  0.04524  0.15022  Biso   1.000  C
  C503     1.0000 0.02018  0.15222  0.11269  Biso   1.000  C
  C504     1.0000 0.02020  0.15227  0.11269  Biso   1.000  C
  N72      1.0000 0.81185  0.83602  0.55073  Biso   1.000  N
  H666     1.0000 0.73527  0.83024  0.58634  Biso   1.000  H
  C505     1.0000 0.72488  0.78604  0.43103  Biso   1.000  C
  N73      1.0000 0.81187  0.83606  0.55073  Biso   1.000  N
  C506     1.0000 0.68308  0.83683  0.33447  Biso   1.000  C
  H667     1.0000 0.72728  0.92434  0.37139  Biso   1.000  H
  H668     1.0000 0.69486  0.88703  0.48154  Biso   1.000  H
  H669     1.0000 0.69488  0.88707  0.48154  Biso   1.000  H
  H670     1.0000 0.18776  0.35343  0.31641  Biso   1.000  H
  H671     1.0000 0.13907  0.29634  0.26116  Biso   1.000  H
  C507     1.0000 0.14685  0.11982  0.61975  Biso   1.000  C
  C508     1.0000 0.08106  0.10181  0.44015  Biso   1.000  C
  C509     1.0000 0.14687  0.11986  0.61975  Biso   1.000  C
  C510     1.0000 0.08108  0.10185  0.44015  Biso   1.000  C
  C511     1.0000 0.94326  0.98802  0.14952  Biso   1.000  C
  C512     1.0000 0.04475  0.05674  0.14952  Biso   1.000  C
  H672     1.0000 0.05427  0.15115  0.09094  Biso   1.000  H
  H673     1.0000 0.00627  0.16373  0.04630  Biso   1.000  H
  H674     1.0000 0.02918  0.17932  0.17530  Biso   1.000  H
  H675     1.0000 0.00629  0.16377  0.04630  Biso   1.000  H
  H676     1.0000 0.02920  0.17937  0.17530  Biso   1.000  H
  C513     1.0000 0.82429  0.83395  0.65570  Biso   1.000  C
  H677     1.0000 0.74955  0.79052  0.36490  Biso   1.000  H
  H678     1.0000 0.71556  0.75023  0.47005  Biso   1.000  H
  C514     1.0000 0.67168  0.78104  0.38621  Biso   1.000  C
  H679     1.0000 0.74957  0.79056  0.36490  Biso   1.000  H
  H680     1.0000 0.71558  0.75027  0.47005  Biso   1.000  H
  H681     1.0000 0.64657  0.83433  0.31641  Biso   1.000  H
  H682     1.0000 0.70368  0.84274  0.26116  Biso   1.000  H
  C515     1.0000 0.14836  0.07075  0.59651  Biso   1.000  C
  C516     1.0000 0.16727  0.14783  0.72718  Biso   1.000  C
  C517     1.0000 0.16729  0.14787  0.72718  Biso   1.000  C
  H683     1.0000 0.07746  0.06484  0.45225  Biso   1.000  H
  H684     1.0000 0.04408  0.09884  0.44944  Biso   1.000  H
  H685     1.0000 0.09517  0.11513  0.36236  Biso   1.000  H
  H686     1.0000 0.09520  0.11517  0.36236  Biso   1.000  H
  H687     1.0000 0.90526  0.97992  0.14856  Biso   1.000  H
  C518     1.0000 0.95478  0.94248  0.15022  Biso   1.000  C
  H688     1.0000 0.90528  0.97997  0.14856  Biso   1.000  H
  H689     1.0000 0.07469  0.09475  0.14856  Biso   1.000  H
  C519     1.0000 0.05754  0.01232  0.15022  Biso   1.000  C
  C520     1.0000 0.87846  0.83244  0.68158  Biso   1.000  C
  C521     1.0000 0.79007  0.83455  0.75962  Biso   1.000  C
  H690     1.0000 0.64395  0.77022  0.44953  Biso   1.000  H
  H691     1.0000 0.65538  0.75105  0.32702  Biso   1.000  H
  H692     1.0000 0.64398  0.77027  0.44953  Biso   1.000  H
  H693     1.0000 0.13648  0.05325  0.52355  Biso   1.000  H
  C522     1.0000 0.16756  0.04602  0.68158  Biso   1.000  C
  C523     1.0000 0.16758  0.04606  0.68158  Biso   1.000  C
  C524     1.0000 0.18715  0.12452  0.81294  Biso   1.000  C
  H694     1.0000 0.16755  0.18212  0.74182  Biso   1.000  H
  C525     1.0000 0.18717  0.12456  0.81294  Biso   1.000  C
  H695     1.0000 0.16758  0.18217  0.74182  Biso   1.000  H
  C526     1.0000 0.90720  0.88134  0.15312  Biso   1.000  C
  C527     1.0000 0.01198  0.95523  0.14952  Biso   1.000  C
  C528     1.0000 0.01200  0.95528  0.14952  Biso   1.000  C
  C529     1.0000 0.11867  0.02585  0.15312  Biso   1.000  C
  C530     1.0000 0.11869  0.02589  0.15312  Biso   1.000  C
  C531     1.0000 0.92237  0.85161  0.59651  Biso   1.000  C
  C532     1.0000 0.88706  0.81322  0.78681  Biso   1.000  C
  C533     1.0000 0.92239  0.85166  0.59651  Biso   1.000  C
  C534     1.0000 0.88708  0.81327  0.78681  Biso   1.000  C
  H696     1.0000 0.80828  0.83253  0.83057  Biso   1.000  H
  H697     1.0000 0.78827  0.86945  0.75910  Biso   1.000  H
  H698     1.0000 0.75175  0.80193  0.75550  Biso   1.000  H
  H699     1.0000 0.80830  0.83257  0.83057  Biso   1.000  H
  C535     1.0000 0.16607  0.99035  0.65570  Biso   1.000  C
  C536     1.0000 0.18678  0.07385  0.78681  Biso   1.000  C
  C537     1.0000 0.20666  0.15153  0.93344  Biso   1.000  C
  N74      1.0000 0.92041  0.84403  0.18820  Biso   1.000  N
  C538     1.0000 0.84778  0.86794  0.11269  Biso   1.000  C
  H700     1.0000 0.02005  0.92533  0.14856  Biso   1.000  H
  H701     1.0000 0.02008  0.92538  0.14856  Biso   1.000  H
  C539     1.0000 0.13208  0.97984  0.11269  Biso   1.000  C
  N75      1.0000 0.15599  0.07639  0.18820  Biso   1.000  N
  H702     1.0000 0.91677  0.86355  0.52355  Biso   1.000  H
  C540     1.0000 0.97298  0.85312  0.61975  Biso   1.000  C
  C541     1.0000 0.97300  0.85316  0.61975  Biso   1.000  C
  C542     1.0000 0.93735  0.81284  0.81294  Biso   1.000  C
  H703     1.0000 0.85807  0.79995  0.84294  Biso   1.000  H
  N76      1.0000 0.16396  0.97583  0.55073  Biso   1.000  N
  C543     1.0000 0.16545  0.95554  0.75962  Biso   1.000  C
  N77      1.0000 0.16398  0.97587  0.55073  Biso   1.000  N
  H704     1.0000 0.20007  0.05812  0.84294  Biso   1.000  H
  H705     1.0000 0.20009  0.05817  0.84294  Biso   1.000  H
  N78      1.0000 0.23264  0.13245  0.99412  Biso   1.000  N
  C544     1.0000 0.18958  0.19475  0.97124  Biso   1.000  C
  C545     1.0000 0.87856  0.78242  0.19319  Biso   1.000  C
  C546     1.0000 0.87858  0.78246  0.19319  Biso   1.000  C
  H706     1.0000 0.84888  0.90314  0.09094  Biso   1.000  H
  H707     1.0000 0.83626  0.84252  0.04630  Biso   1.000  H
  H708     1.0000 0.82067  0.84985  0.17530  Biso   1.000  H
  H709     1.0000 0.83628  0.84256  0.04630  Biso   1.000  H
  H710     1.0000 0.09685  0.94571  0.09094  Biso   1.000  H
  H711     1.0000 0.15747  0.99375  0.04630  Biso   1.000  H
  H712     1.0000 0.15015  0.97083  0.17530  Biso   1.000  H
  H713     1.0000 0.09687  0.94575  0.09094  Biso   1.000  H
  H714     1.0000 0.15018  0.97087  0.17530  Biso   1.000  H
  C547     1.0000 0.21758  0.09612  0.19319  Biso   1.000  C
  C548     1.0000 0.21760  0.09617  0.19319  Biso   1.000  C
  C549     1.0000 0.98059  0.83274  0.72718  Biso   1.000  C
  C550     1.0000 0.02147  0.87682  0.52986  Biso   1.000  C
  C551     1.0000 0.02149  0.87686  0.52986  Biso   1.000  C
  C552     1.0000 0.94487  0.79332  0.93344  Biso   1.000  C
  C553     1.0000 0.94489  0.79336  0.93344  Biso   1.000  C
  C554     1.0000 0.16437  0.92313  0.51644  Biso   1.000  C
  H715     1.0000 0.16746  0.97574  0.83057  Biso   1.000  H
  H716     1.0000 0.13057  0.91883  0.75910  Biso   1.000  H
  H717     1.0000 0.19806  0.94985  0.75550  Biso   1.000  H
  H718     1.0000 0.13059  0.91887  0.75910  Biso   1.000  H
  C555     1.0000 0.24986  0.14912  0.11655  Biso   1.000  C
  C556     1.0000 0.24988  0.14916  0.11655  Biso   1.000  C
  H719     1.0000 0.17038  0.20173  0.90774  Biso   1.000  H
  H720     1.0000 0.22346  0.23012  0.99255  Biso   1.000  H
  H721     1.0000 0.17040  0.20177  0.90774  Biso   1.000  H
  H722     1.0000 0.22348  0.23016  0.99255  Biso   1.000  H
  H723     1.0000 0.16418  0.17993  0.03736  Biso   1.000  H
  H724     1.0000 0.16420  0.17997  0.03736  Biso   1.000  H
  C557     1.0000 0.89929  0.75015  0.11655  Biso   1.000  C
  C558     1.0000 0.87088  0.76273  0.32176  Biso   1.000  C
  H725     1.0000 0.84168  0.77604  0.16303  Biso   1.000  H
  C559     1.0000 0.87090  0.76277  0.32176  Biso   1.000  C
  C560     1.0000 0.23728  0.10815  0.32176  Biso   1.000  C
  H726     1.0000 0.22397  0.06562  0.16303  Biso   1.000  H
  H727     1.0000 0.22399  0.06566  0.16303  Biso   1.000  H
  H728     1.0000 0.01458  0.83244  0.74182  Biso   1.000  H
  N79      1.0000 0.05979  0.86144  0.54030  Biso   1.000  N
  C561     1.0000 0.02076  0.91891  0.44015  Biso   1.000  C
  C562     1.0000 0.02078  0.91896  0.44015  Biso   1.000  C
  N80      1.0000 0.89981  0.76738  0.99412  Biso   1.000  N
  C563     1.0000 0.00517  0.81042  0.97124  Biso   1.000  C
  C564     1.0000 0.00520  0.81047  0.97124  Biso   1.000  C
  C565     1.0000 0.10638  0.88044  0.45672  Biso   1.000  C
  H729     1.0000 0.16976  0.90504  0.58634  Biso   1.000  H
  C566     1.0000 0.21396  0.93882  0.43103  Biso   1.000  C
  C567     1.0000 0.21398  0.93886  0.43103  Biso   1.000  C
  H730     1.0000 0.24055  0.17872  0.14023  Biso   1.000  H
  C568     1.0000 0.31577  0.17325  0.12637  Biso   1.000  C
  H731     1.0000 0.24058  0.17876  0.14023  Biso   1.000  H
  H732     1.0000 0.93816  0.75945  0.14023  Biso   1.000  H
  C569     1.0000 0.85745  0.68422  0.12637  Biso   1.000  C
  C570     1.0000 0.85747  0.68427  0.12637  Biso   1.000  C
  C571     1.0000 0.83116  0.69844  0.33132  Biso   1.000  C
  H733     1.0000 0.90796  0.77294  0.35499  Biso   1.000  H
  H734     1.0000 0.85486  0.78233  0.36613  Biso   1.000  H
  H735     1.0000 0.85488  0.78237  0.36613  Biso   1.000  H
  C572     1.0000 0.30156  0.13275  0.33132  Biso   1.000  C
  H736     1.0000 0.22707  0.13503  0.35499  Biso   1.000  H
  H737     1.0000 0.21767  0.07251  0.36613  Biso   1.000  H
  H738     1.0000 0.22709  0.13507  0.35499  Biso   1.000  H
  H739     1.0000 0.21770  0.07256  0.36613  Biso   1.000  H
  H740     1.0000 0.98735  0.92253  0.45225  Biso   1.000  H
  H741     1.0000 0.98737  0.92257  0.45225  Biso   1.000  H
  H742     1.0000 0.05475  0.95592  0.44944  Biso   1.000  H
  H743     1.0000 0.01995  0.90482  0.36236  Biso   1.000  H
  H744     1.0000 0.05477  0.95597  0.44944  Biso   1.000  H
  H745     1.0000 0.01997  0.90487  0.36236  Biso   1.000  H
  H746     1.0000 0.03139  0.82964  0.90774  Biso   1.000  H
  H747     1.0000 0.00665  0.77651  0.99255  Biso   1.000  H
  H748     1.0000 0.00667  0.77656  0.99255  Biso   1.000  H
  H749     1.0000 0.01576  0.83584  0.03736  Biso   1.000  H
  C573     1.0000 0.11048  0.82865  0.41428  Biso   1.000  C
  H750     1.0000 0.09938  0.89914  0.39007  Biso   1.000  H
  H751     1.0000 0.20948  0.95903  0.36490  Biso   1.000  H
  H752     1.0000 0.24975  0.96532  0.47005  Biso   1.000  H
  C574     1.0000 0.21898  0.89065  0.38621  Biso   1.000  C
  H753     1.0000 0.20950  0.95907  0.36490  Biso   1.000  H
  H754     1.0000 0.24977  0.96536  0.47005  Biso   1.000  H
  H755     1.0000 0.32536  0.14602  0.09147  Biso   1.000  H
  H756     1.0000 0.33598  0.20905  0.08270  Biso   1.000  H
  C575     1.0000 0.33597  0.18402  0.25353  Biso   1.000  C
  H757     1.0000 0.32538  0.14606  0.09147  Biso   1.000  H
  C576     1.0000 0.33599  0.18406  0.25353  Biso   1.000  C
  H758     1.0000 0.82067  0.67462  0.09147  Biso   1.000  H
  H759     1.0000 0.87305  0.66402  0.08270  Biso   1.000  H
  C577     1.0000 0.84805  0.66402  0.25353  Biso   1.000  C
  H760     1.0000 0.82069  0.67466  0.09147  Biso   1.000  H
  H761     1.0000 0.87307  0.66406  0.08270  Biso   1.000  H
  C578     1.0000 0.84807  0.66406  0.25353  Biso   1.000  C
  H762     1.0000 0.83078  0.68685  0.41200  Biso   1.000  H
  H763     1.0000 0.79236  0.68935  0.31141  Biso   1.000  H
  H764     1.0000 0.31317  0.14395  0.41200  Biso   1.000  H
  H765     1.0000 0.31065  0.10302  0.31141  Biso   1.000  H
  H766     1.0000 0.31067  0.10306  0.31141  Biso   1.000  H
  C579     1.0000 0.16315  0.84623  0.33447  Biso   1.000  C
  H767     1.0000 0.07568  0.80293  0.37139  Biso   1.000  H
  H768     1.0000 0.11299  0.80784  0.48154  Biso   1.000  H
  C580     1.0000 0.16317  0.84627  0.33447  Biso   1.000  C
  H769     1.0000 0.07570  0.80297  0.37139  Biso   1.000  H
  H770     1.0000 0.22977  0.87372  0.44953  Biso   1.000  H
  H771     1.0000 0.24897  0.90435  0.32702  Biso   1.000  H
  H772     1.0000 0.22979  0.87376  0.44953  Biso   1.000  H
  H773     1.0000 0.37615  0.19432  0.25651  Biso   1.000  H
  H774     1.0000 0.33317  0.21642  0.28343  Biso   1.000  H
  H775     1.0000 0.37617  0.19436  0.25651  Biso   1.000  H
  H776     1.0000 0.33319  0.21646  0.28343  Biso   1.000  H
  H777     1.0000 0.81814  0.62382  0.25651  Biso   1.000  H
  H778     1.0000 0.88326  0.66682  0.28343  Biso   1.000  H
  H779     1.0000 0.81820  0.62386  0.25651  Biso   1.000  H
  H780     1.0000 0.88328  0.66686  0.28343  Biso   1.000  H
  H781     1.0000 0.16567  0.81223  0.31641  Biso   1.000  H
  H782     1.0000 0.15725  0.86092  0.26116  Biso   1.000  H
  H783     1.0000 0.16569  0.81227  0.31641  Biso   1.000  H
  H784     1.0000 0.15727  0.86096  0.26116  Biso   1.000  H
  C581     1.0000 0.55231  0.55732  0.05288  Biso   1.000  C
  C582     1.0000 0.49648  0.51289  0.00114  Biso   1.000  C
  C583     1.0000 0.54729  0.60549  0.09769  Biso   1.000  C
  H785     1.0000 0.56310  0.54038  0.11620  Biso   1.000  H
  H786     1.0000 0.58230  0.57102  0.99369  Biso   1.000  H
  C584     1.0000 0.44381  0.49531  0.08094  Biso   1.000  C
  H787     1.0000 0.49900  0.47890  0.98307  Biso   1.000  H
  H788     1.0000 0.49058  0.52759  0.92783  Biso   1.000  H
  C585     1.0000 0.49770  0.58980  0.18311  Biso   1.000  C
  H789     1.0000 0.54281  0.62569  0.03157  Biso   1.000  H
  H790     1.0000 0.58308  0.63198  0.13672  Biso   1.000  H
  H791     1.0000 0.40901  0.46959  0.03806  Biso   1.000  H
  H792     1.0000 0.44632  0.47450  0.14821  Biso   1.000  H
  C586     1.0000 0.43971  0.54710  0.12339  Biso   1.000  C
  N81      1.0000 0.49729  0.64250  0.21740  Biso   1.000  N
  H793     1.0000 0.50309  0.57171  0.25300  Biso   1.000  H
  N82      1.0000 0.39312  0.52810  0.20696  Biso   1.000  N
  H794     1.0000 0.43272  0.56580  0.05674  Biso   1.000  H
  C587     1.0000 0.49940  0.65702  0.32237  Biso   1.000  C
  C588     1.0000 0.35480  0.54348  0.19653  Biso   1.000  C
  C589     1.0000 0.50089  0.71268  0.34824  Biso   1.000  C
  C590     1.0000 0.49879  0.62220  0.42629  Biso   1.000  C
  C591     1.0000 0.30631  0.51979  0.28642  Biso   1.000  C
  C592     1.0000 0.35410  0.58558  0.10681  Biso   1.000  C
  C593     1.0000 0.48169  0.73741  0.26318  Biso   1.000  C
  C594     1.0000 0.52011  0.74052  0.45348  Biso   1.000  C
  H795     1.0000 0.50079  0.64241  0.49724  Biso   1.000  H
  H796     1.0000 0.46390  0.58549  0.42577  Biso   1.000  H
  H797     1.0000 0.53139  0.61652  0.42217  Biso   1.000  H
  C595     1.0000 0.25571  0.51828  0.26318  Biso   1.000  C
  C596     1.0000 0.31392  0.49941  0.39384  Biso   1.000  C
  H798     1.0000 0.32068  0.58920  0.11892  Biso   1.000  H
  H799     1.0000 0.38809  0.62259  0.11611  Biso   1.000  H
  H800     1.0000 0.35328  0.57149  0.02903  Biso   1.000  H
  H801     1.0000 0.46981  0.71992  0.19021  Biso   1.000  H
  C597     1.0000 0.48018  0.78649  0.28642  Biso   1.000  C
  C598     1.0000 0.52048  0.79119  0.47961  Biso   1.000  C
  H802     1.0000 0.53340  0.72479  0.50960  Biso   1.000  H
  H803     1.0000 0.25011  0.53021  0.19021  Biso   1.000  H
  C599     1.0000 0.21179  0.49911  0.34824  Biso   1.000  C
  C600     1.0000 0.27068  0.47950  0.47961  Biso   1.000  C
  H804     1.0000 0.34791  0.49911  0.40849  Biso   1.000  H
  C601     1.0000 0.50061  0.81449  0.39384  Biso   1.000  C
  C602     1.0000 0.45651  0.81131  0.19653  Biso   1.000  C
  C603     1.0000 0.54000  0.81820  0.60011  Biso   1.000  C
  C604     1.0000 0.22039  0.47989  0.45348  Biso   1.000  C
  C605     1.0000 0.15762  0.50061  0.32237  Biso   1.000  C
  C606     1.0000 0.27820  0.45998  0.60011  Biso   1.000  C
  H805     1.0000 0.50089  0.84879  0.40849  Biso   1.000  H
  C607     1.0000 0.41439  0.76848  0.10681  Biso   1.000  C
  N83      1.0000 0.47190  0.86499  0.20696  Biso   1.000  N
  N84      1.0000 0.56597  0.79911  0.66079  Biso   1.000  N
  C608     1.0000 0.52291  0.86142  0.63790  Biso   1.000  C
  H806     1.0000 0.19141  0.46662  0.50960  Biso   1.000  H
  N85      1.0000 0.14518  0.50268  0.21740  Biso   1.000  N
  C609     1.0000 0.12341  0.50122  0.42629  Biso   1.000  C
  N86      1.0000 0.23314  0.43405  0.66079  Biso   1.000  N
  C610     1.0000 0.33851  0.47709  0.63790  Biso   1.000  C
  H807     1.0000 0.41079  0.73151  0.11892  Biso   1.000  H
  H808     1.0000 0.37742  0.76551  0.11611  Biso   1.000  H
  H809     1.0000 0.42851  0.78179  0.02903  Biso   1.000  H
  C611     1.0000 0.45291  0.89261  0.12339  Biso   1.000  C
  C612     1.0000 0.58319  0.81579  0.78321  Biso   1.000  C
  H810     1.0000 0.50371  0.86840  0.57441  Biso   1.000  H
  H811     1.0000 0.49751  0.84659  0.70403  Biso   1.000  H
  H812     1.0000 0.55679  0.89679  0.65921  Biso   1.000  H
  C613     1.0000 0.09208  0.50229  0.18311  Biso   1.000  C
  H813     1.0000 0.14161  0.49919  0.49724  Biso   1.000  H
  H814     1.0000 0.12160  0.53612  0.42577  Biso   1.000  H
  H815     1.0000 0.08508  0.46860  0.42217  Biso   1.000  H
  C614     1.0000 0.23262  0.41681  0.78321  Biso   1.000  C
  H816     1.0000 0.36472  0.49631  0.57441  Biso   1.000  H
  H817     1.0000 0.34909  0.50251  0.70403  Biso   1.000  H
  H818     1.0000 0.33999  0.44318  0.65921  Biso   1.000  H
  C615     1.0000 0.41022  0.90790  0.18311  Biso   1.000  C
  C616     1.0000 0.50469  0.94849  0.08094  Biso   1.000  C
  H819     1.0000 0.43419  0.86689  0.05674  Biso   1.000  H
  H820     1.0000 0.57389  0.84539  0.80689  Biso   1.000  H
  C617     1.0000 0.64910  0.83992  0.79304  Biso   1.000  C
  C618     1.0000 0.55091  0.76279  0.85986  Biso   1.000  C
  H821     1.0000 0.06860  0.49691  0.25300  Biso   1.000  H
  C619     1.0000 0.05822  0.45270  0.09769  Biso   1.000  C
  C620     1.0000 0.10738  0.56029  0.12339  Biso   1.000  C
  H822     1.0000 0.27149  0.42612  0.80689  Biso   1.000  H
  C621     1.0000 0.19078  0.35089  0.79304  Biso   1.000  C
  C622     1.0000 0.21189  0.44908  0.85986  Biso   1.000  C
  N87      1.0000 0.35750  0.85478  0.21740  Biso   1.000  N
  H823     1.0000 0.42831  0.93139  0.25300  Biso   1.000  H
  C623     1.0000 0.39449  0.94181  0.09769  Biso   1.000  C
  C624     1.0000 0.48710  0.98361  0.00114  Biso   1.000  C
  H824     1.0000 0.53041  0.93940  0.03806  Biso   1.000  H
  H825     1.0000 0.52549  0.97180  0.14821  Biso   1.000  H
  H826     1.0000 0.65869  0.81269  0.75813  Biso   1.000  H
  H827     1.0000 0.66932  0.87572  0.74936  Biso   1.000  H
  C625     1.0000 0.66930  0.85069  0.92020  Biso   1.000  C
  N88      1.0000 0.48933  0.74306  0.85486  Biso   1.000  N
  C626     1.0000 0.57062  0.77481  0.98842  Biso   1.000  C
  H828     1.0000 0.55730  0.73229  0.82969  Biso   1.000  H
  H829     1.0000 0.08288  0.45718  0.03157  Biso   1.000  H
  H830     1.0000 0.04890  0.41690  0.13672  Biso   1.000  H
  C627     1.0000 0.00501  0.44770  0.05288  Biso   1.000  C
  N89      1.0000 0.13502  0.60691  0.20696  Biso   1.000  N
  C628     1.0000 0.05149  0.55620  0.08094  Biso   1.000  C
  H831     1.0000 0.13310  0.56731  0.05674  Biso   1.000  H
  H832     1.0000 0.15400  0.34128  0.75813  Biso   1.000  H
  H833     1.0000 0.20639  0.33068  0.74936  Biso   1.000  H
  C629     1.0000 0.18139  0.33068  0.92020  Biso   1.000  C
  N90      1.0000 0.25374  0.51070  0.85486  Biso   1.000  N
  C630     1.0000 0.20421  0.42939  0.98842  Biso   1.000  C
  H834     1.0000 0.17501  0.44271  0.82969  Biso   1.000  H
  C631     1.0000 0.34300  0.84241  0.32237  Biso   1.000  C
  H835     1.0000 0.37429  0.91708  0.03157  Biso   1.000  H
  H836     1.0000 0.36802  0.95112  0.13672  Biso   1.000  H
  C632     1.0000 0.44268  0.99498  0.05288  Biso   1.000  C
  H837     1.0000 0.47240  0.96301  0.92783  Biso   1.000  H
  H838     1.0000 0.52109  0.02010  0.98307  Biso   1.000  H
  H839     1.0000 0.70948  0.86098  0.92318  Biso   1.000  H
  H840     1.0000 0.66651  0.88309  0.95010  Biso   1.000  H
  C633     1.0000 0.63489  0.79941  0.99798  Biso   1.000  C
  C634     1.0000 0.45201  0.69252  0.81978  Biso   1.000  C
  H841     1.0000 0.56040  0.80170  0.02166  Biso   1.000  H
  H842     1.0000 0.55101  0.73918  0.03280  Biso   1.000  H
  C635     1.0000 0.01641  0.50350  0.00114  Biso   1.000  C
  H843     1.0000 0.98871  0.41772  0.99369  Biso   1.000  H
  H844     1.0000 0.97729  0.43689  0.11620  Biso   1.000  H
  C636     1.0000 0.18869  0.64521  0.19653  Biso   1.000  C
  H845     1.0000 0.06062  0.59101  0.03806  Biso   1.000  H
  H846     1.0000 0.02819  0.55370  0.14821  Biso   1.000  H
  H847     1.0000 0.15151  0.29048  0.92318  Biso   1.000  H
  H848     1.0000 0.21659  0.33348  0.95010  Biso   1.000  H
  C637     1.0000 0.16450  0.36511  0.99798  Biso   1.000  C
  C638     1.0000 0.24053  0.54801  0.81978  Biso   1.000  C
  H849     1.0000 0.24129  0.43960  0.02166  Biso   1.000  H
  H850     1.0000 0.18819  0.44900  0.03280  Biso   1.000  H
  C639     1.0000 0.28732  0.78821  0.34824  Biso   1.000  C
  C640     1.0000 0.37781  0.87658  0.42629  Biso   1.000  C
  H851     1.0000 0.42901  0.01131  0.99369  Biso   1.000  H
  H852     1.0000 0.45959  0.02269  0.11620  Biso   1.000  H
  H853     1.0000 0.64398  0.76969  0.97808  Biso   1.000  H
  H854     1.0000 0.64650  0.81062  0.07866  Biso   1.000  H
  C641     1.0000 0.39088  0.67899  0.81689  Biso   1.000  C
  C642     1.0000 0.46542  0.64650  0.77936  Biso   1.000  C
  H855     1.0000 0.97990  0.50100  0.98307  Biso   1.000  H
  H856     1.0000 0.03702  0.50940  0.92783  Biso   1.000  H
  C643     1.0000 0.21348  0.69368  0.28642  Biso   1.000  C
  C644     1.0000 0.23149  0.64590  0.10681  Biso   1.000  C
  H857     1.0000 0.12570  0.35602  0.97808  Biso   1.000  H
  H858     1.0000 0.16411  0.35352  0.07866  Biso   1.000  H
  C645     1.0000 0.28812  0.60915  0.81689  Biso   1.000  C
  C646     1.0000 0.18111  0.53461  0.77936  Biso   1.000  C
  C647     1.0000 0.26260  0.74431  0.26318  Biso   1.000  C
  C648     1.0000 0.25950  0.77960  0.45348  Biso   1.000  C
  H859     1.0000 0.35760  0.85840  0.49724  Biso   1.000  H
  H860     1.0000 0.41449  0.87839  0.42577  Biso   1.000  H
  H861     1.0000 0.38349  0.91488  0.42217  Biso   1.000  H
  C649     1.0000 0.34532  0.62190  0.81619  Biso   1.000  C
  C650     1.0000 0.37809  0.72341  0.81619  Biso   1.000  C
  H862     1.0000 0.43018  0.61238  0.75761  Biso   1.000  H
  H863     1.0000 0.49081  0.66042  0.71297  Biso   1.000  H
  H864     1.0000 0.48349  0.63750  0.84197  Biso   1.000  H
  C651     1.0000 0.18551  0.68610  0.39384  Biso   1.000  C
  H865     1.0000 0.26849  0.67929  0.11892  Biso   1.000  H
  H866     1.0000 0.23450  0.61191  0.11611  Biso   1.000  H
  H867     1.0000 0.21821  0.64672  0.02903  Biso   1.000  H
  C652     1.0000 0.27660  0.65469  0.81619  Biso   1.000  C
  H868     1.0000 0.18222  0.56981  0.75761  Biso   1.000  H
  H869     1.0000 0.16959  0.50919  0.71297  Biso   1.000  H
  H870     1.0000 0.15400  0.51651  0.84197  Biso   1.000  H
  H871     1.0000 0.28010  0.74991  0.19021  Biso   1.000  H
  C653     1.0000 0.20880  0.72931  0.47961  Biso   1.000  C
  H872     1.0000 0.27519  0.80859  0.50960  Biso   1.000  H
  H873     1.0000 0.35339  0.59200  0.81522  Biso   1.000  H
  C654     1.0000 0.32101  0.71186  0.81689  Biso   1.000  C
  H874     1.0000 0.40802  0.76141  0.81522  Biso   1.000  H
  H875     1.0000 0.15120  0.65210  0.40849  Biso   1.000  H
  H876     1.0000 0.23859  0.64659  0.81522  Biso   1.000  H
  C655     1.0000 0.18180  0.72182  0.60011  Biso   1.000  C
  C656     1.0000 0.30746  0.75947  0.81978  Biso   1.000  C
  N91      1.0000 0.20088  0.76684  0.66079  Biso   1.000  N
  C657     1.0000 0.13858  0.66150  0.63790  Biso   1.000  C
  N92      1.0000 0.25695  0.74629  0.85486  Biso   1.000  N
  C658     1.0000 0.35351  0.81889  0.77936  Biso   1.000  C
  C659     1.0000 0.18419  0.76740  0.78321  Biso   1.000  C
  H877     1.0000 0.13161  0.63530  0.57441  Biso   1.000  H
  H878     1.0000 0.15340  0.65090  0.70403  Biso   1.000  H
  H879     1.0000 0.10320  0.65999  0.65921  Biso   1.000  H
  C660     1.0000 0.23718  0.78808  0.85986  Biso   1.000  C
  H880     1.0000 0.38760  0.81781  0.75761  Biso   1.000  H
  H881     1.0000 0.33960  0.83039  0.71297  Biso   1.000  H
  H882     1.0000 0.36251  0.84599  0.84197  Biso   1.000  H
  H883     1.0000 0.15458  0.72850  0.80689  Biso   1.000  H
  C661     1.0000 0.16008  0.80920  0.79304  Biso   1.000  C
  C662     1.0000 0.22521  0.79580  0.98842  Biso   1.000  C
  H884     1.0000 0.26769  0.82501  0.82969  Biso   1.000  H
  H885     1.0000 0.18729  0.84599  0.75813  Biso   1.000  H
  H886     1.0000 0.12430  0.79360  0.74936  Biso   1.000  H
  C663     1.0000 0.14929  0.81859  0.92020  Biso   1.000  C
  C664     1.0000 0.20060  0.83552  0.99798  Biso   1.000  C
  H887     1.0000 0.19830  0.75870  0.02166  Biso   1.000  H
  H888     1.0000 0.26078  0.81178  0.03280  Biso   1.000  H
  H889     1.0000 0.13898  0.84849  0.92318  Biso   1.000  H
  H890     1.0000 0.11688  0.78339  0.95010  Biso   1.000  H
  H891     1.0000 0.23028  0.87430  0.97808  Biso   1.000  H
  H892     1.0000 0.18941  0.83591  0.07866  Biso   1.000  H
