data_image0
_cell_length_a       24.918
_cell_length_b       24.918
_cell_length_c       11.201
_cell_angle_alpha    90
_cell_angle_beta     90
_cell_angle_gamma    120

_symmetry_space_group_name_H-M    "P 1"
_symmetry_int_tables_number       1

loop_
  _symmetry_equiv_pos_as_xyz
  'x, y, z'

loop_
  _atom_site_label
  _atom_site_occupancy
  _atom_site_fract_x
  _atom_site_fract_y
  _atom_site_fract_z
  _atom_site_thermal_displace_type
  _atom_site_B_iso_or_equiv
  _atom_site_type_symbol
  C1       1.0000 0.91017  0.10672  0.61709  Biso   1.000  C
  C2       1.0000 0.85721  0.04792  0.64360  Biso   1.000  C
  C3       1.0000 0.85717  0.04792  0.64360  Biso   1.000  C
  C4       1.0000 0.94068  0.11789  0.50817  Biso   1.000  C
  H1       1.0000 0.92480  0.13879  0.67512  Biso   1.000  H
  H2       1.0000 0.92476  0.13879  0.67512  Biso   1.000  H
  C5       1.0000 0.82799  0.03772  0.76234  Biso   1.000  C
  C6       1.0000 0.83622  0.00241  0.55450  Biso   1.000  C
  C7       1.0000 0.91021  0.10672  0.61709  Biso   1.000  C
  C8       1.0000 0.83618  0.00241  0.55450  Biso   1.000  C
  C9       1.0000 0.91872  0.07021  0.42434  Biso   1.000  C
  C10      1.0000 0.91868  0.07021  0.42434  Biso   1.000  C
  C11      1.0000 0.99719  0.17938  0.47898  Biso   1.000  C
  C12      1.0000 0.99717  0.17943  0.47898  Biso   1.000  C
  C13      1.0000 0.99721  0.17943  0.47898  Biso   1.000  C
  N1       1.0000 0.84400  0.08522  0.82930  Biso   1.000  N
  C14      1.0000 0.78217  0.97215  0.79359  Biso   1.000  C
  C15      1.0000 0.78221  0.97215  0.79359  Biso   1.000  C
  C16      1.0000 0.86771  0.01321  0.44532  Biso   1.000  C
  C17      1.0000 0.86767  0.01321  0.44532  Biso   1.000  C
  H3       1.0000 0.79996  0.96344  0.56816  Biso   1.000  H
  H4       1.0000 0.79999  0.96348  0.56816  Biso   1.000  H
  H5       1.0000 0.93961  0.07739  0.35006  Biso   1.000  H
  H6       1.0000 0.93959  0.07743  0.35006  Biso   1.000  H
  H7       1.0000 0.93957  0.07739  0.35006  Biso   1.000  H
  N2       1.0000 0.00788  0.19259  0.36988  Biso   1.000  N
  C18      1.0000 0.03500  0.21729  0.58629  Biso   1.000  C
  C19      1.0000 0.03496  0.21729  0.58629  Biso   1.000  C
  C20      1.0000 0.82370  0.08202  0.94956  Biso   1.000  C
  H8       1.0000 0.74768  0.95584  0.73672  Biso   1.000  H
  H9       1.0000 0.76629  0.97057  0.87439  Biso   1.000  H
  H10      1.0000 0.80236  0.94703  0.79029  Biso   1.000  H
  H11      1.0000 0.74771  0.95588  0.73672  Biso   1.000  H
  H12      1.0000 0.80242  0.94708  0.79029  Biso   1.000  H
  H13      1.0000 0.74764  0.95584  0.73672  Biso   1.000  H
  H14      1.0000 0.80238  0.94708  0.79029  Biso   1.000  H
  C21      1.0000 0.84478  0.96237  0.35390  Biso   1.000  C
  C22      1.0000 0.06090  0.25038  0.32774  Biso   1.000  C
  C23      1.0000 0.06092  0.25042  0.32774  Biso   1.000  C
  C24      1.0000 0.06086  0.25038  0.32774  Biso   1.000  C
  H15      1.0000 0.02229  0.24741  0.60807  Biso   1.000  H
  H16      1.0000 0.07911  0.23921  0.56584  Biso   1.000  H
  H17      1.0000 0.02780  0.18948  0.65387  Biso   1.000  H
  H18      1.0000 0.02233  0.24741  0.60807  Biso   1.000  H
  H19      1.0000 0.02783  0.18953  0.65387  Biso   1.000  H
  H20      1.0000 0.07907  0.23921  0.56584  Biso   1.000  H
  H21      1.0000 0.02776  0.18948  0.65387  Biso   1.000  H
  C25      1.0000 0.78578  0.11423  0.96286  Biso   1.000  C
  H22      1.0000 0.79779  0.03758  0.97348  Biso   1.000  H
  C26      1.0000 0.78580  0.11418  0.96286  Biso   1.000  C
  H23      1.0000 0.79777  0.03763  0.97348  Biso   1.000  H
  C27      1.0000 0.78576  0.11418  0.96286  Biso   1.000  C
  H24      1.0000 0.79781  0.03763  0.97348  Biso   1.000  H
  C28      1.0000 0.78582  0.11423  0.96286  Biso   1.000  C
  C29      1.0000 0.88130  0.11312  0.02910  Biso   1.000  C
  C30      1.0000 0.88126  0.11312  0.02910  Biso   1.000  C
  N3       1.0000 0.78758  0.92094  0.35979  Biso   1.000  N
  C31      1.0000 0.89118  0.96793  0.26221  Biso   1.000  C
  N4       1.0000 0.78761  0.92099  0.35979  Biso   1.000  N
  C32      1.0000 0.89121  0.96798  0.26221  Biso   1.000  C
  N5       1.0000 0.78754  0.92094  0.35979  Biso   1.000  N
  C33      1.0000 0.89114  0.96793  0.26221  Biso   1.000  C
  C34      1.0000 0.89117  0.96798  0.26221  Biso   1.000  C
  H25      1.0000 0.07999  0.27989  0.39577  Biso   1.000  H
  C35      1.0000 0.10901  0.23768  0.27024  Biso   1.000  C
  C36      1.0000 0.03780  0.27818  0.23382  Biso   1.000  C
  C37      1.0000 0.10903  0.23772  0.27024  Biso   1.000  C
  C38      1.0000 0.03782  0.27823  0.23382  Biso   1.000  C
  C39      1.0000 0.10897  0.23768  0.27024  Biso   1.000  C
  C40      1.0000 0.03776  0.27818  0.23382  Biso   1.000  C
  C41      1.0000 0.10899  0.23772  0.27024  Biso   1.000  C
  H26      1.0000 0.74678  0.09129  0.91670  Biso   1.000  H
  H27      1.0000 0.80938  0.15668  0.93036  Biso   1.000  H
  H28      1.0000 0.80940  0.15672  0.93036  Biso   1.000  H
  C42      1.0000 0.77032  0.11701  0.09562  Biso   1.000  C
  C43      1.0000 0.77028  0.11701  0.09562  Biso   1.000  C
  H29      1.0000 0.91090  0.15538  0.99741  Biso   1.000  H
  H30      1.0000 0.91089  0.15542  0.99741  Biso   1.000  H
  H31      1.0000 0.91086  0.15538  0.99741  Biso   1.000  H
  H32      1.0000 0.91093  0.15542  0.99741  Biso   1.000  H
  N6       1.0000 0.90968  0.07428  0.02366  Biso   1.000  N
  C44      1.0000 0.86659  0.11789  0.15900  Biso   1.000  C
  N7       1.0000 0.90967  0.07433  0.02366  Biso   1.000  N
  C45      1.0000 0.86655  0.11789  0.15900  Biso   1.000  C
  N8       1.0000 0.90971  0.07433  0.02366  Biso   1.000  N
  C46      1.0000 0.76231  0.87127  0.27024  Biso   1.000  C
  C47      1.0000 0.76227  0.87127  0.27024  Biso   1.000  C
  H33      1.0000 0.89127  0.99347  0.19552  Biso   1.000  H
  H34      1.0000 0.88009  0.92664  0.23284  Biso   1.000  H
  H35      1.0000 0.93256  0.98744  0.29828  Biso   1.000  H
  H36      1.0000 0.89131  0.99347  0.19552  Biso   1.000  H
  H37      1.0000 0.88011  0.92669  0.23284  Biso   1.000  H
  H38      1.0000 0.93258  0.98749  0.29828  Biso   1.000  H
  H39      1.0000 0.88005  0.92664  0.23284  Biso   1.000  H
  H40      1.0000 0.88007  0.92669  0.23284  Biso   1.000  H
  N9       1.0000 0.13340  0.21238  0.35979  Biso   1.000  N
  H41      1.0000 0.08980  0.20770  0.20284  Biso   1.000  H
  C48      1.0000 0.16357  0.29977  0.22311  Biso   1.000  C
  N10      1.0000 0.13342  0.21242  0.35979  Biso   1.000  N
  C49      1.0000 0.16363  0.29982  0.22311  Biso   1.000  C
  N11      1.0000 0.13336  0.21238  0.35979  Biso   1.000  N
  C50      1.0000 0.16359  0.29982  0.22311  Biso   1.000  C
  C51      1.0000 0.09100  0.33828  0.18463  Biso   1.000  C
  H42      1.0000 0.00639  0.28647  0.26971  Biso   1.000  H
  H43      1.0000 0.01800  0.24829  0.16784  Biso   1.000  H
  C52      1.0000 0.09103  0.33833  0.18463  Biso   1.000  C
  H44      1.0000 0.00641  0.28652  0.26971  Biso   1.000  H
  C53      1.0000 0.09096  0.33828  0.18463  Biso   1.000  C
  C54      1.0000 0.09099  0.33833  0.18463  Biso   1.000  C
  C55      1.0000 0.82820  0.15042  0.16847  Biso   1.000  C
  H45      1.0000 0.74629  0.13870  0.10249  Biso   1.000  H
  H46      1.0000 0.74439  0.07438  0.12677  Biso   1.000  H
  H47      1.0000 0.74437  0.07442  0.12677  Biso   1.000  H
  H48      1.0000 0.74441  0.07442  0.12677  Biso   1.000  H
  C56      1.0000 0.96280  0.09319  0.97152  Biso   1.000  C
  C57      1.0000 0.96276  0.09319  0.97152  Biso   1.000  C
  H49      1.0000 0.90560  0.14148  0.20454  Biso   1.000  H
  H50      1.0000 0.84303  0.07581  0.19400  Biso   1.000  H
  H51      1.0000 0.90558  0.14152  0.20454  Biso   1.000  H
  H52      1.0000 0.84299  0.07581  0.19400  Biso   1.000  H
  H53      1.0000 0.90556  0.14148  0.20454  Biso   1.000  H
  H54      1.0000 0.90562  0.14152  0.20454  Biso   1.000  H
  C58      1.0000 0.74960  0.81047  0.32774  Biso   1.000  C
  H55      1.0000 0.79230  0.88206  0.20284  Biso   1.000  H
  C59      1.0000 0.70020  0.86376  0.22311  Biso   1.000  C
  C60      1.0000 0.74956  0.81047  0.32774  Biso   1.000  C
  H56      1.0000 0.79226  0.88206  0.20284  Biso   1.000  H
  C61      1.0000 0.70016  0.86376  0.22311  Biso   1.000  C
  C62      1.0000 0.11761  0.15519  0.35390  Biso   1.000  C
  C63      1.0000 0.11757  0.15519  0.35390  Biso   1.000  C
  C64      1.0000 0.14182  0.32971  0.13311  Biso   1.000  C
  H57      1.0000 0.18351  0.32841  0.29087  Biso   1.000  H
  H58      1.0000 0.19490  0.29180  0.18561  Biso   1.000  H
  C65      1.0000 0.14178  0.32971  0.13311  Biso   1.000  C
  H59      1.0000 0.07491  0.35450  0.12186  Biso   1.000  H
  H60      1.0000 0.10820  0.36938  0.24953  Biso   1.000  H
  H61      1.0000 0.10822  0.36942  0.24953  Biso   1.000  H
  H62      1.0000 0.07487  0.35450  0.12186  Biso   1.000  H
  H63      1.0000 0.10816  0.36938  0.24953  Biso   1.000  H
  H64      1.0000 0.81738  0.15158  0.25310  Biso   1.000  H
  H65      1.0000 0.85329  0.19370  0.13990  Biso   1.000  H
  H66      1.0000 0.81736  0.15162  0.25310  Biso   1.000  H
  H67      1.0000 0.81740  0.15162  0.25310  Biso   1.000  H
  C66      1.0000 0.98332  0.04611  0.96634  Biso   1.000  C
  C67      1.0000 0.98328  0.04611  0.96634  Biso   1.000  C
  C68      1.0000 0.00579  0.15621  0.92108  Biso   1.000  C
  C69      1.0000 0.00583  0.15621  0.92108  Biso   1.000  C
  N12      1.0000 0.80737  0.81524  0.36988  Biso   1.000  N
  H68      1.0000 0.72007  0.80004  0.39577  Biso   1.000  H
  C70      1.0000 0.72177  0.75954  0.23382  Biso   1.000  C
  N13      1.0000 0.80740  0.81529  0.36988  Biso   1.000  N
  H69      1.0000 0.72009  0.80009  0.39577  Biso   1.000  H
  C71      1.0000 0.72180  0.75959  0.23382  Biso   1.000  C
  C72      1.0000 0.67029  0.81204  0.13311  Biso   1.000  C
  H70      1.0000 0.67156  0.85505  0.29087  Biso   1.000  H
  H71      1.0000 0.70817  0.90306  0.18561  Biso   1.000  H
  C73      1.0000 0.67031  0.81209  0.13311  Biso   1.000  C
  H72      1.0000 0.67160  0.85505  0.29087  Biso   1.000  H
  H73      1.0000 0.70821  0.90306  0.18561  Biso   1.000  H
  C74      1.0000 0.67025  0.81204  0.13311  Biso   1.000  C
  C75      1.0000 0.67027  0.81209  0.13311  Biso   1.000  C
  C76      1.0000 0.14549  0.13230  0.44532  Biso   1.000  C
  C77      1.0000 0.07680  0.10881  0.26221  Biso   1.000  C
  H74      1.0000 0.17710  0.37049  0.10928  Biso   1.000  H
  H75      1.0000 0.12649  0.30339  0.06080  Biso   1.000  H
  C78      1.0000 0.93748  0.98244  0.96599  Biso   1.000  C
  C79      1.0000 0.93751  0.98248  0.96599  Biso   1.000  C
  C80      1.0000 0.93744  0.98244  0.96599  Biso   1.000  C
  C81      1.0000 0.93747  0.98248  0.96599  Biso   1.000  C
  C82      1.0000 0.04502  0.06251  0.96599  Biso   1.000  C
  C83      1.0000 0.04498  0.06251  0.96599  Biso   1.000  C
  H76      1.0000 0.98487  0.18068  0.92001  Biso   1.000  H
  H77      1.0000 0.98490  0.18073  0.92001  Biso   1.000  H
  H78      1.0000 0.04300  0.17702  0.97072  Biso   1.000  H
  H79      1.0000 0.01732  0.15190  0.83948  Biso   1.000  H
  H80      1.0000 0.01728  0.15190  0.83948  Biso   1.000  H
  C84      1.0000 0.82058  0.81774  0.47898  Biso   1.000  C
  C85      1.0000 0.82061  0.81779  0.47898  Biso   1.000  C
  C86      1.0000 0.82054  0.81774  0.47898  Biso   1.000  C
  C87      1.0000 0.66165  0.75264  0.18463  Biso   1.000  C
  H81      1.0000 0.71350  0.71987  0.26971  Biso   1.000  H
  H82      1.0000 0.75167  0.76964  0.16784  Biso   1.000  H
  C88      1.0000 0.66172  0.75268  0.18463  Biso   1.000  C
  H83      1.0000 0.75169  0.76969  0.16784  Biso   1.000  H
  H84      1.0000 0.71346  0.71987  0.26971  Biso   1.000  H
  C89      1.0000 0.66168  0.75268  0.18463  Biso   1.000  C
  H85      1.0000 0.62951  0.80658  0.10928  Biso   1.000  H
  H86      1.0000 0.69659  0.82307  0.06080  Biso   1.000  H
  H87      1.0000 0.62947  0.80658  0.10928  Biso   1.000  H
  C90      1.0000 0.16622  0.16381  0.55450  Biso   1.000  C
  C91      1.0000 0.15148  0.08128  0.42434  Biso   1.000  C
  C92      1.0000 0.15151  0.08133  0.42434  Biso   1.000  C
  C93      1.0000 0.16618  0.16381  0.55450  Biso   1.000  C
  H88      1.0000 0.10219  0.10871  0.19552  Biso   1.000  H
  H89      1.0000 0.04658  0.11988  0.23284  Biso   1.000  H
  H90      1.0000 0.05488  0.06738  0.29828  Biso   1.000  H
  H91      1.0000 0.10223  0.10871  0.19552  Biso   1.000  H
  H92      1.0000 0.04664  0.11993  0.23284  Biso   1.000  H
  H93      1.0000 0.05490  0.06742  0.29828  Biso   1.000  H
  H94      1.0000 0.04660  0.11993  0.23284  Biso   1.000  H
  C94      1.0000 0.95389  0.93716  0.96634  Biso   1.000  C
  H95      1.0000 0.89489  0.97085  0.96563  Biso   1.000  H
  C95      1.0000 0.95385  0.93716  0.96634  Biso   1.000  C
  H96      1.0000 0.89485  0.97085  0.96563  Biso   1.000  H
  C96      1.0000 0.06280  0.01668  0.96634  Biso   1.000  C
  H97      1.0000 0.07599  0.10510  0.96563  Biso   1.000  H
  C97      1.0000 0.06282  0.01673  0.96634  Biso   1.000  C
  H98      1.0000 0.07603  0.10510  0.96563  Biso   1.000  H
  C98      1.0000 0.06276  0.01668  0.96634  Biso   1.000  C
  C99      1.0000 0.88208  0.82275  0.50817  Biso   1.000  C
  C100     1.0000 0.78269  0.81765  0.58629  Biso   1.000  C
  C101     1.0000 0.78265  0.81765  0.58629  Biso   1.000  C
  H99      1.0000 0.64546  0.72034  0.12186  Biso   1.000  H
  H100     1.0000 0.63058  0.73873  0.24953  Biso   1.000  H
  H101     1.0000 0.64549  0.72038  0.12186  Biso   1.000  H
  H102     1.0000 0.63061  0.73878  0.24953  Biso   1.000  H
  H103     1.0000 0.63054  0.73873  0.24953  Biso   1.000  H
  H104     1.0000 0.63057  0.73878  0.24953  Biso   1.000  H
  C102     1.0000 0.19072  0.14282  0.64360  Biso   1.000  C
  C103     1.0000 0.19068  0.14282  0.64360  Biso   1.000  C
  H105     1.0000 0.16349  0.20000  0.56816  Biso   1.000  H
  C104     1.0000 0.17722  0.05932  0.50817  Biso   1.000  C
  H106     1.0000 0.13778  0.06038  0.35006  Biso   1.000  H
  H107     1.0000 0.13781  0.06043  0.35006  Biso   1.000  H
  C105     1.0000 0.17718  0.05932  0.50817  Biso   1.000  C
  C106     1.0000 0.90676  0.86955  0.97152  Biso   1.000  C
  C107     1.0000 0.90680  0.86955  0.97152  Biso   1.000  C
  C108     1.0000 0.01749  0.95496  0.96599  Biso   1.000  C
  C109     1.0000 0.13041  0.03721  0.97152  Biso   1.000  C
  C110     1.0000 0.13037  0.03721  0.97152  Biso   1.000  C
  C111     1.0000 0.89327  0.80347  0.61709  Biso   1.000  C
  C112     1.0000 0.92977  0.84847  0.42434  Biso   1.000  C
  C113     1.0000 0.89331  0.80347  0.61709  Biso   1.000  C
  H108     1.0000 0.75260  0.77488  0.60807  Biso   1.000  H
  H109     1.0000 0.76076  0.83985  0.56584  Biso   1.000  H
  H110     1.0000 0.81050  0.83827  0.65387  Biso   1.000  H
  H111     1.0000 0.76080  0.83985  0.56584  Biso   1.000  H
  H112     1.0000 0.75256  0.77488  0.60807  Biso   1.000  H
  H113     1.0000 0.81046  0.83827  0.65387  Biso   1.000  H
  C114     1.0000 0.20969  0.17201  0.76234  Biso   1.000  C
  C115     1.0000 0.20973  0.17201  0.76234  Biso   1.000  C
  C116     1.0000 0.19652  0.08981  0.61709  Biso   1.000  C
  C117     1.0000 0.19648  0.08981  0.61709  Biso   1.000  C
  C118     1.0000 0.18218  0.00278  0.47898  Biso   1.000  C
  C119     1.0000 0.18221  0.00283  0.47898  Biso   1.000  C
  C120     1.0000 0.84378  0.84953  0.92108  Biso   1.000  C
  C121     1.0000 0.84380  0.84958  0.92108  Biso   1.000  C
  C122     1.0000 0.84374  0.84953  0.92108  Biso   1.000  C
  C123     1.0000 0.84376  0.84958  0.92108  Biso   1.000  C
  N14      1.0000 0.92566  0.83535  0.02366  Biso   1.000  N
  N15      1.0000 0.92570  0.83535  0.02366  Biso   1.000  N
  H114     1.0000 0.02908  0.92396  0.96563  Biso   1.000  H
  H115     1.0000 0.02912  0.92396  0.96563  Biso   1.000  H
  C124     1.0000 0.15038  0.99416  0.92108  Biso   1.000  C
  N16      1.0000 0.16459  0.09032  0.02366  Biso   1.000  N
  N17      1.0000 0.16463  0.09032  0.02366  Biso   1.000  N
  C125     1.0000 0.95207  0.80926  0.64360  Biso   1.000  C
  C126     1.0000 0.95211  0.80926  0.64360  Biso   1.000  C
  H116     1.0000 0.86119  0.78596  0.67512  Biso   1.000  H
  H117     1.0000 0.86115  0.78596  0.67512  Biso   1.000  H
  H118     1.0000 0.92256  0.86214  0.35006  Biso   1.000  H
  C127     1.0000 0.98678  0.85445  0.44532  Biso   1.000  C
  H119     1.0000 0.92258  0.86218  0.35006  Biso   1.000  H
  C128     1.0000 0.98674  0.85445  0.44532  Biso   1.000  C
  N18      1.0000 0.24121  0.15598  0.82930  Biso   1.000  N
  N19      1.0000 0.24123  0.15603  0.82930  Biso   1.000  N
  N20      1.0000 0.24117  0.15598  0.82930  Biso   1.000  N
  N21      1.0000 0.24119  0.15603  0.82930  Biso   1.000  N
  C129     1.0000 0.19001  0.21780  0.79359  Biso   1.000  C
  C130     1.0000 0.18996  0.21780  0.79359  Biso   1.000  C
  H120     1.0000 0.21398  0.07521  0.67512  Biso   1.000  H
  H121     1.0000 0.21402  0.07521  0.67512  Biso   1.000  H
  N22      1.0000 0.18470  0.99208  0.36988  Biso   1.000  N
  C131     1.0000 0.18230  0.96497  0.58629  Biso   1.000  C
  C132     1.0000 0.18226  0.96497  0.58629  Biso   1.000  C
  H122     1.0000 0.82297  0.86594  0.97072  Biso   1.000  H
  H123     1.0000 0.81929  0.80417  0.92001  Biso   1.000  H
  H124     1.0000 0.84807  0.86534  0.83948  Biso   1.000  H
  H125     1.0000 0.82299  0.86598  0.97072  Biso   1.000  H
  H126     1.0000 0.84809  0.86538  0.83948  Biso   1.000  H
  H127     1.0000 0.81925  0.80417  0.92001  Biso   1.000  H
  C133     1.0000 0.88689  0.76816  0.02910  Biso   1.000  C
  C134     1.0000 0.88685  0.76816  0.02910  Biso   1.000  C
  H128     1.0000 0.13399  0.95695  0.97072  Biso   1.000  H
  H129     1.0000 0.13456  0.98267  0.83948  Biso   1.000  H
  H130     1.0000 0.13460  0.98267  0.83948  Biso   1.000  H
  H131     1.0000 0.13395  0.95695  0.97072  Biso   1.000  H
  H132     1.0000 0.19581  0.01511  0.92001  Biso   1.000  H
  H133     1.0000 0.19577  0.01511  0.92001  Biso   1.000  H
  C135     1.0000 0.23178  0.11868  0.02910  Biso   1.000  C
  C136     1.0000 0.23181  0.11872  0.02910  Biso   1.000  C
  C137     1.0000 0.96227  0.79027  0.76234  Biso   1.000  C
  C138     1.0000 0.99759  0.83378  0.55450  Biso   1.000  C
  C139     1.0000 0.99755  0.83378  0.55450  Biso   1.000  C
  C140     1.0000 0.03757  0.88234  0.35390  Biso   1.000  C
  C141     1.0000 0.03759  0.88239  0.35390  Biso   1.000  C
  C142     1.0000 0.03761  0.88234  0.35390  Biso   1.000  C
  C143     1.0000 0.25830  0.17628  0.94956  Biso   1.000  C
  C144     1.0000 0.25832  0.17632  0.94956  Biso   1.000  C
  C145     1.0000 0.25826  0.17628  0.94956  Biso   1.000  C
  H134     1.0000 0.20817  0.25228  0.73672  Biso   1.000  H
  H135     1.0000 0.20429  0.23369  0.87439  Biso   1.000  H
  H136     1.0000 0.14471  0.19759  0.79029  Biso   1.000  H
  H137     1.0000 0.20823  0.25232  0.73672  Biso   1.000  H
  H138     1.0000 0.14467  0.19759  0.79029  Biso   1.000  H
  H139     1.0000 0.20819  0.25232  0.73672  Biso   1.000  H
  C146     1.0000 0.18949  0.93906  0.32774  Biso   1.000  C
  C147     1.0000 0.18945  0.93906  0.32774  Biso   1.000  C
  H140     1.0000 0.22509  0.97766  0.60807  Biso   1.000  H
  H141     1.0000 0.16008  0.92085  0.56584  Biso   1.000  H
  H142     1.0000 0.16169  0.97215  0.65387  Biso   1.000  H
  H143     1.0000 0.16165  0.97215  0.65387  Biso   1.000  H
  H144     1.0000 0.84458  0.75546  0.99741  Biso   1.000  H
  C148     1.0000 0.91798  0.74165  0.94956  Biso   1.000  C
  C149     1.0000 0.91794  0.74165  0.94956  Biso   1.000  C
  C150     1.0000 0.88207  0.74865  0.15900  Biso   1.000  C
  H145     1.0000 0.24449  0.08911  0.99741  Biso   1.000  H
  C151     1.0000 0.25131  0.13341  0.15900  Biso   1.000  C
  C152     1.0000 0.25127  0.13341  0.15900  Biso   1.000  C
  N23      1.0000 0.91477  0.75875  0.82930  Biso   1.000  N
  C153     1.0000 0.02778  0.80996  0.79359  Biso   1.000  C
  H146     1.0000 0.03650  0.83647  0.56816  Biso   1.000  H
  H147     1.0000 0.03646  0.83647  0.56816  Biso   1.000  H
  N24      1.0000 0.07895  0.86654  0.35979  Biso   1.000  N
  C154     1.0000 0.03198  0.92317  0.26221  Biso   1.000  C
  N25      1.0000 0.07901  0.86659  0.35979  Biso   1.000  N
  N26      1.0000 0.07899  0.86654  0.35979  Biso   1.000  N
  C155     1.0000 0.03202  0.92317  0.26221  Biso   1.000  C
  N27      1.0000 0.07897  0.86659  0.35979  Biso   1.000  N
  H148     1.0000 0.23979  0.20218  0.97348  Biso   1.000  H
  C156     1.0000 0.32838  0.21418  0.96286  Biso   1.000  C
  H149     1.0000 0.23981  0.20223  0.97348  Biso   1.000  H
  C157     1.0000 0.32840  0.21423  0.96286  Biso   1.000  C
  C158     1.0000 0.12868  0.89096  0.27024  Biso   1.000  C
  C159     1.0000 0.12872  0.89096  0.27024  Biso   1.000  C
  H150     1.0000 0.19989  0.91997  0.39577  Biso   1.000  H
  C160     1.0000 0.24036  0.96214  0.23382  Biso   1.000  C
  C161     1.0000 0.24038  0.96219  0.23382  Biso   1.000  C
  C162     1.0000 0.24040  0.96214  0.23382  Biso   1.000  C
  H151     1.0000 0.96238  0.76014  0.97348  Biso   1.000  H
  C163     1.0000 0.88577  0.67154  0.96286  Biso   1.000  C
  H152     1.0000 0.96241  0.76019  0.97348  Biso   1.000  H
  C164     1.0000 0.88580  0.67159  0.96286  Biso   1.000  C
  H153     1.0000 0.96234  0.76014  0.97348  Biso   1.000  H
  C165     1.0000 0.88573  0.67154  0.96286  Biso   1.000  C
  C166     1.0000 0.84959  0.67775  0.16847  Biso   1.000  C
  H154     1.0000 0.85846  0.76404  0.20454  Biso   1.000  H
  H155     1.0000 0.92418  0.76714  0.19400  Biso   1.000  H
  H156     1.0000 0.85848  0.76408  0.20454  Biso   1.000  H
  H157     1.0000 0.92421  0.76719  0.19400  Biso   1.000  H
  C167     1.0000 0.84955  0.67775  0.16847  Biso   1.000  C
  H158     1.0000 0.92414  0.76714  0.19400  Biso   1.000  H
  H159     1.0000 0.92417  0.76719  0.19400  Biso   1.000  H
  C168     1.0000 0.32219  0.17178  0.16847  Biso   1.000  C
  H160     1.0000 0.23590  0.09439  0.20454  Biso   1.000  H
  H161     1.0000 0.23281  0.15700  0.19400  Biso   1.000  H
  C169     1.0000 0.32221  0.17183  0.16847  Biso   1.000  C
  H162     1.0000 0.23277  0.15700  0.19400  Biso   1.000  H
  H163     1.0000 0.04408  0.79175  0.73672  Biso   1.000  H
  H164     1.0000 0.02937  0.79564  0.87439  Biso   1.000  H
  H165     1.0000 0.05287  0.85523  0.79029  Biso   1.000  H
  H166     1.0000 0.02939  0.79569  0.87439  Biso   1.000  H
  H167     1.0000 0.05289  0.85528  0.79029  Biso   1.000  H
  H168     1.0000 0.02941  0.79564  0.87439  Biso   1.000  H
  H169     1.0000 0.05291  0.85523  0.79029  Biso   1.000  H
  H170     1.0000 0.00648  0.89777  0.19552  Biso   1.000  H
  H171     1.0000 0.07326  0.95334  0.23284  Biso   1.000  H
  H172     1.0000 0.01245  0.94504  0.29828  Biso   1.000  H
  H173     1.0000 0.07329  0.95338  0.23284  Biso   1.000  H
  H174     1.0000 0.01251  0.94509  0.29828  Biso   1.000  H
  H175     1.0000 0.00652  0.89777  0.19552  Biso   1.000  H
  H176     1.0000 0.07330  0.95334  0.23284  Biso   1.000  H
  H177     1.0000 0.01249  0.94504  0.29828  Biso   1.000  H
  H178     1.0000 0.01247  0.94509  0.29828  Biso   1.000  H
  H179     1.0000 0.34452  0.25320  0.91670  Biso   1.000  H
  H180     1.0000 0.34728  0.19060  0.93036  Biso   1.000  H
  H181     1.0000 0.34448  0.25320  0.91670  Biso   1.000  H
  C170     1.0000 0.34669  0.22971  0.09562  Biso   1.000  C
  H182     1.0000 0.11789  0.91015  0.20284  Biso   1.000  H
  C171     1.0000 0.13618  0.83637  0.22311  Biso   1.000  C
  C172     1.0000 0.13622  0.83637  0.22311  Biso   1.000  C
  H183     1.0000 0.11785  0.91015  0.20284  Biso   1.000  H
  C173     1.0000 0.24727  0.90894  0.18463  Biso   1.000  C
  H184     1.0000 0.28007  0.99356  0.26971  Biso   1.000  H
  H185     1.0000 0.23029  0.98197  0.16784  Biso   1.000  H
  C174     1.0000 0.24729  0.90899  0.18463  Biso   1.000  C
  H186     1.0000 0.28011  0.99356  0.26971  Biso   1.000  H
  H187     1.0000 0.90868  0.65546  0.91670  Biso   1.000  H
  H188     1.0000 0.84328  0.65268  0.93036  Biso   1.000  H
  H189     1.0000 0.84332  0.65268  0.93036  Biso   1.000  H
  C175     1.0000 0.88296  0.65324  0.09562  Biso   1.000  C
  C176     1.0000 0.88299  0.65328  0.09562  Biso   1.000  C
  H190     1.0000 0.84837  0.66575  0.25310  Biso   1.000  H
  H191     1.0000 0.80625  0.65954  0.13990  Biso   1.000  H
  H192     1.0000 0.80632  0.65959  0.13990  Biso   1.000  H
  H193     1.0000 0.80628  0.65959  0.13990  Biso   1.000  H
  H194     1.0000 0.33417  0.18258  0.25310  Biso   1.000  H
  H195     1.0000 0.34039  0.14671  0.13990  Biso   1.000  H
  H196     1.0000 0.33423  0.18263  0.25310  Biso   1.000  H
  H197     1.0000 0.33419  0.18263  0.25310  Biso   1.000  H
  H198     1.0000 0.39241  0.25371  0.10249  Biso   1.000  H
  H199     1.0000 0.32999  0.25561  0.12677  Biso   1.000  H
  H200     1.0000 0.33003  0.25561  0.12677  Biso   1.000  H
  H201     1.0000 0.39237  0.25371  0.10249  Biso   1.000  H
  C177     1.0000 0.18789  0.85815  0.13311  Biso   1.000  C
  H202     1.0000 0.14488  0.81645  0.29087  Biso   1.000  H
  H203     1.0000 0.09688  0.80505  0.18561  Biso   1.000  H
  C178     1.0000 0.18785  0.85815  0.13311  Biso   1.000  C
  H204     1.0000 0.27957  0.92507  0.12186  Biso   1.000  H
  H205     1.0000 0.26119  0.89175  0.24953  Biso   1.000  H
  H206     1.0000 0.27961  0.92507  0.12186  Biso   1.000  H
  H207     1.0000 0.26115  0.89175  0.24953  Biso   1.000  H
  H208     1.0000 0.86128  0.60755  0.10249  Biso   1.000  H
  H209     1.0000 0.92560  0.66997  0.12677  Biso   1.000  H
  H210     1.0000 0.86130  0.60759  0.10249  Biso   1.000  H
  H211     1.0000 0.86124  0.60755  0.10249  Biso   1.000  H
  H212     1.0000 0.92556  0.66997  0.12677  Biso   1.000  H
  H213     1.0000 0.19339  0.82284  0.10928  Biso   1.000  H
  H214     1.0000 0.17687  0.87345  0.06080  Biso   1.000  H
  H215     1.0000 0.19341  0.82289  0.10928  Biso   1.000  H
  H216     1.0000 0.17691  0.87345  0.06080  Biso   1.000  H
  H217     1.0000 0.19337  0.82289  0.10928  Biso   1.000  H
  C179     1.0000 0.91017  0.10672  0.61709  Biso   1.000  C
  C180     1.0000 0.85721  0.04792  0.64360  Biso   1.000  C
  C181     1.0000 0.85717  0.04792  0.64360  Biso   1.000  C
  C182     1.0000 0.94068  0.11789  0.50817  Biso   1.000  C
  H218     1.0000 0.92480  0.13879  0.67512  Biso   1.000  H
  H219     1.0000 0.92476  0.13879  0.67512  Biso   1.000  H
  C183     1.0000 0.82799  0.03772  0.76234  Biso   1.000  C
  C184     1.0000 0.83618  0.00241  0.55450  Biso   1.000  C
  C185     1.0000 0.91021  0.10672  0.61709  Biso   1.000  C
  C186     1.0000 0.83622  0.00241  0.55450  Biso   1.000  C
  C187     1.0000 0.91868  0.07021  0.42434  Biso   1.000  C
  C188     1.0000 0.91872  0.07021  0.42434  Biso   1.000  C
  C189     1.0000 0.99719  0.17938  0.47898  Biso   1.000  C
  C190     1.0000 0.99717  0.17943  0.47898  Biso   1.000  C
  C191     1.0000 0.99721  0.17943  0.47898  Biso   1.000  C
  N28      1.0000 0.84400  0.08522  0.82930  Biso   1.000  N
  C192     1.0000 0.78217  0.97215  0.79359  Biso   1.000  C
  C193     1.0000 0.78221  0.97215  0.79359  Biso   1.000  C
  C194     1.0000 0.86771  0.01321  0.44532  Biso   1.000  C
  H220     1.0000 0.79996  0.96344  0.56816  Biso   1.000  H
  H221     1.0000 0.79999  0.96348  0.56816  Biso   1.000  H
  C195     1.0000 0.86767  0.01321  0.44532  Biso   1.000  C
  H222     1.0000 0.93959  0.07743  0.35006  Biso   1.000  H
  H223     1.0000 0.93961  0.07739  0.35006  Biso   1.000  H
  H224     1.0000 0.93957  0.07739  0.35006  Biso   1.000  H
  N29      1.0000 0.00788  0.19259  0.36988  Biso   1.000  N
  C196     1.0000 0.03500  0.21729  0.58629  Biso   1.000  C
  C197     1.0000 0.03496  0.21729  0.58629  Biso   1.000  C
  C198     1.0000 0.82370  0.08202  0.94956  Biso   1.000  C
  H225     1.0000 0.74768  0.95584  0.73672  Biso   1.000  H
  H226     1.0000 0.76629  0.97057  0.87439  Biso   1.000  H
  H227     1.0000 0.80236  0.94703  0.79029  Biso   1.000  H
  H228     1.0000 0.74771  0.95588  0.73672  Biso   1.000  H
  H229     1.0000 0.80242  0.94708  0.79029  Biso   1.000  H
  H230     1.0000 0.74764  0.95584  0.73672  Biso   1.000  H
  H231     1.0000 0.80238  0.94708  0.79029  Biso   1.000  H
  C199     1.0000 0.84478  0.96237  0.35390  Biso   1.000  C
  C200     1.0000 0.06090  0.25038  0.32774  Biso   1.000  C
  C201     1.0000 0.06092  0.25042  0.32774  Biso   1.000  C
  C202     1.0000 0.06086  0.25038  0.32774  Biso   1.000  C
  H232     1.0000 0.02229  0.24741  0.60807  Biso   1.000  H
  H233     1.0000 0.07911  0.23921  0.56584  Biso   1.000  H
  H234     1.0000 0.02780  0.18948  0.65387  Biso   1.000  H
  H235     1.0000 0.02233  0.24741  0.60807  Biso   1.000  H
  H236     1.0000 0.02783  0.18953  0.65387  Biso   1.000  H
  H237     1.0000 0.07907  0.23921  0.56584  Biso   1.000  H
  H238     1.0000 0.02776  0.18948  0.65387  Biso   1.000  H
  H239     1.0000 0.79779  0.03758  0.97348  Biso   1.000  H
  C203     1.0000 0.78580  0.11418  0.96286  Biso   1.000  C
  H240     1.0000 0.79777  0.03763  0.97348  Biso   1.000  H
  C204     1.0000 0.78578  0.11423  0.96286  Biso   1.000  C
  C205     1.0000 0.78576  0.11418  0.96286  Biso   1.000  C
  H241     1.0000 0.79781  0.03763  0.97348  Biso   1.000  H
  C206     1.0000 0.78582  0.11423  0.96286  Biso   1.000  C
  C207     1.0000 0.88130  0.11312  0.02910  Biso   1.000  C
  C208     1.0000 0.88126  0.11312  0.02910  Biso   1.000  C
  N30      1.0000 0.78758  0.92094  0.35979  Biso   1.000  N
  C209     1.0000 0.89118  0.96793  0.26221  Biso   1.000  C
  N31      1.0000 0.78761  0.92099  0.35979  Biso   1.000  N
  C210     1.0000 0.89121  0.96798  0.26221  Biso   1.000  C
  N32      1.0000 0.78754  0.92094  0.35979  Biso   1.000  N
  C211     1.0000 0.89114  0.96793  0.26221  Biso   1.000  C
  C212     1.0000 0.89117  0.96798  0.26221  Biso   1.000  C
  H242     1.0000 0.07999  0.27989  0.39577  Biso   1.000  H
  C213     1.0000 0.10901  0.23768  0.27024  Biso   1.000  C
  C214     1.0000 0.03780  0.27818  0.23382  Biso   1.000  C
  C215     1.0000 0.10903  0.23772  0.27024  Biso   1.000  C
  C216     1.0000 0.03782  0.27823  0.23382  Biso   1.000  C
  C217     1.0000 0.10897  0.23768  0.27024  Biso   1.000  C
  C218     1.0000 0.03776  0.27818  0.23382  Biso   1.000  C
  C219     1.0000 0.10899  0.23772  0.27024  Biso   1.000  C
  H243     1.0000 0.74678  0.09129  0.91670  Biso   1.000  H
  H244     1.0000 0.80938  0.15668  0.93036  Biso   1.000  H
  H245     1.0000 0.80940  0.15672  0.93036  Biso   1.000  H
  C220     1.0000 0.77032  0.11701  0.09562  Biso   1.000  C
  C221     1.0000 0.77028  0.11701  0.09562  Biso   1.000  C
  H246     1.0000 0.91090  0.15538  0.99741  Biso   1.000  H
  H247     1.0000 0.91089  0.15542  0.99741  Biso   1.000  H
  H248     1.0000 0.91086  0.15538  0.99741  Biso   1.000  H
  H249     1.0000 0.91093  0.15542  0.99741  Biso   1.000  H
  N33      1.0000 0.90968  0.07428  0.02366  Biso   1.000  N
  C222     1.0000 0.86659  0.11789  0.15900  Biso   1.000  C
  N34      1.0000 0.90967  0.07433  0.02366  Biso   1.000  N
  C223     1.0000 0.86655  0.11789  0.15900  Biso   1.000  C
  N35      1.0000 0.90971  0.07433  0.02366  Biso   1.000  N
  C224     1.0000 0.76231  0.87127  0.27024  Biso   1.000  C
  C225     1.0000 0.76227  0.87127  0.27024  Biso   1.000  C
  H250     1.0000 0.89127  0.99347  0.19552  Biso   1.000  H
  H251     1.0000 0.88009  0.92664  0.23284  Biso   1.000  H
  H252     1.0000 0.93256  0.98744  0.29828  Biso   1.000  H
  H253     1.0000 0.89131  0.99347  0.19552  Biso   1.000  H
  H254     1.0000 0.88011  0.92669  0.23284  Biso   1.000  H
  H255     1.0000 0.93258  0.98749  0.29828  Biso   1.000  H
  H256     1.0000 0.88005  0.92664  0.23284  Biso   1.000  H
  H257     1.0000 0.88007  0.92669  0.23284  Biso   1.000  H
  N36      1.0000 0.13340  0.21238  0.35979  Biso   1.000  N
  H258     1.0000 0.08980  0.20770  0.20284  Biso   1.000  H
  C226     1.0000 0.16357  0.29977  0.22311  Biso   1.000  C
  N37      1.0000 0.13342  0.21242  0.35979  Biso   1.000  N
  C227     1.0000 0.16363  0.29982  0.22311  Biso   1.000  C
  N38      1.0000 0.13336  0.21238  0.35979  Biso   1.000  N
  C228     1.0000 0.16359  0.29982  0.22311  Biso   1.000  C
  C229     1.0000 0.09100  0.33828  0.18463  Biso   1.000  C
  H259     1.0000 0.00639  0.28647  0.26971  Biso   1.000  H
  H260     1.0000 0.01800  0.24829  0.16784  Biso   1.000  H
  C230     1.0000 0.09103  0.33833  0.18463  Biso   1.000  C
  H261     1.0000 0.00641  0.28652  0.26971  Biso   1.000  H
  C231     1.0000 0.09096  0.33828  0.18463  Biso   1.000  C
  C232     1.0000 0.09099  0.33833  0.18463  Biso   1.000  C
  C233     1.0000 0.82820  0.15042  0.16847  Biso   1.000  C
  H262     1.0000 0.74629  0.13870  0.10249  Biso   1.000  H
  H263     1.0000 0.74439  0.07438  0.12677  Biso   1.000  H
  H264     1.0000 0.74437  0.07442  0.12677  Biso   1.000  H
  H265     1.0000 0.74441  0.07442  0.12677  Biso   1.000  H
  C234     1.0000 0.96280  0.09319  0.97152  Biso   1.000  C
  C235     1.0000 0.96276  0.09319  0.97152  Biso   1.000  C
  H266     1.0000 0.90560  0.14148  0.20454  Biso   1.000  H
  H267     1.0000 0.84303  0.07581  0.19400  Biso   1.000  H
  H268     1.0000 0.90558  0.14152  0.20454  Biso   1.000  H
  H269     1.0000 0.84299  0.07581  0.19400  Biso   1.000  H
  H270     1.0000 0.90556  0.14148  0.20454  Biso   1.000  H
  H271     1.0000 0.90562  0.14152  0.20454  Biso   1.000  H
  C236     1.0000 0.74960  0.81047  0.32774  Biso   1.000  C
  H272     1.0000 0.79230  0.88206  0.20284  Biso   1.000  H
  C237     1.0000 0.70020  0.86376  0.22311  Biso   1.000  C
  C238     1.0000 0.74956  0.81047  0.32774  Biso   1.000  C
  H273     1.0000 0.79226  0.88206  0.20284  Biso   1.000  H
  C239     1.0000 0.70016  0.86376  0.22311  Biso   1.000  C
  C240     1.0000 0.11761  0.15519  0.35390  Biso   1.000  C
  C241     1.0000 0.11757  0.15519  0.35390  Biso   1.000  C
  C242     1.0000 0.14182  0.32971  0.13311  Biso   1.000  C
  H274     1.0000 0.18351  0.32841  0.29087  Biso   1.000  H
  H275     1.0000 0.19490  0.29180  0.18561  Biso   1.000  H
  C243     1.0000 0.14178  0.32971  0.13311  Biso   1.000  C
  H276     1.0000 0.07491  0.35450  0.12186  Biso   1.000  H
  H277     1.0000 0.10820  0.36938  0.24953  Biso   1.000  H
  H278     1.0000 0.10822  0.36942  0.24953  Biso   1.000  H
  H279     1.0000 0.07487  0.35450  0.12186  Biso   1.000  H
  H280     1.0000 0.10816  0.36938  0.24953  Biso   1.000  H
  H281     1.0000 0.81738  0.15158  0.25310  Biso   1.000  H
  H282     1.0000 0.85329  0.19370  0.13990  Biso   1.000  H
  H283     1.0000 0.81736  0.15162  0.25310  Biso   1.000  H
  H284     1.0000 0.81740  0.15162  0.25310  Biso   1.000  H
  C244     1.0000 0.98328  0.04611  0.96634  Biso   1.000  C
  C245     1.0000 0.98332  0.04611  0.96634  Biso   1.000  C
  C246     1.0000 0.00579  0.15621  0.92108  Biso   1.000  C
  C247     1.0000 0.00583  0.15621  0.92108  Biso   1.000  C
  N39      1.0000 0.80737  0.81524  0.36988  Biso   1.000  N
  H285     1.0000 0.72007  0.80004  0.39577  Biso   1.000  H
  C248     1.0000 0.72177  0.75954  0.23382  Biso   1.000  C
  N40      1.0000 0.80740  0.81529  0.36988  Biso   1.000  N
  H286     1.0000 0.72009  0.80009  0.39577  Biso   1.000  H
  C249     1.0000 0.72180  0.75959  0.23382  Biso   1.000  C
  C250     1.0000 0.67029  0.81204  0.13311  Biso   1.000  C
  H287     1.0000 0.67156  0.85505  0.29087  Biso   1.000  H
  H288     1.0000 0.70817  0.90306  0.18561  Biso   1.000  H
  C251     1.0000 0.67031  0.81209  0.13311  Biso   1.000  C
  H289     1.0000 0.67160  0.85505  0.29087  Biso   1.000  H
  H290     1.0000 0.70821  0.90306  0.18561  Biso   1.000  H
  C252     1.0000 0.67025  0.81204  0.13311  Biso   1.000  C
  C253     1.0000 0.67027  0.81209  0.13311  Biso   1.000  C
  C254     1.0000 0.14549  0.13230  0.44532  Biso   1.000  C
  C255     1.0000 0.07680  0.10881  0.26221  Biso   1.000  C
  H291     1.0000 0.17710  0.37049  0.10928  Biso   1.000  H
  H292     1.0000 0.12649  0.30339  0.06080  Biso   1.000  H
  C256     1.0000 0.93748  0.98244  0.96599  Biso   1.000  C
  C257     1.0000 0.93751  0.98248  0.96599  Biso   1.000  C
  C258     1.0000 0.93744  0.98244  0.96599  Biso   1.000  C
  C259     1.0000 0.93747  0.98248  0.96599  Biso   1.000  C
  C260     1.0000 0.04502  0.06251  0.96599  Biso   1.000  C
  C261     1.0000 0.04498  0.06251  0.96599  Biso   1.000  C
  H293     1.0000 0.98487  0.18068  0.92001  Biso   1.000  H
  H294     1.0000 0.98490  0.18073  0.92001  Biso   1.000  H
  H295     1.0000 0.04300  0.17702  0.97072  Biso   1.000  H
  H296     1.0000 0.01732  0.15190  0.83948  Biso   1.000  H
  H297     1.0000 0.01728  0.15190  0.83948  Biso   1.000  H
  C262     1.0000 0.82058  0.81774  0.47898  Biso   1.000  C
  C263     1.0000 0.82061  0.81779  0.47898  Biso   1.000  C
  C264     1.0000 0.82054  0.81774  0.47898  Biso   1.000  C
  C265     1.0000 0.66165  0.75264  0.18463  Biso   1.000  C
  H298     1.0000 0.71350  0.71987  0.26971  Biso   1.000  H
  H299     1.0000 0.75167  0.76964  0.16784  Biso   1.000  H
  C266     1.0000 0.66172  0.75268  0.18463  Biso   1.000  C
  H300     1.0000 0.75169  0.76969  0.16784  Biso   1.000  H
  H301     1.0000 0.71346  0.71987  0.26971  Biso   1.000  H
  C267     1.0000 0.66168  0.75268  0.18463  Biso   1.000  C
  H302     1.0000 0.62951  0.80658  0.10928  Biso   1.000  H
  H303     1.0000 0.69659  0.82307  0.06080  Biso   1.000  H
  H304     1.0000 0.62947  0.80658  0.10928  Biso   1.000  H
  C268     1.0000 0.16622  0.16381  0.55450  Biso   1.000  C
  C269     1.0000 0.15148  0.08128  0.42434  Biso   1.000  C
  C270     1.0000 0.15151  0.08133  0.42434  Biso   1.000  C
  C271     1.0000 0.16618  0.16381  0.55450  Biso   1.000  C
  H305     1.0000 0.10219  0.10871  0.19552  Biso   1.000  H
  H306     1.0000 0.04658  0.11988  0.23284  Biso   1.000  H
  H307     1.0000 0.05488  0.06738  0.29828  Biso   1.000  H
  H308     1.0000 0.10223  0.10871  0.19552  Biso   1.000  H
  H309     1.0000 0.04664  0.11993  0.23284  Biso   1.000  H
  H310     1.0000 0.05490  0.06742  0.29828  Biso   1.000  H
  H311     1.0000 0.04660  0.11993  0.23284  Biso   1.000  H
  C272     1.0000 0.95389  0.93716  0.96634  Biso   1.000  C
  H312     1.0000 0.89489  0.97085  0.96563  Biso   1.000  H
  C273     1.0000 0.95385  0.93716  0.96634  Biso   1.000  C
  H313     1.0000 0.89485  0.97085  0.96563  Biso   1.000  H
  C274     1.0000 0.06280  0.01668  0.96634  Biso   1.000  C
  H314     1.0000 0.07599  0.10510  0.96563  Biso   1.000  H
  C275     1.0000 0.06282  0.01673  0.96634  Biso   1.000  C
  H315     1.0000 0.07603  0.10510  0.96563  Biso   1.000  H
  C276     1.0000 0.06276  0.01668  0.96634  Biso   1.000  C
  C277     1.0000 0.88208  0.82275  0.50817  Biso   1.000  C
  C278     1.0000 0.78269  0.81765  0.58629  Biso   1.000  C
  C279     1.0000 0.78265  0.81765  0.58629  Biso   1.000  C
  H316     1.0000 0.64546  0.72034  0.12186  Biso   1.000  H
  H317     1.0000 0.63058  0.73873  0.24953  Biso   1.000  H
  H318     1.0000 0.64549  0.72038  0.12186  Biso   1.000  H
  H319     1.0000 0.63061  0.73878  0.24953  Biso   1.000  H
  H320     1.0000 0.63054  0.73873  0.24953  Biso   1.000  H
  H321     1.0000 0.63057  0.73878  0.24953  Biso   1.000  H
  C280     1.0000 0.19072  0.14282  0.64360  Biso   1.000  C
  H322     1.0000 0.16349  0.20000  0.56816  Biso   1.000  H
  C281     1.0000 0.19068  0.14282  0.64360  Biso   1.000  C
  C282     1.0000 0.17722  0.05932  0.50817  Biso   1.000  C
  H323     1.0000 0.13778  0.06038  0.35006  Biso   1.000  H
  H324     1.0000 0.13781  0.06043  0.35006  Biso   1.000  H
  C283     1.0000 0.17718  0.05932  0.50817  Biso   1.000  C
  C284     1.0000 0.90676  0.86955  0.97152  Biso   1.000  C
  C285     1.0000 0.90680  0.86955  0.97152  Biso   1.000  C
  C286     1.0000 0.01749  0.95496  0.96599  Biso   1.000  C
  C287     1.0000 0.13041  0.03721  0.97152  Biso   1.000  C
  C288     1.0000 0.13037  0.03721  0.97152  Biso   1.000  C
  C289     1.0000 0.89327  0.80347  0.61709  Biso   1.000  C
  C290     1.0000 0.92977  0.84847  0.42434  Biso   1.000  C
  C291     1.0000 0.89331  0.80347  0.61709  Biso   1.000  C
  H325     1.0000 0.75260  0.77488  0.60807  Biso   1.000  H
  H326     1.0000 0.76076  0.83985  0.56584  Biso   1.000  H
  H327     1.0000 0.81050  0.83827  0.65387  Biso   1.000  H
  H328     1.0000 0.76080  0.83985  0.56584  Biso   1.000  H
  H329     1.0000 0.75256  0.77488  0.60807  Biso   1.000  H
  H330     1.0000 0.81046  0.83827  0.65387  Biso   1.000  H
  C292     1.0000 0.20969  0.17201  0.76234  Biso   1.000  C
  C293     1.0000 0.20973  0.17201  0.76234  Biso   1.000  C
  C294     1.0000 0.19652  0.08981  0.61709  Biso   1.000  C
  C295     1.0000 0.19648  0.08981  0.61709  Biso   1.000  C
  C296     1.0000 0.18218  0.00278  0.47898  Biso   1.000  C
  C297     1.0000 0.18221  0.00283  0.47898  Biso   1.000  C
  C298     1.0000 0.84378  0.84953  0.92108  Biso   1.000  C
  C299     1.0000 0.84380  0.84958  0.92108  Biso   1.000  C
  C300     1.0000 0.84374  0.84953  0.92108  Biso   1.000  C
  C301     1.0000 0.84376  0.84958  0.92108  Biso   1.000  C
  N41      1.0000 0.92566  0.83535  0.02366  Biso   1.000  N
  N42      1.0000 0.92570  0.83535  0.02366  Biso   1.000  N
  H331     1.0000 0.02908  0.92396  0.96563  Biso   1.000  H
  H332     1.0000 0.02912  0.92396  0.96563  Biso   1.000  H
  C302     1.0000 0.15038  0.99416  0.92108  Biso   1.000  C
  N43      1.0000 0.16459  0.09032  0.02366  Biso   1.000  N
  N44      1.0000 0.16463  0.09032  0.02366  Biso   1.000  N
  C303     1.0000 0.95207  0.80926  0.64360  Biso   1.000  C
  H333     1.0000 0.86119  0.78596  0.67512  Biso   1.000  H
  C304     1.0000 0.95211  0.80926  0.64360  Biso   1.000  C
  H334     1.0000 0.86115  0.78596  0.67512  Biso   1.000  H
  H335     1.0000 0.92256  0.86214  0.35006  Biso   1.000  H
  C305     1.0000 0.98678  0.85445  0.44532  Biso   1.000  C
  H336     1.0000 0.92258  0.86218  0.35006  Biso   1.000  H
  C306     1.0000 0.98674  0.85445  0.44532  Biso   1.000  C
  N45      1.0000 0.24121  0.15598  0.82930  Biso   1.000  N
  N46      1.0000 0.24123  0.15603  0.82930  Biso   1.000  N
  N47      1.0000 0.24117  0.15598  0.82930  Biso   1.000  N
  N48      1.0000 0.24119  0.15603  0.82930  Biso   1.000  N
  C307     1.0000 0.19001  0.21780  0.79359  Biso   1.000  C
  C308     1.0000 0.18996  0.21780  0.79359  Biso   1.000  C
  H337     1.0000 0.21398  0.07521  0.67512  Biso   1.000  H
  H338     1.0000 0.21402  0.07521  0.67512  Biso   1.000  H
  N49      1.0000 0.18470  0.99208  0.36988  Biso   1.000  N
  C309     1.0000 0.18230  0.96497  0.58629  Biso   1.000  C
  C310     1.0000 0.18226  0.96497  0.58629  Biso   1.000  C
  H339     1.0000 0.82297  0.86594  0.97072  Biso   1.000  H
  H340     1.0000 0.81929  0.80417  0.92001  Biso   1.000  H
  H341     1.0000 0.84807  0.86534  0.83948  Biso   1.000  H
  H342     1.0000 0.82299  0.86598  0.97072  Biso   1.000  H
  H343     1.0000 0.84809  0.86538  0.83948  Biso   1.000  H
  H344     1.0000 0.81925  0.80417  0.92001  Biso   1.000  H
  C311     1.0000 0.88689  0.76816  0.02910  Biso   1.000  C
  C312     1.0000 0.88685  0.76816  0.02910  Biso   1.000  C
  H345     1.0000 0.13399  0.95695  0.97072  Biso   1.000  H
  H346     1.0000 0.13456  0.98267  0.83948  Biso   1.000  H
  H347     1.0000 0.13460  0.98267  0.83948  Biso   1.000  H
  H348     1.0000 0.13395  0.95695  0.97072  Biso   1.000  H
  H349     1.0000 0.19581  0.01511  0.92001  Biso   1.000  H
  H350     1.0000 0.19577  0.01511  0.92001  Biso   1.000  H
  C313     1.0000 0.23178  0.11868  0.02910  Biso   1.000  C
  C314     1.0000 0.23181  0.11872  0.02910  Biso   1.000  C
  C315     1.0000 0.96227  0.79027  0.76234  Biso   1.000  C
  C316     1.0000 0.99759  0.83378  0.55450  Biso   1.000  C
  C317     1.0000 0.99755  0.83378  0.55450  Biso   1.000  C
  C318     1.0000 0.03757  0.88234  0.35390  Biso   1.000  C
  C319     1.0000 0.03759  0.88239  0.35390  Biso   1.000  C
  C320     1.0000 0.03761  0.88234  0.35390  Biso   1.000  C
  C321     1.0000 0.25830  0.17628  0.94956  Biso   1.000  C
  C322     1.0000 0.25832  0.17632  0.94956  Biso   1.000  C
  C323     1.0000 0.25826  0.17628  0.94956  Biso   1.000  C
  H351     1.0000 0.20817  0.25228  0.73672  Biso   1.000  H
  H352     1.0000 0.20429  0.23369  0.87439  Biso   1.000  H
  H353     1.0000 0.14471  0.19759  0.79029  Biso   1.000  H
  H354     1.0000 0.20823  0.25232  0.73672  Biso   1.000  H
  H355     1.0000 0.14467  0.19759  0.79029  Biso   1.000  H
  H356     1.0000 0.20819  0.25232  0.73672  Biso   1.000  H
  C324     1.0000 0.18949  0.93906  0.32774  Biso   1.000  C
  C325     1.0000 0.18945  0.93906  0.32774  Biso   1.000  C
  H357     1.0000 0.22509  0.97766  0.60807  Biso   1.000  H
  H358     1.0000 0.16008  0.92085  0.56584  Biso   1.000  H
  H359     1.0000 0.16169  0.97215  0.65387  Biso   1.000  H
  H360     1.0000 0.16165  0.97215  0.65387  Biso   1.000  H
  H361     1.0000 0.84458  0.75546  0.99741  Biso   1.000  H
  C326     1.0000 0.91798  0.74165  0.94956  Biso   1.000  C
  C327     1.0000 0.91794  0.74165  0.94956  Biso   1.000  C
  C328     1.0000 0.88207  0.74865  0.15900  Biso   1.000  C
  H362     1.0000 0.24449  0.08911  0.99741  Biso   1.000  H
  C329     1.0000 0.25131  0.13341  0.15900  Biso   1.000  C
  C330     1.0000 0.25127  0.13341  0.15900  Biso   1.000  C
  N50      1.0000 0.91477  0.75875  0.82930  Biso   1.000  N
  C331     1.0000 0.02778  0.80996  0.79359  Biso   1.000  C
  H363     1.0000 0.03650  0.83647  0.56816  Biso   1.000  H
  H364     1.0000 0.03646  0.83647  0.56816  Biso   1.000  H
  N51      1.0000 0.07895  0.86654  0.35979  Biso   1.000  N
  C332     1.0000 0.03198  0.92317  0.26221  Biso   1.000  C
  N52      1.0000 0.07901  0.86659  0.35979  Biso   1.000  N
  N53      1.0000 0.07899  0.86654  0.35979  Biso   1.000  N
  C333     1.0000 0.03202  0.92317  0.26221  Biso   1.000  C
  N54      1.0000 0.07897  0.86659  0.35979  Biso   1.000  N
  H365     1.0000 0.23979  0.20218  0.97348  Biso   1.000  H
  C334     1.0000 0.32838  0.21418  0.96286  Biso   1.000  C
  H366     1.0000 0.23981  0.20223  0.97348  Biso   1.000  H
  C335     1.0000 0.32840  0.21423  0.96286  Biso   1.000  C
  C336     1.0000 0.12868  0.89096  0.27024  Biso   1.000  C
  C337     1.0000 0.12872  0.89096  0.27024  Biso   1.000  C
  H367     1.0000 0.19989  0.91997  0.39577  Biso   1.000  H
  C338     1.0000 0.24036  0.96214  0.23382  Biso   1.000  C
  C339     1.0000 0.24038  0.96219  0.23382  Biso   1.000  C
  C340     1.0000 0.24040  0.96214  0.23382  Biso   1.000  C
  H368     1.0000 0.96238  0.76014  0.97348  Biso   1.000  H
  C341     1.0000 0.88577  0.67154  0.96286  Biso   1.000  C
  H369     1.0000 0.96241  0.76019  0.97348  Biso   1.000  H
  C342     1.0000 0.88580  0.67159  0.96286  Biso   1.000  C
  H370     1.0000 0.96234  0.76014  0.97348  Biso   1.000  H
  C343     1.0000 0.88573  0.67154  0.96286  Biso   1.000  C
  C344     1.0000 0.84959  0.67775  0.16847  Biso   1.000  C
  H371     1.0000 0.85846  0.76404  0.20454  Biso   1.000  H
  H372     1.0000 0.92418  0.76714  0.19400  Biso   1.000  H
  H373     1.0000 0.85848  0.76408  0.20454  Biso   1.000  H
  H374     1.0000 0.92421  0.76719  0.19400  Biso   1.000  H
  C345     1.0000 0.84955  0.67775  0.16847  Biso   1.000  C
  H375     1.0000 0.92414  0.76714  0.19400  Biso   1.000  H
  H376     1.0000 0.92417  0.76719  0.19400  Biso   1.000  H
  C346     1.0000 0.32219  0.17178  0.16847  Biso   1.000  C
  H377     1.0000 0.23590  0.09439  0.20454  Biso   1.000  H
  H378     1.0000 0.23281  0.15700  0.19400  Biso   1.000  H
  C347     1.0000 0.32221  0.17183  0.16847  Biso   1.000  C
  H379     1.0000 0.23277  0.15700  0.19400  Biso   1.000  H
  H380     1.0000 0.04408  0.79175  0.73672  Biso   1.000  H
  H381     1.0000 0.02937  0.79564  0.87439  Biso   1.000  H
  H382     1.0000 0.05287  0.85523  0.79029  Biso   1.000  H
  H383     1.0000 0.02939  0.79569  0.87439  Biso   1.000  H
  H384     1.0000 0.05289  0.85528  0.79029  Biso   1.000  H
  H385     1.0000 0.02941  0.79564  0.87439  Biso   1.000  H
  H386     1.0000 0.05291  0.85523  0.79029  Biso   1.000  H
  H387     1.0000 0.00648  0.89777  0.19552  Biso   1.000  H
  H388     1.0000 0.07326  0.95334  0.23284  Biso   1.000  H
  H389     1.0000 0.01245  0.94504  0.29828  Biso   1.000  H
  H390     1.0000 0.07329  0.95338  0.23284  Biso   1.000  H
  H391     1.0000 0.01251  0.94509  0.29828  Biso   1.000  H
  H392     1.0000 0.00652  0.89777  0.19552  Biso   1.000  H
  H393     1.0000 0.07330  0.95334  0.23284  Biso   1.000  H
  H394     1.0000 0.01249  0.94504  0.29828  Biso   1.000  H
  H395     1.0000 0.01247  0.94509  0.29828  Biso   1.000  H
  H396     1.0000 0.34452  0.25320  0.91670  Biso   1.000  H
  H397     1.0000 0.34728  0.19060  0.93036  Biso   1.000  H
  H398     1.0000 0.34448  0.25320  0.91670  Biso   1.000  H
  C348     1.0000 0.34669  0.22971  0.09562  Biso   1.000  C
  H399     1.0000 0.11789  0.91015  0.20284  Biso   1.000  H
  C349     1.0000 0.13618  0.83637  0.22311  Biso   1.000  C
  C350     1.0000 0.13622  0.83637  0.22311  Biso   1.000  C
  H400     1.0000 0.11785  0.91015  0.20284  Biso   1.000  H
  C351     1.0000 0.24727  0.90894  0.18463  Biso   1.000  C
  H401     1.0000 0.28007  0.99356  0.26971  Biso   1.000  H
  H402     1.0000 0.23029  0.98197  0.16784  Biso   1.000  H
  C352     1.0000 0.24729  0.90899  0.18463  Biso   1.000  C
  H403     1.0000 0.28011  0.99356  0.26971  Biso   1.000  H
  H404     1.0000 0.90868  0.65546  0.91670  Biso   1.000  H
  H405     1.0000 0.84328  0.65268  0.93036  Biso   1.000  H
  H406     1.0000 0.84332  0.65268  0.93036  Biso   1.000  H
  C353     1.0000 0.88296  0.65324  0.09562  Biso   1.000  C
  C354     1.0000 0.88299  0.65328  0.09562  Biso   1.000  C
  H407     1.0000 0.84837  0.66575  0.25310  Biso   1.000  H
  H408     1.0000 0.80625  0.65954  0.13990  Biso   1.000  H
  H409     1.0000 0.80632  0.65959  0.13990  Biso   1.000  H
  H410     1.0000 0.80628  0.65959  0.13990  Biso   1.000  H
  H411     1.0000 0.33417  0.18258  0.25310  Biso   1.000  H
  H412     1.0000 0.34039  0.14671  0.13990  Biso   1.000  H
  H413     1.0000 0.33423  0.18263  0.25310  Biso   1.000  H
  H414     1.0000 0.33419  0.18263  0.25310  Biso   1.000  H
  H415     1.0000 0.39241  0.25371  0.10249  Biso   1.000  H
  H416     1.0000 0.32999  0.25561  0.12677  Biso   1.000  H
  H417     1.0000 0.33003  0.25561  0.12677  Biso   1.000  H
  H418     1.0000 0.39237  0.25371  0.10249  Biso   1.000  H
  C355     1.0000 0.18789  0.85815  0.13311  Biso   1.000  C
  H419     1.0000 0.14488  0.81645  0.29087  Biso   1.000  H
  H420     1.0000 0.09688  0.80505  0.18561  Biso   1.000  H
  C356     1.0000 0.18785  0.85815  0.13311  Biso   1.000  C
  H421     1.0000 0.27957  0.92507  0.12186  Biso   1.000  H
  H422     1.0000 0.26119  0.89175  0.24953  Biso   1.000  H
  H423     1.0000 0.27961  0.92507  0.12186  Biso   1.000  H
  H424     1.0000 0.26115  0.89175  0.24953  Biso   1.000  H
  H425     1.0000 0.86128  0.60755  0.10249  Biso   1.000  H
  H426     1.0000 0.92560  0.66997  0.12677  Biso   1.000  H
  H427     1.0000 0.86130  0.60759  0.10249  Biso   1.000  H
  H428     1.0000 0.86124  0.60755  0.10249  Biso   1.000  H
  H429     1.0000 0.92556  0.66997  0.12677  Biso   1.000  H
  H430     1.0000 0.19339  0.82284  0.10928  Biso   1.000  H
  H431     1.0000 0.17687  0.87345  0.06080  Biso   1.000  H
  H432     1.0000 0.19341  0.82289  0.10928  Biso   1.000  H
  H433     1.0000 0.17691  0.87345  0.06080  Biso   1.000  H
  H434     1.0000 0.19337  0.82289  0.10928  Biso   1.000  H
  C357     1.0000 0.91017  0.10672  0.61709  Biso   1.000  C
  C358     1.0000 0.85721  0.04792  0.64360  Biso   1.000  C
  C359     1.0000 0.85717  0.04792  0.64360  Biso   1.000  C
  C360     1.0000 0.94068  0.11789  0.50817  Biso   1.000  C
  H435     1.0000 0.92480  0.13879  0.67512  Biso   1.000  H
  H436     1.0000 0.92476  0.13879  0.67512  Biso   1.000  H
  C361     1.0000 0.82799  0.03772  0.76234  Biso   1.000  C
  C362     1.0000 0.83618  0.00241  0.55450  Biso   1.000  C
  C363     1.0000 0.91021  0.10672  0.61709  Biso   1.000  C
  C364     1.0000 0.83622  0.00241  0.55450  Biso   1.000  C
  C365     1.0000 0.91868  0.07021  0.42434  Biso   1.000  C
  C366     1.0000 0.91872  0.07021  0.42434  Biso   1.000  C
  C367     1.0000 0.99719  0.17938  0.47898  Biso   1.000  C
  C368     1.0000 0.99717  0.17943  0.47898  Biso   1.000  C
  C369     1.0000 0.99721  0.17943  0.47898  Biso   1.000  C
  N55      1.0000 0.84400  0.08522  0.82930  Biso   1.000  N
  C370     1.0000 0.78217  0.97215  0.79359  Biso   1.000  C
  C371     1.0000 0.78221  0.97215  0.79359  Biso   1.000  C
  C372     1.0000 0.86771  0.01321  0.44532  Biso   1.000  C
  H437     1.0000 0.79996  0.96344  0.56816  Biso   1.000  H
  H438     1.0000 0.79999  0.96348  0.56816  Biso   1.000  H
  C373     1.0000 0.86767  0.01321  0.44532  Biso   1.000  C
  H439     1.0000 0.93961  0.07739  0.35006  Biso   1.000  H
  H440     1.0000 0.93959  0.07743  0.35006  Biso   1.000  H
  H441     1.0000 0.93957  0.07739  0.35006  Biso   1.000  H
  N56      1.0000 0.00788  0.19259  0.36988  Biso   1.000  N
  C374     1.0000 0.03500  0.21729  0.58629  Biso   1.000  C
  C375     1.0000 0.03496  0.21729  0.58629  Biso   1.000  C
  C376     1.0000 0.82370  0.08202  0.94956  Biso   1.000  C
  H442     1.0000 0.74768  0.95584  0.73672  Biso   1.000  H
  H443     1.0000 0.76629  0.97057  0.87439  Biso   1.000  H
  H444     1.0000 0.80236  0.94703  0.79029  Biso   1.000  H
  H445     1.0000 0.74771  0.95588  0.73672  Biso   1.000  H
  H446     1.0000 0.80242  0.94708  0.79029  Biso   1.000  H
  H447     1.0000 0.74764  0.95584  0.73672  Biso   1.000  H
  H448     1.0000 0.80238  0.94708  0.79029  Biso   1.000  H
  C377     1.0000 0.84478  0.96237  0.35390  Biso   1.000  C
  C378     1.0000 0.06090  0.25038  0.32774  Biso   1.000  C
  C379     1.0000 0.06092  0.25042  0.32774  Biso   1.000  C
  C380     1.0000 0.06086  0.25038  0.32774  Biso   1.000  C
  H449     1.0000 0.02229  0.24741  0.60807  Biso   1.000  H
  H450     1.0000 0.07911  0.23921  0.56584  Biso   1.000  H
  H451     1.0000 0.02780  0.18948  0.65387  Biso   1.000  H
  H452     1.0000 0.02233  0.24741  0.60807  Biso   1.000  H
  H453     1.0000 0.02783  0.18953  0.65387  Biso   1.000  H
  H454     1.0000 0.07907  0.23921  0.56584  Biso   1.000  H
  H455     1.0000 0.02776  0.18948  0.65387  Biso   1.000  H
  H456     1.0000 0.79779  0.03758  0.97348  Biso   1.000  H
  C381     1.0000 0.78580  0.11418  0.96286  Biso   1.000  C
  H457     1.0000 0.79777  0.03763  0.97348  Biso   1.000  H
  C382     1.0000 0.78578  0.11423  0.96286  Biso   1.000  C
  C383     1.0000 0.78576  0.11418  0.96286  Biso   1.000  C
  H458     1.0000 0.79781  0.03763  0.97348  Biso   1.000  H
  C384     1.0000 0.78582  0.11423  0.96286  Biso   1.000  C
  C385     1.0000 0.88130  0.11312  0.02910  Biso   1.000  C
  C386     1.0000 0.88126  0.11312  0.02910  Biso   1.000  C
  N57      1.0000 0.78758  0.92094  0.35979  Biso   1.000  N
  C387     1.0000 0.89118  0.96793  0.26221  Biso   1.000  C
  N58      1.0000 0.78761  0.92099  0.35979  Biso   1.000  N
  C388     1.0000 0.89121  0.96798  0.26221  Biso   1.000  C
  N59      1.0000 0.78754  0.92094  0.35979  Biso   1.000  N
  C389     1.0000 0.89114  0.96793  0.26221  Biso   1.000  C
  C390     1.0000 0.89117  0.96798  0.26221  Biso   1.000  C
  H459     1.0000 0.07999  0.27989  0.39577  Biso   1.000  H
  C391     1.0000 0.10901  0.23768  0.27024  Biso   1.000  C
  C392     1.0000 0.03780  0.27818  0.23382  Biso   1.000  C
  C393     1.0000 0.10903  0.23772  0.27024  Biso   1.000  C
  C394     1.0000 0.03782  0.27823  0.23382  Biso   1.000  C
  C395     1.0000 0.10897  0.23768  0.27024  Biso   1.000  C
  C396     1.0000 0.03776  0.27818  0.23382  Biso   1.000  C
  C397     1.0000 0.10899  0.23772  0.27024  Biso   1.000  C
  H460     1.0000 0.74678  0.09129  0.91670  Biso   1.000  H
  H461     1.0000 0.80938  0.15668  0.93036  Biso   1.000  H
  H462     1.0000 0.80940  0.15672  0.93036  Biso   1.000  H
  C398     1.0000 0.77032  0.11701  0.09562  Biso   1.000  C
  C399     1.0000 0.77028  0.11701  0.09562  Biso   1.000  C
  H463     1.0000 0.91090  0.15538  0.99741  Biso   1.000  H
  H464     1.0000 0.91089  0.15542  0.99741  Biso   1.000  H
  H465     1.0000 0.91086  0.15538  0.99741  Biso   1.000  H
  H466     1.0000 0.91093  0.15542  0.99741  Biso   1.000  H
  N60      1.0000 0.90968  0.07428  0.02366  Biso   1.000  N
  C400     1.0000 0.86659  0.11789  0.15900  Biso   1.000  C
  N61      1.0000 0.90967  0.07433  0.02366  Biso   1.000  N
  C401     1.0000 0.86655  0.11789  0.15900  Biso   1.000  C
  N62      1.0000 0.90971  0.07433  0.02366  Biso   1.000  N
  C402     1.0000 0.76231  0.87127  0.27024  Biso   1.000  C
  C403     1.0000 0.76227  0.87127  0.27024  Biso   1.000  C
  H467     1.0000 0.89127  0.99347  0.19552  Biso   1.000  H
  H468     1.0000 0.88009  0.92664  0.23284  Biso   1.000  H
  H469     1.0000 0.93256  0.98744  0.29828  Biso   1.000  H
  H470     1.0000 0.89131  0.99347  0.19552  Biso   1.000  H
  H471     1.0000 0.88011  0.92669  0.23284  Biso   1.000  H
  H472     1.0000 0.93258  0.98749  0.29828  Biso   1.000  H
  H473     1.0000 0.88005  0.92664  0.23284  Biso   1.000  H
  H474     1.0000 0.88007  0.92669  0.23284  Biso   1.000  H
  N63      1.0000 0.13340  0.21238  0.35979  Biso   1.000  N
  H475     1.0000 0.08980  0.20770  0.20284  Biso   1.000  H
  C404     1.0000 0.16357  0.29977  0.22311  Biso   1.000  C
  N64      1.0000 0.13342  0.21242  0.35979  Biso   1.000  N
  C405     1.0000 0.16363  0.29982  0.22311  Biso   1.000  C
  N65      1.0000 0.13336  0.21238  0.35979  Biso   1.000  N
  C406     1.0000 0.16359  0.29982  0.22311  Biso   1.000  C
  C407     1.0000 0.09100  0.33828  0.18463  Biso   1.000  C
  H476     1.0000 0.00639  0.28647  0.26971  Biso   1.000  H
  H477     1.0000 0.01800  0.24829  0.16784  Biso   1.000  H
  C408     1.0000 0.09103  0.33833  0.18463  Biso   1.000  C
  H478     1.0000 0.00641  0.28652  0.26971  Biso   1.000  H
  C409     1.0000 0.09096  0.33828  0.18463  Biso   1.000  C
  C410     1.0000 0.09099  0.33833  0.18463  Biso   1.000  C
  C411     1.0000 0.82820  0.15042  0.16847  Biso   1.000  C
  H479     1.0000 0.74629  0.13870  0.10249  Biso   1.000  H
  H480     1.0000 0.74439  0.07438  0.12677  Biso   1.000  H
  H481     1.0000 0.74437  0.07442  0.12677  Biso   1.000  H
  H482     1.0000 0.74441  0.07442  0.12677  Biso   1.000  H
  C412     1.0000 0.96280  0.09319  0.97152  Biso   1.000  C
  C413     1.0000 0.96276  0.09319  0.97152  Biso   1.000  C
  H483     1.0000 0.90560  0.14148  0.20454  Biso   1.000  H
  H484     1.0000 0.84303  0.07581  0.19400  Biso   1.000  H
  H485     1.0000 0.90558  0.14152  0.20454  Biso   1.000  H
  H486     1.0000 0.84299  0.07581  0.19400  Biso   1.000  H
  H487     1.0000 0.90556  0.14148  0.20454  Biso   1.000  H
  H488     1.0000 0.90562  0.14152  0.20454  Biso   1.000  H
  C414     1.0000 0.74960  0.81047  0.32774  Biso   1.000  C
  H489     1.0000 0.79230  0.88206  0.20284  Biso   1.000  H
  C415     1.0000 0.70020  0.86376  0.22311  Biso   1.000  C
  C416     1.0000 0.74956  0.81047  0.32774  Biso   1.000  C
  H490     1.0000 0.79226  0.88206  0.20284  Biso   1.000  H
  C417     1.0000 0.70016  0.86376  0.22311  Biso   1.000  C
  C418     1.0000 0.11761  0.15519  0.35390  Biso   1.000  C
  C419     1.0000 0.11757  0.15519  0.35390  Biso   1.000  C
  C420     1.0000 0.14182  0.32971  0.13311  Biso   1.000  C
  H491     1.0000 0.18351  0.32841  0.29087  Biso   1.000  H
  H492     1.0000 0.19490  0.29180  0.18561  Biso   1.000  H
  C421     1.0000 0.14178  0.32971  0.13311  Biso   1.000  C
  H493     1.0000 0.07491  0.35450  0.12186  Biso   1.000  H
  H494     1.0000 0.10820  0.36938  0.24953  Biso   1.000  H
  H495     1.0000 0.10822  0.36942  0.24953  Biso   1.000  H
  H496     1.0000 0.07487  0.35450  0.12186  Biso   1.000  H
  H497     1.0000 0.10816  0.36938  0.24953  Biso   1.000  H
  H498     1.0000 0.81738  0.15158  0.25310  Biso   1.000  H
  H499     1.0000 0.85329  0.19370  0.13990  Biso   1.000  H
  H500     1.0000 0.81736  0.15162  0.25310  Biso   1.000  H
  H501     1.0000 0.81740  0.15162  0.25310  Biso   1.000  H
  C422     1.0000 0.98328  0.04611  0.96634  Biso   1.000  C
  C423     1.0000 0.98332  0.04611  0.96634  Biso   1.000  C
  C424     1.0000 0.00579  0.15621  0.92108  Biso   1.000  C
  C425     1.0000 0.00583  0.15621  0.92108  Biso   1.000  C
  N66      1.0000 0.80737  0.81524  0.36988  Biso   1.000  N
  H502     1.0000 0.72007  0.80004  0.39577  Biso   1.000  H
  C426     1.0000 0.72177  0.75954  0.23382  Biso   1.000  C
  N67      1.0000 0.80740  0.81529  0.36988  Biso   1.000  N
  H503     1.0000 0.72009  0.80009  0.39577  Biso   1.000  H
  C427     1.0000 0.72180  0.75959  0.23382  Biso   1.000  C
  C428     1.0000 0.67029  0.81204  0.13311  Biso   1.000  C
  H504     1.0000 0.67156  0.85505  0.29087  Biso   1.000  H
  H505     1.0000 0.70817  0.90306  0.18561  Biso   1.000  H
  C429     1.0000 0.67031  0.81209  0.13311  Biso   1.000  C
  H506     1.0000 0.67160  0.85505  0.29087  Biso   1.000  H
  H507     1.0000 0.70821  0.90306  0.18561  Biso   1.000  H
  C430     1.0000 0.67025  0.81204  0.13311  Biso   1.000  C
  C431     1.0000 0.67027  0.81209  0.13311  Biso   1.000  C
  C432     1.0000 0.14549  0.13230  0.44532  Biso   1.000  C
  C433     1.0000 0.07680  0.10881  0.26221  Biso   1.000  C
  H508     1.0000 0.17710  0.37049  0.10928  Biso   1.000  H
  H509     1.0000 0.12649  0.30339  0.06080  Biso   1.000  H
  C434     1.0000 0.93748  0.98244  0.96599  Biso   1.000  C
  C435     1.0000 0.93751  0.98248  0.96599  Biso   1.000  C
  C436     1.0000 0.93744  0.98244  0.96599  Biso   1.000  C
  C437     1.0000 0.93747  0.98248  0.96599  Biso   1.000  C
  C438     1.0000 0.04502  0.06251  0.96599  Biso   1.000  C
  C439     1.0000 0.04498  0.06251  0.96599  Biso   1.000  C
  H510     1.0000 0.98487  0.18068  0.92001  Biso   1.000  H
  H511     1.0000 0.98490  0.18073  0.92001  Biso   1.000  H
  H512     1.0000 0.04300  0.17702  0.97072  Biso   1.000  H
  H513     1.0000 0.01732  0.15190  0.83948  Biso   1.000  H
  H514     1.0000 0.01728  0.15190  0.83948  Biso   1.000  H
  C440     1.0000 0.82058  0.81774  0.47898  Biso   1.000  C
  C441     1.0000 0.82061  0.81779  0.47898  Biso   1.000  C
  C442     1.0000 0.82054  0.81774  0.47898  Biso   1.000  C
  C443     1.0000 0.66165  0.75264  0.18463  Biso   1.000  C
  H515     1.0000 0.71350  0.71987  0.26971  Biso   1.000  H
  H516     1.0000 0.75167  0.76964  0.16784  Biso   1.000  H
  C444     1.0000 0.66172  0.75268  0.18463  Biso   1.000  C
  H517     1.0000 0.75169  0.76969  0.16784  Biso   1.000  H
  H518     1.0000 0.71346  0.71987  0.26971  Biso   1.000  H
  C445     1.0000 0.66168  0.75268  0.18463  Biso   1.000  C
  H519     1.0000 0.62951  0.80658  0.10928  Biso   1.000  H
  H520     1.0000 0.69659  0.82307  0.06080  Biso   1.000  H
  H521     1.0000 0.62947  0.80658  0.10928  Biso   1.000  H
  C446     1.0000 0.16622  0.16381  0.55450  Biso   1.000  C
  C447     1.0000 0.15148  0.08128  0.42434  Biso   1.000  C
  C448     1.0000 0.15151  0.08133  0.42434  Biso   1.000  C
  C449     1.0000 0.16618  0.16381  0.55450  Biso   1.000  C
  H522     1.0000 0.10219  0.10871  0.19552  Biso   1.000  H
  H523     1.0000 0.04658  0.11988  0.23284  Biso   1.000  H
  H524     1.0000 0.05488  0.06738  0.29828  Biso   1.000  H
  H525     1.0000 0.10223  0.10871  0.19552  Biso   1.000  H
  H526     1.0000 0.04664  0.11993  0.23284  Biso   1.000  H
  H527     1.0000 0.05490  0.06742  0.29828  Biso   1.000  H
  H528     1.0000 0.04660  0.11993  0.23284  Biso   1.000  H
  C450     1.0000 0.95389  0.93716  0.96634  Biso   1.000  C
  H529     1.0000 0.89489  0.97085  0.96563  Biso   1.000  H
  C451     1.0000 0.95385  0.93716  0.96634  Biso   1.000  C
  H530     1.0000 0.89485  0.97085  0.96563  Biso   1.000  H
  C452     1.0000 0.06280  0.01668  0.96634  Biso   1.000  C
  H531     1.0000 0.07599  0.10510  0.96563  Biso   1.000  H
  C453     1.0000 0.06282  0.01673  0.96634  Biso   1.000  C
  H532     1.0000 0.07603  0.10510  0.96563  Biso   1.000  H
  C454     1.0000 0.06276  0.01668  0.96634  Biso   1.000  C
  C455     1.0000 0.88208  0.82275  0.50817  Biso   1.000  C
  C456     1.0000 0.78269  0.81765  0.58629  Biso   1.000  C
  C457     1.0000 0.78265  0.81765  0.58629  Biso   1.000  C
  H533     1.0000 0.64546  0.72034  0.12186  Biso   1.000  H
  H534     1.0000 0.63058  0.73873  0.24953  Biso   1.000  H
  H535     1.0000 0.64549  0.72038  0.12186  Biso   1.000  H
  H536     1.0000 0.63061  0.73878  0.24953  Biso   1.000  H
  H537     1.0000 0.63054  0.73873  0.24953  Biso   1.000  H
  H538     1.0000 0.63057  0.73878  0.24953  Biso   1.000  H
  C458     1.0000 0.19072  0.14282  0.64360  Biso   1.000  C
  H539     1.0000 0.16349  0.20000  0.56816  Biso   1.000  H
  C459     1.0000 0.19068  0.14282  0.64360  Biso   1.000  C
  C460     1.0000 0.17722  0.05932  0.50817  Biso   1.000  C
  H540     1.0000 0.13778  0.06038  0.35006  Biso   1.000  H
  H541     1.0000 0.13781  0.06043  0.35006  Biso   1.000  H
  C461     1.0000 0.17718  0.05932  0.50817  Biso   1.000  C
  C462     1.0000 0.90676  0.86955  0.97152  Biso   1.000  C
  C463     1.0000 0.90680  0.86955  0.97152  Biso   1.000  C
  C464     1.0000 0.01749  0.95496  0.96599  Biso   1.000  C
  C465     1.0000 0.13041  0.03721  0.97152  Biso   1.000  C
  C466     1.0000 0.13037  0.03721  0.97152  Biso   1.000  C
  C467     1.0000 0.89327  0.80347  0.61709  Biso   1.000  C
  C468     1.0000 0.92977  0.84847  0.42434  Biso   1.000  C
  C469     1.0000 0.89331  0.80347  0.61709  Biso   1.000  C
  H542     1.0000 0.75260  0.77488  0.60807  Biso   1.000  H
  H543     1.0000 0.76076  0.83985  0.56584  Biso   1.000  H
  H544     1.0000 0.81050  0.83827  0.65387  Biso   1.000  H
  H545     1.0000 0.76080  0.83985  0.56584  Biso   1.000  H
  H546     1.0000 0.75256  0.77488  0.60807  Biso   1.000  H
  H547     1.0000 0.81046  0.83827  0.65387  Biso   1.000  H
  C470     1.0000 0.20969  0.17201  0.76234  Biso   1.000  C
  C471     1.0000 0.20973  0.17201  0.76234  Biso   1.000  C
  C472     1.0000 0.19652  0.08981  0.61709  Biso   1.000  C
  C473     1.0000 0.19648  0.08981  0.61709  Biso   1.000  C
  C474     1.0000 0.18218  0.00278  0.47898  Biso   1.000  C
  C475     1.0000 0.18221  0.00283  0.47898  Biso   1.000  C
  C476     1.0000 0.84378  0.84953  0.92108  Biso   1.000  C
  C477     1.0000 0.84380  0.84958  0.92108  Biso   1.000  C
  C478     1.0000 0.84374  0.84953  0.92108  Biso   1.000  C
  C479     1.0000 0.84376  0.84958  0.92108  Biso   1.000  C
  N68      1.0000 0.92566  0.83535  0.02366  Biso   1.000  N
  N69      1.0000 0.92570  0.83535  0.02366  Biso   1.000  N
  H548     1.0000 0.02908  0.92396  0.96563  Biso   1.000  H
  H549     1.0000 0.02912  0.92396  0.96563  Biso   1.000  H
  C480     1.0000 0.15038  0.99416  0.92108  Biso   1.000  C
  N70      1.0000 0.16459  0.09032  0.02366  Biso   1.000  N
  N71      1.0000 0.16463  0.09032  0.02366  Biso   1.000  N
  C481     1.0000 0.95207  0.80926  0.64360  Biso   1.000  C
  H550     1.0000 0.86119  0.78596  0.67512  Biso   1.000  H
  C482     1.0000 0.95211  0.80926  0.64360  Biso   1.000  C
  H551     1.0000 0.86115  0.78596  0.67512  Biso   1.000  H
  H552     1.0000 0.92256  0.86214  0.35006  Biso   1.000  H
  C483     1.0000 0.98678  0.85445  0.44532  Biso   1.000  C
  H553     1.0000 0.92258  0.86218  0.35006  Biso   1.000  H
  C484     1.0000 0.98674  0.85445  0.44532  Biso   1.000  C
  N72      1.0000 0.24121  0.15598  0.82930  Biso   1.000  N
  N73      1.0000 0.24123  0.15603  0.82930  Biso   1.000  N
  N74      1.0000 0.24117  0.15598  0.82930  Biso   1.000  N
  N75      1.0000 0.24119  0.15603  0.82930  Biso   1.000  N
  C485     1.0000 0.19001  0.21780  0.79359  Biso   1.000  C
  C486     1.0000 0.18996  0.21780  0.79359  Biso   1.000  C
  H554     1.0000 0.21398  0.07521  0.67512  Biso   1.000  H
  H555     1.0000 0.21402  0.07521  0.67512  Biso   1.000  H
  N76      1.0000 0.18470  0.99208  0.36988  Biso   1.000  N
  C487     1.0000 0.18230  0.96497  0.58629  Biso   1.000  C
  C488     1.0000 0.18226  0.96497  0.58629  Biso   1.000  C
  H556     1.0000 0.82297  0.86594  0.97072  Biso   1.000  H
  H557     1.0000 0.81929  0.80417  0.92001  Biso   1.000  H
  H558     1.0000 0.84807  0.86534  0.83948  Biso   1.000  H
  H559     1.0000 0.82299  0.86598  0.97072  Biso   1.000  H
  H560     1.0000 0.84809  0.86538  0.83948  Biso   1.000  H
  H561     1.0000 0.81925  0.80417  0.92001  Biso   1.000  H
  C489     1.0000 0.88689  0.76816  0.02910  Biso   1.000  C
  C490     1.0000 0.88685  0.76816  0.02910  Biso   1.000  C
  H562     1.0000 0.13399  0.95695  0.97072  Biso   1.000  H
  H563     1.0000 0.13456  0.98267  0.83948  Biso   1.000  H
  H564     1.0000 0.13460  0.98267  0.83948  Biso   1.000  H
  H565     1.0000 0.13395  0.95695  0.97072  Biso   1.000  H
  H566     1.0000 0.19581  0.01511  0.92001  Biso   1.000  H
  H567     1.0000 0.19577  0.01511  0.92001  Biso   1.000  H
  C491     1.0000 0.23178  0.11868  0.02910  Biso   1.000  C
  C492     1.0000 0.23181  0.11872  0.02910  Biso   1.000  C
  C493     1.0000 0.96227  0.79027  0.76234  Biso   1.000  C
  C494     1.0000 0.99759  0.83378  0.55450  Biso   1.000  C
  C495     1.0000 0.99755  0.83378  0.55450  Biso   1.000  C
  C496     1.0000 0.03757  0.88234  0.35390  Biso   1.000  C
  C497     1.0000 0.03759  0.88239  0.35390  Biso   1.000  C
  C498     1.0000 0.03761  0.88234  0.35390  Biso   1.000  C
  C499     1.0000 0.25830  0.17628  0.94956  Biso   1.000  C
  C500     1.0000 0.25832  0.17632  0.94956  Biso   1.000  C
  C501     1.0000 0.25826  0.17628  0.94956  Biso   1.000  C
  H568     1.0000 0.20817  0.25228  0.73672  Biso   1.000  H
  H569     1.0000 0.20429  0.23369  0.87439  Biso   1.000  H
  H570     1.0000 0.14471  0.19759  0.79029  Biso   1.000  H
  H571     1.0000 0.20823  0.25232  0.73672  Biso   1.000  H
  H572     1.0000 0.14467  0.19759  0.79029  Biso   1.000  H
  H573     1.0000 0.20819  0.25232  0.73672  Biso   1.000  H
  C502     1.0000 0.18949  0.93906  0.32774  Biso   1.000  C
  C503     1.0000 0.18945  0.93906  0.32774  Biso   1.000  C
  H574     1.0000 0.22509  0.97766  0.60807  Biso   1.000  H
  H575     1.0000 0.16008  0.92085  0.56584  Biso   1.000  H
  H576     1.0000 0.16169  0.97215  0.65387  Biso   1.000  H
  H577     1.0000 0.16165  0.97215  0.65387  Biso   1.000  H
  H578     1.0000 0.84458  0.75546  0.99741  Biso   1.000  H
  C504     1.0000 0.91798  0.74165  0.94956  Biso   1.000  C
  C505     1.0000 0.91794  0.74165  0.94956  Biso   1.000  C
  C506     1.0000 0.88207  0.74865  0.15900  Biso   1.000  C
  H579     1.0000 0.24449  0.08911  0.99741  Biso   1.000  H
  C507     1.0000 0.25131  0.13341  0.15900  Biso   1.000  C
  C508     1.0000 0.25127  0.13341  0.15900  Biso   1.000  C
  N77      1.0000 0.91477  0.75875  0.82930  Biso   1.000  N
  C509     1.0000 0.02778  0.80996  0.79359  Biso   1.000  C
  H580     1.0000 0.03650  0.83647  0.56816  Biso   1.000  H
  H581     1.0000 0.03646  0.83647  0.56816  Biso   1.000  H
  N78      1.0000 0.07895  0.86654  0.35979  Biso   1.000  N
  C510     1.0000 0.03198  0.92317  0.26221  Biso   1.000  C
  N79      1.0000 0.07901  0.86659  0.35979  Biso   1.000  N
  N80      1.0000 0.07899  0.86654  0.35979  Biso   1.000  N
  C511     1.0000 0.03202  0.92317  0.26221  Biso   1.000  C
  N81      1.0000 0.07897  0.86659  0.35979  Biso   1.000  N
  H582     1.0000 0.23979  0.20218  0.97348  Biso   1.000  H
  C512     1.0000 0.32838  0.21418  0.96286  Biso   1.000  C
  H583     1.0000 0.23981  0.20223  0.97348  Biso   1.000  H
  C513     1.0000 0.32840  0.21423  0.96286  Biso   1.000  C
  C514     1.0000 0.12868  0.89096  0.27024  Biso   1.000  C
  C515     1.0000 0.12872  0.89096  0.27024  Biso   1.000  C
  H584     1.0000 0.19989  0.91997  0.39577  Biso   1.000  H
  C516     1.0000 0.24036  0.96214  0.23382  Biso   1.000  C
  C517     1.0000 0.24038  0.96219  0.23382  Biso   1.000  C
  C518     1.0000 0.24040  0.96214  0.23382  Biso   1.000  C
  H585     1.0000 0.96238  0.76014  0.97348  Biso   1.000  H
  C519     1.0000 0.88577  0.67154  0.96286  Biso   1.000  C
  H586     1.0000 0.96241  0.76019  0.97348  Biso   1.000  H
  C520     1.0000 0.88580  0.67159  0.96286  Biso   1.000  C
  H587     1.0000 0.96234  0.76014  0.97348  Biso   1.000  H
  C521     1.0000 0.88573  0.67154  0.96286  Biso   1.000  C
  C522     1.0000 0.84959  0.67775  0.16847  Biso   1.000  C
  H588     1.0000 0.85846  0.76404  0.20454  Biso   1.000  H
  H589     1.0000 0.92418  0.76714  0.19400  Biso   1.000  H
  H590     1.0000 0.85848  0.76408  0.20454  Biso   1.000  H
  H591     1.0000 0.92421  0.76719  0.19400  Biso   1.000  H
  C523     1.0000 0.84955  0.67775  0.16847  Biso   1.000  C
  H592     1.0000 0.92414  0.76714  0.19400  Biso   1.000  H
  H593     1.0000 0.92417  0.76719  0.19400  Biso   1.000  H
  C524     1.0000 0.32219  0.17178  0.16847  Biso   1.000  C
  H594     1.0000 0.23590  0.09439  0.20454  Biso   1.000  H
  H595     1.0000 0.23281  0.15700  0.19400  Biso   1.000  H
  C525     1.0000 0.32221  0.17183  0.16847  Biso   1.000  C
  H596     1.0000 0.23277  0.15700  0.19400  Biso   1.000  H
  H597     1.0000 0.04408  0.79175  0.73672  Biso   1.000  H
  H598     1.0000 0.02937  0.79564  0.87439  Biso   1.000  H
  H599     1.0000 0.05287  0.85523  0.79029  Biso   1.000  H
  H600     1.0000 0.02939  0.79569  0.87439  Biso   1.000  H
  H601     1.0000 0.05289  0.85528  0.79029  Biso   1.000  H
  H602     1.0000 0.02941  0.79564  0.87439  Biso   1.000  H
  H603     1.0000 0.05291  0.85523  0.79029  Biso   1.000  H
  H604     1.0000 0.00648  0.89777  0.19552  Biso   1.000  H
  H605     1.0000 0.07326  0.95334  0.23284  Biso   1.000  H
  H606     1.0000 0.01245  0.94504  0.29828  Biso   1.000  H
  H607     1.0000 0.07329  0.95338  0.23284  Biso   1.000  H
  H608     1.0000 0.01251  0.94509  0.29828  Biso   1.000  H
  H609     1.0000 0.00652  0.89777  0.19552  Biso   1.000  H
  H610     1.0000 0.07330  0.95334  0.23284  Biso   1.000  H
  H611     1.0000 0.01249  0.94504  0.29828  Biso   1.000  H
  H612     1.0000 0.01247  0.94509  0.29828  Biso   1.000  H
  H613     1.0000 0.34452  0.25320  0.91670  Biso   1.000  H
  H614     1.0000 0.34728  0.19060  0.93036  Biso   1.000  H
  H615     1.0000 0.34448  0.25320  0.91670  Biso   1.000  H
  C526     1.0000 0.34669  0.22971  0.09562  Biso   1.000  C
  H616     1.0000 0.11789  0.91015  0.20284  Biso   1.000  H
  C527     1.0000 0.13618  0.83637  0.22311  Biso   1.000  C
  C528     1.0000 0.13622  0.83637  0.22311  Biso   1.000  C
  H617     1.0000 0.11785  0.91015  0.20284  Biso   1.000  H
  C529     1.0000 0.24727  0.90894  0.18463  Biso   1.000  C
  H618     1.0000 0.28007  0.99356  0.26971  Biso   1.000  H
  H619     1.0000 0.23029  0.98197  0.16784  Biso   1.000  H
  C530     1.0000 0.24729  0.90899  0.18463  Biso   1.000  C
  H620     1.0000 0.28011  0.99356  0.26971  Biso   1.000  H
  H621     1.0000 0.90868  0.65546  0.91670  Biso   1.000  H
  H622     1.0000 0.84328  0.65268  0.93036  Biso   1.000  H
  H623     1.0000 0.84332  0.65268  0.93036  Biso   1.000  H
  C531     1.0000 0.88296  0.65324  0.09562  Biso   1.000  C
  C532     1.0000 0.88299  0.65328  0.09562  Biso   1.000  C
  H624     1.0000 0.84837  0.66575  0.25310  Biso   1.000  H
  H625     1.0000 0.80625  0.65954  0.13990  Biso   1.000  H
  H626     1.0000 0.80632  0.65959  0.13990  Biso   1.000  H
  H627     1.0000 0.80628  0.65959  0.13990  Biso   1.000  H
  H628     1.0000 0.33417  0.18258  0.25310  Biso   1.000  H
  H629     1.0000 0.34039  0.14671  0.13990  Biso   1.000  H
  H630     1.0000 0.33423  0.18263  0.25310  Biso   1.000  H
  H631     1.0000 0.33419  0.18263  0.25310  Biso   1.000  H
  H632     1.0000 0.39241  0.25371  0.10249  Biso   1.000  H
  H633     1.0000 0.32999  0.25561  0.12677  Biso   1.000  H
  H634     1.0000 0.33003  0.25561  0.12677  Biso   1.000  H
  H635     1.0000 0.39237  0.25371  0.10249  Biso   1.000  H
  C533     1.0000 0.18789  0.85815  0.13311  Biso   1.000  C
  H636     1.0000 0.14488  0.81645  0.29087  Biso   1.000  H
  H637     1.0000 0.09688  0.80505  0.18561  Biso   1.000  H
  C534     1.0000 0.18785  0.85815  0.13311  Biso   1.000  C
  H638     1.0000 0.27957  0.92507  0.12186  Biso   1.000  H
  H639     1.0000 0.26119  0.89175  0.24953  Biso   1.000  H
  H640     1.0000 0.27961  0.92507  0.12186  Biso   1.000  H
  H641     1.0000 0.26115  0.89175  0.24953  Biso   1.000  H
  H642     1.0000 0.86128  0.60755  0.10249  Biso   1.000  H
  H643     1.0000 0.92560  0.66997  0.12677  Biso   1.000  H
  H644     1.0000 0.86130  0.60759  0.10249  Biso   1.000  H
  H645     1.0000 0.86124  0.60755  0.10249  Biso   1.000  H
  H646     1.0000 0.92556  0.66997  0.12677  Biso   1.000  H
  H647     1.0000 0.19339  0.82284  0.10928  Biso   1.000  H
  H648     1.0000 0.17687  0.87345  0.06080  Biso   1.000  H
  H649     1.0000 0.19341  0.82289  0.10928  Biso   1.000  H
  H650     1.0000 0.17691  0.87345  0.06080  Biso   1.000  H
  H651     1.0000 0.19337  0.82289  0.10928  Biso   1.000  H
  C535     1.0000 0.91017  0.10672  0.61709  Biso   1.000  C
  C536     1.0000 0.85721  0.04792  0.64360  Biso   1.000  C
  C537     1.0000 0.85717  0.04792  0.64360  Biso   1.000  C
  C538     1.0000 0.94068  0.11789  0.50817  Biso   1.000  C
  H652     1.0000 0.92480  0.13879  0.67512  Biso   1.000  H
  H653     1.0000 0.92476  0.13879  0.67512  Biso   1.000  H
  C539     1.0000 0.82799  0.03772  0.76234  Biso   1.000  C
  C540     1.0000 0.83622  0.00241  0.55450  Biso   1.000  C
  C541     1.0000 0.91021  0.10672  0.61709  Biso   1.000  C
  C542     1.0000 0.83618  0.00241  0.55450  Biso   1.000  C
  C543     1.0000 0.91872  0.07021  0.42434  Biso   1.000  C
  C544     1.0000 0.91868  0.07021  0.42434  Biso   1.000  C
  C545     1.0000 0.99719  0.17938  0.47898  Biso   1.000  C
  C546     1.0000 0.99717  0.17943  0.47898  Biso   1.000  C
  C547     1.0000 0.99721  0.17943  0.47898  Biso   1.000  C
  N82      1.0000 0.84400  0.08522  0.82930  Biso   1.000  N
  C548     1.0000 0.78217  0.97215  0.79359  Biso   1.000  C
  C549     1.0000 0.78221  0.97215  0.79359  Biso   1.000  C
  H654     1.0000 0.79996  0.96344  0.56816  Biso   1.000  H
  H655     1.0000 0.79999  0.96348  0.56816  Biso   1.000  H
  C550     1.0000 0.86771  0.01321  0.44532  Biso   1.000  C
  C551     1.0000 0.86767  0.01321  0.44532  Biso   1.000  C
  H656     1.0000 0.93961  0.07739  0.35006  Biso   1.000  H
  H657     1.0000 0.93959  0.07743  0.35006  Biso   1.000  H
  H658     1.0000 0.93957  0.07739  0.35006  Biso   1.000  H
  N83      1.0000 0.00788  0.19259  0.36988  Biso   1.000  N
  C552     1.0000 0.03500  0.21729  0.58629  Biso   1.000  C
  C553     1.0000 0.03496  0.21729  0.58629  Biso   1.000  C
  C554     1.0000 0.82370  0.08202  0.94956  Biso   1.000  C
  H659     1.0000 0.74768  0.95584  0.73672  Biso   1.000  H
  H660     1.0000 0.76629  0.97057  0.87439  Biso   1.000  H
  H661     1.0000 0.80236  0.94703  0.79029  Biso   1.000  H
  H662     1.0000 0.74771  0.95588  0.73672  Biso   1.000  H
  H663     1.0000 0.80242  0.94708  0.79029  Biso   1.000  H
  H664     1.0000 0.74764  0.95584  0.73672  Biso   1.000  H
  H665     1.0000 0.80238  0.94708  0.79029  Biso   1.000  H
  C555     1.0000 0.84478  0.96237  0.35390  Biso   1.000  C
  C556     1.0000 0.06090  0.25038  0.32774  Biso   1.000  C
  C557     1.0000 0.06092  0.25042  0.32774  Biso   1.000  C
  C558     1.0000 0.06086  0.25038  0.32774  Biso   1.000  C
  H666     1.0000 0.02229  0.24741  0.60807  Biso   1.000  H
  H667     1.0000 0.07911  0.23921  0.56584  Biso   1.000  H
  H668     1.0000 0.02780  0.18948  0.65387  Biso   1.000  H
  H669     1.0000 0.02233  0.24741  0.60807  Biso   1.000  H
  H670     1.0000 0.02783  0.18953  0.65387  Biso   1.000  H
  H671     1.0000 0.07907  0.23921  0.56584  Biso   1.000  H
  H672     1.0000 0.02776  0.18948  0.65387  Biso   1.000  H
  H673     1.0000 0.79779  0.03758  0.97348  Biso   1.000  H
  C559     1.0000 0.78580  0.11418  0.96286  Biso   1.000  C
  H674     1.0000 0.79777  0.03763  0.97348  Biso   1.000  H
  C560     1.0000 0.78578  0.11423  0.96286  Biso   1.000  C
  C561     1.0000 0.78576  0.11418  0.96286  Biso   1.000  C
  H675     1.0000 0.79781  0.03763  0.97348  Biso   1.000  H
  C562     1.0000 0.78582  0.11423  0.96286  Biso   1.000  C
  C563     1.0000 0.88130  0.11312  0.02910  Biso   1.000  C
  C564     1.0000 0.88126  0.11312  0.02910  Biso   1.000  C
  N84      1.0000 0.78758  0.92094  0.35979  Biso   1.000  N
  C565     1.0000 0.89118  0.96793  0.26221  Biso   1.000  C
  N85      1.0000 0.78761  0.92099  0.35979  Biso   1.000  N
  C566     1.0000 0.89121  0.96798  0.26221  Biso   1.000  C
  N86      1.0000 0.78754  0.92094  0.35979  Biso   1.000  N
  C567     1.0000 0.89114  0.96793  0.26221  Biso   1.000  C
  C568     1.0000 0.89117  0.96798  0.26221  Biso   1.000  C
  H676     1.0000 0.07999  0.27989  0.39577  Biso   1.000  H
  C569     1.0000 0.10901  0.23768  0.27024  Biso   1.000  C
  C570     1.0000 0.03780  0.27818  0.23382  Biso   1.000  C
  C571     1.0000 0.10903  0.23772  0.27024  Biso   1.000  C
  C572     1.0000 0.03782  0.27823  0.23382  Biso   1.000  C
  C573     1.0000 0.10897  0.23768  0.27024  Biso   1.000  C
  C574     1.0000 0.03776  0.27818  0.23382  Biso   1.000  C
  C575     1.0000 0.10899  0.23772  0.27024  Biso   1.000  C
  H677     1.0000 0.74678  0.09129  0.91670  Biso   1.000  H
  H678     1.0000 0.80938  0.15668  0.93036  Biso   1.000  H
  H679     1.0000 0.80940  0.15672  0.93036  Biso   1.000  H
  C576     1.0000 0.77032  0.11701  0.09562  Biso   1.000  C
  C577     1.0000 0.77028  0.11701  0.09562  Biso   1.000  C
  H680     1.0000 0.91090  0.15538  0.99741  Biso   1.000  H
  H681     1.0000 0.91089  0.15542  0.99741  Biso   1.000  H
  H682     1.0000 0.91086  0.15538  0.99741  Biso   1.000  H
  H683     1.0000 0.91093  0.15542  0.99741  Biso   1.000  H
  N87      1.0000 0.90968  0.07428  0.02366  Biso   1.000  N
  C578     1.0000 0.86659  0.11789  0.15900  Biso   1.000  C
  N88      1.0000 0.90967  0.07433  0.02366  Biso   1.000  N
  C579     1.0000 0.86655  0.11789  0.15900  Biso   1.000  C
  N89      1.0000 0.90971  0.07433  0.02366  Biso   1.000  N
  C580     1.0000 0.76231  0.87127  0.27024  Biso   1.000  C
  C581     1.0000 0.76227  0.87127  0.27024  Biso   1.000  C
  H684     1.0000 0.89127  0.99347  0.19552  Biso   1.000  H
  H685     1.0000 0.88009  0.92664  0.23284  Biso   1.000  H
  H686     1.0000 0.93256  0.98744  0.29828  Biso   1.000  H
  H687     1.0000 0.89131  0.99347  0.19552  Biso   1.000  H
  H688     1.0000 0.88011  0.92669  0.23284  Biso   1.000  H
  H689     1.0000 0.93258  0.98749  0.29828  Biso   1.000  H
  H690     1.0000 0.88005  0.92664  0.23284  Biso   1.000  H
  H691     1.0000 0.88007  0.92669  0.23284  Biso   1.000  H
  N90      1.0000 0.13340  0.21238  0.35979  Biso   1.000  N
  H692     1.0000 0.08980  0.20770  0.20284  Biso   1.000  H
  C582     1.0000 0.16357  0.29977  0.22311  Biso   1.000  C
  N91      1.0000 0.13342  0.21242  0.35979  Biso   1.000  N
  C583     1.0000 0.16363  0.29982  0.22311  Biso   1.000  C
  N92      1.0000 0.13336  0.21238  0.35979  Biso   1.000  N
  C584     1.0000 0.16359  0.29982  0.22311  Biso   1.000  C
  C585     1.0000 0.09100  0.33828  0.18463  Biso   1.000  C
  H693     1.0000 0.00639  0.28647  0.26971  Biso   1.000  H
  H694     1.0000 0.01800  0.24829  0.16784  Biso   1.000  H
  C586     1.0000 0.09103  0.33833  0.18463  Biso   1.000  C
  H695     1.0000 0.00641  0.28652  0.26971  Biso   1.000  H
  C587     1.0000 0.09096  0.33828  0.18463  Biso   1.000  C
  C588     1.0000 0.09099  0.33833  0.18463  Biso   1.000  C
  C589     1.0000 0.82820  0.15042  0.16847  Biso   1.000  C
  H696     1.0000 0.74629  0.13870  0.10249  Biso   1.000  H
  H697     1.0000 0.74439  0.07438  0.12677  Biso   1.000  H
  H698     1.0000 0.74437  0.07442  0.12677  Biso   1.000  H
  H699     1.0000 0.74441  0.07442  0.12677  Biso   1.000  H
  C590     1.0000 0.96280  0.09319  0.97152  Biso   1.000  C
  C591     1.0000 0.96276  0.09319  0.97152  Biso   1.000  C
  H700     1.0000 0.90560  0.14148  0.20454  Biso   1.000  H
  H701     1.0000 0.84303  0.07581  0.19400  Biso   1.000  H
  H702     1.0000 0.90558  0.14152  0.20454  Biso   1.000  H
  H703     1.0000 0.84299  0.07581  0.19400  Biso   1.000  H
  H704     1.0000 0.90556  0.14148  0.20454  Biso   1.000  H
  H705     1.0000 0.90562  0.14152  0.20454  Biso   1.000  H
  C592     1.0000 0.74960  0.81047  0.32774  Biso   1.000  C
  H706     1.0000 0.79230  0.88206  0.20284  Biso   1.000  H
  C593     1.0000 0.70020  0.86376  0.22311  Biso   1.000  C
  C594     1.0000 0.74956  0.81047  0.32774  Biso   1.000  C
  H707     1.0000 0.79226  0.88206  0.20284  Biso   1.000  H
  C595     1.0000 0.70016  0.86376  0.22311  Biso   1.000  C
  C596     1.0000 0.11761  0.15519  0.35390  Biso   1.000  C
  C597     1.0000 0.11757  0.15519  0.35390  Biso   1.000  C
  C598     1.0000 0.14182  0.32971  0.13311  Biso   1.000  C
  H708     1.0000 0.18351  0.32841  0.29087  Biso   1.000  H
  H709     1.0000 0.19490  0.29180  0.18561  Biso   1.000  H
  C599     1.0000 0.14178  0.32971  0.13311  Biso   1.000  C
  H710     1.0000 0.07491  0.35450  0.12186  Biso   1.000  H
  H711     1.0000 0.10820  0.36938  0.24953  Biso   1.000  H
  H712     1.0000 0.10822  0.36942  0.24953  Biso   1.000  H
  H713     1.0000 0.07487  0.35450  0.12186  Biso   1.000  H
  H714     1.0000 0.10816  0.36938  0.24953  Biso   1.000  H
  H715     1.0000 0.81738  0.15158  0.25310  Biso   1.000  H
  H716     1.0000 0.85329  0.19370  0.13990  Biso   1.000  H
  H717     1.0000 0.81736  0.15162  0.25310  Biso   1.000  H
  H718     1.0000 0.81740  0.15162  0.25310  Biso   1.000  H
  C600     1.0000 0.98332  0.04611  0.96634  Biso   1.000  C
  C601     1.0000 0.98328  0.04611  0.96634  Biso   1.000  C
  C602     1.0000 0.00579  0.15621  0.92108  Biso   1.000  C
  C603     1.0000 0.00583  0.15621  0.92108  Biso   1.000  C
  N93      1.0000 0.80737  0.81524  0.36988  Biso   1.000  N
  H719     1.0000 0.72007  0.80004  0.39577  Biso   1.000  H
  C604     1.0000 0.72177  0.75954  0.23382  Biso   1.000  C
  N94      1.0000 0.80740  0.81529  0.36988  Biso   1.000  N
  H720     1.0000 0.72009  0.80009  0.39577  Biso   1.000  H
  C605     1.0000 0.72180  0.75959  0.23382  Biso   1.000  C
  C606     1.0000 0.67029  0.81204  0.13311  Biso   1.000  C
  H721     1.0000 0.67156  0.85505  0.29087  Biso   1.000  H
  H722     1.0000 0.70817  0.90306  0.18561  Biso   1.000  H
  C607     1.0000 0.67031  0.81209  0.13311  Biso   1.000  C
  H723     1.0000 0.67160  0.85505  0.29087  Biso   1.000  H
  H724     1.0000 0.70821  0.90306  0.18561  Biso   1.000  H
  C608     1.0000 0.67025  0.81204  0.13311  Biso   1.000  C
  C609     1.0000 0.67027  0.81209  0.13311  Biso   1.000  C
  C610     1.0000 0.14549  0.13230  0.44532  Biso   1.000  C
  C611     1.0000 0.07680  0.10881  0.26221  Biso   1.000  C
  H725     1.0000 0.17710  0.37049  0.10928  Biso   1.000  H
  H726     1.0000 0.12649  0.30339  0.06080  Biso   1.000  H
  C612     1.0000 0.93748  0.98244  0.96599  Biso   1.000  C
  C613     1.0000 0.93751  0.98248  0.96599  Biso   1.000  C
  C614     1.0000 0.93744  0.98244  0.96599  Biso   1.000  C
  C615     1.0000 0.93747  0.98248  0.96599  Biso   1.000  C
  C616     1.0000 0.04502  0.06251  0.96599  Biso   1.000  C
  C617     1.0000 0.04498  0.06251  0.96599  Biso   1.000  C
  H727     1.0000 0.98487  0.18068  0.92001  Biso   1.000  H
  H728     1.0000 0.98490  0.18073  0.92001  Biso   1.000  H
  H729     1.0000 0.04300  0.17702  0.97072  Biso   1.000  H
  H730     1.0000 0.01732  0.15190  0.83948  Biso   1.000  H
  H731     1.0000 0.01728  0.15190  0.83948  Biso   1.000  H
  C618     1.0000 0.82058  0.81774  0.47898  Biso   1.000  C
  C619     1.0000 0.82061  0.81779  0.47898  Biso   1.000  C
  C620     1.0000 0.82054  0.81774  0.47898  Biso   1.000  C
  C621     1.0000 0.66165  0.75264  0.18463  Biso   1.000  C
  H732     1.0000 0.71350  0.71987  0.26971  Biso   1.000  H
  H733     1.0000 0.75167  0.76964  0.16784  Biso   1.000  H
  C622     1.0000 0.66172  0.75268  0.18463  Biso   1.000  C
  H734     1.0000 0.75169  0.76969  0.16784  Biso   1.000  H
  H735     1.0000 0.71346  0.71987  0.26971  Biso   1.000  H
  C623     1.0000 0.66168  0.75268  0.18463  Biso   1.000  C
  H736     1.0000 0.62951  0.80658  0.10928  Biso   1.000  H
  H737     1.0000 0.69659  0.82307  0.06080  Biso   1.000  H
  H738     1.0000 0.62947  0.80658  0.10928  Biso   1.000  H
  C624     1.0000 0.16622  0.16381  0.55450  Biso   1.000  C
  C625     1.0000 0.15148  0.08128  0.42434  Biso   1.000  C
  C626     1.0000 0.15151  0.08133  0.42434  Biso   1.000  C
  C627     1.0000 0.16618  0.16381  0.55450  Biso   1.000  C
  H739     1.0000 0.10219  0.10871  0.19552  Biso   1.000  H
  H740     1.0000 0.04658  0.11988  0.23284  Biso   1.000  H
  H741     1.0000 0.05488  0.06738  0.29828  Biso   1.000  H
  H742     1.0000 0.10223  0.10871  0.19552  Biso   1.000  H
  H743     1.0000 0.04664  0.11993  0.23284  Biso   1.000  H
  H744     1.0000 0.05490  0.06742  0.29828  Biso   1.000  H
  H745     1.0000 0.04660  0.11993  0.23284  Biso   1.000  H
  C628     1.0000 0.95389  0.93716  0.96634  Biso   1.000  C
  H746     1.0000 0.89489  0.97085  0.96563  Biso   1.000  H
  C629     1.0000 0.95385  0.93716  0.96634  Biso   1.000  C
  H747     1.0000 0.89485  0.97085  0.96563  Biso   1.000  H
  C630     1.0000 0.06280  0.01668  0.96634  Biso   1.000  C
  H748     1.0000 0.07599  0.10510  0.96563  Biso   1.000  H
  C631     1.0000 0.06282  0.01673  0.96634  Biso   1.000  C
  H749     1.0000 0.07603  0.10510  0.96563  Biso   1.000  H
  C632     1.0000 0.06276  0.01668  0.96634  Biso   1.000  C
  C633     1.0000 0.88208  0.82275  0.50817  Biso   1.000  C
  C634     1.0000 0.78269  0.81765  0.58629  Biso   1.000  C
  C635     1.0000 0.78265  0.81765  0.58629  Biso   1.000  C
  H750     1.0000 0.64546  0.72034  0.12186  Biso   1.000  H
  H751     1.0000 0.63058  0.73873  0.24953  Biso   1.000  H
  H752     1.0000 0.64549  0.72038  0.12186  Biso   1.000  H
  H753     1.0000 0.63061  0.73878  0.24953  Biso   1.000  H
  H754     1.0000 0.63054  0.73873  0.24953  Biso   1.000  H
  H755     1.0000 0.63057  0.73878  0.24953  Biso   1.000  H
  C636     1.0000 0.19072  0.14282  0.64360  Biso   1.000  C
  H756     1.0000 0.16349  0.20000  0.56816  Biso   1.000  H
  C637     1.0000 0.19068  0.14282  0.64360  Biso   1.000  C
  C638     1.0000 0.17722  0.05932  0.50817  Biso   1.000  C
  H757     1.0000 0.13778  0.06038  0.35006  Biso   1.000  H
  H758     1.0000 0.13781  0.06043  0.35006  Biso   1.000  H
  C639     1.0000 0.17718  0.05932  0.50817  Biso   1.000  C
  C640     1.0000 0.90676  0.86955  0.97152  Biso   1.000  C
  C641     1.0000 0.90680  0.86955  0.97152  Biso   1.000  C
  C642     1.0000 0.01749  0.95496  0.96599  Biso   1.000  C
  C643     1.0000 0.13041  0.03721  0.97152  Biso   1.000  C
  C644     1.0000 0.13037  0.03721  0.97152  Biso   1.000  C
  C645     1.0000 0.89327  0.80347  0.61709  Biso   1.000  C
  C646     1.0000 0.92977  0.84847  0.42434  Biso   1.000  C
  C647     1.0000 0.89331  0.80347  0.61709  Biso   1.000  C
  H759     1.0000 0.75260  0.77488  0.60807  Biso   1.000  H
  H760     1.0000 0.76076  0.83985  0.56584  Biso   1.000  H
  H761     1.0000 0.81050  0.83827  0.65387  Biso   1.000  H
  H762     1.0000 0.76080  0.83985  0.56584  Biso   1.000  H
  H763     1.0000 0.75256  0.77488  0.60807  Biso   1.000  H
  H764     1.0000 0.81046  0.83827  0.65387  Biso   1.000  H
  C648     1.0000 0.20969  0.17201  0.76234  Biso   1.000  C
  C649     1.0000 0.20973  0.17201  0.76234  Biso   1.000  C
  C650     1.0000 0.19652  0.08981  0.61709  Biso   1.000  C
  C651     1.0000 0.19648  0.08981  0.61709  Biso   1.000  C
  C652     1.0000 0.18218  0.00278  0.47898  Biso   1.000  C
  C653     1.0000 0.18221  0.00283  0.47898  Biso   1.000  C
  C654     1.0000 0.84378  0.84953  0.92108  Biso   1.000  C
  C655     1.0000 0.84380  0.84958  0.92108  Biso   1.000  C
  C656     1.0000 0.84374  0.84953  0.92108  Biso   1.000  C
  C657     1.0000 0.84376  0.84958  0.92108  Biso   1.000  C
  N95      1.0000 0.92566  0.83535  0.02366  Biso   1.000  N
  N96      1.0000 0.92570  0.83535  0.02366  Biso   1.000  N
  H765     1.0000 0.02908  0.92396  0.96563  Biso   1.000  H
  H766     1.0000 0.02912  0.92396  0.96563  Biso   1.000  H
  C658     1.0000 0.15038  0.99416  0.92108  Biso   1.000  C
  N97      1.0000 0.16459  0.09032  0.02366  Biso   1.000  N
  N98      1.0000 0.16463  0.09032  0.02366  Biso   1.000  N
  C659     1.0000 0.95207  0.80926  0.64360  Biso   1.000  C
  H767     1.0000 0.86119  0.78596  0.67512  Biso   1.000  H
  C660     1.0000 0.95211  0.80926  0.64360  Biso   1.000  C
  H768     1.0000 0.86115  0.78596  0.67512  Biso   1.000  H
  H769     1.0000 0.92256  0.86214  0.35006  Biso   1.000  H
  C661     1.0000 0.98678  0.85445  0.44532  Biso   1.000  C
  H770     1.0000 0.92258  0.86218  0.35006  Biso   1.000  H
  C662     1.0000 0.98674  0.85445  0.44532  Biso   1.000  C
  N99      1.0000 0.24121  0.15598  0.82930  Biso   1.000  N
  N100     1.0000 0.24123  0.15603  0.82930  Biso   1.000  N
  N101     1.0000 0.24117  0.15598  0.82930  Biso   1.000  N
  N102     1.0000 0.24119  0.15603  0.82930  Biso   1.000  N
  C663     1.0000 0.19001  0.21780  0.79359  Biso   1.000  C
  C664     1.0000 0.18996  0.21780  0.79359  Biso   1.000  C
  H771     1.0000 0.21398  0.07521  0.67512  Biso   1.000  H
  H772     1.0000 0.21402  0.07521  0.67512  Biso   1.000  H
  N103     1.0000 0.18470  0.99208  0.36988  Biso   1.000  N
  C665     1.0000 0.18230  0.96497  0.58629  Biso   1.000  C
  C666     1.0000 0.18226  0.96497  0.58629  Biso   1.000  C
  H773     1.0000 0.82297  0.86594  0.97072  Biso   1.000  H
  H774     1.0000 0.81929  0.80417  0.92001  Biso   1.000  H
  H775     1.0000 0.84807  0.86534  0.83948  Biso   1.000  H
  H776     1.0000 0.82299  0.86598  0.97072  Biso   1.000  H
  H777     1.0000 0.84809  0.86538  0.83948  Biso   1.000  H
  H778     1.0000 0.81925  0.80417  0.92001  Biso   1.000  H
  C667     1.0000 0.88689  0.76816  0.02910  Biso   1.000  C
  C668     1.0000 0.88685  0.76816  0.02910  Biso   1.000  C
  H779     1.0000 0.13399  0.95695  0.97072  Biso   1.000  H
  H780     1.0000 0.13456  0.98267  0.83948  Biso   1.000  H
  H781     1.0000 0.13460  0.98267  0.83948  Biso   1.000  H
  H782     1.0000 0.13395  0.95695  0.97072  Biso   1.000  H
  H783     1.0000 0.19581  0.01511  0.92001  Biso   1.000  H
  H784     1.0000 0.19577  0.01511  0.92001  Biso   1.000  H
  C669     1.0000 0.23178  0.11868  0.02910  Biso   1.000  C
  C670     1.0000 0.23181  0.11872  0.02910  Biso   1.000  C
  C671     1.0000 0.96227  0.79027  0.76234  Biso   1.000  C
  C672     1.0000 0.99759  0.83378  0.55450  Biso   1.000  C
  C673     1.0000 0.99755  0.83378  0.55450  Biso   1.000  C
  C674     1.0000 0.03757  0.88234  0.35390  Biso   1.000  C
  C675     1.0000 0.03759  0.88239  0.35390  Biso   1.000  C
  C676     1.0000 0.03761  0.88234  0.35390  Biso   1.000  C
  C677     1.0000 0.25830  0.17628  0.94956  Biso   1.000  C
  C678     1.0000 0.25832  0.17632  0.94956  Biso   1.000  C
  C679     1.0000 0.25826  0.17628  0.94956  Biso   1.000  C
  H785     1.0000 0.20817  0.25228  0.73672  Biso   1.000  H
  H786     1.0000 0.20429  0.23369  0.87439  Biso   1.000  H
  H787     1.0000 0.14471  0.19759  0.79029  Biso   1.000  H
  H788     1.0000 0.20823  0.25232  0.73672  Biso   1.000  H
  H789     1.0000 0.14467  0.19759  0.79029  Biso   1.000  H
  H790     1.0000 0.20819  0.25232  0.73672  Biso   1.000  H
  C680     1.0000 0.18949  0.93906  0.32774  Biso   1.000  C
  C681     1.0000 0.18945  0.93906  0.32774  Biso   1.000  C
  H791     1.0000 0.22509  0.97766  0.60807  Biso   1.000  H
  H792     1.0000 0.16008  0.92085  0.56584  Biso   1.000  H
  H793     1.0000 0.16169  0.97215  0.65387  Biso   1.000  H
  H794     1.0000 0.16165  0.97215  0.65387  Biso   1.000  H
  H795     1.0000 0.84458  0.75546  0.99741  Biso   1.000  H
  C682     1.0000 0.91798  0.74165  0.94956  Biso   1.000  C
  C683     1.0000 0.91794  0.74165  0.94956  Biso   1.000  C
  C684     1.0000 0.88207  0.74865  0.15900  Biso   1.000  C
  H796     1.0000 0.24449  0.08911  0.99741  Biso   1.000  H
  C685     1.0000 0.25131  0.13341  0.15900  Biso   1.000  C
  C686     1.0000 0.25127  0.13341  0.15900  Biso   1.000  C
  N104     1.0000 0.91477  0.75875  0.82930  Biso   1.000  N
  C687     1.0000 0.02778  0.80996  0.79359  Biso   1.000  C
  H797     1.0000 0.03650  0.83647  0.56816  Biso   1.000  H
  H798     1.0000 0.03646  0.83647  0.56816  Biso   1.000  H
  N105     1.0000 0.07895  0.86654  0.35979  Biso   1.000  N
  C688     1.0000 0.03198  0.92317  0.26221  Biso   1.000  C
  N106     1.0000 0.07901  0.86659  0.35979  Biso   1.000  N
  N107     1.0000 0.07899  0.86654  0.35979  Biso   1.000  N
  C689     1.0000 0.03202  0.92317  0.26221  Biso   1.000  C
  N108     1.0000 0.07897  0.86659  0.35979  Biso   1.000  N
  H799     1.0000 0.23979  0.20218  0.97348  Biso   1.000  H
  C690     1.0000 0.32838  0.21418  0.96286  Biso   1.000  C
  H800     1.0000 0.23981  0.20223  0.97348  Biso   1.000  H
  C691     1.0000 0.32840  0.21423  0.96286  Biso   1.000  C
  C692     1.0000 0.12868  0.89096  0.27024  Biso   1.000  C
  C693     1.0000 0.12872  0.89096  0.27024  Biso   1.000  C
  H801     1.0000 0.19989  0.91997  0.39577  Biso   1.000  H
  C694     1.0000 0.24036  0.96214  0.23382  Biso   1.000  C
  C695     1.0000 0.24038  0.96219  0.23382  Biso   1.000  C
  C696     1.0000 0.24040  0.96214  0.23382  Biso   1.000  C
  H802     1.0000 0.96238  0.76014  0.97348  Biso   1.000  H
  C697     1.0000 0.88577  0.67154  0.96286  Biso   1.000  C
  H803     1.0000 0.96241  0.76019  0.97348  Biso   1.000  H
  C698     1.0000 0.88580  0.67159  0.96286  Biso   1.000  C
  H804     1.0000 0.96234  0.76014  0.97348  Biso   1.000  H
  C699     1.0000 0.88573  0.67154  0.96286  Biso   1.000  C
  C700     1.0000 0.84959  0.67775  0.16847  Biso   1.000  C
  H805     1.0000 0.85846  0.76404  0.20454  Biso   1.000  H
  H806     1.0000 0.92418  0.76714  0.19400  Biso   1.000  H
  H807     1.0000 0.85848  0.76408  0.20454  Biso   1.000  H
  H808     1.0000 0.92421  0.76719  0.19400  Biso   1.000  H
  C701     1.0000 0.84955  0.67775  0.16847  Biso   1.000  C
  H809     1.0000 0.92414  0.76714  0.19400  Biso   1.000  H
  H810     1.0000 0.92417  0.76719  0.19400  Biso   1.000  H
  C702     1.0000 0.32219  0.17178  0.16847  Biso   1.000  C
  H811     1.0000 0.23590  0.09439  0.20454  Biso   1.000  H
  H812     1.0000 0.23281  0.15700  0.19400  Biso   1.000  H
  C703     1.0000 0.32221  0.17183  0.16847  Biso   1.000  C
  H813     1.0000 0.23277  0.15700  0.19400  Biso   1.000  H
  H814     1.0000 0.04408  0.79175  0.73672  Biso   1.000  H
  H815     1.0000 0.02937  0.79564  0.87439  Biso   1.000  H
  H816     1.0000 0.05287  0.85523  0.79029  Biso   1.000  H
  H817     1.0000 0.02939  0.79569  0.87439  Biso   1.000  H
  H818     1.0000 0.05289  0.85528  0.79029  Biso   1.000  H
  H819     1.0000 0.02941  0.79564  0.87439  Biso   1.000  H
  H820     1.0000 0.05291  0.85523  0.79029  Biso   1.000  H
  H821     1.0000 0.00648  0.89777  0.19552  Biso   1.000  H
  H822     1.0000 0.07326  0.95334  0.23284  Biso   1.000  H
  H823     1.0000 0.01245  0.94504  0.29828  Biso   1.000  H
  H824     1.0000 0.07329  0.95338  0.23284  Biso   1.000  H
  H825     1.0000 0.01251  0.94509  0.29828  Biso   1.000  H
  H826     1.0000 0.00652  0.89777  0.19552  Biso   1.000  H
  H827     1.0000 0.07330  0.95334  0.23284  Biso   1.000  H
  H828     1.0000 0.01249  0.94504  0.29828  Biso   1.000  H
  H829     1.0000 0.01247  0.94509  0.29828  Biso   1.000  H
  H830     1.0000 0.34452  0.25320  0.91670  Biso   1.000  H
  H831     1.0000 0.34728  0.19060  0.93036  Biso   1.000  H
  H832     1.0000 0.34448  0.25320  0.91670  Biso   1.000  H
  C704     1.0000 0.34669  0.22971  0.09562  Biso   1.000  C
  H833     1.0000 0.11789  0.91015  0.20284  Biso   1.000  H
  C705     1.0000 0.13618  0.83637  0.22311  Biso   1.000  C
  C706     1.0000 0.13622  0.83637  0.22311  Biso   1.000  C
  H834     1.0000 0.11785  0.91015  0.20284  Biso   1.000  H
  C707     1.0000 0.24727  0.90894  0.18463  Biso   1.000  C
  H835     1.0000 0.28007  0.99356  0.26971  Biso   1.000  H
  H836     1.0000 0.23029  0.98197  0.16784  Biso   1.000  H
  C708     1.0000 0.24729  0.90899  0.18463  Biso   1.000  C
  H837     1.0000 0.28011  0.99356  0.26971  Biso   1.000  H
  H838     1.0000 0.90868  0.65546  0.91670  Biso   1.000  H
  H839     1.0000 0.84328  0.65268  0.93036  Biso   1.000  H
  H840     1.0000 0.84332  0.65268  0.93036  Biso   1.000  H
  C709     1.0000 0.88296  0.65324  0.09562  Biso   1.000  C
  C710     1.0000 0.88299  0.65328  0.09562  Biso   1.000  C
  H841     1.0000 0.84837  0.66575  0.25310  Biso   1.000  H
  H842     1.0000 0.80625  0.65954  0.13990  Biso   1.000  H
  H843     1.0000 0.80632  0.65959  0.13990  Biso   1.000  H
  H844     1.0000 0.80628  0.65959  0.13990  Biso   1.000  H
  H845     1.0000 0.33417  0.18258  0.25310  Biso   1.000  H
  H846     1.0000 0.34039  0.14671  0.13990  Biso   1.000  H
  H847     1.0000 0.33423  0.18263  0.25310  Biso   1.000  H
  H848     1.0000 0.33419  0.18263  0.25310  Biso   1.000  H
  H849     1.0000 0.39241  0.25371  0.10249  Biso   1.000  H
  H850     1.0000 0.32999  0.25561  0.12677  Biso   1.000  H
  H851     1.0000 0.33003  0.25561  0.12677  Biso   1.000  H
  H852     1.0000 0.39237  0.25371  0.10249  Biso   1.000  H
  C711     1.0000 0.18789  0.85815  0.13311  Biso   1.000  C
  H853     1.0000 0.14488  0.81645  0.29087  Biso   1.000  H
  H854     1.0000 0.09688  0.80505  0.18561  Biso   1.000  H
  C712     1.0000 0.18785  0.85815  0.13311  Biso   1.000  C
  H855     1.0000 0.27957  0.92507  0.12186  Biso   1.000  H
  H856     1.0000 0.26119  0.89175  0.24953  Biso   1.000  H
  H857     1.0000 0.27961  0.92507  0.12186  Biso   1.000  H
  H858     1.0000 0.26115  0.89175  0.24953  Biso   1.000  H
  H859     1.0000 0.86128  0.60755  0.10249  Biso   1.000  H
  H860     1.0000 0.92560  0.66997  0.12677  Biso   1.000  H
  H861     1.0000 0.86130  0.60759  0.10249  Biso   1.000  H
  H862     1.0000 0.86124  0.60755  0.10249  Biso   1.000  H
  H863     1.0000 0.92556  0.66997  0.12677  Biso   1.000  H
  H864     1.0000 0.19339  0.82284  0.10928  Biso   1.000  H
  H865     1.0000 0.17687  0.87345  0.06080  Biso   1.000  H
  H866     1.0000 0.19341  0.82289  0.10928  Biso   1.000  H
  H867     1.0000 0.17691  0.87345  0.06080  Biso   1.000  H
  H868     1.0000 0.19337  0.82289  0.10928  Biso   1.000  H
  C713     1.0000 0.70328  0.06400  0.63441  Biso   1.000  C
  C714     1.0000 0.68341  0.11270  0.63432  Biso   1.000  C
  C715     1.0000 0.69218  0.03281  0.51067  Biso   1.000  C
  H869     1.0000 0.67961  0.03230  0.69574  Biso   1.000  H
  H870     1.0000 0.74792  0.08392  0.65494  Biso   1.000  H
  C716     1.0000 0.72030  0.16289  0.53843  Biso   1.000  C
  N109     1.0000 0.69798  0.14338  0.75199  Biso   1.000  N
  H871     1.0000 0.63788  0.09268  0.61816  Biso   1.000  H
  C717     1.0000 0.72690  0.08202  0.41487  Biso   1.000  C
  H872     1.0000 0.70701  0.00250  0.51120  Biso   1.000  H
  H873     1.0000 0.64728  0.01010  0.49272  Biso   1.000  H
  N110     1.0000 0.69771  0.20640  0.54031  Biso   1.000  N
  C718     1.0000 0.70778  0.13151  0.41470  Biso   1.000  C
  H874     1.0000 0.76568  0.18471  0.55683  Biso   1.000  H
  C719     1.0000 0.65760  0.14921  0.80921  Biso   1.000  C
  H875     1.0000 0.77200  0.10190  0.42952  Biso   1.000  H
  H876     1.0000 0.71808  0.06182  0.33560  Biso   1.000  H
  C720     1.0000 0.72790  0.26020  0.58888  Biso   1.000  C
  H877     1.0000 0.66317  0.11228  0.39523  Biso   1.000  H
  H878     1.0000 0.73158  0.16289  0.35291  Biso   1.000  H
  C721     1.0000 0.67628  0.18040  0.92893  Biso   1.000  C
  C722     1.0000 0.59079  0.12572  0.77154  Biso   1.000  C
  C723     1.0000 0.69677  0.29899  0.59414  Biso   1.000  C
  C724     1.0000 0.79267  0.28958  0.63932  Biso   1.000  C
  C725     1.0000 0.73837  0.22239  0.95250  Biso   1.000  C
  C726     1.0000 0.63289  0.16529  0.01759  Biso   1.000  C
  H879     1.0000 0.56588  0.08128  0.78868  Biso   1.000  H
  H880     1.0000 0.58928  0.13258  0.68574  Biso   1.000  H
  H881     1.0000 0.57409  0.14801  0.81582  Biso   1.000  H
  C727     1.0000 0.63288  0.26937  0.59379  Biso   1.000  C
  C728     1.0000 0.73059  0.36349  0.59379  Biso   1.000  C
  H882     1.0000 0.82288  0.30881  0.57450  Biso   1.000  H
  H883     1.0000 0.79878  0.25788  0.67842  Biso   1.000  H
  H884     1.0000 0.79860  0.32141  0.69771  Biso   1.000  H
  H885     1.0000 0.76858  0.23249  0.89188  Biso   1.000  H
  C729     1.0000 0.75669  0.25028  0.06696  Biso   1.000  C
  C730     1.0000 0.64867  0.19148  0.12927  Biso   1.000  C
  H886     1.0000 0.59071  0.13592  0.00116  Biso   1.000  H
  C731     1.0000 0.60220  0.30320  0.59414  Biso   1.000  C
  H887     1.0000 0.60949  0.22540  0.59334  Biso   1.000  H
  C732     1.0000 0.70098  0.39778  0.59414  Biso   1.000  C
  H888     1.0000 0.77461  0.38411  0.59334  Biso   1.000  H
  C733     1.0000 0.71148  0.23457  0.15284  Biso   1.000  C
  C734     1.0000 0.82250  0.29449  0.09678  Biso   1.000  C
  C735     1.0000 0.60100  0.17591  0.22489  Biso   1.000  C
  C736     1.0000 0.53231  0.27211  0.58888  Biso   1.000  C
  C737     1.0000 0.63648  0.36711  0.59379  Biso   1.000  C
  C738     1.0000 0.73979  0.46771  0.58888  Biso   1.000  C
  H889     1.0000 0.72288  0.25320  0.22953  Biso   1.000  H
  C739     1.0000 0.86758  0.32549  0.99464  Biso   1.000  C
  N111     1.0000 0.83547  0.30149  0.20980  Biso   1.000  N
  N112     1.0000 0.55431  0.12211  0.22177  Biso   1.000  N
  C740     1.0000 0.61557  0.22688  0.31158  Biso   1.000  C
  N113     1.0000 0.50867  0.30228  0.54031  Biso   1.000  N
  C741     1.0000 0.49689  0.20728  0.63932  Biso   1.000  C
  H890     1.0000 0.61591  0.39051  0.59334  Biso   1.000  H
  N114     1.0000 0.79361  0.49130  0.54031  Biso   1.000  N
  C742     1.0000 0.71038  0.50311  0.63932  Biso   1.000  C
  H891     1.0000 0.87769  0.29588  0.95831  Biso   1.000  H
  H892     1.0000 0.84860  0.33939  0.93447  Biso   1.000  H
  H893     1.0000 0.90548  0.36117  0.02500  Biso   1.000  H
  C743     1.0000 0.89719  0.34579  0.25319  Biso   1.000  C
  C744     1.0000 0.50541  0.10440  0.31033  Biso   1.000  C
  H894     1.0000 0.64049  0.22480  0.37729  Biso   1.000  H
  H895     1.0000 0.57700  0.22262  0.34336  Biso   1.000  H
  H896     1.0000 0.63900  0.26701  0.27114  Biso   1.000  H
  C745     1.0000 0.44261  0.27971  0.53843  Biso   1.000  C
  H897     1.0000 0.48590  0.17711  0.57450  Biso   1.000  H
  H898     1.0000 0.45910  0.20121  0.67842  Biso   1.000  H
  H899     1.0000 0.52280  0.20139  0.69771  Biso   1.000  H
  C746     1.0000 0.83708  0.55738  0.53843  Biso   1.000  C
  H900     1.0000 0.69119  0.51410  0.57450  Biso   1.000  H
  H901     1.0000 0.74207  0.54088  0.67842  Biso   1.000  H
  H902     1.0000 0.67861  0.47721  0.69771  Biso   1.000  H
  C747     1.0000 0.89557  0.40098  0.31033  Biso   1.000  C
  C748     1.0000 0.91570  0.31451  0.34943  Biso   1.000  C
  H903     1.0000 0.92768  0.36029  0.18597  Biso   1.000  H
  C749     1.0000 0.44857  0.10278  0.25319  Biso   1.000  C
  C750     1.0000 0.48920  0.04189  0.36559  Biso   1.000  C
  H904     1.0000 0.52119  0.13629  0.37497  Biso   1.000  H
  C751     1.0000 0.42368  0.29217  0.41470  Biso   1.000  C
  H905     1.0000 0.41898  0.23430  0.55683  Biso   1.000  H
  C752     1.0000 0.42931  0.31659  0.63432  Biso   1.000  C
  C753     1.0000 0.86849  0.57628  0.41470  Biso   1.000  C
  H906     1.0000 0.81531  0.58101  0.55683  Biso   1.000  H
  C754     1.0000 0.88727  0.57068  0.63432  Biso   1.000  C
  N115     1.0000 0.87788  0.43221  0.22177  Biso   1.000  N
  C755     1.0000 0.95809  0.44727  0.36559  Biso   1.000  C
  H907     1.0000 0.86369  0.38490  0.37497  Biso   1.000  H
  H908     1.0000 0.88297  0.29681  0.41130  Biso   1.000  H
  H909     1.0000 0.91907  0.28008  0.31310  Biso   1.000  H
  C756     1.0000 0.97590  0.35881  0.40648  Biso   1.000  C
  N116     1.0000 0.46599  0.16451  0.20980  Biso   1.000  N
  C757     1.0000 0.39880  0.08429  0.34943  Biso   1.000  C
  H910     1.0000 0.43261  0.07229  0.18597  Biso   1.000  H
  H911     1.0000 0.52659  0.04500  0.40318  Biso   1.000  H
  H912     1.0000 0.47511  0.01001  0.30221  Biso   1.000  H
  C758     1.0000 0.43779  0.02238  0.46014  Biso   1.000  C
  C759     1.0000 0.35510  0.27308  0.41487  Biso   1.000  C
  H913     1.0000 0.44908  0.33680  0.39523  Biso   1.000  H
  H914     1.0000 0.43130  0.26840  0.35291  Biso   1.000  H
  C760     1.0000 0.36069  0.29672  0.63441  Biso   1.000  C
  N117     1.0000 0.44540  0.30200  0.75199  Biso   1.000  N
  H915     1.0000 0.45479  0.36210  0.61816  Biso   1.000  H
  H916     1.0000 0.88769  0.55089  0.39523  Biso   1.000  H
  H917     1.0000 0.83708  0.56868  0.35291  Biso   1.000  H
  C761     1.0000 0.91799  0.64487  0.41487  Biso   1.000  C
  N118     1.0000 0.85660  0.55460  0.75199  Biso   1.000  N
  C762     1.0000 0.93600  0.63931  0.63441  Biso   1.000  C
  H918     1.0000 0.90728  0.54519  0.61816  Biso   1.000  H
  C763     1.0000 0.82406  0.42508  0.22489  Biso   1.000  C
  H919     1.0000 0.95499  0.48161  0.40318  Biso   1.000  H
  H920     1.0000 0.99000  0.46511  0.30221  Biso   1.000  H
  C764     1.0000 0.97758  0.41539  0.46014  Biso   1.000  C
  H921     1.0000 0.98488  0.33680  0.47023  Biso   1.000  H
  H922     1.0000 0.00918  0.37248  0.34604  Biso   1.000  H
  C765     1.0000 0.47200  0.17748  0.09678  Biso   1.000  C
  H923     1.0000 0.41379  0.11701  0.41130  Biso   1.000  H
  H924     1.0000 0.36099  0.08091  0.31310  Biso   1.000  H
  C766     1.0000 0.38290  0.02410  0.40648  Biso   1.000  C
  H925     1.0000 0.42466  0.98007  0.48880  Biso   1.000  H
  H926     1.0000 0.45392  0.05102  0.52924  Biso   1.000  H
  C767     1.0000 0.34059  0.30779  0.51067  Biso   1.000  C
  H927     1.0000 0.32990  0.22799  0.42952  Biso   1.000  H
  H928     1.0000 0.34369  0.28189  0.33560  Biso   1.000  H
  H929     1.0000 0.35271  0.32039  0.69574  Biso   1.000  H
  H930     1.0000 0.33597  0.25209  0.65494  Biso   1.000  H
  C768     1.0000 0.49161  0.34241  0.80921  Biso   1.000  C
  C769     1.0000 0.96718  0.65937  0.51067  Biso   1.000  C
  H931     1.0000 0.89809  0.67008  0.42952  Biso   1.000  H
  H932     1.0000 0.93817  0.65627  0.33560  Biso   1.000  H
  C770     1.0000 0.85079  0.50840  0.80921  Biso   1.000  C
  H933     1.0000 0.96767  0.64728  0.69574  Biso   1.000  H
  H934     1.0000 0.91608  0.66401  0.65494  Biso   1.000  H
  C771     1.0000 0.80850  0.45719  0.12927  Biso   1.000  C
  C772     1.0000 0.77309  0.38870  0.31158  Biso   1.000  C
  H935     1.0000 0.94897  0.40288  0.52924  Biso   1.000  H
  H936     1.0000 0.01987  0.44459  0.48880  Biso   1.000  H
  C773     1.0000 0.49358  0.24329  0.06696  Biso   1.000  C
  C774     1.0000 0.45788  0.13239  0.99464  Biso   1.000  C
  H937     1.0000 0.36325  0.99073  0.34604  Biso   1.000  H
  H938     1.0000 0.35188  0.01511  0.47023  Biso   1.000  H
  H939     1.0000 0.29551  0.29301  0.51120  Biso   1.000  H
  H940     1.0000 0.36280  0.35269  0.49272  Biso   1.000  H
  C775     1.0000 0.50409  0.32369  0.92893  Biso   1.000  C
  C776     1.0000 0.53487  0.40918  0.77154  Biso   1.000  C
  H941     1.0000 0.99749  0.70451  0.51120  Biso   1.000  H
  H942     1.0000 0.98987  0.63718  0.49272  Biso   1.000  H
  C777     1.0000 0.81958  0.49588  0.92893  Biso   1.000  C
  C778     1.0000 0.87430  0.46511  0.77154  Biso   1.000  C
  C779     1.0000 0.83468  0.46757  0.01759  Biso   1.000  C
  C780     1.0000 0.76537  0.47689  0.15284  Biso   1.000  C
  H943     1.0000 0.77520  0.41572  0.37729  Biso   1.000  H
  H944     1.0000 0.77741  0.35441  0.34336  Biso   1.000  H
  H945     1.0000 0.73298  0.37197  0.27114  Biso   1.000  H
  C781     1.0000 0.48399  0.26159  0.95250  Biso   1.000  C
  C782     1.0000 0.52310  0.28851  0.15284  Biso   1.000  C
  H946     1.0000 0.41820  0.12229  0.95831  Biso   1.000  H
  H947     1.0000 0.49078  0.15139  0.93447  Biso   1.000  H
  H948     1.0000 0.45570  0.09449  0.02500  Biso   1.000  H
  C783     1.0000 0.53242  0.36711  0.01759  Biso   1.000  C
  H949     1.0000 0.51540  0.43411  0.78868  Biso   1.000  H
  H950     1.0000 0.54330  0.41071  0.68574  Biso   1.000  H
  H951     1.0000 0.57390  0.42591  0.81582  Biso   1.000  H
  C784     1.0000 0.77758  0.51600  0.95250  Biso   1.000  C
  H952     1.0000 0.91867  0.48458  0.78868  Biso   1.000  H
  H953     1.0000 0.86740  0.45668  0.68574  Biso   1.000  H
  H954     1.0000 0.85198  0.42610  0.81582  Biso   1.000  H
  H955     1.0000 0.86408  0.45478  0.00116  Biso   1.000  H
  C785     1.0000 0.74971  0.50640  0.06696  Biso   1.000  C
  H956     1.0000 0.74681  0.46970  0.22953  Biso   1.000  H
  H957     1.0000 0.46387  0.23138  0.89188  Biso   1.000  H
  C786     1.0000 0.54278  0.35130  0.12927  Biso   1.000  C
  H958     1.0000 0.53028  0.27711  0.22953  Biso   1.000  H
  H959     1.0000 0.54519  0.40928  0.00116  Biso   1.000  H
  H960     1.0000 0.76749  0.53611  0.89188  Biso   1.000  H
  C787     1.0000 0.70549  0.52800  0.09678  Biso   1.000  C
  C788     1.0000 0.57489  0.39899  0.22489  Biso   1.000  C
  N119     1.0000 0.69848  0.53398  0.20980  Biso   1.000  N
  C789     1.0000 0.67449  0.54209  0.99464  Biso   1.000  C
  N120     1.0000 0.56778  0.44570  0.22177  Biso   1.000  N
  C790     1.0000 0.61129  0.38439  0.31158  Biso   1.000  C
  C791     1.0000 0.65418  0.55140  0.25319  Biso   1.000  C
  H961     1.0000 0.70409  0.58180  0.95831  Biso   1.000  H
  H962     1.0000 0.66060  0.50918  0.93447  Biso   1.000  H
  H963     1.0000 0.63880  0.54431  0.02500  Biso   1.000  H
  C792     1.0000 0.59901  0.49459  0.31033  Biso   1.000  C
  H964     1.0000 0.58428  0.35951  0.37729  Biso   1.000  H
  H965     1.0000 0.64560  0.42299  0.34336  Biso   1.000  H
  H966     1.0000 0.62800  0.36099  0.27114  Biso   1.000  H
  C793     1.0000 0.68549  0.60117  0.34943  Biso   1.000  C
  H967     1.0000 0.63970  0.56739  0.18597  Biso   1.000  H
  C794     1.0000 0.55270  0.51081  0.36559  Biso   1.000  C
  H968     1.0000 0.61510  0.47879  0.37497  Biso   1.000  H
  C795     1.0000 0.64121  0.61711  0.40648  Biso   1.000  C
  H969     1.0000 0.70321  0.58620  0.41130  Biso   1.000  H
  H970     1.0000 0.71988  0.63898  0.31310  Biso   1.000  H
  H971     1.0000 0.51839  0.47341  0.40318  Biso   1.000  H
  H972     1.0000 0.53490  0.52489  0.30221  Biso   1.000  H
  C796     1.0000 0.58457  0.56220  0.46014  Biso   1.000  C
  H973     1.0000 0.62749  0.63671  0.34604  Biso   1.000  H
  H974     1.0000 0.66321  0.64811  0.47023  Biso   1.000  H
  H975     1.0000 0.55541  0.57531  0.48880  Biso   1.000  H
  H976     1.0000 0.59710  0.54607  0.52924  Biso   1.000  H
  C797     1.0000 0.65210  0.68087  0.85662  Biso   1.000  C
  C798     1.0000 0.63197  0.68148  0.72779  Biso   1.000  C
  C799     1.0000 0.59878  0.63500  0.93242  Biso   1.000  C
  H977     1.0000 0.68530  0.66998  0.85698  Biso   1.000  H
  H978     1.0000 0.66927  0.72277  0.89126  Biso   1.000  H
  C800     1.0000 0.57701  0.69339  0.72181  Biso   1.000  C
  H979     1.0000 0.61988  0.64107  0.68967  Biso   1.000  H
  H980     1.0000 0.66727  0.71419  0.68244  Biso   1.000  H
  C801     1.0000 0.54651  0.64820  0.92956  Biso   1.000  C
  H981     1.0000 0.58420  0.59250  0.90242  Biso   1.000  H
  H982     1.0000 0.61299  0.63718  0.01571  Biso   1.000  H
  N121     1.0000 0.55372  0.68421  0.60209  Biso   1.000  N
  C802     1.0000 0.52358  0.64561  0.80180  Biso   1.000  C
  H983     1.0000 0.59018  0.73657  0.74877  Biso   1.000  H
  H984     1.0000 0.56047  0.68977  0.96366  Biso   1.000  H
  H985     1.0000 0.51188  0.61739  0.97929  Biso   1.000  H
  C803     1.0000 0.55239  0.72578  0.53709  Biso   1.000  C
  N122     1.0000 0.47411  0.65951  0.79796  Biso   1.000  N
  H986     1.0000 0.50837  0.60307  0.76877  Biso   1.000  H
  C804     1.0000 0.52106  0.70567  0.41907  Biso   1.000  C
  C805     1.0000 0.57899  0.79311  0.57227  Biso   1.000  C
  C806     1.0000 0.42170  0.62300  0.75306  Biso   1.000  C
  C807     1.0000 0.48841  0.64260  0.39318  Biso   1.000  C
  C808     1.0000 0.52288  0.74709  0.33318  Biso   1.000  C
  H987     1.0000 0.60151  0.80089  0.64789  Biso   1.000  H
  H988     1.0000 0.54529  0.80219  0.58173  Biso   1.000  H
  H989     1.0000 0.60739  0.81980  0.50987  Biso   1.000  H
  C809     1.0000 0.40108  0.55928  0.69994  Biso   1.000  C
  C810     1.0000 0.37489  0.64519  0.74904  Biso   1.000  C
  C811     1.0000 0.45988  0.62031  0.28471  Biso   1.000  C
  H990     1.0000 0.48579  0.61401  0.45228  Biso   1.000  H
  C812     1.0000 0.49300  0.72587  0.22328  Biso   1.000  C
  H991     1.0000 0.54479  0.79028  0.34952  Biso   1.000  H
  H992     1.0000 0.38500  0.52800  0.76341  Biso   1.000  H
  H993     1.0000 0.43660  0.55937  0.66164  Biso   1.000  H
  H994     1.0000 0.36870  0.54927  0.64039  Biso   1.000  H
  C813     1.0000 0.31108  0.60298  0.74904  Biso   1.000  C
  C814     1.0000 0.39698  0.70808  0.74904  Biso   1.000  C
  C815     1.0000 0.42649  0.55279  0.25560  Biso   1.000  C
  C816     1.0000 0.46227  0.66257  0.19820  Biso   1.000  C
  C817     1.0000 0.49271  0.76999  0.13249  Biso   1.000  C
  C818     1.0000 0.27028  0.62508  0.74904  Biso   1.000  C
  H995     1.0000 0.29610  0.55969  0.74913  Biso   1.000  H
  C819     1.0000 0.35480  0.72967  0.74904  Biso   1.000  C
  H996     1.0000 0.44031  0.73639  0.74913  Biso   1.000  H
  N123     1.0000 0.42351  0.53680  0.14713  Biso   1.000  N
  C820     1.0000 0.39790  0.50821  0.36131  Biso   1.000  C
  H997     1.0000 0.44297  0.64788  0.12276  Biso   1.000  H
  N124     1.0000 0.53627  0.82638  0.13829  Biso   1.000  N
  C821     1.0000 0.44238  0.74269  0.04026  Biso   1.000  C
  C822     1.0000 0.20129  0.57828  0.75306  Biso   1.000  C
  C823     1.0000 0.29191  0.68889  0.74904  Biso   1.000  C
  C824     1.0000 0.37698  0.79867  0.75306  Biso   1.000  C
  C825     1.0000 0.39141  0.47211  0.11106  Biso   1.000  C
  H998     1.0000 0.37988  0.52499  0.41764  Biso   1.000  H
  H999     1.0000 0.43008  0.50339  0.40166  Biso   1.000  H
  H1000    1.0000 0.36541  0.46780  0.33220  Biso   1.000  H
  C826     1.0000 0.54219  0.87249  0.05107  Biso   1.000  C
  H1001    1.0000 0.43570  0.77541  0.00750  Biso   1.000  H
  H1002    1.0000 0.40397  0.71067  0.07731  Biso   1.000  H
  H1003    1.0000 0.45461  0.72429  0.97607  Biso   1.000  H
  N125     1.0000 0.18542  0.52591  0.79796  Biso   1.000  N
  C827     1.0000 0.15819  0.59890  0.69994  Biso   1.000  C
  H1004    1.0000 0.26362  0.70390  0.74913  Biso   1.000  H
  N126     1.0000 0.34050  0.81456  0.79796  Biso   1.000  N
  C828     1.0000 0.44067  0.84177  0.69994  Biso   1.000  C
  C829     1.0000 0.33031  0.45779  0.05107  Biso   1.000  C
  H1005    1.0000 0.38271  0.44500  0.18257  Biso   1.000  H
  C830     1.0000 0.43271  0.46201  0.02312  Biso   1.000  C
  C831     1.0000 0.60819  0.90521  0.00321  Biso   1.000  C
  C832     1.0000 0.52791  0.91929  0.11106  Biso   1.000  C
  H1006    1.0000 0.51239  0.85141  0.98402  Biso   1.000  H
  C833     1.0000 0.12201  0.47638  0.80180  Biso   1.000  C
  H1007    1.0000 0.14299  0.61498  0.76341  Biso   1.000  H
  H1008    1.0000 0.12282  0.56340  0.66164  Biso   1.000  H
  H1009    1.0000 0.18060  0.63129  0.64039  Biso   1.000  H
  C834     1.0000 0.35440  0.87800  0.80180  Biso   1.000  C
  H1010    1.0000 0.47199  0.85697  0.76341  Biso   1.000  H
  H1011    1.0000 0.44059  0.87717  0.66164  Biso   1.000  H
  H1012    1.0000 0.45071  0.81938  0.64039  Biso   1.000  H
  C835     1.0000 0.29699  0.39180  0.00321  Biso   1.000  C
  N127     1.0000 0.29007  0.46368  0.13829  Biso   1.000  N
  H1013    1.0000 0.33899  0.48759  0.98402  Biso   1.000  H
  C836     1.0000 0.39928  0.39500  0.97420  Biso   1.000  C
  H1014    1.0000 0.47141  0.47040  0.06383  Biso   1.000  H
  H1015    1.0000 0.44399  0.49148  0.95581  Biso   1.000  H
  H1016    1.0000 0.63760  0.92309  0.07062  Biso   1.000  H
  H1017    1.0000 0.61627  0.87458  0.96268  Biso   1.000  H
  C837     1.0000 0.61886  0.95697  0.91447  Biso   1.000  C
  N128     1.0000 0.46320  0.88667  0.14713  Biso   1.000  N
  H1018    1.0000 0.55501  0.93769  0.18257  Biso   1.000  H
  C838     1.0000 0.53799  0.97068  0.02312  Biso   1.000  C
  C839     1.0000 0.11638  0.42299  0.72181  Biso   1.000  C
  H1019    1.0000 0.09469  0.49157  0.76877  Biso   1.000  H
  C840     1.0000 0.10169  0.45348  0.92956  Biso   1.000  C
  C841     1.0000 0.30658  0.88357  0.72181  Biso   1.000  C
  H1020    1.0000 0.39691  0.90530  0.76877  Biso   1.000  H
  C842     1.0000 0.35179  0.89830  0.92956  Biso   1.000  C
  H1021    1.0000 0.28549  0.36238  0.07062  Biso   1.000  H
  H1022    1.0000 0.25831  0.38370  0.96268  Biso   1.000  H
  C843     1.0000 0.33811  0.38110  0.91447  Biso   1.000  C
  C844     1.0000 0.27728  0.50728  0.13249  Biso   1.000  C
  H1023    1.0000 0.39070  0.36548  0.04026  Biso   1.000  H
  H1024    1.0000 0.42608  0.39009  0.91528  Biso   1.000  H
  H1025    1.0000 0.66247  0.97828  0.88671  Biso   1.000  H
  H1026    1.0000 0.59169  0.93866  0.84412  Biso   1.000  H
  C845     1.0000 0.60502  0.00433  0.97420  Biso   1.000  C
  C846     1.0000 0.44720  0.87369  0.25560  Biso   1.000  C
  H1027    1.0000 0.50850  0.95247  0.95581  Biso   1.000  H
  H1028    1.0000 0.52961  0.00104  0.06383  Biso   1.000  H
  N129     1.0000 0.13049  0.44630  0.60209  Biso   1.000  N
  H1029    1.0000 0.14638  0.40978  0.74877  Biso   1.000  H
  C847     1.0000 0.04951  0.36799  0.72779  Biso   1.000  C
  H1030    1.0000 0.12929  0.43949  0.96366  Biso   1.000  H
  H1031    1.0000 0.10552  0.48810  0.97929  Biso   1.000  H
  C848     1.0000 0.03623  0.40121  0.93242  Biso   1.000  C
  N130     1.0000 0.31579  0.86948  0.60209  Biso   1.000  N
  H1032    1.0000 0.26338  0.85358  0.74877  Biso   1.000  H
  C849     1.0000 0.31849  0.95048  0.72779  Biso   1.000  C
  H1033    1.0000 0.31021  0.87068  0.96366  Biso   1.000  H
  H1034    1.0000 0.38260  0.89450  0.97929  Biso   1.000  H
  C850     1.0000 0.36499  0.96378  0.93242  Biso   1.000  C
  H1035    1.0000 0.31579  0.33749  0.88671  Biso   1.000  H
  H1036    1.0000 0.34698  0.40830  0.84412  Biso   1.000  H
  C851     1.0000 0.30032  0.55761  0.04026  Biso   1.000  C
  C852     1.0000 0.23292  0.50701  0.22328  Biso   1.000  C
  H1037    1.0000 0.60991  0.03602  0.91528  Biso   1.000  H
  H1038    1.0000 0.63449  0.02523  0.04026  Biso   1.000  H
  C853     1.0000 0.37970  0.83959  0.28471  Biso   1.000  C
  C854     1.0000 0.49180  0.88968  0.36131  Biso   1.000  C
  C855     1.0000 0.17339  0.44760  0.53709  Biso   1.000  C
  C856     1.0000 0.02878  0.34787  0.85662  Biso   1.000  C
  H1039    1.0000 0.02121  0.38008  0.68967  Biso   1.000  H
  H1040    1.0000 0.04691  0.33267  0.68244  Biso   1.000  H
  H1041    1.0000 0.00829  0.41581  0.90242  Biso   1.000  H
  H1042    1.0000 0.02418  0.38699  0.01571  Biso   1.000  H
  C857     1.0000 0.27419  0.82657  0.53709  Biso   1.000  C
  C858     1.0000 0.31909  0.97119  0.85662  Biso   1.000  C
  H1043    1.0000 0.35889  0.97879  0.68967  Biso   1.000  H
  H1044    1.0000 0.28579  0.95308  0.68244  Biso   1.000  H
  H1045    1.0000 0.40751  0.99168  0.90242  Biso   1.000  H
  H1046    1.0000 0.36280  0.97578  0.01571  Biso   1.000  H
  H1047    1.0000 0.33969  0.56428  0.00750  Biso   1.000  H
  H1048    1.0000 0.30670  0.59598  0.07731  Biso   1.000  H
  H1049    1.0000 0.26968  0.54538  0.97607  Biso   1.000  H
  C859     1.0000 0.22417  0.47707  0.33318  Biso   1.000  C
  C860     1.0000 0.20030  0.53768  0.19820  Biso   1.000  C
  C861     1.0000 0.33740  0.79969  0.19820  Biso   1.000  C
  C862     1.0000 0.35740  0.84580  0.39318  Biso   1.000  C
  H1050    1.0000 0.47500  0.85488  0.41764  Biso   1.000  H
  H1051    1.0000 0.49662  0.92671  0.40166  Biso   1.000  H
  H1052    1.0000 0.53220  0.89761  0.33220  Biso   1.000  H
  C863     1.0000 0.18458  0.47888  0.41907  Biso   1.000  C
  C864     1.0000 0.21411  0.42100  0.57227  Biso   1.000  C
  H1053    1.0000 0.05349  0.33068  0.89126  Biso   1.000  H
  H1054    1.0000 0.98470  0.31470  0.85698  Biso   1.000  H
  C865     1.0000 0.29429  0.81540  0.41907  Biso   1.000  C
  C866     1.0000 0.20689  0.78588  0.57227  Biso   1.000  C
  H1055    1.0000 0.27720  0.94649  0.89126  Biso   1.000  H
  H1056    1.0000 0.32999  0.01531  0.85698  Biso   1.000  H
  H1057    1.0000 0.24550  0.45520  0.34952  Biso   1.000  H
  C867     1.0000 0.16041  0.54009  0.28471  Biso   1.000  C
  H1058    1.0000 0.20490  0.55701  0.12276  Biso   1.000  H
  C868     1.0000 0.27409  0.76707  0.22328  Biso   1.000  C
  H1059    1.0000 0.35208  0.79510  0.12276  Biso   1.000  H
  H1060    1.0000 0.38601  0.87179  0.45228  Biso   1.000  H
  C869     1.0000 0.15418  0.51159  0.39318  Biso   1.000  C
  H1061    1.0000 0.19940  0.39848  0.64789  Biso   1.000  H
  H1062    1.0000 0.25688  0.45469  0.58173  Biso   1.000  H
  H1063    1.0000 0.21239  0.39259  0.50987  Biso   1.000  H
  C870     1.0000 0.25289  0.77578  0.33318  Biso   1.000  C
  H1064    1.0000 0.19911  0.80057  0.64789  Biso   1.000  H
  H1065    1.0000 0.19782  0.74311  0.58173  Biso   1.000  H
  H1066    1.0000 0.18022  0.78759  0.50987  Biso   1.000  H
  C871     1.0000 0.12631  0.57350  0.25560  Biso   1.000  C
  C872     1.0000 0.22999  0.72267  0.13249  Biso   1.000  C
  H1067    1.0000 0.12819  0.51419  0.45228  Biso   1.000  H
  H1068    1.0000 0.20970  0.75451  0.34952  Biso   1.000  H
  N131     1.0000 0.11330  0.57647  0.14713  Biso   1.000  N
  C873     1.0000 0.11030  0.60210  0.36131  Biso   1.000  C
  N132     1.0000 0.17359  0.70988  0.13829  Biso   1.000  N
  C874     1.0000 0.25730  0.69969  0.04026  Biso   1.000  C
  C875     1.0000 0.08068  0.60858  0.11106  Biso   1.000  C
  H1069    1.0000 0.14510  0.62008  0.41764  Biso   1.000  H
  H1070    1.0000 0.07329  0.56989  0.40166  Biso   1.000  H
  H1071    1.0000 0.10239  0.63458  0.33220  Biso   1.000  H
  C876     1.0000 0.12749  0.66971  0.05107  Biso   1.000  C
  H1072    1.0000 0.22460  0.66030  0.00750  Biso   1.000  H
  H1073    1.0000 0.28930  0.69329  0.07731  Biso   1.000  H
  H1074    1.0000 0.27568  0.73027  0.97607  Biso   1.000  H
  H1075    1.0000 0.06232  0.61730  0.18257  Biso   1.000  H
  C877     1.0000 0.02929  0.56729  0.02312  Biso   1.000  C
  C878     1.0000 0.09481  0.70298  0.00321  Biso   1.000  C
  H1076    1.0000 0.14858  0.66099  0.98402  Biso   1.000  H
  C879     1.0000 0.99571  0.60071  0.97420  Biso   1.000  C
  H1077    1.0000 0.99899  0.52860  0.06383  Biso   1.000  H
  H1078    1.0000 0.04748  0.55599  0.95581  Biso   1.000  H
  H1079    1.0000 0.07688  0.71447  0.07062  Biso   1.000  H
  H1080    1.0000 0.12539  0.74167  0.96268  Biso   1.000  H
  C880     1.0000 0.04299  0.66187  0.91447  Biso   1.000  C
  H1081    1.0000 0.96400  0.57387  0.91528  Biso   1.000  H
  H1082    1.0000 0.97480  0.60928  0.04026  Biso   1.000  H
  H1083    1.0000 0.02169  0.68421  0.88671  Biso   1.000  H
  H1084    1.0000 0.06130  0.65298  0.84412  Biso   1.000  H
