data_image0
_cell_length_a       11.094
_cell_length_b       50.914
_cell_length_c       15.935
_cell_angle_alpha    90
_cell_angle_beta     94.88
_cell_angle_gamma    90

_symmetry_space_group_name_H-M    "P 1"
_symmetry_int_tables_number       1

loop_
  _symmetry_equiv_pos_as_xyz
  'x, y, z'

loop_
  _atom_site_label
  _atom_site_occupancy
  _atom_site_fract_x
  _atom_site_fract_y
  _atom_site_fract_z
  _atom_site_thermal_displace_type
  _atom_site_B_iso_or_equiv
  _atom_site_type_symbol
  C1       1.0000 0.50857  0.46125  0.32758  Biso   1.000  C
  N1       1.0000 0.39559  0.46618  0.31699  Biso   1.000  N
  C2       1.0000 0.54860  0.44241  0.39629  Biso   1.000  C
  C3       1.0000 0.60367  0.47282  0.27669  Biso   1.000  C
  C4       1.0000 0.34999  0.48513  0.25508  Biso   1.000  C
  C5       1.0000 0.46625  0.42285  0.41720  Biso   1.000  C
  C6       1.0000 0.66230  0.44298  0.43862  Biso   1.000  C
  H1       1.0000 0.57498  0.47240  0.21679  Biso   1.000  H
  H2       1.0000 0.67824  0.46251  0.28582  Biso   1.000  H
  H3       1.0000 0.61951  0.49100  0.29419  Biso   1.000  H
  C7       1.0000 0.27005  0.47113  0.18662  Biso   1.000  C
  H4       1.0000 0.41900  0.49389  0.22970  Biso   1.000  H
  C8       1.0000 0.27743  0.50566  0.30081  Biso   1.000  C
  C9       1.0000 0.50048  0.40460  0.48050  Biso   1.000  C
  H5       1.0000 0.38774  0.42210  0.38848  Biso   1.000  H
  C10      1.0000 0.70015  0.42491  0.50122  Biso   1.000  C
  H6       1.0000 0.71719  0.45630  0.42451  Biso   1.000  H
  N2       1.0000 0.34555  0.45339  0.13762  Biso   1.000  N
  H7       1.0000 0.20776  0.46050  0.21307  Biso   1.000  H
  C11      1.0000 0.20751  0.49030  0.12401  Biso   1.000  C
  H8       1.0000 0.21287  0.49680  0.32940  Biso   1.000  H
  H9       1.0000 0.33157  0.51469  0.34408  Biso   1.000  H
  C12      1.0000 0.22191  0.52538  0.23890  Biso   1.000  C
  C13      1.0000 0.41355  0.38341  0.50160  Biso   1.000  C
  C14      1.0000 0.61658  0.40590  0.52251  Biso   1.000  C
  C15      1.0000 0.82731  0.42540  0.54090  Biso   1.000  C
  C16      1.0000 0.34380  0.42847  0.14688  Biso   1.000  C
  C17      1.0000 0.13891  0.51196  0.17339  Biso   1.000  C
  H10      1.0000 0.14898  0.48079  0.08471  Biso   1.000  H
  H11      1.0000 0.26807  0.49880  0.09070  Biso   1.000  H
  H12      1.0000 0.17610  0.53859  0.26900  Biso   1.000  H
  H13      1.0000 0.28661  0.53461  0.21150  Biso   1.000  H
  N3       1.0000 0.43196  0.37304  0.57479  Biso   1.000  N
  C18      1.0000 0.31696  0.37654  0.43402  Biso   1.000  C
  H14      1.0000 0.63912  0.39370  0.56609  Biso   1.000  H
  N4       1.0000 0.88807  0.44557  0.52692  Biso   1.000  N
  C19      1.0000 0.87098  0.40028  0.58770  Biso   1.000  C
  C20      1.0000 0.42534  0.41250  0.09718  Biso   1.000  C
  C21      1.0000 0.26805  0.41319  0.20419  Biso   1.000  C
  H15      1.0000 0.10349  0.52520  0.13289  Biso   1.000  H
  H16      1.0000 0.07176  0.50359  0.20073  Biso   1.000  H
  C22      1.0000 0.35321  0.35234  0.60162  Biso   1.000  C
  H17      1.0000 0.29101  0.35829  0.44151  Biso   1.000  H
  H18      1.0000 0.34879  0.37840  0.37878  Biso   1.000  H
  H19      1.0000 0.24777  0.38830  0.43729  Biso   1.000  H
  C23      1.0000 0.01447  0.44801  0.55658  Biso   1.000  C
  H20      1.0000 0.95959  0.40020  0.59507  Biso   1.000  H
  H21      1.0000 0.84272  0.38490  0.55482  Biso   1.000  H
  H22      1.0000 0.83844  0.39979  0.64300  Biso   1.000  H
  C24      1.0000 0.39701  0.38649  0.07778  Biso   1.000  C
  C25      1.0000 0.53293  0.42318  0.07249  Biso   1.000  C
  H23      1.0000 0.24350  0.42479  0.24891  Biso   1.000  H
  H24      1.0000 0.31559  0.39850  0.22951  Biso   1.000  H
  H25      1.0000 0.19602  0.40639  0.17163  Biso   1.000  H
  C26      1.0000 0.42510  0.32653  0.61012  Biso   1.000  C
  H26      1.0000 0.28329  0.35010  0.55828  Biso   1.000  H
  C27      1.0000 0.30592  0.36010  0.68519  Biso   1.000  C
  C28      1.0000 0.08738  0.45054  0.47829  Biso   1.000  C
  H27      1.0000 0.04148  0.43220  0.59028  Biso   1.000  H
  C29      1.0000 0.03189  0.47278  0.61062  Biso   1.000  C
  C30      1.0000 0.47409  0.37074  0.03508  Biso   1.000  C
  H28      1.0000 0.32347  0.37931  0.09410  Biso   1.000  H
  C31      1.0000 0.61185  0.40786  0.03017  Biso   1.000  C
  H29      1.0000 0.55209  0.44100  0.08471  Biso   1.000  H
  N5       1.0000 0.45327  0.31873  0.52711  Biso   1.000  N
  H30      1.0000 0.50169  0.32940  0.64678  Biso   1.000  H
  C32      1.0000 0.35027  0.30498  0.64759  Biso   1.000  C
  H31      1.0000 0.25860  0.37650  0.67789  Biso   1.000  H
  H32      1.0000 0.37500  0.36340  0.72752  Biso   1.000  H
  C33      1.0000 0.22586  0.33832  0.71681  Biso   1.000  C
  N6       1.0000 0.07396  0.42589  0.43118  Biso   1.000  N
  C34      1.0000 0.22060  0.45549  0.50557  Biso   1.000  C
  H33      1.0000 0.05448  0.46539  0.44221  Biso   1.000  H
  H34      1.0000 0.99738  0.48800  0.57831  Biso   1.000  H
  H35      1.0000 0.98745  0.47079  0.66151  Biso   1.000  H
  C35      1.0000 0.16444  0.47796  0.63682  Biso   1.000  C
  C36      1.0000 0.44265  0.34258  0.01971  Biso   1.000  C
  C37      1.0000 0.58161  0.38176  0.01279  Biso   1.000  C
  C38      1.0000 0.73031  0.41823  0.00668  Biso   1.000  C
  C39      1.0000 0.55589  0.31035  0.51048  Biso   1.000  C
  H36      1.0000 0.28178  0.30029  0.60647  Biso   1.000  H
  H37      1.0000 0.40141  0.28910  0.65748  Biso   1.000  H
  C40      1.0000 0.30141  0.31300  0.72947  Biso   1.000  C
  H38      1.0000 0.15580  0.33519  0.67531  Biso   1.000  H
  H39      1.0000 0.19486  0.34360  0.77073  Biso   1.000  H
  C41      1.0000 0.01422  0.42478  0.35982  Biso   1.000  C
  H40      1.0000 0.26599  0.45750  0.45512  Biso   1.000  H
  H41      1.0000 0.25438  0.44019  0.53788  Biso   1.000  H
  C42      1.0000 0.23626  0.48018  0.55992  Biso   1.000  C
  H42      1.0000 0.19747  0.46351  0.67329  Biso   1.000  H
  H43      1.0000 0.17233  0.49450  0.66970  Biso   1.000  H
  N7       1.0000 0.33369  0.33592  0.02211  Biso   1.000  N
  C43      1.0000 0.55004  0.32341  0.01638  Biso   1.000  C
  C44      1.0000 0.53005  0.32710  0.97002  Biso   1.000  C
  H44      1.0000 0.63604  0.37119  0.98470  Biso   1.000  H
  C45      1.0000 0.74896  0.44799  0.01990  Biso   1.000  C
  C46      1.0000 0.77649  0.44330  0.05190  Biso   1.000  C
  N8       1.0000 0.79408  0.40315  0.96498  Biso   1.000  N
  C47      1.0000 0.57081  0.30332  0.42092  Biso   1.000  C
  C48      1.0000 0.66407  0.30618  0.57409  Biso   1.000  C
  H45      1.0000 0.36927  0.31600  0.77287  Biso   1.000  H
  H46      1.0000 0.25030  0.29870  0.74937  Biso   1.000  H
  C49      1.0000 0.00552  0.39832  0.31888  Biso   1.000  C
  C50      1.0000 0.95092  0.44722  0.31240  Biso   1.000  C
  H47      1.0000 0.32296  0.48270  0.57831  Biso   1.000  H
  H48      1.0000 0.20834  0.49570  0.52623  Biso   1.000  H
  C51      1.0000 0.29131  0.30889  0.00800  Biso   1.000  C
  H49      1.0000 0.61003  0.32690  0.06393  Biso   1.000  H
  H50      1.0000 0.52099  0.30530  0.01978  Biso   1.000  H
  H51      1.0000 0.58756  0.32590  0.96341  Biso   1.000  H
  H52      1.0000 0.51000  0.30840  0.97191  Biso   1.000  H
  H53      1.0000 0.61305  0.32979  0.99572  Biso   1.000  H
  H54      1.0000 0.52412  0.33321  0.91189  Biso   1.000  H
  H55      1.0000 0.74872  0.45219  0.07993  Biso   1.000  H
  H56      1.0000 0.82666  0.45320  0.00000  Biso   1.000  H
  H57      1.0000 0.73228  0.45850  0.02727  Biso   1.000  H
  H58      1.0000 0.86295  0.44540  0.04541  Biso   1.000  H
  H59      1.0000 0.68344  0.45760  0.98822  Biso   1.000  H
  H60      1.0000 0.76380  0.44200  0.11180  Biso   1.000  H
  C52      1.0000 0.91191  0.41050  0.93928  Biso   1.000  C
  C53      1.0000 0.47982  0.31007  0.35938  Biso   1.000  C
  C54      1.0000 0.67458  0.29159  0.39528  Biso   1.000  C
  H61      1.0000 0.72624  0.31930  0.56502  Biso   1.000  H
  H62      1.0000 0.69695  0.28851  0.56723  Biso   1.000  H
  H63      1.0000 0.63869  0.30801  0.63122  Biso   1.000  H
  C55      1.0000 0.01895  0.37571  0.36757  Biso   1.000  C
  C56      1.0000 0.98550  0.39594  0.23172  Biso   1.000  C
  H64      1.0000 0.92643  0.46040  0.35252  Biso   1.000  H
  H65      1.0000 0.87905  0.44061  0.27902  Biso   1.000  H
  H66      1.0000 0.00601  0.45520  0.27492  Biso   1.000  H
  C57      1.0000 0.25704  0.29736  0.09189  Biso   1.000  C
  H67      1.0000 0.35653  0.29809  0.98551  Biso   1.000  H
  C58      1.0000 0.18135  0.30958  0.94464  Biso   1.000  C
  H68      1.0000 0.93779  0.42760  0.96599  Biso   1.000  H
  C59      1.0000 0.90480  0.41323  0.84349  Biso   1.000  C
  C60      1.0000 0.00247  0.38926  0.96712  Biso   1.000  C
  C61      1.0000 0.48733  0.30461  0.27549  Biso   1.000  C
  H69      1.0000 0.40991  0.31879  0.37588  Biso   1.000  H
  C62      1.0000 0.68804  0.28693  0.30988  Biso   1.000  C
  H70      1.0000 0.73757  0.28660  0.43641  Biso   1.000  H
  C63      1.0000 0.01592  0.35094  0.33091  Biso   1.000  C
  H71      1.0000 0.03073  0.37720  0.42709  Biso   1.000  H
  C64      1.0000 0.98265  0.37123  0.19292  Biso   1.000  C
  H72      1.0000 0.97355  0.41130  0.19808  Biso   1.000  H
  C65      1.0000 0.20252  0.27006  0.07728  Biso   1.000  C
  N9       1.0000 0.36476  0.29446  0.15173  Biso   1.000  N
  H73      1.0000 0.19696  0.30911  0.11658  Biso   1.000  H
  C66      1.0000 0.12354  0.28252  0.93034  Biso   1.000  C
  H74      1.0000 0.20556  0.31640  0.89041  Biso   1.000  H
  H75      1.0000 0.12074  0.32180  0.96498  Biso   1.000  H
  H76      1.0000 0.87636  0.39649  0.81729  Biso   1.000  H
  H77      1.0000 0.84546  0.42699  0.82554  Biso   1.000  H
  C67      1.0000 0.02760  0.42026  0.81351  Biso   1.000  C
  H78      1.0000 0.97424  0.37190  0.94338  Biso   1.000  H
  C68      1.0000 0.12737  0.39584  0.93802  Biso   1.000  C
  N10      1.0000 0.01302  0.38818  0.05933  Biso   1.000  N
  C69      1.0000 0.38302  0.31056  0.21339  Biso   1.000  C
  C70      1.0000 0.59266  0.29304  0.25080  Biso   1.000  C
  C71      1.0000 0.80727  0.27666  0.28538  Biso   1.000  C
  C72      1.0000 0.03418  0.32626  0.38149  Biso   1.000  C
  C73      1.0000 0.99647  0.34910  0.24330  Biso   1.000  C
  C74      1.0000 0.96676  0.36966  0.09901  Biso   1.000  C
  H79      1.0000 0.26423  0.25820  0.05637  Biso   1.000  H
  H80      1.0000 0.17959  0.26289  0.13157  Biso   1.000  H
  C75      1.0000 0.09199  0.27057  0.01442  Biso   1.000  C
  H81      1.0000 0.18031  0.27081  0.90364  Biso   1.000  H
  H82      1.0000 0.04913  0.28411  0.89161  Biso   1.000  H
  H83      1.0000 0.02116  0.42140  0.75122  Biso   1.000  H
  H84      1.0000 0.05393  0.43760  0.83643  Biso   1.000  H
  C76      1.0000 0.12023  0.39954  0.84273  Biso   1.000  C
  H85      1.0000 0.15820  0.41220  0.96612  Biso   1.000  H
  H86      1.0000 0.18464  0.38151  0.95453  Biso   1.000  H
  C77      1.0000 0.30653  0.33403  0.23140  Biso   1.000  C
  H87      1.0000 0.59929  0.28929  0.19292  Biso   1.000  H
  N11      1.0000 0.88212  0.26928  0.34540  Biso   1.000  N
  C78      1.0000 0.82518  0.27727  0.19298  Biso   1.000  C
  N12      1.0000 0.07132  0.30656  0.34168  Biso   1.000  N
  C79      1.0000 0.00606  0.32688  0.47231  Biso   1.000  C
  H88      1.0000 0.99279  0.33221  0.21761  Biso   1.000  H
  C80      1.0000 0.89881  0.34590  0.06223  Biso   1.000  C
  H89      1.0000 0.02738  0.28110  0.03741  Biso   1.000  H
  H90      1.0000 0.06134  0.25250  0.00479  Biso   1.000  H
  H91      1.0000 0.20074  0.40480  0.82591  Biso   1.000  H
  H92      1.0000 0.09814  0.38261  0.81470  Biso   1.000  H
  H93      1.0000 0.26697  0.34079  0.17837  Biso   1.000  H
  H94      1.0000 0.35793  0.34770  0.25880  Biso   1.000  H
  H95      1.0000 0.24483  0.32881  0.26862  Biso   1.000  H
  C81      1.0000 0.00558  0.26146  0.33192  Biso   1.000  C
  H96      1.0000 0.91139  0.27521  0.18517  Biso   1.000  H
  H97      1.0000 0.79658  0.29410  0.16911  Biso   1.000  H
  H98      1.0000 0.77942  0.26289  0.16439  Biso   1.000  H
  C82      1.0000 0.08972  0.28094  0.38162  Biso   1.000  C
  H99      1.0000 0.96417  0.31070  0.48579  Biso   1.000  H
  H100     1.0000 0.95418  0.34201  0.48151  Biso   1.000  H
  H101     1.0000 0.08163  0.32840  0.50872  Biso   1.000  H
  H102     1.0000 0.86327  0.35000  0.00529  Biso   1.000  H
  H103     1.0000 0.83439  0.34120  0.09788  Biso   1.000  H
  H104     1.0000 0.95491  0.33111  0.05958  Biso   1.000  H
  H105     1.0000 0.01846  0.26211  0.27058  Biso   1.000  H
  C83      1.0000 0.02818  0.23367  0.36637  Biso   1.000  C
  H106     1.0000 0.06880  0.28181  0.44132  Biso   1.000  H
  C84      1.0000 0.22232  0.27279  0.37878  Biso   1.000  C
  H107     1.0000 0.97495  0.22110  0.33350  Biso   1.000  H
  H108     1.0000 0.00831  0.23290  0.42577  Biso   1.000  H
  C85      1.0000 0.16005  0.22589  0.36121  Biso   1.000  C
  H109     1.0000 0.24528  0.27431  0.32027  Biso   1.000  H
  H110     1.0000 0.27446  0.28489  0.41449  Biso   1.000  H
  C86      1.0000 0.24393  0.24473  0.40952  Biso   1.000  C
  H111     1.0000 0.17350  0.20800  0.38420  Biso   1.000  H
  H112     1.0000 0.17836  0.22569  0.30150  Biso   1.000  H
  H113     1.0000 0.32882  0.23970  0.40271  Biso   1.000  H
  H114     1.0000 0.23123  0.24371  0.47011  Biso   1.000  H
  C87      1.0000 0.49139  0.53875  0.67241  Biso   1.000  C
  N13      1.0000 0.60437  0.53382  0.68299  Biso   1.000  N
  C88      1.0000 0.45136  0.55759  0.60369  Biso   1.000  C
  C89      1.0000 0.39629  0.52718  0.72330  Biso   1.000  C
  C90      1.0000 0.64997  0.51487  0.74490  Biso   1.000  C
  C91      1.0000 0.53371  0.57715  0.58278  Biso   1.000  C
  C92      1.0000 0.33766  0.55702  0.56137  Biso   1.000  C
  H115     1.0000 0.42498  0.52760  0.78320  Biso   1.000  H
  H116     1.0000 0.32172  0.53749  0.71417  Biso   1.000  H
  H117     1.0000 0.38045  0.50900  0.70579  Biso   1.000  H
  C93      1.0000 0.72253  0.49434  0.69918  Biso   1.000  C
  C94      1.0000 0.72991  0.52887  0.81337  Biso   1.000  C
  H118     1.0000 0.58096  0.50611  0.77029  Biso   1.000  H
  H119     1.0000 0.61222  0.57790  0.61150  Biso   1.000  H
  C95      1.0000 0.49948  0.59540  0.51949  Biso   1.000  C
  C96      1.0000 0.29982  0.57509  0.49883  Biso   1.000  C
  H120     1.0000 0.28277  0.54370  0.57548  Biso   1.000  H
  C97      1.0000 0.77805  0.47462  0.76109  Biso   1.000  C
  H121     1.0000 0.78709  0.50320  0.67058  Biso   1.000  H
  H122     1.0000 0.66839  0.48531  0.65591  Biso   1.000  H
  C98      1.0000 0.79245  0.50970  0.87597  Biso   1.000  C
  N14      1.0000 0.65441  0.54661  0.86237  Biso   1.000  N
  H123     1.0000 0.79220  0.53950  0.78691  Biso   1.000  H
  C99      1.0000 0.58641  0.61659  0.49839  Biso   1.000  C
  C100     1.0000 0.38338  0.59410  0.47748  Biso   1.000  C
  C101     1.0000 0.17274  0.57460  0.45908  Biso   1.000  C
  C102     1.0000 0.86105  0.48804  0.82659  Biso   1.000  C
  H124     1.0000 0.82386  0.46141  0.73098  Biso   1.000  H
  H125     1.0000 0.71335  0.46539  0.78849  Biso   1.000  H
  H126     1.0000 0.85098  0.51921  0.91527  Biso   1.000  H
  H127     1.0000 0.73189  0.50120  0.90929  Biso   1.000  H
  C103     1.0000 0.65616  0.57153  0.85311  Biso   1.000  C
  N15      1.0000 0.56800  0.62696  0.42520  Biso   1.000  N
  C104     1.0000 0.68300  0.62346  0.56597  Biso   1.000  C
  H128     1.0000 0.36093  0.60630  0.43389  Biso   1.000  H
  N16      1.0000 0.11189  0.55443  0.47307  Biso   1.000  N
  C105     1.0000 0.12898  0.59972  0.41229  Biso   1.000  C
  H129     1.0000 0.89647  0.47480  0.86709  Biso   1.000  H
  H130     1.0000 0.92821  0.49641  0.79932  Biso   1.000  H
  C106     1.0000 0.57462  0.58750  0.90280  Biso   1.000  C
  C107     1.0000 0.73191  0.58681  0.79579  Biso   1.000  C
  C108     1.0000 0.64675  0.64766  0.39837  Biso   1.000  C
  H131     1.0000 0.70895  0.64171  0.55847  Biso   1.000  H
  H132     1.0000 0.65117  0.62160  0.62120  Biso   1.000  H
  H133     1.0000 0.75219  0.61170  0.56269  Biso   1.000  H
  C109     1.0000 0.98549  0.55199  0.44340  Biso   1.000  C
  H134     1.0000 0.04037  0.59980  0.40492  Biso   1.000  H
  H135     1.0000 0.15734  0.61510  0.44523  Biso   1.000  H
  H136     1.0000 0.16152  0.60021  0.35699  Biso   1.000  H
  C110     1.0000 0.60295  0.61351  0.92220  Biso   1.000  C
  C111     1.0000 0.46713  0.57682  0.92749  Biso   1.000  C
  H137     1.0000 0.75646  0.57521  0.75108  Biso   1.000  H
  H138     1.0000 0.68437  0.60150  0.77047  Biso   1.000  H
  H139     1.0000 0.80395  0.59361  0.82842  Biso   1.000  H
  H140     1.0000 0.71667  0.64990  0.44170  Biso   1.000  H
  C112     1.0000 0.57486  0.67347  0.38987  Biso   1.000  C
  C113     1.0000 0.69404  0.63990  0.31479  Biso   1.000  C
  H141     1.0000 0.95848  0.56780  0.40971  Biso   1.000  H
  C114     1.0000 0.91258  0.54946  0.52169  Biso   1.000  C
  C115     1.0000 0.96808  0.52722  0.38943  Biso   1.000  C
  H142     1.0000 0.67649  0.62069  0.90589  Biso   1.000  H
  C116     1.0000 0.52587  0.62926  0.96490  Biso   1.000  C
  C117     1.0000 0.38811  0.59214  0.96982  Biso   1.000  C
  H143     1.0000 0.44787  0.55900  0.91527  Biso   1.000  H
  N17      1.0000 0.54669  0.68127  0.47288  Biso   1.000  N
  H144     1.0000 0.49827  0.67060  0.35321  Biso   1.000  H
  C118     1.0000 0.64969  0.69502  0.35239  Biso   1.000  C
  H145     1.0000 0.74136  0.62350  0.32210  Biso   1.000  H
  H146     1.0000 0.62497  0.63660  0.27253  Biso   1.000  H
  C119     1.0000 0.77410  0.66168  0.28317  Biso   1.000  C
  N18      1.0000 0.92600  0.57411  0.56880  Biso   1.000  N
  C120     1.0000 0.77936  0.54451  0.49442  Biso   1.000  C
  H147     1.0000 0.94548  0.53461  0.55778  Biso   1.000  H
  H148     1.0000 0.00258  0.51200  0.42167  Biso   1.000  H
  H149     1.0000 0.01251  0.52921  0.33847  Biso   1.000  H
  C121     1.0000 0.83562  0.52204  0.36322  Biso   1.000  C
  C122     1.0000 0.41835  0.61824  0.98720  Biso   1.000  C
  C123     1.0000 0.55731  0.65742  0.98027  Biso   1.000  C
  C124     1.0000 0.26965  0.58177  0.99331  Biso   1.000  C
  C125     1.0000 0.44407  0.68965  0.48951  Biso   1.000  C
  H150     1.0000 0.71818  0.69971  0.39352  Biso   1.000  H
  H151     1.0000 0.59855  0.71090  0.34250  Biso   1.000  H
  C126     1.0000 0.69855  0.68700  0.27051  Biso   1.000  C
  H152     1.0000 0.84416  0.66481  0.32468  Biso   1.000  H
  H153     1.0000 0.80511  0.65640  0.22932  Biso   1.000  H
  C127     1.0000 0.98575  0.57522  0.64022  Biso   1.000  C
  H154     1.0000 0.73397  0.54250  0.54487  Biso   1.000  H
  H155     1.0000 0.74558  0.55981  0.46211  Biso   1.000  H
  C128     1.0000 0.76371  0.51982  0.44013  Biso   1.000  C
  H156     1.0000 0.80249  0.53649  0.32669  Biso   1.000  H
  H157     1.0000 0.82772  0.50550  0.33028  Biso   1.000  H
  H158     1.0000 0.36392  0.62881  0.01529  Biso   1.000  H
  N19      1.0000 0.66627  0.66408  0.97788  Biso   1.000  N
  C129     1.0000 0.44992  0.67659  0.98361  Biso   1.000  C
  C130     1.0000 0.46991  0.67290  0.02997  Biso   1.000  C
  C131     1.0000 0.25100  0.55201  0.98008  Biso   1.000  C
  C132     1.0000 0.22347  0.55670  0.94809  Biso   1.000  C
  N20      1.0000 0.20588  0.59685  0.03500  Biso   1.000  N
  C133     1.0000 0.42915  0.69668  0.57907  Biso   1.000  C
  C134     1.0000 0.33589  0.69382  0.42589  Biso   1.000  C
  H159     1.0000 0.63069  0.68400  0.22712  Biso   1.000  H
  H160     1.0000 0.74966  0.70130  0.25061  Biso   1.000  H
  C135     1.0000 0.04913  0.55278  0.68759  Biso   1.000  C
  C136     1.0000 0.99444  0.60168  0.68110  Biso   1.000  C
  H161     1.0000 0.67700  0.51730  0.42167  Biso   1.000  H
  H162     1.0000 0.79172  0.50430  0.47382  Biso   1.000  H
  C137     1.0000 0.70865  0.69111  0.99199  Biso   1.000  C
  H163     1.0000 0.39003  0.67310  0.93612  Biso   1.000  H
  H164     1.0000 0.47897  0.69470  0.98021  Biso   1.000  H
  H165     1.0000 0.41249  0.67410  0.03658  Biso   1.000  H
  H166     1.0000 0.48996  0.69160  0.02808  Biso   1.000  H
  H167     1.0000 0.38691  0.67021  0.00427  Biso   1.000  H
  H168     1.0000 0.47584  0.66679  0.08810  Biso   1.000  H
  H169     1.0000 0.25133  0.54781  0.92012  Biso   1.000  H
  H170     1.0000 0.26768  0.54150  0.97271  Biso   1.000  H
  H171     1.0000 0.13701  0.55460  0.95457  Biso   1.000  H
  H172     1.0000 0.31652  0.54240  0.01176  Biso   1.000  H
  H173     1.0000 0.17330  0.54680  0.99999  Biso   1.000  H
  H174     1.0000 0.23616  0.55800  0.88819  Biso   1.000  H
  C138     1.0000 0.08805  0.58950  0.06070  Biso   1.000  C
  C139     1.0000 0.32538  0.70841  0.60470  Biso   1.000  C
  C140     1.0000 0.52023  0.68993  0.64060  Biso   1.000  C
  H175     1.0000 0.27373  0.68070  0.43503  Biso   1.000  H
  H176     1.0000 0.30302  0.71149  0.43282  Biso   1.000  H
  H177     1.0000 0.36127  0.69199  0.36877  Biso   1.000  H
  H178     1.0000 0.07353  0.53960  0.64747  Biso   1.000  H
  H179     1.0000 0.12091  0.55939  0.72097  Biso   1.000  H
  H180     1.0000 0.99396  0.54480  0.72513  Biso   1.000  H
  C141     1.0000 0.01446  0.60406  0.76827  Biso   1.000  C
  C142     1.0000 0.98101  0.62429  0.63241  Biso   1.000  C
  C143     1.0000 0.74301  0.70264  0.90809  Biso   1.000  C
  H181     1.0000 0.64343  0.70191  0.01447  Biso   1.000  H
  C144     1.0000 0.81861  0.69042  0.05541  Biso   1.000  C
  C145     1.0000 0.99749  0.61074  0.03286  Biso   1.000  C
  H182     1.0000 0.06217  0.57240  0.03400  Biso   1.000  H
  C146     1.0000 0.09516  0.58677  0.15650  Biso   1.000  C
  C147     1.0000 0.31192  0.71307  0.69011  Biso   1.000  C
  H183     1.0000 0.26239  0.71340  0.56357  Biso   1.000  H
  C148     1.0000 0.51272  0.69539  0.72450  Biso   1.000  C
  H184     1.0000 0.59005  0.68121  0.62410  Biso   1.000  H
  C149     1.0000 0.01731  0.62877  0.80707  Biso   1.000  C
  H185     1.0000 0.02641  0.58870  0.80190  Biso   1.000  H
  C150     1.0000 0.98404  0.64906  0.66907  Biso   1.000  C
  H186     1.0000 0.96932  0.62280  0.57290  Biso   1.000  H
  N21      1.0000 0.63521  0.70554  0.84832  Biso   1.000  N
  H187     1.0000 0.80300  0.69089  0.88340  Biso   1.000  H
  C151     1.0000 0.79744  0.72994  0.92270  Biso   1.000  C
  H188     1.0000 0.79440  0.68360  0.10958  Biso   1.000  H
  H189     1.0000 0.87922  0.67820  0.03500  Biso   1.000  H
  C152     1.0000 0.87643  0.71748  0.06971  Biso   1.000  C
  N22      1.0000 0.98695  0.61182  0.94072  Biso   1.000  N
  C153     1.0000 0.87259  0.60416  0.06196  Biso   1.000  C
  H190     1.0000 0.02572  0.62810  0.05661  Biso   1.000  H
  C154     1.0000 0.97236  0.57974  0.18648  Biso   1.000  C
  H191     1.0000 0.12369  0.60351  0.18270  Biso   1.000  H
  H192     1.0000 0.15460  0.57301  0.17451  Biso   1.000  H
  C155     1.0000 0.40730  0.70696  0.74919  Biso   1.000  C
  C156     1.0000 0.19269  0.72334  0.71461  Biso   1.000  C
  C157     1.0000 0.61703  0.68944  0.78660  Biso   1.000  C
  C158     1.0000 0.03320  0.63034  0.90098  Biso   1.000  C
  C159     1.0000 0.00349  0.65090  0.75668  Biso   1.000  C
  C160     1.0000 0.96578  0.67374  0.61850  Biso   1.000  C
  H193     1.0000 0.73582  0.74180  0.94362  Biso   1.000  H
  H194     1.0000 0.82037  0.73711  0.86841  Biso   1.000  H
  C161     1.0000 0.90798  0.72943  0.98562  Biso   1.000  C
  H195     1.0000 0.81966  0.72919  0.09641  Biso   1.000  H
  H196     1.0000 0.95083  0.71589  0.10838  Biso   1.000  H
  H197     1.0000 0.84176  0.58780  0.03387  Biso   1.000  H
  H198     1.0000 0.81532  0.61849  0.04546  Biso   1.000  H
  C162     1.0000 0.87973  0.60046  0.15725  Biso   1.000  C
  H199     1.0000 0.97880  0.57860  0.24877  Biso   1.000  H
  H200     1.0000 0.94603  0.56240  0.16355  Biso   1.000  H
  H201     1.0000 0.40067  0.71071  0.80707  Biso   1.000  H
  N23      1.0000 0.11793  0.73072  0.65458  Biso   1.000  N
  C163     1.0000 0.17478  0.72273  0.80700  Biso   1.000  C
  C164     1.0000 0.69352  0.66597  0.76858  Biso   1.000  C
  C165     1.0000 0.10116  0.65410  0.93782  Biso   1.000  C
  H202     1.0000 0.00717  0.66779  0.78238  Biso   1.000  H
  N24      1.0000 0.92864  0.69344  0.65830  Biso   1.000  N
  C166     1.0000 0.99390  0.67312  0.52767  Biso   1.000  C
  H203     1.0000 0.97258  0.71890  0.96257  Biso   1.000  H
  H204     1.0000 0.93871  0.74750  0.99520  Biso   1.000  H
  H205     1.0000 0.79922  0.59520  0.17407  Biso   1.000  H
  H206     1.0000 0.90182  0.61739  0.18528  Biso   1.000  H
  C167     1.0000 0.99438  0.73854  0.66813  Biso   1.000  C
  H207     1.0000 0.08857  0.72479  0.81481  Biso   1.000  H
  H208     1.0000 0.20338  0.70590  0.83088  Biso   1.000  H
  H209     1.0000 0.22063  0.73711  0.83560  Biso   1.000  H
  H210     1.0000 0.73299  0.65921  0.82162  Biso   1.000  H
  H211     1.0000 0.64213  0.65230  0.74119  Biso   1.000  H
  H212     1.0000 0.75514  0.67119  0.73142  Biso   1.000  H
  H213     1.0000 0.13669  0.65000  0.99469  Biso   1.000  H
  H214     1.0000 0.16557  0.65880  0.90211  Biso   1.000  H
  H215     1.0000 0.04514  0.66889  0.94040  Biso   1.000  H
  C168     1.0000 0.91024  0.71906  0.61837  Biso   1.000  C
  H216     1.0000 0.03579  0.68930  0.51420  Biso   1.000  H
  H217     1.0000 0.04578  0.65799  0.51848  Biso   1.000  H
  H218     1.0000 0.91833  0.67160  0.49127  Biso   1.000  H
  H219     1.0000 0.98150  0.73789  0.72941  Biso   1.000  H
  C169     1.0000 0.97178  0.76633  0.63361  Biso   1.000  C
  H220     1.0000 0.93117  0.71819  0.55872  Biso   1.000  H
  C170     1.0000 0.77764  0.72721  0.62120  Biso   1.000  C
  H221     1.0000 0.02501  0.77890  0.66649  Biso   1.000  H
  H222     1.0000 0.99165  0.76710  0.57422  Biso   1.000  H
  C171     1.0000 0.83991  0.77411  0.63878  Biso   1.000  C
  H223     1.0000 0.75468  0.72569  0.67972  Biso   1.000  H
  H224     1.0000 0.72550  0.71511  0.58549  Biso   1.000  H
  C172     1.0000 0.75603  0.75527  0.59047  Biso   1.000  C
  H225     1.0000 0.82646  0.79200  0.61579  Biso   1.000  H
  H226     1.0000 0.82160  0.77431  0.69848  Biso   1.000  H
  H227     1.0000 0.67114  0.76030  0.59727  Biso   1.000  H
  H228     1.0000 0.76882  0.75629  0.52988  Biso   1.000  H
  C173     1.0000 0.66012  0.27411  0.86117  Biso   1.000  C
  C174     1.0000 0.52817  0.26633  0.86640  Biso   1.000  C
  C175     1.0000 0.74390  0.25527  0.90948  Biso   1.000  C
  H229     1.0000 0.67348  0.29200  0.88422  Biso   1.000  H
  H230     1.0000 0.67834  0.27431  0.80152  Biso   1.000  H
  C176     1.0000 0.50556  0.23854  0.83188  Biso   1.000  C
  H231     1.0000 0.50829  0.26710  0.92579  Biso   1.000  H
  H232     1.0000 0.47502  0.27890  0.83352  Biso   1.000  H
  C177     1.0000 0.72231  0.22721  0.87881  Biso   1.000  C
  H233     1.0000 0.82879  0.26030  0.90268  Biso   1.000  H
  H234     1.0000 0.73121  0.25629  0.97007  Biso   1.000  H
  N25      1.0000 0.38210  0.23072  0.84542  Biso   1.000  N
  H235     1.0000 0.51844  0.23789  0.77060  Biso   1.000  H
  C178     1.0000 0.58969  0.21906  0.88158  Biso   1.000  C
  H236     1.0000 0.74527  0.22569  0.82029  Biso   1.000  H
  H237     1.0000 0.77445  0.21511  0.91452  Biso   1.000  H
  C179     1.0000 0.30725  0.22334  0.78540  Biso   1.000  C
  N26      1.0000 0.57130  0.19344  0.84171  Biso   1.000  N
  H238     1.0000 0.56877  0.21819  0.94128  Biso   1.000  H
  C180     1.0000 0.18811  0.21307  0.80990  Biso   1.000  C
  C181     1.0000 0.32517  0.22273  0.69300  Biso   1.000  C
  C182     1.0000 0.53416  0.17374  0.88151  Biso   1.000  C
  C183     1.0000 0.09273  0.20696  0.75082  Biso   1.000  C
  C184     1.0000 0.17457  0.20841  0.89531  Biso   1.000  C
  H239     1.0000 0.41138  0.22479  0.68519  Biso   1.000  H
  H240     1.0000 0.29655  0.20590  0.66907  Biso   1.000  H
  H241     1.0000 0.27940  0.23711  0.66441  Biso   1.000  H
  C185     1.0000 0.51589  0.14906  0.83088  Biso   1.000  C
  C186     1.0000 0.50613  0.17312  0.97227  Biso   1.000  C
  C187     1.0000 0.98731  0.19539  0.77551  Biso   1.000  C
  H242     1.0000 0.09927  0.21071  0.69288  Biso   1.000  H
  C188     1.0000 0.07079  0.19668  0.92088  Biso   1.000  C
  H243     1.0000 0.23764  0.21340  0.93637  Biso   1.000  H
  C189     1.0000 0.49644  0.15090  0.74327  Biso   1.000  C
  C190     1.0000 0.51903  0.12429  0.86759  Biso   1.000  C
  H244     1.0000 0.46416  0.18930  0.98581  Biso   1.000  H
  H245     1.0000 0.45416  0.15799  0.98147  Biso   1.000  H
  H246     1.0000 0.58152  0.17160  0.00868  Biso   1.000  H
  C191     1.0000 0.88301  0.18944  0.71341  Biso   1.000  C
  C192     1.0000 0.97981  0.18993  0.85941  Biso   1.000  C
  C193     1.0000 0.05587  0.18965  0.01050  Biso   1.000  C
  C194     1.0000 0.48272  0.12877  0.69288  Biso   1.000  C
  H247     1.0000 0.49276  0.16779  0.71757  Biso   1.000  H
  C195     1.0000 0.50551  0.10168  0.81891  Biso   1.000  C
  H248     1.0000 0.53072  0.12280  0.92711  Biso   1.000  H
  N27      1.0000 0.86474  0.20554  0.65169  Biso   1.000  N
  C196     1.0000 0.80652  0.16597  0.73142  Biso   1.000  C
  H249     1.0000 0.90989  0.18121  0.87591  Biso   1.000  H
  N28      1.0000 0.95324  0.18127  0.02707  Biso   1.000  N
  C197     1.0000 0.16405  0.19382  0.07405  Biso   1.000  C
  C198     1.0000 0.46682  0.13034  0.59897  Biso   1.000  C
  C199     1.0000 0.48547  0.10406  0.73168  Biso   1.000  C
  C200     1.0000 0.51420  0.07522  0.85978  Biso   1.000  C
  C201     1.0000 0.75702  0.20264  0.59192  Biso   1.000  C
  H250     1.0000 0.76696  0.15921  0.67839  Biso   1.000  H
  H251     1.0000 0.85791  0.15230  0.75882  Biso   1.000  H
  H252     1.0000 0.74481  0.17119  0.76858  Biso   1.000  H
  C202     1.0000 0.92508  0.17347  0.11008  Biso   1.000  C
  H253     1.0000 0.22622  0.18070  0.06498  Biso   1.000  H
  H254     1.0000 0.19692  0.21149  0.06719  Biso   1.000  H
  H255     1.0000 0.13867  0.19199  0.13118  Biso   1.000  H
  N29      1.0000 0.51299  0.11182  0.55929  Biso   1.000  N
  C203     1.0000 0.39878  0.15410  0.56219  Biso   1.000  C
  H256     1.0000 0.47362  0.08870  0.69811  Biso   1.000  H
  N30      1.0000 0.57394  0.07411  0.93121  Biso   1.000  N
  C204     1.0000 0.45090  0.05278  0.81242  Biso   1.000  C
  C205     1.0000 0.79130  0.19111  0.50802  Biso   1.000  C
  H257     1.0000 0.69694  0.19089  0.61661  Biso   1.000  H
  C206     1.0000 0.70250  0.22994  0.57730  Biso   1.000  C
  C207     1.0000 0.85310  0.14766  0.10158  Biso   1.000  C
  C208     1.0000 0.85024  0.19502  0.14755  Biso   1.000  C
  H258     1.0000 0.00167  0.17060  0.14680  Biso   1.000  H
  C209     1.0000 0.50236  0.11074  0.46708  Biso   1.000  C
  H259     1.0000 0.36326  0.15000  0.50531  Biso   1.000  H
  H260     1.0000 0.33437  0.15880  0.59790  Biso   1.000  H
  H261     1.0000 0.45489  0.16889  0.55961  Biso   1.000  H
  C210     1.0000 0.58736  0.04946  0.97832  Biso   1.000  C
  H262     1.0000 0.42650  0.03960  0.85248  Biso   1.000  H
  H263     1.0000 0.37912  0.05939  0.77898  Biso   1.000  H
  H264     1.0000 0.50599  0.04480  0.77488  Biso   1.000  H
  N31      1.0000 0.83367  0.16408  0.52207  Biso   1.000  N
  H265     1.0000 0.85651  0.20191  0.48547  Biso   1.000  H
  C211     1.0000 0.68124  0.19042  0.44460  Biso   1.000  C
  H266     1.0000 0.76422  0.24180  0.55639  Biso   1.000  H
  H267     1.0000 0.67957  0.23711  0.63160  Biso   1.000  H
  C212     1.0000 0.59197  0.22943  0.51438  Biso   1.000  C
  N32      1.0000 0.93194  0.12696  0.07481  Biso   1.000  N
  H268     1.0000 0.78327  0.14990  0.05831  Biso   1.000  H
  C213     1.0000 0.80580  0.13990  0.18516  Biso   1.000  C
  H269     1.0000 0.78177  0.19971  0.10649  Biso   1.000  H
  H270     1.0000 0.90131  0.21090  0.15751  Biso   1.000  H
  C214     1.0000 0.80130  0.18700  0.22950  Biso   1.000  C
  C215     1.0000 0.41189  0.08950  0.43931  Biso   1.000  C
  H271     1.0000 0.47423  0.12810  0.44340  Biso   1.000  H
  C216     1.0000 0.62725  0.10416  0.43799  Biso   1.000  C
  C217     1.0000 0.51445  0.05199  0.05661  Biso   1.000  C
  H272     1.0000 0.55446  0.03461  0.94217  Biso   1.000  H
  C218     1.0000 0.72058  0.04451  0.00559  Biso   1.000  C
  C219     1.0000 0.94271  0.15742  0.51967  Biso   1.000  C
  H273     1.0000 0.70544  0.18360  0.39037  Biso   1.000  H
  H274     1.0000 0.62073  0.17820  0.46501  Biso   1.000  H
  C220     1.0000 0.62352  0.21748  0.43030  Biso   1.000  C
  H275     1.0000 0.52735  0.21890  0.53737  Biso   1.000  H
  H276     1.0000 0.56132  0.24750  0.50481  Biso   1.000  H
  C221     1.0000 0.91353  0.11659  0.00156  Biso   1.000  C
  H277     1.0000 0.75859  0.12350  0.17791  Biso   1.000  H
  H278     1.0000 0.87497  0.13660  0.22748  Biso   1.000  H
  C222     1.0000 0.72584  0.16168  0.21677  Biso   1.000  C
  H279     1.0000 0.86925  0.18400  0.27289  Biso   1.000  H
  H280     1.0000 0.75028  0.20130  0.24940  Biso   1.000  H
  N33      1.0000 0.29406  0.09685  0.46501  Biso   1.000  N
  H281     1.0000 0.43778  0.07240  0.46601  Biso   1.000  H
  C223     1.0000 0.40478  0.08677  0.34351  Biso   1.000  C
  H282     1.0000 0.65818  0.08780  0.46608  Biso   1.000  H
  H283     1.0000 0.68461  0.11849  0.45449  Biso   1.000  H
  C224     1.0000 0.62020  0.10046  0.34269  Biso   1.000  C
  N34      1.0000 0.38805  0.05443  0.02688  Biso   1.000  N
  H284     1.0000 0.54146  0.06780  0.09030  Biso   1.000  H
  C225     1.0000 0.53186  0.02722  0.11058  Biso   1.000  C
  H285     1.0000 0.76597  0.04250  0.95508  Biso   1.000  H
  H286     1.0000 0.75437  0.05981  0.03790  Biso   1.000  H
  C226     1.0000 0.73623  0.01982  0.05988  Biso   1.000  C
  C227     1.0000 0.03002  0.17290  0.46998  Biso   1.000  C
  C228     1.0000 0.05012  0.17659  0.51640  Biso   1.000  C
  C229     1.0000 0.97407  0.12926  0.53511  Biso   1.000  C
  H287     1.0000 0.68029  0.22919  0.40360  Biso   1.000  H
  H288     1.0000 0.54911  0.21589  0.39157  Biso   1.000  H
  C230     1.0000 0.00047  0.09540  0.98052  Biso   1.000  C
  C231     1.0000 0.81694  0.12346  0.93398  Biso   1.000  C
  H289     1.0000 0.65577  0.16481  0.17527  Biso   1.000  H
  H290     1.0000 0.69484  0.15640  0.27069  Biso   1.000  H
  C232     1.0000 0.23029  0.08177  0.50670  Biso   1.000  C
  H291     1.0000 0.37625  0.10351  0.31731  Biso   1.000  H
  H292     1.0000 0.34543  0.07301  0.32550  Biso   1.000  H
  C233     1.0000 0.52758  0.07974  0.31347  Biso   1.000  C
  H293     1.0000 0.70072  0.09520  0.32588  Biso   1.000  H
  H294     1.0000 0.59813  0.11739  0.31473  Biso   1.000  H
  C234     1.0000 0.32729  0.07460  0.04086  Biso   1.000  C
  H295     1.0000 0.49736  0.01200  0.07827  Biso   1.000  H
  H296     1.0000 0.48742  0.02921  0.16147  Biso   1.000  H
  C235     1.0000 0.66432  0.02204  0.13678  Biso   1.000  C
  H297     1.0000 0.82294  0.01730  0.07827  Biso   1.000  H
  H298     1.0000 0.70823  0.00430  0.02619  Biso   1.000  H
  H299     1.0000 0.08754  0.17410  0.46337  Biso   1.000  H
  H300     1.0000 0.00997  0.19160  0.47187  Biso   1.000  H
  H301     1.0000 0.11303  0.17021  0.49568  Biso   1.000  H
  H302     1.0000 0.02410  0.16679  0.41191  Biso   1.000  H
  H303     1.0000 0.11000  0.17310  0.56389  Biso   1.000  H
  H304     1.0000 0.02097  0.19470  0.51980  Biso   1.000  H
  C236     1.0000 0.08159  0.11824  0.51281  Biso   1.000  C
  C237     1.0000 0.89700  0.11351  0.57781  Biso   1.000  C
  C238     1.0000 0.96632  0.07715  0.91723  Biso   1.000  C
  C239     1.0000 0.11655  0.09410  0.02247  Biso   1.000  C
  H305     1.0000 0.79099  0.14171  0.94147  Biso   1.000  H
  H306     1.0000 0.84877  0.12160  0.87881  Biso   1.000  H
  H307     1.0000 0.74776  0.11170  0.93732  Biso   1.000  H
  C240     1.0000 0.11193  0.09214  0.53019  Biso   1.000  C
  C241     1.0000 0.24904  0.05201  0.51993  Biso   1.000  C
  C242     1.0000 0.27647  0.05670  0.55192  Biso   1.000  C
  H308     1.0000 0.52105  0.07860  0.25118  Biso   1.000  H
  H309     1.0000 0.55390  0.06240  0.33639  Biso   1.000  H
  C243     1.0000 0.20012  0.07509  0.00118  Biso   1.000  C
  C244     1.0000 0.37096  0.09972  0.08766  Biso   1.000  C
  H310     1.0000 0.69745  0.03649  0.17332  Biso   1.000  H
  H311     1.0000 0.67222  0.00550  0.16966  Biso   1.000  H
  H312     1.0000 0.13603  0.12881  0.48472  Biso   1.000  H
  C245     1.0000 0.92542  0.08750  0.59721  Biso   1.000  C
  H313     1.0000 0.82345  0.12069  0.59412  Biso   1.000  H
  C246     1.0000 0.04859  0.05759  0.89631  Biso   1.000  C
  H314     1.0000 0.88782  0.07790  0.88850  Biso   1.000  H
  H315     1.0000 0.13909  0.10630  0.06605  Biso   1.000  H
  C247     1.0000 0.03291  0.07682  0.57252  Biso   1.000  C
  H316     1.0000 0.24870  0.04781  0.57989  Biso   1.000  H
  H317     1.0000 0.18341  0.04240  0.48818  Biso   1.000  H
  H318     1.0000 0.32674  0.04680  0.50002  Biso   1.000  H
  H319     1.0000 0.23227  0.04150  0.52730  Biso   1.000  H
  H320     1.0000 0.36302  0.05460  0.54537  Biso   1.000  H
  H321     1.0000 0.26378  0.05800  0.61182  Biso   1.000  H
  C248     1.0000 0.16228  0.05702  0.93858  Biso   1.000  C
  H322     1.0000 0.45957  0.09980  0.09509  Biso   1.000  H
  H323     1.0000 0.34269  0.11510  0.05478  Biso   1.000  H
  H324     1.0000 0.33841  0.10021  0.14296  Biso   1.000  H
  C249     1.0000 0.84378  0.07153  0.64690  Biso   1.000  C
  C250     1.0000 0.00864  0.03875  0.82760  Biso   1.000  C
  H325     1.0000 0.05206  0.05900  0.58467  Biso   1.000  H
  H326     1.0000 0.21716  0.04370  0.92447  Biso   1.000  H
  N35      1.0000 0.84562  0.04661  0.63758  Biso   1.000  N
  C251     1.0000 0.76804  0.08681  0.70422  Biso   1.000  C
  N36      1.0000 0.89558  0.03382  0.81702  Biso   1.000  N
  C252     1.0000 0.10374  0.02718  0.77671  Biso   1.000  C
  C253     1.0000 0.77012  0.02887  0.68658  Biso   1.000  C
  H327     1.0000 0.74348  0.07521  0.74887  Biso   1.000  H
  H328     1.0000 0.81556  0.10150  0.72947  Biso   1.000  H
  H329     1.0000 0.69600  0.09361  0.67159  Biso   1.000  H
  C254     1.0000 0.84997  0.01487  0.75511  Biso   1.000  C
  H330     1.0000 0.07497  0.02760  0.71681  Biso   1.000  H
  H331     1.0000 0.17831  0.03749  0.78578  Biso   1.000  H
  H332     1.0000 0.11949  0.00900  0.79422  Biso   1.000  H
  H333     1.0000 0.70774  0.03950  0.71310  Biso   1.000  H
  C255     1.0000 0.70749  0.00970  0.62398  Biso   1.000  C
  C256     1.0000 0.77740  0.99434  0.80077  Biso   1.000  C
  H334     1.0000 0.91898  0.00611  0.72972  Biso   1.000  H
  C257     1.0000 0.63889  0.98804  0.67342  Biso   1.000  C
  H335     1.0000 0.64896  0.01921  0.58467  Biso   1.000  H
  H336     1.0000 0.76805  0.00120  0.59072  Biso   1.000  H
  H337     1.0000 0.83155  0.98531  0.84410  Biso   1.000  H
  C258     1.0000 0.72189  0.97462  0.73892  Biso   1.000  C
  H338     1.0000 0.71284  0.00320  0.82936  Biso   1.000  H
  H339     1.0000 0.60348  0.97480  0.63292  Biso   1.000  H
  H340     1.0000 0.57183  0.99641  0.70069  Biso   1.000  H
  H341     1.0000 0.67608  0.96141  0.76903  Biso   1.000  H
  H342     1.0000 0.78660  0.96539  0.71152  Biso   1.000  H
  C259     1.0000 0.33993  0.72589  0.13882  Biso   1.000  C
  C260     1.0000 0.47179  0.73367  0.13359  Biso   1.000  C
  C261     1.0000 0.25606  0.74473  0.09051  Biso   1.000  C
  H343     1.0000 0.32648  0.70800  0.11583  Biso   1.000  H
  H344     1.0000 0.32163  0.72569  0.19852  Biso   1.000  H
  C262     1.0000 0.49440  0.76146  0.16810  Biso   1.000  C
  H345     1.0000 0.49167  0.73290  0.07419  Biso   1.000  H
  H346     1.0000 0.52495  0.72110  0.16653  Biso   1.000  H
  C263     1.0000 0.27765  0.77279  0.12118  Biso   1.000  C
  H347     1.0000 0.17117  0.73970  0.09731  Biso   1.000  H
  H348     1.0000 0.26875  0.74371  0.02992  Biso   1.000  H
  N37      1.0000 0.61787  0.76928  0.15462  Biso   1.000  N
  H349     1.0000 0.48152  0.76211  0.22939  Biso   1.000  H
  C264     1.0000 0.41027  0.78094  0.11841  Biso   1.000  C
  H350     1.0000 0.25469  0.77431  0.17969  Biso   1.000  H
  H351     1.0000 0.22551  0.78489  0.08547  Biso   1.000  H
  C265     1.0000 0.69271  0.77666  0.21458  Biso   1.000  C
  N38      1.0000 0.42866  0.80656  0.15828  Biso   1.000  N
  H352     1.0000 0.43119  0.78181  0.05870  Biso   1.000  H
  C266     1.0000 0.81185  0.78693  0.19008  Biso   1.000  C
  C267     1.0000 0.67479  0.77727  0.30698  Biso   1.000  C
  C268     1.0000 0.46580  0.82626  0.11847  Biso   1.000  C
  C269     1.0000 0.90732  0.79304  0.24922  Biso   1.000  C
  C270     1.0000 0.82539  0.79159  0.10468  Biso   1.000  C
  H353     1.0000 0.58858  0.77521  0.31479  Biso   1.000  H
  H354     1.0000 0.70341  0.79410  0.33091  Biso   1.000  H
  H355     1.0000 0.72056  0.76289  0.33557  Biso   1.000  H
  C271     1.0000 0.48407  0.85094  0.16911  Biso   1.000  C
  C272     1.0000 0.49392  0.82688  0.02771  Biso   1.000  C
  H356     1.0000 0.90069  0.78929  0.30711  Biso   1.000  H
  C273     1.0000 0.01274  0.80461  0.22447  Biso   1.000  C
  H357     1.0000 0.76242  0.78660  0.06361  Biso   1.000  H
  C274     1.0000 0.92917  0.80332  0.07911  Biso   1.000  C
  C275     1.0000 0.50352  0.84910  0.25672  Biso   1.000  C
  C276     1.0000 0.48102  0.87571  0.13239  Biso   1.000  C
  H358     1.0000 0.53580  0.81070  0.01417  Biso   1.000  H
  H359     1.0000 0.54580  0.84201  0.01852  Biso   1.000  H
  H360     1.0000 0.41844  0.82840  0.99131  Biso   1.000  H
  C277     1.0000 0.02015  0.81007  0.14058  Biso   1.000  C
  C278     1.0000 0.11695  0.81056  0.28657  Biso   1.000  C
  C279     1.0000 0.94409  0.81035  0.98948  Biso   1.000  C
  C280     1.0000 0.51724  0.87123  0.30711  Biso   1.000  C
  H361     1.0000 0.50720  0.83221  0.28242  Biso   1.000  H
  H362     1.0000 0.46924  0.87720  0.07287  Biso   1.000  H
  C281     1.0000 0.49445  0.89832  0.18108  Biso   1.000  C
  H363     1.0000 0.09007  0.81879  0.12408  Biso   1.000  H
  N39      1.0000 0.13522  0.79446  0.34830  Biso   1.000  N
  C282     1.0000 0.19354  0.83403  0.26862  Biso   1.000  C
  C283     1.0000 0.83591  0.80618  0.92593  Biso   1.000  C
  N40      1.0000 0.04672  0.81873  0.97292  Biso   1.000  N
  C284     1.0000 0.51449  0.89594  0.26831  Biso   1.000  C
  C285     1.0000 0.53323  0.86966  0.40101  Biso   1.000  C
  C286     1.0000 0.48576  0.92478  0.14020  Biso   1.000  C
  C287     1.0000 0.24303  0.79736  0.40807  Biso   1.000  C
  H364     1.0000 0.23300  0.84079  0.32159  Biso   1.000  H
  H365     1.0000 0.14206  0.84770  0.24123  Biso   1.000  H
  H366     1.0000 0.25515  0.82881  0.23140  Biso   1.000  H
  H367     1.0000 0.77374  0.81930  0.93500  Biso   1.000  H
  H368     1.0000 0.80304  0.78851  0.93280  Biso   1.000  H
  H369     1.0000 0.86129  0.80801  0.86881  Biso   1.000  H
  C288     1.0000 0.07497  0.82653  0.88991  Biso   1.000  C
  H370     1.0000 0.52634  0.91130  0.30188  Biso   1.000  H
  N41      1.0000 0.48697  0.88818  0.44069  Biso   1.000  N
  C289     1.0000 0.60118  0.84590  0.43780  Biso   1.000  C
  N42      1.0000 0.42602  0.92589  0.06878  Biso   1.000  N
  C290     1.0000 0.54907  0.94722  0.18763  Biso   1.000  C
  H371     1.0000 0.30302  0.80911  0.38338  Biso   1.000  H
  C291     1.0000 0.29746  0.77006  0.42268  Biso   1.000  C
  C292     1.0000 0.20867  0.80889  0.49203  Biso   1.000  C
  H372     1.0000 0.99829  0.82940  0.85319  Biso   1.000  H
  C293     1.0000 0.14686  0.85234  0.89841  Biso   1.000  C
  C294     1.0000 0.14972  0.80498  0.85243  Biso   1.000  C
  C295     1.0000 0.49760  0.88926  0.53290  Biso   1.000  C
  H373     1.0000 0.63670  0.85000  0.49467  Biso   1.000  H
  H374     1.0000 0.66559  0.84120  0.40209  Biso   1.000  H
  H375     1.0000 0.54507  0.83111  0.44038  Biso   1.000  H
  C296     1.0000 0.41261  0.95054  0.02173  Biso   1.000  C
  H376     1.0000 0.57346  0.96040  0.14751  Biso   1.000  H
  H377     1.0000 0.62084  0.94061  0.22101  Biso   1.000  H
  H378     1.0000 0.49397  0.95520  0.22510  Biso   1.000  H
  H379     1.0000 0.23583  0.75820  0.44359  Biso   1.000  H
  H380     1.0000 0.32039  0.76289  0.36839  Biso   1.000  H
  C297     1.0000 0.40799  0.77057  0.48560  Biso   1.000  C
  N43      1.0000 0.16629  0.83592  0.47792  Biso   1.000  N
  H381     1.0000 0.14354  0.79809  0.51451  Biso   1.000  H
  C298     1.0000 0.31872  0.80958  0.55539  Biso   1.000  C
  N44      1.0000 0.06802  0.87304  0.92524  Biso   1.000  N
  H382     1.0000 0.21669  0.85010  0.94168  Biso   1.000  H
  C299     1.0000 0.19416  0.86010  0.81483  Biso   1.000  C
  H383     1.0000 0.21819  0.80029  0.89350  Biso   1.000  H
  H384     1.0000 0.09865  0.78910  0.84248  Biso   1.000  H
  C300     1.0000 0.19866  0.81300  0.77049  Biso   1.000  C
  H385     1.0000 0.52582  0.87190  0.55658  Biso   1.000  H
  C301     1.0000 0.58807  0.91050  0.56068  Biso   1.000  C
  C302     1.0000 0.37271  0.89584  0.56200  Biso   1.000  C
  H386     1.0000 0.44550  0.96539  0.05782  Biso   1.000  H
  C303     1.0000 0.27947  0.95549  0.99439  Biso   1.000  C
  C304     1.0000 0.48551  0.94801  0.94338  Biso   1.000  C
  H387     1.0000 0.47261  0.78110  0.46261  Biso   1.000  H
  H388     1.0000 0.43873  0.75250  0.49517  Biso   1.000  H
  C305     1.0000 0.37653  0.78252  0.56968  Biso   1.000  C
  C306     1.0000 0.05734  0.84258  0.48031  Biso   1.000  C
  H389     1.0000 0.29452  0.81640  0.60961  Biso   1.000  H
  H390     1.0000 0.37932  0.82180  0.53498  Biso   1.000  H
  C307     1.0000 0.08643  0.88341  0.99843  Biso   1.000  C
  H391     1.0000 0.24147  0.87650  0.82214  Biso   1.000  H
  H392     1.0000 0.12508  0.86340  0.77250  Biso   1.000  H
  C308     1.0000 0.27412  0.83832  0.78321  Biso   1.000  C
  H393     1.0000 0.13071  0.81600  0.72709  Biso   1.000  H
  H394     1.0000 0.24977  0.79870  0.75059  Biso   1.000  H
  N45      1.0000 0.70590  0.90315  0.53498  Biso   1.000  N
  H395     1.0000 0.56218  0.92760  0.53397  Biso   1.000  H
  C309     1.0000 0.59518  0.91323  0.65647  Biso   1.000  C
  H396     1.0000 0.34178  0.91220  0.53391  Biso   1.000  H
  H397     1.0000 0.31535  0.88151  0.54550  Biso   1.000  H
  C310     1.0000 0.37976  0.89954  0.65729  Biso   1.000  C
  H398     1.0000 0.23399  0.95750  0.04491  Biso   1.000  H
  H399     1.0000 0.24559  0.94019  0.96208  Biso   1.000  H
  C311     1.0000 0.26373  0.98018  0.94010  Biso   1.000  C
  N46      1.0000 0.61191  0.94557  0.97311  Biso   1.000  N
  H400     1.0000 0.45850  0.93220  0.90968  Biso   1.000  H
  C312     1.0000 0.46810  0.97278  0.88940  Biso   1.000  C
  H401     1.0000 0.31967  0.77081  0.59639  Biso   1.000  H
  H402     1.0000 0.45085  0.78411  0.60842  Biso   1.000  H
  C313     1.0000 0.94984  0.82341  0.48359  Biso   1.000  C
  C314     1.0000 0.96994  0.82710  0.53000  Biso   1.000  C
  C315     1.0000 0.02589  0.87074  0.46488  Biso   1.000  C
  C316     1.0000 0.99950  0.90460  0.01952  Biso   1.000  C
  C317     1.0000 0.18302  0.87654  0.06601  Biso   1.000  C
  H403     1.0000 0.34428  0.83519  0.82472  Biso   1.000  H
  H404     1.0000 0.30512  0.84360  0.72930  Biso   1.000  H
  C318     1.0000 0.76967  0.91823  0.49328  Biso   1.000  C
  H405     1.0000 0.62371  0.89649  0.68268  Biso   1.000  H
  H406     1.0000 0.65462  0.92699  0.67449  Biso   1.000  H
  C319     1.0000 0.47238  0.92026  0.68652  Biso   1.000  C
  H407     1.0000 0.29933  0.90480  0.67411  Biso   1.000  H
  H408     1.0000 0.40193  0.88261  0.68532  Biso   1.000  H
  H409     1.0000 0.17702  0.98270  0.92171  Biso   1.000  H
  H410     1.0000 0.29173  0.99570  0.97380  Biso   1.000  H
  C320     1.0000 0.33564  0.97796  0.86320  Biso   1.000  C
  C321     1.0000 0.67276  0.92540  0.95912  Biso   1.000  C
  H411     1.0000 0.50260  0.98800  0.92171  Biso   1.000  H
  H412     1.0000 0.51254  0.97079  0.83851  Biso   1.000  H
  H413     1.0000 0.88996  0.82690  0.43610  Biso   1.000  H
  H414     1.0000 0.91251  0.82590  0.53662  Biso   1.000  H
  H415     1.0000 0.97899  0.80530  0.48018  Biso   1.000  H
  H416     1.0000 0.98999  0.80840  0.52811  Biso   1.000  H
  H417     1.0000 0.88693  0.82979  0.50431  Biso   1.000  H
  H418     1.0000 0.97586  0.83321  0.58807  Biso   1.000  H
  C322     1.0000 0.91837  0.88176  0.48718  Biso   1.000  C
  C323     1.0000 0.10296  0.88649  0.42218  Biso   1.000  C
  C324     1.0000 0.88341  0.90590  0.97751  Biso   1.000  C
  C325     1.0000 0.03374  0.92285  0.08282  Biso   1.000  C
  H419     1.0000 0.20897  0.85829  0.05851  Biso   1.000  H
  H420     1.0000 0.15119  0.87840  0.12118  Biso   1.000  H
  H421     1.0000 0.25220  0.88830  0.06267  Biso   1.000  H
  C326     1.0000 0.88803  0.90786  0.46979  Biso   1.000  C
  C327     1.0000 0.75102  0.94799  0.48012  Biso   1.000  C
  C328     1.0000 0.72350  0.94330  0.44813  Biso   1.000  C
  H422     1.0000 0.47891  0.92140  0.74881  Biso   1.000  H
  H423     1.0000 0.44606  0.93760  0.66359  Biso   1.000  H
  H424     1.0000 0.30252  0.96351  0.82673  Biso   1.000  H
  H425     1.0000 0.32774  0.99450  0.83032  Biso   1.000  H
  C329     1.0000 0.79984  0.92491  0.99880  Biso   1.000  C
  C330     1.0000 0.62900  0.90028  0.91233  Biso   1.000  C
  H426     1.0000 0.86393  0.87119  0.51527  Biso   1.000  H
  C331     1.0000 0.07463  0.91250  0.40278  Biso   1.000  C
  H427     1.0000 0.17652  0.87931  0.40593  Biso   1.000  H
  H428     1.0000 0.86096  0.89370  0.93393  Biso   1.000  H
  C332     1.0000 0.95137  0.94241  0.10367  Biso   1.000  C
  H429     1.0000 0.11223  0.92210  0.11148  Biso   1.000  H
  C333     1.0000 0.96705  0.92318  0.42747  Biso   1.000  C
  H430     1.0000 0.75126  0.95219  0.42010  Biso   1.000  H
  H431     1.0000 0.81655  0.95760  0.51180  Biso   1.000  H
  H432     1.0000 0.67332  0.95320  0.50002  Biso   1.000  H
  H433     1.0000 0.76769  0.95850  0.47269  Biso   1.000  H
  H434     1.0000 0.63694  0.94540  0.45461  Biso   1.000  H
  H435     1.0000 0.73619  0.94200  0.38823  Biso   1.000  H
  C334     1.0000 0.83768  0.94298  0.06141  Biso   1.000  C
  H436     1.0000 0.54039  0.90020  0.90490  Biso   1.000  H
  H437     1.0000 0.65736  0.88490  0.94520  Biso   1.000  H
  H438     1.0000 0.66155  0.89979  0.85703  Biso   1.000  H
  C335     1.0000 0.15618  0.92847  0.35308  Biso   1.000  C
  C336     1.0000 0.99141  0.96125  0.17239  Biso   1.000  C
  H439     1.0000 0.94790  0.94100  0.41531  Biso   1.000  H
  H440     1.0000 0.78280  0.95630  0.07552  Biso   1.000  H
  N47      1.0000 0.15443  0.95339  0.36241  Biso   1.000  N
  C337     1.0000 0.23192  0.91319  0.29577  Biso   1.000  C
  C338     1.0000 0.89631  0.97282  0.22328  Biso   1.000  C
  N48      1.0000 0.10439  0.96618  0.18303  Biso   1.000  N
  C339     1.0000 0.22993  0.97113  0.31340  Biso   1.000  C
  H441     1.0000 0.25648  0.92479  0.25111  Biso   1.000  H
  H442     1.0000 0.18440  0.89850  0.27051  Biso   1.000  H
  H443     1.0000 0.30396  0.90639  0.32839  Biso   1.000  H
  H444     1.0000 0.92499  0.97240  0.28317  Biso   1.000  H
  H445     1.0000 0.82165  0.96251  0.21421  Biso   1.000  H
  H446     1.0000 0.88048  0.99100  0.20583  Biso   1.000  H
  C340     1.0000 0.14999  0.98513  0.24488  Biso   1.000  C
  H447     1.0000 0.29222  0.96050  0.28689  Biso   1.000  H
  C341     1.0000 0.29247  0.99030  0.37601  Biso   1.000  C
  H448     1.0000 0.08098  0.99389  0.27032  Biso   1.000  H
  C342     1.0000 0.22256  0.00566  0.19922  Biso   1.000  C
  H449     1.0000 0.35100  0.98079  0.41531  Biso   1.000  H
  H450     1.0000 0.23192  0.99880  0.40933  Biso   1.000  H
  C343     1.0000 0.36107  0.01196  0.32657  Biso   1.000  C
  H451     1.0000 0.28712  0.99680  0.17062  Biso   1.000  H
  H452     1.0000 0.16841  0.01469  0.15588  Biso   1.000  H
  C344     1.0000 0.27808  0.02538  0.26113  Biso   1.000  C
  H453     1.0000 0.39648  0.02520  0.36707  Biso   1.000  H
  H454     1.0000 0.42822  0.00359  0.29930  Biso   1.000  H
  H455     1.0000 0.32388  0.03859  0.23102  Biso   1.000  H
  H456     1.0000 0.21337  0.03461  0.28853  Biso   1.000  H
