data_image0
_cell_length_a       23.84
_cell_length_b       23.84
_cell_length_c       23.227
_cell_angle_alpha    90
_cell_angle_beta     90
_cell_angle_gamma    90

_symmetry_space_group_name_H-M    "P 1"
_symmetry_int_tables_number       1

loop_
  _symmetry_equiv_pos_as_xyz
  'x, y, z'

loop_
  _atom_site_label
  _atom_site_occupancy
  _atom_site_fract_x
  _atom_site_fract_y
  _atom_site_fract_z
  _atom_site_thermal_displace_type
  _atom_site_B_iso_or_equiv
  _atom_site_type_symbol
  O1       1.0000 0.30642  0.21829  0.50971  Biso   1.000  O
  O2       1.0000 0.35902  0.21502  0.48030  Biso   1.000  O
  C1       1.0000 0.34652  0.18108  0.52732  Biso   1.000  C
  C2       1.0000 0.36648  0.20361  0.58402  Biso   1.000  C
  C3       1.0000 0.32508  0.20122  0.63319  Biso   1.000  C
  O3       1.0000 0.39069  0.25629  0.57769  Biso   1.000  O
  H1       1.0000 0.39551  0.17701  0.59620  Biso   1.000  H
  C4       1.0000 0.35361  0.22169  0.68860  Biso   1.000  C
  H2       1.0000 0.29358  0.22559  0.62290  Biso   1.000  H
  O4       1.0000 0.30260  0.14660  0.64249  Biso   1.000  O
  C5       1.0000 0.41829  0.27840  0.62750  Biso   1.000  C
  C6       1.0000 0.37802  0.27760  0.67852  Biso   1.000  C
  O5       1.0000 0.31271  0.22102  0.73432  Biso   1.000  O
  H3       1.0000 0.38461  0.19719  0.70009  Biso   1.000  H
  C7       1.0000 0.24530  0.13750  0.62780  Biso   1.000  C
  O6       1.0000 0.46481  0.24509  0.64218  Biso   1.000  O
  O7       1.0000 0.40390  0.30071  0.72859  Biso   1.000  O
  H4       1.0000 0.34610  0.30180  0.66879  Biso   1.000  H
  C8       1.0000 0.21648  0.11091  0.67938  Biso   1.000  C
  O8       1.0000 0.24119  0.10512  0.57851  Biso   1.000  O
  H5       1.0000 0.22651  0.17311  0.61902  Biso   1.000  H
  C9       1.0000 0.51858  0.26858  0.63220  Biso   1.000  C
  C10      1.0000 0.23792  0.05319  0.68808  Biso   1.000  C
  O9       1.0000 0.22160  0.14488  0.73049  Biso   1.000  O
  H6       1.0000 0.17622  0.10860  0.67142  Biso   1.000  H
  C11      1.0000 0.26409  0.04899  0.58561  Biso   1.000  C
  C12      1.0000 0.55319  0.26208  0.68808  Biso   1.000  C
  C13      1.0000 0.54899  0.23591  0.58561  Biso   1.000  C
  H7       1.0000 0.51451  0.30789  0.62061  Biso   1.000  H
  C14      1.0000 0.23142  0.01858  0.63220  Biso   1.000  C
  O10      1.0000 0.20591  0.02391  0.73229  Biso   1.000  O
  H8       1.0000 0.27731  0.05659  0.69949  Biso   1.000  H
  C15      1.0000 0.25818  0.01909  0.52650  Biso   1.000  C
  H9       1.0000 0.30361  0.04958  0.59728  Biso   1.000  H
  C16      1.0000 0.61091  0.28352  0.67938  Biso   1.000  C
  O11      1.0000 0.52391  0.29409  0.73229  Biso   1.000  O
  H10      1.0000 0.55659  0.22269  0.69949  Biso   1.000  H
  C17      1.0000 0.51909  0.24182  0.52650  Biso   1.000  C
  O12      1.0000 0.60512  0.25881  0.57851  Biso   1.000  O
  H11      1.0000 0.54958  0.19639  0.59728  Biso   1.000  H
  H12      1.0000 0.19211  0.01451  0.62061  Biso   1.000  H
  O13      1.0000 0.25491  0.96481  0.64218  Biso   1.000  O
  O14      1.0000 0.20382  0.01762  0.50549  Biso   1.000  O
  O15      1.0000 0.27601  0.05499  0.48538  Biso   1.000  O
  C18      1.0000 0.63750  0.25470  0.62780  Biso   1.000  C
  O16      1.0000 0.64488  0.27840  0.73049  Biso   1.000  O
  H13      1.0000 0.60860  0.32378  0.67142  Biso   1.000  H
  O17      1.0000 0.51762  0.29618  0.50549  Biso   1.000  O
  O18      1.0000 0.55499  0.22399  0.48538  Biso   1.000  O
  C19      1.0000 0.22160  0.91829  0.62750  Biso   1.000  C
  O19      1.0000 0.64660  0.19740  0.64249  Biso   1.000  O
  H14      1.0000 0.67311  0.27349  0.61902  Biso   1.000  H
  C20      1.0000 0.22240  0.87802  0.67852  Biso   1.000  C
  O20      1.0000 0.24371  0.89069  0.57769  Biso   1.000  O
  C21      1.0000 0.70122  0.17492  0.63319  Biso   1.000  C
  C22      1.0000 0.27831  0.85361  0.68860  Biso   1.000  C
  O21      1.0000 0.19929  0.90390  0.72859  Biso   1.000  O
  H15      1.0000 0.19820  0.84610  0.66879  Biso   1.000  H
  C23      1.0000 0.29639  0.86648  0.58402  Biso   1.000  C
  C24      1.0000 0.72169  0.14639  0.68860  Biso   1.000  C
  C25      1.0000 0.70361  0.13352  0.58402  Biso   1.000  C
  H16      1.0000 0.72559  0.20642  0.62290  Biso   1.000  H
  C26      1.0000 0.29878  0.82508  0.63319  Biso   1.000  C
  O22      1.0000 0.27898  0.81271  0.73432  Biso   1.000  O
  H17      1.0000 0.30281  0.88461  0.70009  Biso   1.000  H
  C27      1.0000 0.31892  0.84652  0.52732  Biso   1.000  C
  H18      1.0000 0.32299  0.89551  0.59620  Biso   1.000  H
  C28      1.0000 0.77760  0.12198  0.67852  Biso   1.000  C
  O23      1.0000 0.72102  0.18729  0.73432  Biso   1.000  O
  H19      1.0000 0.69719  0.11539  0.70009  Biso   1.000  H
  C29      1.0000 0.68108  0.15348  0.52732  Biso   1.000  C
  O24      1.0000 0.75629  0.10931  0.57769  Biso   1.000  O
  H20      1.0000 0.67701  0.10449  0.59620  Biso   1.000  H
  O25      1.0000 0.35340  0.80260  0.64249  Biso   1.000  O
  H21      1.0000 0.27441  0.79358  0.62290  Biso   1.000  H
  O26      1.0000 0.28171  0.80642  0.50971  Biso   1.000  O
  O27      1.0000 0.28498  0.85902  0.48030  Biso   1.000  O
  C30      1.0000 0.77840  0.08171  0.62750  Biso   1.000  C
  O28      1.0000 0.80071  0.09610  0.72859  Biso   1.000  O
  H22      1.0000 0.80180  0.15390  0.66879  Biso   1.000  H
  O29      1.0000 0.71829  0.19358  0.50971  Biso   1.000  O
  O30      1.0000 0.71502  0.14098  0.48030  Biso   1.000  O
  C31      1.0000 0.36250  0.74530  0.62780  Biso   1.000  C
  O31      1.0000 0.74509  0.03519  0.64218  Biso   1.000  O
  C32      1.0000 0.38909  0.71648  0.67938  Biso   1.000  C
  O32      1.0000 0.39488  0.74119  0.57851  Biso   1.000  O
  H23      1.0000 0.32689  0.72651  0.61902  Biso   1.000  H
  C33      1.0000 0.76858  0.98142  0.63220  Biso   1.000  C
  C34      1.0000 0.44681  0.73792  0.68808  Biso   1.000  C
  O33      1.0000 0.35512  0.72160  0.73049  Biso   1.000  O
  H24      1.0000 0.39140  0.67622  0.67142  Biso   1.000  H
  C35      1.0000 0.45101  0.76409  0.58561  Biso   1.000  C
  C36      1.0000 0.76208  0.94681  0.68808  Biso   1.000  C
  C37      1.0000 0.73591  0.95101  0.58561  Biso   1.000  C
  H25      1.0000 0.80789  0.98549  0.62061  Biso   1.000  H
  C38      1.0000 0.48142  0.73142  0.63220  Biso   1.000  C
  O34      1.0000 0.47609  0.70591  0.73229  Biso   1.000  O
  H26      1.0000 0.44341  0.77731  0.69949  Biso   1.000  H
  C39      1.0000 0.48091  0.75818  0.52650  Biso   1.000  C
  H27      1.0000 0.45042  0.80361  0.59728  Biso   1.000  H
  C40      1.0000 0.78352  0.88909  0.67938  Biso   1.000  C
  O35      1.0000 0.79409  0.97609  0.73229  Biso   1.000  O
  H28      1.0000 0.72269  0.94341  0.69949  Biso   1.000  H
  C41      1.0000 0.74182  0.98091  0.52650  Biso   1.000  C
  O36      1.0000 0.75881  0.89488  0.57851  Biso   1.000  O
  H29      1.0000 0.69639  0.95042  0.59728  Biso   1.000  H
  O37      1.0000 0.53519  0.75491  0.64218  Biso   1.000  O
  H30      1.0000 0.48549  0.69211  0.62061  Biso   1.000  H
  O38      1.0000 0.48238  0.70382  0.50549  Biso   1.000  O
  O39      1.0000 0.44501  0.77601  0.48538  Biso   1.000  O
  C42      1.0000 0.75470  0.86250  0.62780  Biso   1.000  C
  O40      1.0000 0.77840  0.85512  0.73049  Biso   1.000  O
  H31      1.0000 0.82378  0.89140  0.67142  Biso   1.000  H
  O41      1.0000 0.79618  0.98238  0.50549  Biso   1.000  O
  O42      1.0000 0.72399  0.94501  0.48538  Biso   1.000  O
  C43      1.0000 0.58171  0.72160  0.62750  Biso   1.000  C
  O43      1.0000 0.69740  0.85340  0.64249  Biso   1.000  O
  H32      1.0000 0.77349  0.82689  0.61902  Biso   1.000  H
  C44      1.0000 0.62198  0.72240  0.67852  Biso   1.000  C
  O44      1.0000 0.60931  0.74371  0.57769  Biso   1.000  O
  C45      1.0000 0.67492  0.79878  0.63319  Biso   1.000  C
  C46      1.0000 0.64639  0.77831  0.68860  Biso   1.000  C
  O45      1.0000 0.59610  0.69929  0.72859  Biso   1.000  O
  H33      1.0000 0.65390  0.69820  0.66879  Biso   1.000  H
  C47      1.0000 0.63352  0.79639  0.58402  Biso   1.000  C
  H34      1.0000 0.70642  0.77441  0.62290  Biso   1.000  H
  O46      1.0000 0.68729  0.77898  0.73432  Biso   1.000  O
  H35      1.0000 0.61539  0.80281  0.70009  Biso   1.000  H
  C48      1.0000 0.65348  0.81892  0.52732  Biso   1.000  C
  H36      1.0000 0.60449  0.82299  0.59620  Biso   1.000  H
  O47      1.0000 0.69358  0.78171  0.50971  Biso   1.000  O
  O48      1.0000 0.64098  0.78498  0.48030  Biso   1.000  O
  O49      1.0000 0.30642  0.21829  0.50971  Biso   1.000  O
  C49      1.0000 0.34652  0.18108  0.52732  Biso   1.000  C
  O50      1.0000 0.35902  0.21502  0.48030  Biso   1.000  O
  C50      1.0000 0.36648  0.20361  0.58402  Biso   1.000  C
  C51      1.0000 0.32508  0.20122  0.63319  Biso   1.000  C
  O51      1.0000 0.39069  0.25629  0.57769  Biso   1.000  O
  H37      1.0000 0.39551  0.17701  0.59620  Biso   1.000  H
  C52      1.0000 0.35361  0.22169  0.68860  Biso   1.000  C
  H38      1.0000 0.29358  0.22559  0.62290  Biso   1.000  H
  O52      1.0000 0.30260  0.14660  0.64249  Biso   1.000  O
  C53      1.0000 0.41829  0.27840  0.62750  Biso   1.000  C
  C54      1.0000 0.37802  0.27760  0.67852  Biso   1.000  C
  O53      1.0000 0.31271  0.22102  0.73432  Biso   1.000  O
  H39      1.0000 0.38461  0.19719  0.70009  Biso   1.000  H
  C55      1.0000 0.24530  0.13750  0.62780  Biso   1.000  C
  O54      1.0000 0.46481  0.24509  0.64218  Biso   1.000  O
  O55      1.0000 0.40390  0.30071  0.72859  Biso   1.000  O
  H40      1.0000 0.34610  0.30180  0.66879  Biso   1.000  H
  C56      1.0000 0.21648  0.11091  0.67938  Biso   1.000  C
  O56      1.0000 0.24119  0.10512  0.57851  Biso   1.000  O
  H41      1.0000 0.22651  0.17311  0.61902  Biso   1.000  H
  C57      1.0000 0.51858  0.26858  0.63220  Biso   1.000  C
  C58      1.0000 0.23792  0.05319  0.68808  Biso   1.000  C
  O57      1.0000 0.22160  0.14488  0.73049  Biso   1.000  O
  H42      1.0000 0.17622  0.10860  0.67142  Biso   1.000  H
  C59      1.0000 0.26409  0.04899  0.58561  Biso   1.000  C
  C60      1.0000 0.55319  0.26208  0.68808  Biso   1.000  C
  C61      1.0000 0.54899  0.23591  0.58561  Biso   1.000  C
  H43      1.0000 0.51451  0.30789  0.62061  Biso   1.000  H
  C62      1.0000 0.23142  0.01858  0.63220  Biso   1.000  C
  O58      1.0000 0.20591  0.02391  0.73229  Biso   1.000  O
  H44      1.0000 0.27731  0.05659  0.69949  Biso   1.000  H
  C63      1.0000 0.25818  0.01909  0.52650  Biso   1.000  C
  H45      1.0000 0.30361  0.04958  0.59728  Biso   1.000  H
  C64      1.0000 0.61091  0.28352  0.67938  Biso   1.000  C
  O59      1.0000 0.52391  0.29409  0.73229  Biso   1.000  O
  H46      1.0000 0.55659  0.22269  0.69949  Biso   1.000  H
  C65      1.0000 0.51909  0.24182  0.52650  Biso   1.000  C
  O60      1.0000 0.60512  0.25881  0.57851  Biso   1.000  O
  H47      1.0000 0.54958  0.19639  0.59728  Biso   1.000  H
  H48      1.0000 0.19211  0.01451  0.62061  Biso   1.000  H
  O61      1.0000 0.25491  0.96481  0.64218  Biso   1.000  O
  O62      1.0000 0.20382  0.01762  0.50549  Biso   1.000  O
  O63      1.0000 0.27601  0.05499  0.48538  Biso   1.000  O
  C66      1.0000 0.63750  0.25470  0.62780  Biso   1.000  C
  O64      1.0000 0.64488  0.27840  0.73049  Biso   1.000  O
  H49      1.0000 0.60860  0.32378  0.67142  Biso   1.000  H
  O65      1.0000 0.51762  0.29618  0.50549  Biso   1.000  O
  O66      1.0000 0.55499  0.22399  0.48538  Biso   1.000  O
  C67      1.0000 0.22160  0.91829  0.62750  Biso   1.000  C
  O67      1.0000 0.64660  0.19740  0.64249  Biso   1.000  O
  H50      1.0000 0.67311  0.27349  0.61902  Biso   1.000  H
  C68      1.0000 0.22240  0.87802  0.67852  Biso   1.000  C
  O68      1.0000 0.24371  0.89069  0.57769  Biso   1.000  O
  C69      1.0000 0.70122  0.17492  0.63319  Biso   1.000  C
  C70      1.0000 0.27831  0.85361  0.68860  Biso   1.000  C
  O69      1.0000 0.19929  0.90390  0.72859  Biso   1.000  O
  H51      1.0000 0.19820  0.84610  0.66879  Biso   1.000  H
  C71      1.0000 0.29639  0.86648  0.58402  Biso   1.000  C
  C72      1.0000 0.72169  0.14639  0.68860  Biso   1.000  C
  C73      1.0000 0.70361  0.13352  0.58402  Biso   1.000  C
  H52      1.0000 0.72559  0.20642  0.62290  Biso   1.000  H
  C74      1.0000 0.29878  0.82508  0.63319  Biso   1.000  C
  O70      1.0000 0.27898  0.81271  0.73432  Biso   1.000  O
  H53      1.0000 0.30281  0.88461  0.70009  Biso   1.000  H
  C75      1.0000 0.31892  0.84652  0.52732  Biso   1.000  C
  H54      1.0000 0.32299  0.89551  0.59620  Biso   1.000  H
  C76      1.0000 0.77760  0.12198  0.67852  Biso   1.000  C
  O71      1.0000 0.72102  0.18729  0.73432  Biso   1.000  O
  H55      1.0000 0.69719  0.11539  0.70009  Biso   1.000  H
  C77      1.0000 0.68108  0.15348  0.52732  Biso   1.000  C
  O72      1.0000 0.75629  0.10931  0.57769  Biso   1.000  O
  H56      1.0000 0.67701  0.10449  0.59620  Biso   1.000  H
  O73      1.0000 0.35340  0.80260  0.64249  Biso   1.000  O
  H57      1.0000 0.27441  0.79358  0.62290  Biso   1.000  H
  O74      1.0000 0.28171  0.80642  0.50971  Biso   1.000  O
  O75      1.0000 0.28498  0.85902  0.48030  Biso   1.000  O
  C78      1.0000 0.77840  0.08171  0.62750  Biso   1.000  C
  O76      1.0000 0.80071  0.09610  0.72859  Biso   1.000  O
  H58      1.0000 0.80180  0.15390  0.66879  Biso   1.000  H
  O77      1.0000 0.71829  0.19358  0.50971  Biso   1.000  O
  O78      1.0000 0.71502  0.14098  0.48030  Biso   1.000  O
  C79      1.0000 0.36250  0.74530  0.62780  Biso   1.000  C
  O79      1.0000 0.74509  0.03519  0.64218  Biso   1.000  O
  C80      1.0000 0.38909  0.71648  0.67938  Biso   1.000  C
  O80      1.0000 0.39488  0.74119  0.57851  Biso   1.000  O
  H59      1.0000 0.32689  0.72651  0.61902  Biso   1.000  H
  C81      1.0000 0.76858  0.98142  0.63220  Biso   1.000  C
  C82      1.0000 0.44681  0.73792  0.68808  Biso   1.000  C
  O81      1.0000 0.35512  0.72160  0.73049  Biso   1.000  O
  H60      1.0000 0.39140  0.67622  0.67142  Biso   1.000  H
  C83      1.0000 0.45101  0.76409  0.58561  Biso   1.000  C
  C84      1.0000 0.76208  0.94681  0.68808  Biso   1.000  C
  C85      1.0000 0.73591  0.95101  0.58561  Biso   1.000  C
  H61      1.0000 0.80789  0.98549  0.62061  Biso   1.000  H
  C86      1.0000 0.48142  0.73142  0.63220  Biso   1.000  C
  O82      1.0000 0.47609  0.70591  0.73229  Biso   1.000  O
  H62      1.0000 0.44341  0.77731  0.69949  Biso   1.000  H
  C87      1.0000 0.48091  0.75818  0.52650  Biso   1.000  C
  H63      1.0000 0.45042  0.80361  0.59728  Biso   1.000  H
  C88      1.0000 0.78352  0.88909  0.67938  Biso   1.000  C
  O83      1.0000 0.79409  0.97609  0.73229  Biso   1.000  O
  H64      1.0000 0.72269  0.94341  0.69949  Biso   1.000  H
  C89      1.0000 0.74182  0.98091  0.52650  Biso   1.000  C
  O84      1.0000 0.75881  0.89488  0.57851  Biso   1.000  O
  H65      1.0000 0.69639  0.95042  0.59728  Biso   1.000  H
  O85      1.0000 0.53519  0.75491  0.64218  Biso   1.000  O
  H66      1.0000 0.48549  0.69211  0.62061  Biso   1.000  H
  O86      1.0000 0.48238  0.70382  0.50549  Biso   1.000  O
  O87      1.0000 0.44501  0.77601  0.48538  Biso   1.000  O
  C90      1.0000 0.75470  0.86250  0.62780  Biso   1.000  C
  O88      1.0000 0.77840  0.85512  0.73049  Biso   1.000  O
  H67      1.0000 0.82378  0.89140  0.67142  Biso   1.000  H
  O89      1.0000 0.79618  0.98238  0.50549  Biso   1.000  O
  O90      1.0000 0.72399  0.94501  0.48538  Biso   1.000  O
  C91      1.0000 0.58171  0.72160  0.62750  Biso   1.000  C
  O91      1.0000 0.69740  0.85340  0.64249  Biso   1.000  O
  H68      1.0000 0.77349  0.82689  0.61902  Biso   1.000  H
  C92      1.0000 0.62198  0.72240  0.67852  Biso   1.000  C
  O92      1.0000 0.60931  0.74371  0.57769  Biso   1.000  O
  C93      1.0000 0.67492  0.79878  0.63319  Biso   1.000  C
  C94      1.0000 0.64639  0.77831  0.68860  Biso   1.000  C
  O93      1.0000 0.59610  0.69929  0.72859  Biso   1.000  O
  H69      1.0000 0.65390  0.69820  0.66879  Biso   1.000  H
  C95      1.0000 0.63352  0.79639  0.58402  Biso   1.000  C
  H70      1.0000 0.70642  0.77441  0.62290  Biso   1.000  H
  O94      1.0000 0.68729  0.77898  0.73432  Biso   1.000  O
  H71      1.0000 0.61539  0.80281  0.70009  Biso   1.000  H
  C96      1.0000 0.65348  0.81892  0.52732  Biso   1.000  C
  H72      1.0000 0.60449  0.82299  0.59620  Biso   1.000  H
  O95      1.0000 0.69358  0.78171  0.50971  Biso   1.000  O
  O96      1.0000 0.64098  0.78498  0.48030  Biso   1.000  O
  O97      1.0000 0.21829  0.30642  0.49029  Biso   1.000  O
  C97      1.0000 0.18108  0.34652  0.47268  Biso   1.000  C
  O98      1.0000 0.21502  0.35902  0.51970  Biso   1.000  O
  C98      1.0000 0.20361  0.36648  0.41598  Biso   1.000  C
  C99      1.0000 0.20122  0.32508  0.36681  Biso   1.000  C
  O99      1.0000 0.25629  0.39069  0.42231  Biso   1.000  O
  H73      1.0000 0.17701  0.39551  0.40380  Biso   1.000  H
  C100     1.0000 0.22169  0.35361  0.31140  Biso   1.000  C
  H74      1.0000 0.22559  0.29358  0.37710  Biso   1.000  H
  O100     1.0000 0.14660  0.30260  0.35751  Biso   1.000  O
  C101     1.0000 0.27840  0.41829  0.37250  Biso   1.000  C
  O101     1.0000 0.22102  0.31271  0.26568  Biso   1.000  O
  C102     1.0000 0.27760  0.37802  0.32148  Biso   1.000  C
  H75      1.0000 0.19719  0.38461  0.29991  Biso   1.000  H
  C103     1.0000 0.13750  0.24530  0.37220  Biso   1.000  C
  O102     1.0000 0.24509  0.46481  0.35782  Biso   1.000  O
  O103     1.0000 0.30071  0.40390  0.27141  Biso   1.000  O
  H76      1.0000 0.30180  0.34610  0.33121  Biso   1.000  H
  C104     1.0000 0.11091  0.21648  0.32062  Biso   1.000  C
  O104     1.0000 0.10512  0.24119  0.42149  Biso   1.000  O
  H77      1.0000 0.17311  0.22651  0.38098  Biso   1.000  H
  C105     1.0000 0.26858  0.51858  0.36780  Biso   1.000  C
  C106     1.0000 0.05319  0.23792  0.31192  Biso   1.000  C
  O105     1.0000 0.14488  0.22160  0.26951  Biso   1.000  O
  H78      1.0000 0.10860  0.17622  0.32858  Biso   1.000  H
  C107     1.0000 0.04899  0.26409  0.41439  Biso   1.000  C
  C108     1.0000 0.26208  0.55319  0.31192  Biso   1.000  C
  C109     1.0000 0.23591  0.54899  0.41439  Biso   1.000  C
  H79      1.0000 0.30789  0.51451  0.37939  Biso   1.000  H
  C110     1.0000 0.01858  0.23142  0.36780  Biso   1.000  C
  O106     1.0000 0.02391  0.20591  0.26771  Biso   1.000  O
  H80      1.0000 0.05659  0.27731  0.30051  Biso   1.000  H
  C111     1.0000 0.01909  0.25818  0.47350  Biso   1.000  C
  H81      1.0000 0.04958  0.30361  0.40272  Biso   1.000  H
  C112     1.0000 0.28352  0.61091  0.32062  Biso   1.000  C
  O107     1.0000 0.29409  0.52391  0.26771  Biso   1.000  O
  H82      1.0000 0.22269  0.55659  0.30051  Biso   1.000  H
  C113     1.0000 0.24182  0.51909  0.47350  Biso   1.000  C
  O108     1.0000 0.25881  0.60512  0.42149  Biso   1.000  O
  H83      1.0000 0.19639  0.54958  0.40272  Biso   1.000  H
  H84      1.0000 0.01451  0.19211  0.37939  Biso   1.000  H
  O109     1.0000 0.96481  0.25491  0.35782  Biso   1.000  O
  O110     1.0000 0.01762  0.20382  0.49451  Biso   1.000  O
  O111     1.0000 0.05499  0.27601  0.51462  Biso   1.000  O
  C114     1.0000 0.25470  0.63750  0.37220  Biso   1.000  C
  O112     1.0000 0.27840  0.64488  0.26951  Biso   1.000  O
  H85      1.0000 0.32378  0.60860  0.32858  Biso   1.000  H
  O113     1.0000 0.29618  0.51762  0.49451  Biso   1.000  O
  O114     1.0000 0.22399  0.55499  0.51462  Biso   1.000  O
  C115     1.0000 0.91829  0.22160  0.37250  Biso   1.000  C
  O115     1.0000 0.19740  0.64660  0.35751  Biso   1.000  O
  H86      1.0000 0.27349  0.67311  0.38098  Biso   1.000  H
  C116     1.0000 0.87802  0.22240  0.32148  Biso   1.000  C
  O116     1.0000 0.89069  0.24371  0.42231  Biso   1.000  O
  C117     1.0000 0.17492  0.70122  0.36681  Biso   1.000  C
  C118     1.0000 0.85361  0.27831  0.31140  Biso   1.000  C
  O117     1.0000 0.90390  0.19929  0.27141  Biso   1.000  O
  H87      1.0000 0.84610  0.19820  0.33121  Biso   1.000  H
  C119     1.0000 0.86648  0.29639  0.41598  Biso   1.000  C
  C120     1.0000 0.14639  0.72169  0.31140  Biso   1.000  C
  C121     1.0000 0.13352  0.70361  0.41598  Biso   1.000  C
  H88      1.0000 0.20642  0.72559  0.37710  Biso   1.000  H
  C122     1.0000 0.82508  0.29878  0.36681  Biso   1.000  C
  O118     1.0000 0.81271  0.27898  0.26568  Biso   1.000  O
  H89      1.0000 0.88461  0.30281  0.29991  Biso   1.000  H
  C123     1.0000 0.84652  0.31892  0.47268  Biso   1.000  C
  H90      1.0000 0.89551  0.32299  0.40380  Biso   1.000  H
  C124     1.0000 0.12198  0.77760  0.32148  Biso   1.000  C
  O119     1.0000 0.18729  0.72102  0.26568  Biso   1.000  O
  H91      1.0000 0.11539  0.69719  0.29991  Biso   1.000  H
  C125     1.0000 0.15348  0.68108  0.47268  Biso   1.000  C
  O120     1.0000 0.10931  0.75629  0.42231  Biso   1.000  O
  H92      1.0000 0.10449  0.67701  0.40380  Biso   1.000  H
  O121     1.0000 0.80260  0.35340  0.35751  Biso   1.000  O
  H93      1.0000 0.79358  0.27441  0.37710  Biso   1.000  H
  O122     1.0000 0.80642  0.28171  0.49029  Biso   1.000  O
  O123     1.0000 0.85902  0.28498  0.51970  Biso   1.000  O
  C126     1.0000 0.08171  0.77840  0.37250  Biso   1.000  C
  O124     1.0000 0.09610  0.80071  0.27141  Biso   1.000  O
  H94      1.0000 0.15390  0.80180  0.33121  Biso   1.000  H
  O125     1.0000 0.19358  0.71829  0.49029  Biso   1.000  O
  O126     1.0000 0.14098  0.71502  0.51970  Biso   1.000  O
  C127     1.0000 0.74530  0.36250  0.37220  Biso   1.000  C
  O127     1.0000 0.03519  0.74509  0.35782  Biso   1.000  O
  C128     1.0000 0.71648  0.38909  0.32062  Biso   1.000  C
  O128     1.0000 0.74119  0.39488  0.42149  Biso   1.000  O
  H95      1.0000 0.72651  0.32689  0.38098  Biso   1.000  H
  C129     1.0000 0.98142  0.76858  0.36780  Biso   1.000  C
  C130     1.0000 0.73792  0.44681  0.31192  Biso   1.000  C
  O129     1.0000 0.72160  0.35512  0.26951  Biso   1.000  O
  H96      1.0000 0.67622  0.39140  0.32858  Biso   1.000  H
  C131     1.0000 0.76409  0.45101  0.41439  Biso   1.000  C
  C132     1.0000 0.94681  0.76208  0.31192  Biso   1.000  C
  C133     1.0000 0.95101  0.73591  0.41439  Biso   1.000  C
  H97      1.0000 0.98549  0.80789  0.37939  Biso   1.000  H
  C134     1.0000 0.73142  0.48142  0.36780  Biso   1.000  C
  O130     1.0000 0.70591  0.47609  0.26771  Biso   1.000  O
  H98      1.0000 0.77731  0.44341  0.30051  Biso   1.000  H
  C135     1.0000 0.75818  0.48091  0.47350  Biso   1.000  C
  H99      1.0000 0.80361  0.45042  0.40272  Biso   1.000  H
  C136     1.0000 0.88909  0.78352  0.32062  Biso   1.000  C
  O131     1.0000 0.97609  0.79409  0.26771  Biso   1.000  O
  H100     1.0000 0.94341  0.72269  0.30051  Biso   1.000  H
  C137     1.0000 0.98091  0.74182  0.47350  Biso   1.000  C
  O132     1.0000 0.89488  0.75881  0.42149  Biso   1.000  O
  H101     1.0000 0.95042  0.69639  0.40272  Biso   1.000  H
  O133     1.0000 0.75491  0.53519  0.35782  Biso   1.000  O
  H102     1.0000 0.69211  0.48549  0.37939  Biso   1.000  H
  O134     1.0000 0.70382  0.48238  0.49451  Biso   1.000  O
  O135     1.0000 0.77601  0.44501  0.51462  Biso   1.000  O
  C138     1.0000 0.86250  0.75470  0.37220  Biso   1.000  C
  O136     1.0000 0.85512  0.77840  0.26951  Biso   1.000  O
  H103     1.0000 0.89140  0.82378  0.32858  Biso   1.000  H
  O137     1.0000 0.98238  0.79618  0.49451  Biso   1.000  O
  O138     1.0000 0.94501  0.72399  0.51462  Biso   1.000  O
  C139     1.0000 0.72160  0.58171  0.37250  Biso   1.000  C
  O139     1.0000 0.85340  0.69740  0.35751  Biso   1.000  O
  H104     1.0000 0.82689  0.77349  0.38098  Biso   1.000  H
  C140     1.0000 0.72240  0.62198  0.32148  Biso   1.000  C
  O140     1.0000 0.74371  0.60931  0.42231  Biso   1.000  O
  C141     1.0000 0.79878  0.67492  0.36681  Biso   1.000  C
  C142     1.0000 0.77831  0.64639  0.31140  Biso   1.000  C
  O141     1.0000 0.69929  0.59610  0.27141  Biso   1.000  O
  H105     1.0000 0.69820  0.65390  0.33121  Biso   1.000  H
  C143     1.0000 0.79639  0.63352  0.41598  Biso   1.000  C
  H106     1.0000 0.77441  0.70642  0.37710  Biso   1.000  H
  O142     1.0000 0.77898  0.68729  0.26568  Biso   1.000  O
  H107     1.0000 0.80281  0.61539  0.29991  Biso   1.000  H
  C144     1.0000 0.81892  0.65348  0.47268  Biso   1.000  C
  H108     1.0000 0.82299  0.60449  0.40380  Biso   1.000  H
  O143     1.0000 0.78171  0.69358  0.49029  Biso   1.000  O
  O144     1.0000 0.78498  0.64098  0.51970  Biso   1.000  O
  O145     1.0000 0.21829  0.30642  0.49029  Biso   1.000  O
  C145     1.0000 0.18108  0.34652  0.47268  Biso   1.000  C
  O146     1.0000 0.21502  0.35902  0.51970  Biso   1.000  O
  C146     1.0000 0.20361  0.36648  0.41598  Biso   1.000  C
  C147     1.0000 0.20122  0.32508  0.36681  Biso   1.000  C
  O147     1.0000 0.25629  0.39069  0.42231  Biso   1.000  O
  H109     1.0000 0.17701  0.39551  0.40380  Biso   1.000  H
  C148     1.0000 0.22169  0.35361  0.31140  Biso   1.000  C
  H110     1.0000 0.22559  0.29358  0.37710  Biso   1.000  H
  O148     1.0000 0.14660  0.30260  0.35751  Biso   1.000  O
  C149     1.0000 0.27840  0.41829  0.37250  Biso   1.000  C
  O149     1.0000 0.22102  0.31271  0.26568  Biso   1.000  O
  C150     1.0000 0.27760  0.37802  0.32148  Biso   1.000  C
  H111     1.0000 0.19719  0.38461  0.29991  Biso   1.000  H
  C151     1.0000 0.13750  0.24530  0.37220  Biso   1.000  C
  O150     1.0000 0.24509  0.46481  0.35782  Biso   1.000  O
  O151     1.0000 0.30071  0.40390  0.27141  Biso   1.000  O
  H112     1.0000 0.30180  0.34610  0.33121  Biso   1.000  H
  C152     1.0000 0.11091  0.21648  0.32062  Biso   1.000  C
  O152     1.0000 0.10512  0.24119  0.42149  Biso   1.000  O
  H113     1.0000 0.17311  0.22651  0.38098  Biso   1.000  H
  C153     1.0000 0.26858  0.51858  0.36780  Biso   1.000  C
  C154     1.0000 0.05319  0.23792  0.31192  Biso   1.000  C
  O153     1.0000 0.14488  0.22160  0.26951  Biso   1.000  O
  H114     1.0000 0.10860  0.17622  0.32858  Biso   1.000  H
  C155     1.0000 0.04899  0.26409  0.41439  Biso   1.000  C
  C156     1.0000 0.26208  0.55319  0.31192  Biso   1.000  C
  C157     1.0000 0.23591  0.54899  0.41439  Biso   1.000  C
  H115     1.0000 0.30789  0.51451  0.37939  Biso   1.000  H
  C158     1.0000 0.01858  0.23142  0.36780  Biso   1.000  C
  O154     1.0000 0.02391  0.20591  0.26771  Biso   1.000  O
  H116     1.0000 0.05659  0.27731  0.30051  Biso   1.000  H
  C159     1.0000 0.01909  0.25818  0.47350  Biso   1.000  C
  H117     1.0000 0.04958  0.30361  0.40272  Biso   1.000  H
  C160     1.0000 0.28352  0.61091  0.32062  Biso   1.000  C
  O155     1.0000 0.29409  0.52391  0.26771  Biso   1.000  O
  H118     1.0000 0.22269  0.55659  0.30051  Biso   1.000  H
  C161     1.0000 0.24182  0.51909  0.47350  Biso   1.000  C
  O156     1.0000 0.25881  0.60512  0.42149  Biso   1.000  O
  H119     1.0000 0.19639  0.54958  0.40272  Biso   1.000  H
  H120     1.0000 0.01451  0.19211  0.37939  Biso   1.000  H
  O157     1.0000 0.96481  0.25491  0.35782  Biso   1.000  O
  O158     1.0000 0.01762  0.20382  0.49451  Biso   1.000  O
  O159     1.0000 0.05499  0.27601  0.51462  Biso   1.000  O
  C162     1.0000 0.25470  0.63750  0.37220  Biso   1.000  C
  O160     1.0000 0.27840  0.64488  0.26951  Biso   1.000  O
  H121     1.0000 0.32378  0.60860  0.32858  Biso   1.000  H
  O161     1.0000 0.29618  0.51762  0.49451  Biso   1.000  O
  O162     1.0000 0.22399  0.55499  0.51462  Biso   1.000  O
  C163     1.0000 0.91829  0.22160  0.37250  Biso   1.000  C
  O163     1.0000 0.19740  0.64660  0.35751  Biso   1.000  O
  H122     1.0000 0.27349  0.67311  0.38098  Biso   1.000  H
  C164     1.0000 0.87802  0.22240  0.32148  Biso   1.000  C
  O164     1.0000 0.89069  0.24371  0.42231  Biso   1.000  O
  C165     1.0000 0.17492  0.70122  0.36681  Biso   1.000  C
  C166     1.0000 0.85361  0.27831  0.31140  Biso   1.000  C
  O165     1.0000 0.90390  0.19929  0.27141  Biso   1.000  O
  H123     1.0000 0.84610  0.19820  0.33121  Biso   1.000  H
  C167     1.0000 0.86648  0.29639  0.41598  Biso   1.000  C
  C168     1.0000 0.14639  0.72169  0.31140  Biso   1.000  C
  C169     1.0000 0.13352  0.70361  0.41598  Biso   1.000  C
  H124     1.0000 0.20642  0.72559  0.37710  Biso   1.000  H
  C170     1.0000 0.82508  0.29878  0.36681  Biso   1.000  C
  O166     1.0000 0.81271  0.27898  0.26568  Biso   1.000  O
  H125     1.0000 0.88461  0.30281  0.29991  Biso   1.000  H
  C171     1.0000 0.84652  0.31892  0.47268  Biso   1.000  C
  H126     1.0000 0.89551  0.32299  0.40380  Biso   1.000  H
  C172     1.0000 0.12198  0.77760  0.32148  Biso   1.000  C
  O167     1.0000 0.18729  0.72102  0.26568  Biso   1.000  O
  H127     1.0000 0.11539  0.69719  0.29991  Biso   1.000  H
  C173     1.0000 0.15348  0.68108  0.47268  Biso   1.000  C
  O168     1.0000 0.10931  0.75629  0.42231  Biso   1.000  O
  H128     1.0000 0.10449  0.67701  0.40380  Biso   1.000  H
  O169     1.0000 0.80260  0.35340  0.35751  Biso   1.000  O
  H129     1.0000 0.79358  0.27441  0.37710  Biso   1.000  H
  O170     1.0000 0.80642  0.28171  0.49029  Biso   1.000  O
  O171     1.0000 0.85902  0.28498  0.51970  Biso   1.000  O
  C174     1.0000 0.08171  0.77840  0.37250  Biso   1.000  C
  O172     1.0000 0.09610  0.80071  0.27141  Biso   1.000  O
  H130     1.0000 0.15390  0.80180  0.33121  Biso   1.000  H
  O173     1.0000 0.19358  0.71829  0.49029  Biso   1.000  O
  O174     1.0000 0.14098  0.71502  0.51970  Biso   1.000  O
  C175     1.0000 0.74530  0.36250  0.37220  Biso   1.000  C
  O175     1.0000 0.03519  0.74509  0.35782  Biso   1.000  O
  C176     1.0000 0.71648  0.38909  0.32062  Biso   1.000  C
  O176     1.0000 0.74119  0.39488  0.42149  Biso   1.000  O
  H131     1.0000 0.72651  0.32689  0.38098  Biso   1.000  H
  C177     1.0000 0.98142  0.76858  0.36780  Biso   1.000  C
  C178     1.0000 0.73792  0.44681  0.31192  Biso   1.000  C
  O177     1.0000 0.72160  0.35512  0.26951  Biso   1.000  O
  H132     1.0000 0.67622  0.39140  0.32858  Biso   1.000  H
  C179     1.0000 0.76409  0.45101  0.41439  Biso   1.000  C
  C180     1.0000 0.94681  0.76208  0.31192  Biso   1.000  C
  C181     1.0000 0.95101  0.73591  0.41439  Biso   1.000  C
  H133     1.0000 0.98549  0.80789  0.37939  Biso   1.000  H
  C182     1.0000 0.73142  0.48142  0.36780  Biso   1.000  C
  O178     1.0000 0.70591  0.47609  0.26771  Biso   1.000  O
  H134     1.0000 0.77731  0.44341  0.30051  Biso   1.000  H
  C183     1.0000 0.75818  0.48091  0.47350  Biso   1.000  C
  H135     1.0000 0.80361  0.45042  0.40272  Biso   1.000  H
  C184     1.0000 0.88909  0.78352  0.32062  Biso   1.000  C
  O179     1.0000 0.97609  0.79409  0.26771  Biso   1.000  O
  H136     1.0000 0.94341  0.72269  0.30051  Biso   1.000  H
  C185     1.0000 0.98091  0.74182  0.47350  Biso   1.000  C
  O180     1.0000 0.89488  0.75881  0.42149  Biso   1.000  O
  H137     1.0000 0.95042  0.69639  0.40272  Biso   1.000  H
  O181     1.0000 0.75491  0.53519  0.35782  Biso   1.000  O
  H138     1.0000 0.69211  0.48549  0.37939  Biso   1.000  H
  O182     1.0000 0.70382  0.48238  0.49451  Biso   1.000  O
  O183     1.0000 0.77601  0.44501  0.51462  Biso   1.000  O
  C186     1.0000 0.86250  0.75470  0.37220  Biso   1.000  C
  O184     1.0000 0.85512  0.77840  0.26951  Biso   1.000  O
  H139     1.0000 0.89140  0.82378  0.32858  Biso   1.000  H
  O185     1.0000 0.98238  0.79618  0.49451  Biso   1.000  O
  O186     1.0000 0.94501  0.72399  0.51462  Biso   1.000  O
  C187     1.0000 0.72160  0.58171  0.37250  Biso   1.000  C
  O187     1.0000 0.85340  0.69740  0.35751  Biso   1.000  O
  H140     1.0000 0.82689  0.77349  0.38098  Biso   1.000  H
  C188     1.0000 0.72240  0.62198  0.32148  Biso   1.000  C
  O188     1.0000 0.74371  0.60931  0.42231  Biso   1.000  O
  C189     1.0000 0.79878  0.67492  0.36681  Biso   1.000  C
  C190     1.0000 0.77831  0.64639  0.31140  Biso   1.000  C
  O189     1.0000 0.69929  0.59610  0.27141  Biso   1.000  O
  H141     1.0000 0.69820  0.65390  0.33121  Biso   1.000  H
  C191     1.0000 0.79639  0.63352  0.41598  Biso   1.000  C
  H142     1.0000 0.77441  0.70642  0.37710  Biso   1.000  H
  O190     1.0000 0.77898  0.68729  0.26568  Biso   1.000  O
  H143     1.0000 0.80281  0.61539  0.29991  Biso   1.000  H
  C192     1.0000 0.81892  0.65348  0.47268  Biso   1.000  C
  H144     1.0000 0.82299  0.60449  0.40380  Biso   1.000  H
  O191     1.0000 0.78171  0.69358  0.49029  Biso   1.000  O
  O192     1.0000 0.78498  0.64098  0.51970  Biso   1.000  O
  O193     1.0000 0.26598  0.17659  0.40160  Biso   1.000  O
  C193     1.0000 0.30499  0.13758  0.38128  Biso   1.000  C
  C194     1.0000 0.28821  0.11271  0.32380  Biso   1.000  C
  H145     1.0000 0.34140  0.15608  0.37710  Biso   1.000  H
  H146     1.0000 0.30810  0.10721  0.40961  Biso   1.000  H
  C195     1.0000 0.28221  0.15688  0.27550  Biso   1.000  C
  O194     1.0000 0.23591  0.08662  0.33061  Biso   1.000  O
  H147     1.0000 0.31799  0.08670  0.31240  Biso   1.000  H
  O195     1.0000 0.33662  0.18339  0.26422  Biso   1.000  O
  C196     1.0000 0.26439  0.12768  0.21962  Biso   1.000  C
  H148     1.0000 0.25449  0.18482  0.28768  Biso   1.000  H
  C197     1.0000 0.21430  0.05738  0.28191  Biso   1.000  C
  C198     1.0000 0.34090  0.24002  0.28161  Biso   1.000  C
  C199     1.0000 0.21120  0.09899  0.23081  Biso   1.000  C
  O196     1.0000 0.25810  0.16850  0.17419  Biso   1.000  O
  H149     1.0000 0.29279  0.10050  0.20730  Biso   1.000  H
  O197     1.0000 0.25210  0.01468  0.26590  Biso   1.000  O
  C200     1.0000 0.36489  0.27370  0.23051  Biso   1.000  C
  O198     1.0000 0.37450  0.24639  0.33031  Biso   1.000  O
  H150     1.0000 0.30361  0.25390  0.29229  Biso   1.000  H
  O199     1.0000 0.19090  0.06770  0.18160  Biso   1.000  O
  H151     1.0000 0.18540  0.12978  0.23989  Biso   1.000  H
  C201     1.0000 0.23612  0.95868  0.27701  Biso   1.000  C
  C202     1.0000 0.42580  0.25948  0.22138  Biso   1.000  C
  O200     1.0000 0.33150  0.26590  0.17932  Biso   1.000  O
  H152     1.0000 0.36309  0.31380  0.23959  Biso   1.000  H
  C203     1.0000 0.43159  0.22890  0.32411  Biso   1.000  C
  C204     1.0000 0.24052  0.92580  0.22138  Biso   1.000  C
  C205     1.0000 0.27110  0.93159  0.32411  Biso   1.000  C
  H153     1.0000 0.19732  0.95852  0.29100  Biso   1.000  H
  C206     1.0000 0.45868  0.26388  0.27701  Biso   1.000  C
  O201     1.0000 0.44941  0.29660  0.17760  Biso   1.000  O
  H154     1.0000 0.42848  0.22051  0.20829  Biso   1.000  H
  C207     1.0000 0.46061  0.23238  0.38262  Biso   1.000  C
  H155     1.0000 0.43490  0.18960  0.31201  Biso   1.000  H
  C208     1.0000 0.22630  0.86489  0.23051  Biso   1.000  C
  O202     1.0000 0.20340  0.94941  0.17760  Biso   1.000  O
  H156     1.0000 0.27949  0.92848  0.20829  Biso   1.000  H
  O203     1.0000 0.25361  0.87450  0.33031  Biso   1.000  O
  C209     1.0000 0.26762  0.96061  0.38262  Biso   1.000  C
  H157     1.0000 0.31040  0.93490  0.31201  Biso   1.000  H
  O204     1.0000 0.51468  0.24790  0.26590  Biso   1.000  O
  H158     1.0000 0.45852  0.30268  0.29100  Biso   1.000  H
  O205     1.0000 0.45621  0.29002  0.40091  Biso   1.000  O
  O206     1.0000 0.43800  0.19501  0.42102  Biso   1.000  O
  C210     1.0000 0.25998  0.84090  0.28161  Biso   1.000  C
  O207     1.0000 0.23410  0.83150  0.17932  Biso   1.000  O
  H159     1.0000 0.18620  0.86309  0.23959  Biso   1.000  H
  O208     1.0000 0.20998  0.95621  0.40091  Biso   1.000  O
  O209     1.0000 0.30499  0.93800  0.42102  Biso   1.000  O
  C211     1.0000 0.55738  0.28570  0.28191  Biso   1.000  C
  O210     1.0000 0.31661  0.83662  0.26422  Biso   1.000  O
  H160     1.0000 0.24610  0.80361  0.29229  Biso   1.000  H
  C212     1.0000 0.59899  0.28880  0.23081  Biso   1.000  C
  O211     1.0000 0.58662  0.26409  0.33061  Biso   1.000  O
  C213     1.0000 0.34312  0.78221  0.27550  Biso   1.000  C
  C214     1.0000 0.62768  0.23561  0.21962  Biso   1.000  C
  O212     1.0000 0.56770  0.30910  0.18160  Biso   1.000  O
  H161     1.0000 0.62978  0.31460  0.23989  Biso   1.000  H
  C215     1.0000 0.61271  0.21179  0.32380  Biso   1.000  C
  C216     1.0000 0.37232  0.76439  0.21962  Biso   1.000  C
  C217     1.0000 0.38729  0.78821  0.32380  Biso   1.000  C
  H162     1.0000 0.31518  0.75449  0.28768  Biso   1.000  H
  C218     1.0000 0.65688  0.21779  0.27550  Biso   1.000  C
  O213     1.0000 0.66850  0.24190  0.17419  Biso   1.000  O
  H163     1.0000 0.60050  0.20721  0.20730  Biso   1.000  H
  C219     1.0000 0.63758  0.19501  0.38128  Biso   1.000  C
  H164     1.0000 0.58670  0.18201  0.31240  Biso   1.000  H
  C220     1.0000 0.40101  0.71120  0.23081  Biso   1.000  C
  O214     1.0000 0.33150  0.75810  0.17419  Biso   1.000  O
  H165     1.0000 0.39950  0.79279  0.20730  Biso   1.000  H
  O215     1.0000 0.41338  0.73591  0.33061  Biso   1.000  O
  C221     1.0000 0.36242  0.80499  0.38128  Biso   1.000  C
  H166     1.0000 0.41330  0.81799  0.31240  Biso   1.000  H
  O216     1.0000 0.68339  0.16338  0.26422  Biso   1.000  O
  H167     1.0000 0.68482  0.24551  0.28768  Biso   1.000  H
  O217     1.0000 0.67659  0.23402  0.40160  Biso   1.000  O
  H168     1.0000 0.65608  0.15860  0.37710  Biso   1.000  H
  H169     1.0000 0.60721  0.19190  0.40961  Biso   1.000  H
  C222     1.0000 0.44262  0.71430  0.28191  Biso   1.000  C
  O218     1.0000 0.43230  0.69090  0.18160  Biso   1.000  O
  H170     1.0000 0.37022  0.68540  0.23989  Biso   1.000  H
  O219     1.0000 0.32341  0.76598  0.40160  Biso   1.000  O
  H171     1.0000 0.34392  0.84140  0.37710  Biso   1.000  H
  H172     1.0000 0.39279  0.80810  0.40961  Biso   1.000  H
  C223     1.0000 0.74002  0.15910  0.28161  Biso   1.000  C
  O220     1.0000 0.48532  0.75210  0.26590  Biso   1.000  O
  C224     1.0000 0.77370  0.13511  0.23051  Biso   1.000  C
  O221     1.0000 0.74639  0.12550  0.33031  Biso   1.000  O
  H173     1.0000 0.75390  0.19639  0.29229  Biso   1.000  H
  C225     1.0000 0.54132  0.73612  0.27701  Biso   1.000  C
  C226     1.0000 0.75948  0.07420  0.22138  Biso   1.000  C
  O222     1.0000 0.76590  0.16850  0.17932  Biso   1.000  O
  H174     1.0000 0.81380  0.13691  0.23959  Biso   1.000  H
  C227     1.0000 0.72890  0.06841  0.32411  Biso   1.000  C
  C228     1.0000 0.57420  0.74052  0.22138  Biso   1.000  C
  C229     1.0000 0.56841  0.77110  0.32411  Biso   1.000  C
  H175     1.0000 0.54148  0.69732  0.29100  Biso   1.000  H
  C230     1.0000 0.76388  0.04132  0.27701  Biso   1.000  C
  O223     1.0000 0.79660  0.05059  0.17760  Biso   1.000  O
  H176     1.0000 0.72051  0.07152  0.20829  Biso   1.000  H
  C231     1.0000 0.73238  0.03939  0.38262  Biso   1.000  C
  H177     1.0000 0.68960  0.06510  0.31201  Biso   1.000  H
  C232     1.0000 0.63511  0.72630  0.23051  Biso   1.000  C
  O224     1.0000 0.55059  0.70340  0.17760  Biso   1.000  O
  H178     1.0000 0.57152  0.77949  0.20829  Biso   1.000  H
  O225     1.0000 0.62550  0.75361  0.33031  Biso   1.000  O
  C233     1.0000 0.53939  0.76762  0.38262  Biso   1.000  C
  H179     1.0000 0.56510  0.81040  0.31201  Biso   1.000  H
  H180     1.0000 0.80268  0.04148  0.29100  Biso   1.000  H
  O226     1.0000 0.74790  0.98532  0.26590  Biso   1.000  O
  O227     1.0000 0.79002  0.04379  0.40091  Biso   1.000  O
  O228     1.0000 0.69501  0.06200  0.42102  Biso   1.000  O
  C234     1.0000 0.65910  0.75998  0.28161  Biso   1.000  C
  O229     1.0000 0.66850  0.73410  0.17932  Biso   1.000  O
  H181     1.0000 0.63691  0.68620  0.23959  Biso   1.000  H
  O230     1.0000 0.54379  0.70998  0.40091  Biso   1.000  O
  O231     1.0000 0.56200  0.80499  0.42102  Biso   1.000  O
  C235     1.0000 0.78570  0.94262  0.28191  Biso   1.000  C
  O232     1.0000 0.66338  0.81661  0.26422  Biso   1.000  O
  H182     1.0000 0.69639  0.74610  0.29229  Biso   1.000  H
  C236     1.0000 0.78880  0.90101  0.23081  Biso   1.000  C
  O233     1.0000 0.76409  0.91338  0.33061  Biso   1.000  O
  C237     1.0000 0.71779  0.84312  0.27550  Biso   1.000  C
  C238     1.0000 0.73561  0.87232  0.21962  Biso   1.000  C
  O234     1.0000 0.80910  0.93230  0.18160  Biso   1.000  O
  H183     1.0000 0.81460  0.87022  0.23989  Biso   1.000  H
  C239     1.0000 0.71179  0.88729  0.32380  Biso   1.000  C
  H184     1.0000 0.74551  0.81518  0.28768  Biso   1.000  H
  O235     1.0000 0.74190  0.83150  0.17419  Biso   1.000  O
  H185     1.0000 0.70721  0.89950  0.20730  Biso   1.000  H
  C240     1.0000 0.69501  0.86242  0.38128  Biso   1.000  C
  H186     1.0000 0.68201  0.91330  0.31240  Biso   1.000  H
  O236     1.0000 0.73402  0.82341  0.40160  Biso   1.000  O
  H187     1.0000 0.65860  0.84392  0.37710  Biso   1.000  H
  H188     1.0000 0.69190  0.89279  0.40961  Biso   1.000  H
  O237     1.0000 0.26598  0.17659  0.40160  Biso   1.000  O
  C241     1.0000 0.30499  0.13758  0.38128  Biso   1.000  C
  C242     1.0000 0.28821  0.11271  0.32380  Biso   1.000  C
  H189     1.0000 0.34140  0.15608  0.37710  Biso   1.000  H
  H190     1.0000 0.30810  0.10721  0.40961  Biso   1.000  H
  C243     1.0000 0.28221  0.15688  0.27550  Biso   1.000  C
  O238     1.0000 0.23591  0.08662  0.33061  Biso   1.000  O
  H191     1.0000 0.31799  0.08670  0.31240  Biso   1.000  H
  O239     1.0000 0.33662  0.18339  0.26422  Biso   1.000  O
  C244     1.0000 0.26439  0.12768  0.21962  Biso   1.000  C
  H192     1.0000 0.25449  0.18482  0.28768  Biso   1.000  H
  C245     1.0000 0.21430  0.05738  0.28191  Biso   1.000  C
  C246     1.0000 0.34090  0.24002  0.28161  Biso   1.000  C
  C247     1.0000 0.21120  0.09899  0.23081  Biso   1.000  C
  O240     1.0000 0.25810  0.16850  0.17419  Biso   1.000  O
  H193     1.0000 0.29279  0.10050  0.20730  Biso   1.000  H
  O241     1.0000 0.25210  0.01468  0.26590  Biso   1.000  O
  C248     1.0000 0.36489  0.27370  0.23051  Biso   1.000  C
  O242     1.0000 0.37450  0.24639  0.33031  Biso   1.000  O
  H194     1.0000 0.30361  0.25390  0.29229  Biso   1.000  H
  O243     1.0000 0.19090  0.06770  0.18160  Biso   1.000  O
  H195     1.0000 0.18540  0.12978  0.23989  Biso   1.000  H
  C249     1.0000 0.23612  0.95868  0.27701  Biso   1.000  C
  C250     1.0000 0.42580  0.25948  0.22138  Biso   1.000  C
  O244     1.0000 0.33150  0.26590  0.17932  Biso   1.000  O
  H196     1.0000 0.36309  0.31380  0.23959  Biso   1.000  H
  C251     1.0000 0.43159  0.22890  0.32411  Biso   1.000  C
  C252     1.0000 0.24052  0.92580  0.22138  Biso   1.000  C
  C253     1.0000 0.27110  0.93159  0.32411  Biso   1.000  C
  H197     1.0000 0.19732  0.95852  0.29100  Biso   1.000  H
  C254     1.0000 0.45868  0.26388  0.27701  Biso   1.000  C
  O245     1.0000 0.44941  0.29660  0.17760  Biso   1.000  O
  H198     1.0000 0.42848  0.22051  0.20829  Biso   1.000  H
  C255     1.0000 0.46061  0.23238  0.38262  Biso   1.000  C
  H199     1.0000 0.43490  0.18960  0.31201  Biso   1.000  H
  C256     1.0000 0.22630  0.86489  0.23051  Biso   1.000  C
  O246     1.0000 0.20340  0.94941  0.17760  Biso   1.000  O
  H200     1.0000 0.27949  0.92848  0.20829  Biso   1.000  H
  O247     1.0000 0.25361  0.87450  0.33031  Biso   1.000  O
  C257     1.0000 0.26762  0.96061  0.38262  Biso   1.000  C
  H201     1.0000 0.31040  0.93490  0.31201  Biso   1.000  H
  O248     1.0000 0.51468  0.24790  0.26590  Biso   1.000  O
  H202     1.0000 0.45852  0.30268  0.29100  Biso   1.000  H
  O249     1.0000 0.45621  0.29002  0.40091  Biso   1.000  O
  O250     1.0000 0.43800  0.19501  0.42102  Biso   1.000  O
  C258     1.0000 0.25998  0.84090  0.28161  Biso   1.000  C
  O251     1.0000 0.23410  0.83150  0.17932  Biso   1.000  O
  H203     1.0000 0.18620  0.86309  0.23959  Biso   1.000  H
  O252     1.0000 0.20998  0.95621  0.40091  Biso   1.000  O
  O253     1.0000 0.30499  0.93800  0.42102  Biso   1.000  O
  C259     1.0000 0.55738  0.28570  0.28191  Biso   1.000  C
  O254     1.0000 0.31661  0.83662  0.26422  Biso   1.000  O
  H204     1.0000 0.24610  0.80361  0.29229  Biso   1.000  H
  C260     1.0000 0.59899  0.28880  0.23081  Biso   1.000  C
  O255     1.0000 0.58662  0.26409  0.33061  Biso   1.000  O
  C261     1.0000 0.34312  0.78221  0.27550  Biso   1.000  C
  C262     1.0000 0.62768  0.23561  0.21962  Biso   1.000  C
  O256     1.0000 0.56770  0.30910  0.18160  Biso   1.000  O
  H205     1.0000 0.62978  0.31460  0.23989  Biso   1.000  H
  C263     1.0000 0.61271  0.21179  0.32380  Biso   1.000  C
  C264     1.0000 0.37232  0.76439  0.21962  Biso   1.000  C
  C265     1.0000 0.38729  0.78821  0.32380  Biso   1.000  C
  H206     1.0000 0.31518  0.75449  0.28768  Biso   1.000  H
  C266     1.0000 0.65688  0.21779  0.27550  Biso   1.000  C
  O257     1.0000 0.66850  0.24190  0.17419  Biso   1.000  O
  H207     1.0000 0.60050  0.20721  0.20730  Biso   1.000  H
  C267     1.0000 0.63758  0.19501  0.38128  Biso   1.000  C
  H208     1.0000 0.58670  0.18201  0.31240  Biso   1.000  H
  C268     1.0000 0.40101  0.71120  0.23081  Biso   1.000  C
  O258     1.0000 0.33150  0.75810  0.17419  Biso   1.000  O
  H209     1.0000 0.39950  0.79279  0.20730  Biso   1.000  H
  O259     1.0000 0.41338  0.73591  0.33061  Biso   1.000  O
  C269     1.0000 0.36242  0.80499  0.38128  Biso   1.000  C
  H210     1.0000 0.41330  0.81799  0.31240  Biso   1.000  H
  O260     1.0000 0.68339  0.16338  0.26422  Biso   1.000  O
  H211     1.0000 0.68482  0.24551  0.28768  Biso   1.000  H
  O261     1.0000 0.67659  0.23402  0.40160  Biso   1.000  O
  H212     1.0000 0.65608  0.15860  0.37710  Biso   1.000  H
  H213     1.0000 0.60721  0.19190  0.40961  Biso   1.000  H
  C270     1.0000 0.44262  0.71430  0.28191  Biso   1.000  C
  O262     1.0000 0.43230  0.69090  0.18160  Biso   1.000  O
  H214     1.0000 0.37022  0.68540  0.23989  Biso   1.000  H
  O263     1.0000 0.32341  0.76598  0.40160  Biso   1.000  O
  H215     1.0000 0.34392  0.84140  0.37710  Biso   1.000  H
  H216     1.0000 0.39279  0.80810  0.40961  Biso   1.000  H
  C271     1.0000 0.74002  0.15910  0.28161  Biso   1.000  C
  O264     1.0000 0.48532  0.75210  0.26590  Biso   1.000  O
  C272     1.0000 0.77370  0.13511  0.23051  Biso   1.000  C
  O265     1.0000 0.74639  0.12550  0.33031  Biso   1.000  O
  H217     1.0000 0.75390  0.19639  0.29229  Biso   1.000  H
  C273     1.0000 0.54132  0.73612  0.27701  Biso   1.000  C
  C274     1.0000 0.75948  0.07420  0.22138  Biso   1.000  C
  O266     1.0000 0.76590  0.16850  0.17932  Biso   1.000  O
  H218     1.0000 0.81380  0.13691  0.23959  Biso   1.000  H
  C275     1.0000 0.72890  0.06841  0.32411  Biso   1.000  C
  C276     1.0000 0.57420  0.74052  0.22138  Biso   1.000  C
  C277     1.0000 0.56841  0.77110  0.32411  Biso   1.000  C
  H219     1.0000 0.54148  0.69732  0.29100  Biso   1.000  H
  C278     1.0000 0.76388  0.04132  0.27701  Biso   1.000  C
  O267     1.0000 0.79660  0.05059  0.17760  Biso   1.000  O
  H220     1.0000 0.72051  0.07152  0.20829  Biso   1.000  H
  C279     1.0000 0.73238  0.03939  0.38262  Biso   1.000  C
  H221     1.0000 0.68960  0.06510  0.31201  Biso   1.000  H
  C280     1.0000 0.63511  0.72630  0.23051  Biso   1.000  C
  O268     1.0000 0.55059  0.70340  0.17760  Biso   1.000  O
  H222     1.0000 0.57152  0.77949  0.20829  Biso   1.000  H
  O269     1.0000 0.62550  0.75361  0.33031  Biso   1.000  O
  C281     1.0000 0.53939  0.76762  0.38262  Biso   1.000  C
  H223     1.0000 0.56510  0.81040  0.31201  Biso   1.000  H
  H224     1.0000 0.80268  0.04148  0.29100  Biso   1.000  H
  O270     1.0000 0.74790  0.98532  0.26590  Biso   1.000  O
  O271     1.0000 0.79002  0.04379  0.40091  Biso   1.000  O
  O272     1.0000 0.69501  0.06200  0.42102  Biso   1.000  O
  C282     1.0000 0.65910  0.75998  0.28161  Biso   1.000  C
  O273     1.0000 0.66850  0.73410  0.17932  Biso   1.000  O
  H225     1.0000 0.63691  0.68620  0.23959  Biso   1.000  H
  O274     1.0000 0.54379  0.70998  0.40091  Biso   1.000  O
  O275     1.0000 0.56200  0.80499  0.42102  Biso   1.000  O
  C283     1.0000 0.78570  0.94262  0.28191  Biso   1.000  C
  O276     1.0000 0.66338  0.81661  0.26422  Biso   1.000  O
  H226     1.0000 0.69639  0.74610  0.29229  Biso   1.000  H
  C284     1.0000 0.78880  0.90101  0.23081  Biso   1.000  C
  O277     1.0000 0.76409  0.91338  0.33061  Biso   1.000  O
  C285     1.0000 0.71779  0.84312  0.27550  Biso   1.000  C
  C286     1.0000 0.73561  0.87232  0.21962  Biso   1.000  C
  O278     1.0000 0.80910  0.93230  0.18160  Biso   1.000  O
  H227     1.0000 0.81460  0.87022  0.23989  Biso   1.000  H
  C287     1.0000 0.71179  0.88729  0.32380  Biso   1.000  C
  H228     1.0000 0.74551  0.81518  0.28768  Biso   1.000  H
  O279     1.0000 0.74190  0.83150  0.17419  Biso   1.000  O
  H229     1.0000 0.70721  0.89950  0.20730  Biso   1.000  H
  C288     1.0000 0.69501  0.86242  0.38128  Biso   1.000  C
  H230     1.0000 0.68201  0.91330  0.31240  Biso   1.000  H
  O280     1.0000 0.73402  0.82341  0.40160  Biso   1.000  O
  H231     1.0000 0.65860  0.84392  0.37710  Biso   1.000  H
  H232     1.0000 0.69190  0.89279  0.40961  Biso   1.000  H
  O281     1.0000 0.17659  0.26598  0.59840  Biso   1.000  O
  C289     1.0000 0.13758  0.30499  0.61872  Biso   1.000  C
  C290     1.0000 0.11271  0.28821  0.67620  Biso   1.000  C
  H233     1.0000 0.15608  0.34140  0.62290  Biso   1.000  H
  H234     1.0000 0.10721  0.30810  0.59039  Biso   1.000  H
  C291     1.0000 0.15688  0.28221  0.72450  Biso   1.000  C
  O282     1.0000 0.08662  0.23591  0.66939  Biso   1.000  O
  H235     1.0000 0.08670  0.31799  0.68760  Biso   1.000  H
  O283     1.0000 0.18339  0.33662  0.73578  Biso   1.000  O
  C292     1.0000 0.12768  0.26439  0.78038  Biso   1.000  C
  H236     1.0000 0.18482  0.25449  0.71232  Biso   1.000  H
  C293     1.0000 0.05738  0.21430  0.71809  Biso   1.000  C
  C294     1.0000 0.24002  0.34090  0.71839  Biso   1.000  C
  C295     1.0000 0.09899  0.21120  0.76919  Biso   1.000  C
  O284     1.0000 0.16850  0.25810  0.82581  Biso   1.000  O
  H237     1.0000 0.10050  0.29279  0.79270  Biso   1.000  H
  O285     1.0000 0.01468  0.25210  0.73410  Biso   1.000  O
  C296     1.0000 0.27370  0.36489  0.76949  Biso   1.000  C
  O286     1.0000 0.24639  0.37450  0.66969  Biso   1.000  O
  H238     1.0000 0.25390  0.30361  0.70771  Biso   1.000  H
  O287     1.0000 0.06770  0.19090  0.81840  Biso   1.000  O
  H239     1.0000 0.12978  0.18540  0.76011  Biso   1.000  H
  C297     1.0000 0.95868  0.23612  0.72299  Biso   1.000  C
  C298     1.0000 0.25948  0.42580  0.77862  Biso   1.000  C
  O288     1.0000 0.26590  0.33150  0.82068  Biso   1.000  O
  H240     1.0000 0.31380  0.36309  0.76041  Biso   1.000  H
  C299     1.0000 0.22890  0.43159  0.67589  Biso   1.000  C
  C300     1.0000 0.92580  0.24052  0.77862  Biso   1.000  C
  C301     1.0000 0.93159  0.27110  0.67589  Biso   1.000  C
  H241     1.0000 0.95852  0.19732  0.70900  Biso   1.000  H
  C302     1.0000 0.26388  0.45868  0.72299  Biso   1.000  C
  O289     1.0000 0.29660  0.44941  0.82240  Biso   1.000  O
  H242     1.0000 0.22051  0.42848  0.79171  Biso   1.000  H
  C303     1.0000 0.23238  0.46061  0.61738  Biso   1.000  C
  H243     1.0000 0.18960  0.43490  0.68799  Biso   1.000  H
  C304     1.0000 0.86489  0.22630  0.76949  Biso   1.000  C
  O290     1.0000 0.94941  0.20340  0.82240  Biso   1.000  O
  H244     1.0000 0.92848  0.27949  0.79171  Biso   1.000  H
  O291     1.0000 0.87450  0.25361  0.66969  Biso   1.000  O
  C305     1.0000 0.96061  0.26762  0.61738  Biso   1.000  C
  H245     1.0000 0.93490  0.31040  0.68799  Biso   1.000  H
  O292     1.0000 0.24790  0.51468  0.73410  Biso   1.000  O
  H246     1.0000 0.30268  0.45852  0.70900  Biso   1.000  H
  O293     1.0000 0.29002  0.45621  0.59909  Biso   1.000  O
  O294     1.0000 0.19501  0.43800  0.57898  Biso   1.000  O
  C306     1.0000 0.84090  0.25998  0.71839  Biso   1.000  C
  O295     1.0000 0.83150  0.23410  0.82068  Biso   1.000  O
  H247     1.0000 0.86309  0.18620  0.76041  Biso   1.000  H
  O296     1.0000 0.95621  0.20998  0.59909  Biso   1.000  O
  O297     1.0000 0.93800  0.30499  0.57898  Biso   1.000  O
  C307     1.0000 0.28570  0.55738  0.71809  Biso   1.000  C
  O298     1.0000 0.83662  0.31661  0.73578  Biso   1.000  O
  H248     1.0000 0.80361  0.24610  0.70771  Biso   1.000  H
  C308     1.0000 0.28880  0.59899  0.76919  Biso   1.000  C
  O299     1.0000 0.26409  0.58662  0.66939  Biso   1.000  O
  C309     1.0000 0.78221  0.34312  0.72450  Biso   1.000  C
  C310     1.0000 0.23561  0.62768  0.78038  Biso   1.000  C
  O300     1.0000 0.30910  0.56770  0.81840  Biso   1.000  O
  H249     1.0000 0.31460  0.62978  0.76011  Biso   1.000  H
  C311     1.0000 0.21179  0.61271  0.67620  Biso   1.000  C
  C312     1.0000 0.76439  0.37232  0.78038  Biso   1.000  C
  C313     1.0000 0.78821  0.38729  0.67620  Biso   1.000  C
  H250     1.0000 0.75449  0.31518  0.71232  Biso   1.000  H
  C314     1.0000 0.21779  0.65688  0.72450  Biso   1.000  C
  O301     1.0000 0.24190  0.66850  0.82581  Biso   1.000  O
  H251     1.0000 0.20721  0.60050  0.79270  Biso   1.000  H
  C315     1.0000 0.19501  0.63758  0.61872  Biso   1.000  C
  H252     1.0000 0.18201  0.58670  0.68760  Biso   1.000  H
  C316     1.0000 0.71120  0.40101  0.76919  Biso   1.000  C
  O302     1.0000 0.75810  0.33150  0.82581  Biso   1.000  O
  H253     1.0000 0.79279  0.39950  0.79270  Biso   1.000  H
  O303     1.0000 0.73591  0.41338  0.66939  Biso   1.000  O
  C317     1.0000 0.80499  0.36242  0.61872  Biso   1.000  C
  H254     1.0000 0.81799  0.41330  0.68760  Biso   1.000  H
  O304     1.0000 0.16338  0.68339  0.73578  Biso   1.000  O
  H255     1.0000 0.24551  0.68482  0.71232  Biso   1.000  H
  O305     1.0000 0.23402  0.67659  0.59840  Biso   1.000  O
  H256     1.0000 0.15860  0.65608  0.62290  Biso   1.000  H
  H257     1.0000 0.19190  0.60721  0.59039  Biso   1.000  H
  C318     1.0000 0.71430  0.44262  0.71809  Biso   1.000  C
  O306     1.0000 0.69090  0.43230  0.81840  Biso   1.000  O
  H258     1.0000 0.68540  0.37022  0.76011  Biso   1.000  H
  O307     1.0000 0.76598  0.32341  0.59840  Biso   1.000  O
  H259     1.0000 0.84140  0.34392  0.62290  Biso   1.000  H
  H260     1.0000 0.80810  0.39279  0.59039  Biso   1.000  H
  C319     1.0000 0.15910  0.74002  0.71839  Biso   1.000  C
  O308     1.0000 0.75210  0.48532  0.73410  Biso   1.000  O
  C320     1.0000 0.13511  0.77370  0.76949  Biso   1.000  C
  O309     1.0000 0.12550  0.74639  0.66969  Biso   1.000  O
  H261     1.0000 0.19639  0.75390  0.70771  Biso   1.000  H
  C321     1.0000 0.73612  0.54132  0.72299  Biso   1.000  C
  C322     1.0000 0.07420  0.75948  0.77862  Biso   1.000  C
  O310     1.0000 0.16850  0.76590  0.82068  Biso   1.000  O
  H262     1.0000 0.13691  0.81380  0.76041  Biso   1.000  H
  C323     1.0000 0.06841  0.72890  0.67589  Biso   1.000  C
  C324     1.0000 0.74052  0.57420  0.77862  Biso   1.000  C
  C325     1.0000 0.77110  0.56841  0.67589  Biso   1.000  C
  H263     1.0000 0.69732  0.54148  0.70900  Biso   1.000  H
  C326     1.0000 0.04132  0.76388  0.72299  Biso   1.000  C
  O311     1.0000 0.05059  0.79660  0.82240  Biso   1.000  O
  H264     1.0000 0.07152  0.72051  0.79171  Biso   1.000  H
  C327     1.0000 0.03939  0.73238  0.61738  Biso   1.000  C
  H265     1.0000 0.06510  0.68960  0.68799  Biso   1.000  H
  C328     1.0000 0.72630  0.63511  0.76949  Biso   1.000  C
  O312     1.0000 0.70340  0.55059  0.82240  Biso   1.000  O
  H266     1.0000 0.77949  0.57152  0.79171  Biso   1.000  H
  O313     1.0000 0.75361  0.62550  0.66969  Biso   1.000  O
  C329     1.0000 0.76762  0.53939  0.61738  Biso   1.000  C
  H267     1.0000 0.81040  0.56510  0.68799  Biso   1.000  H
  H268     1.0000 0.04148  0.80268  0.70900  Biso   1.000  H
  O314     1.0000 0.98532  0.74790  0.73410  Biso   1.000  O
  O315     1.0000 0.04379  0.79002  0.59909  Biso   1.000  O
  O316     1.0000 0.06200  0.69501  0.57898  Biso   1.000  O
  C330     1.0000 0.75998  0.65910  0.71839  Biso   1.000  C
  O317     1.0000 0.73410  0.66850  0.82068  Biso   1.000  O
  H269     1.0000 0.68620  0.63691  0.76041  Biso   1.000  H
  O318     1.0000 0.70998  0.54379  0.59909  Biso   1.000  O
  O319     1.0000 0.80499  0.56200  0.57898  Biso   1.000  O
  C331     1.0000 0.94262  0.78570  0.71809  Biso   1.000  C
  O320     1.0000 0.81661  0.66338  0.73578  Biso   1.000  O
  H270     1.0000 0.74610  0.69639  0.70771  Biso   1.000  H
  C332     1.0000 0.90101  0.78880  0.76919  Biso   1.000  C
  O321     1.0000 0.91338  0.76409  0.66939  Biso   1.000  O
  C333     1.0000 0.84312  0.71779  0.72450  Biso   1.000  C
  C334     1.0000 0.87232  0.73561  0.78038  Biso   1.000  C
  O322     1.0000 0.93230  0.80910  0.81840  Biso   1.000  O
  H271     1.0000 0.87022  0.81460  0.76011  Biso   1.000  H
  C335     1.0000 0.88729  0.71179  0.67620  Biso   1.000  C
  H272     1.0000 0.81518  0.74551  0.71232  Biso   1.000  H
  O323     1.0000 0.83150  0.74190  0.82581  Biso   1.000  O
  H273     1.0000 0.89950  0.70721  0.79270  Biso   1.000  H
  C336     1.0000 0.86242  0.69501  0.61872  Biso   1.000  C
  H274     1.0000 0.91330  0.68201  0.68760  Biso   1.000  H
  O324     1.0000 0.82341  0.73402  0.59840  Biso   1.000  O
  H275     1.0000 0.84392  0.65860  0.62290  Biso   1.000  H
  H276     1.0000 0.89279  0.69190  0.59039  Biso   1.000  H
  O325     1.0000 0.17659  0.26598  0.59840  Biso   1.000  O
  C337     1.0000 0.13758  0.30499  0.61872  Biso   1.000  C
  C338     1.0000 0.11271  0.28821  0.67620  Biso   1.000  C
  H277     1.0000 0.15608  0.34140  0.62290  Biso   1.000  H
  H278     1.0000 0.10721  0.30810  0.59039  Biso   1.000  H
  C339     1.0000 0.15688  0.28221  0.72450  Biso   1.000  C
  O326     1.0000 0.08662  0.23591  0.66939  Biso   1.000  O
  H279     1.0000 0.08670  0.31799  0.68760  Biso   1.000  H
  O327     1.0000 0.18339  0.33662  0.73578  Biso   1.000  O
  C340     1.0000 0.12768  0.26439  0.78038  Biso   1.000  C
  H280     1.0000 0.18482  0.25449  0.71232  Biso   1.000  H
  C341     1.0000 0.05738  0.21430  0.71809  Biso   1.000  C
  C342     1.0000 0.24002  0.34090  0.71839  Biso   1.000  C
  C343     1.0000 0.09899  0.21120  0.76919  Biso   1.000  C
  O328     1.0000 0.16850  0.25810  0.82581  Biso   1.000  O
  H281     1.0000 0.10050  0.29279  0.79270  Biso   1.000  H
  O329     1.0000 0.01468  0.25210  0.73410  Biso   1.000  O
  C344     1.0000 0.27370  0.36489  0.76949  Biso   1.000  C
  O330     1.0000 0.24639  0.37450  0.66969  Biso   1.000  O
  H282     1.0000 0.25390  0.30361  0.70771  Biso   1.000  H
  O331     1.0000 0.06770  0.19090  0.81840  Biso   1.000  O
  H283     1.0000 0.12978  0.18540  0.76011  Biso   1.000  H
  C345     1.0000 0.95868  0.23612  0.72299  Biso   1.000  C
  C346     1.0000 0.25948  0.42580  0.77862  Biso   1.000  C
  O332     1.0000 0.26590  0.33150  0.82068  Biso   1.000  O
  H284     1.0000 0.31380  0.36309  0.76041  Biso   1.000  H
  C347     1.0000 0.22890  0.43159  0.67589  Biso   1.000  C
  C348     1.0000 0.92580  0.24052  0.77862  Biso   1.000  C
  C349     1.0000 0.93159  0.27110  0.67589  Biso   1.000  C
  H285     1.0000 0.95852  0.19732  0.70900  Biso   1.000  H
  C350     1.0000 0.26388  0.45868  0.72299  Biso   1.000  C
  O333     1.0000 0.29660  0.44941  0.82240  Biso   1.000  O
  H286     1.0000 0.22051  0.42848  0.79171  Biso   1.000  H
  C351     1.0000 0.23238  0.46061  0.61738  Biso   1.000  C
  H287     1.0000 0.18960  0.43490  0.68799  Biso   1.000  H
  C352     1.0000 0.86489  0.22630  0.76949  Biso   1.000  C
  O334     1.0000 0.94941  0.20340  0.82240  Biso   1.000  O
  H288     1.0000 0.92848  0.27949  0.79171  Biso   1.000  H
  O335     1.0000 0.87450  0.25361  0.66969  Biso   1.000  O
  C353     1.0000 0.96061  0.26762  0.61738  Biso   1.000  C
  H289     1.0000 0.93490  0.31040  0.68799  Biso   1.000  H
  O336     1.0000 0.24790  0.51468  0.73410  Biso   1.000  O
  H290     1.0000 0.30268  0.45852  0.70900  Biso   1.000  H
  O337     1.0000 0.29002  0.45621  0.59909  Biso   1.000  O
  O338     1.0000 0.19501  0.43800  0.57898  Biso   1.000  O
  C354     1.0000 0.84090  0.25998  0.71839  Biso   1.000  C
  O339     1.0000 0.83150  0.23410  0.82068  Biso   1.000  O
  H291     1.0000 0.86309  0.18620  0.76041  Biso   1.000  H
  O340     1.0000 0.95621  0.20998  0.59909  Biso   1.000  O
  O341     1.0000 0.93800  0.30499  0.57898  Biso   1.000  O
  C355     1.0000 0.28570  0.55738  0.71809  Biso   1.000  C
  O342     1.0000 0.83662  0.31661  0.73578  Biso   1.000  O
  H292     1.0000 0.80361  0.24610  0.70771  Biso   1.000  H
  C356     1.0000 0.28880  0.59899  0.76919  Biso   1.000  C
  O343     1.0000 0.26409  0.58662  0.66939  Biso   1.000  O
  C357     1.0000 0.78221  0.34312  0.72450  Biso   1.000  C
  C358     1.0000 0.23561  0.62768  0.78038  Biso   1.000  C
  O344     1.0000 0.30910  0.56770  0.81840  Biso   1.000  O
  H293     1.0000 0.31460  0.62978  0.76011  Biso   1.000  H
  C359     1.0000 0.21179  0.61271  0.67620  Biso   1.000  C
  C360     1.0000 0.76439  0.37232  0.78038  Biso   1.000  C
  C361     1.0000 0.78821  0.38729  0.67620  Biso   1.000  C
  H294     1.0000 0.75449  0.31518  0.71232  Biso   1.000  H
  C362     1.0000 0.21779  0.65688  0.72450  Biso   1.000  C
  O345     1.0000 0.24190  0.66850  0.82581  Biso   1.000  O
  H295     1.0000 0.20721  0.60050  0.79270  Biso   1.000  H
  C363     1.0000 0.19501  0.63758  0.61872  Biso   1.000  C
  H296     1.0000 0.18201  0.58670  0.68760  Biso   1.000  H
  C364     1.0000 0.71120  0.40101  0.76919  Biso   1.000  C
  O346     1.0000 0.75810  0.33150  0.82581  Biso   1.000  O
  H297     1.0000 0.79279  0.39950  0.79270  Biso   1.000  H
  O347     1.0000 0.73591  0.41338  0.66939  Biso   1.000  O
  C365     1.0000 0.80499  0.36242  0.61872  Biso   1.000  C
  H298     1.0000 0.81799  0.41330  0.68760  Biso   1.000  H
  O348     1.0000 0.16338  0.68339  0.73578  Biso   1.000  O
  H299     1.0000 0.24551  0.68482  0.71232  Biso   1.000  H
  O349     1.0000 0.23402  0.67659  0.59840  Biso   1.000  O
  H300     1.0000 0.15860  0.65608  0.62290  Biso   1.000  H
  H301     1.0000 0.19190  0.60721  0.59039  Biso   1.000  H
  C366     1.0000 0.71430  0.44262  0.71809  Biso   1.000  C
  O350     1.0000 0.69090  0.43230  0.81840  Biso   1.000  O
  H302     1.0000 0.68540  0.37022  0.76011  Biso   1.000  H
  O351     1.0000 0.76598  0.32341  0.59840  Biso   1.000  O
  H303     1.0000 0.84140  0.34392  0.62290  Biso   1.000  H
  H304     1.0000 0.80810  0.39279  0.59039  Biso   1.000  H
  C367     1.0000 0.15910  0.74002  0.71839  Biso   1.000  C
  O352     1.0000 0.75210  0.48532  0.73410  Biso   1.000  O
  C368     1.0000 0.13511  0.77370  0.76949  Biso   1.000  C
  O353     1.0000 0.12550  0.74639  0.66969  Biso   1.000  O
  H305     1.0000 0.19639  0.75390  0.70771  Biso   1.000  H
  C369     1.0000 0.73612  0.54132  0.72299  Biso   1.000  C
  C370     1.0000 0.07420  0.75948  0.77862  Biso   1.000  C
  O354     1.0000 0.16850  0.76590  0.82068  Biso   1.000  O
  H306     1.0000 0.13691  0.81380  0.76041  Biso   1.000  H
  C371     1.0000 0.06841  0.72890  0.67589  Biso   1.000  C
  C372     1.0000 0.74052  0.57420  0.77862  Biso   1.000  C
  C373     1.0000 0.77110  0.56841  0.67589  Biso   1.000  C
  H307     1.0000 0.69732  0.54148  0.70900  Biso   1.000  H
  C374     1.0000 0.04132  0.76388  0.72299  Biso   1.000  C
  O355     1.0000 0.05059  0.79660  0.82240  Biso   1.000  O
  H308     1.0000 0.07152  0.72051  0.79171  Biso   1.000  H
  C375     1.0000 0.03939  0.73238  0.61738  Biso   1.000  C
  H309     1.0000 0.06510  0.68960  0.68799  Biso   1.000  H
  C376     1.0000 0.72630  0.63511  0.76949  Biso   1.000  C
  O356     1.0000 0.70340  0.55059  0.82240  Biso   1.000  O
  H310     1.0000 0.77949  0.57152  0.79171  Biso   1.000  H
  O357     1.0000 0.75361  0.62550  0.66969  Biso   1.000  O
  C377     1.0000 0.76762  0.53939  0.61738  Biso   1.000  C
  H311     1.0000 0.81040  0.56510  0.68799  Biso   1.000  H
  H312     1.0000 0.04148  0.80268  0.70900  Biso   1.000  H
  O358     1.0000 0.98532  0.74790  0.73410  Biso   1.000  O
  O359     1.0000 0.04379  0.79002  0.59909  Biso   1.000  O
  O360     1.0000 0.06200  0.69501  0.57898  Biso   1.000  O
  C378     1.0000 0.75998  0.65910  0.71839  Biso   1.000  C
  O361     1.0000 0.73410  0.66850  0.82068  Biso   1.000  O
  H313     1.0000 0.68620  0.63691  0.76041  Biso   1.000  H
  O362     1.0000 0.70998  0.54379  0.59909  Biso   1.000  O
  O363     1.0000 0.80499  0.56200  0.57898  Biso   1.000  O
  C379     1.0000 0.94262  0.78570  0.71809  Biso   1.000  C
  O364     1.0000 0.81661  0.66338  0.73578  Biso   1.000  O
  H314     1.0000 0.74610  0.69639  0.70771  Biso   1.000  H
  C380     1.0000 0.90101  0.78880  0.76919  Biso   1.000  C
  O365     1.0000 0.91338  0.76409  0.66939  Biso   1.000  O
  C381     1.0000 0.84312  0.71779  0.72450  Biso   1.000  C
  C382     1.0000 0.87232  0.73561  0.78038  Biso   1.000  C
  O366     1.0000 0.93230  0.80910  0.81840  Biso   1.000  O
  H315     1.0000 0.87022  0.81460  0.76011  Biso   1.000  H
  C383     1.0000 0.88729  0.71179  0.67620  Biso   1.000  C
  H316     1.0000 0.81518  0.74551  0.71232  Biso   1.000  H
  O367     1.0000 0.83150  0.74190  0.82581  Biso   1.000  O
  H317     1.0000 0.89950  0.70721  0.79270  Biso   1.000  H
  C384     1.0000 0.86242  0.69501  0.61872  Biso   1.000  C
  H318     1.0000 0.91330  0.68201  0.68760  Biso   1.000  H
  O368     1.0000 0.82341  0.73402  0.59840  Biso   1.000  O
  H319     1.0000 0.84392  0.65860  0.62290  Biso   1.000  H
  H320     1.0000 0.89279  0.69190  0.59039  Biso   1.000  H
  O369     1.0000 0.34929  0.25109  0.84419  Biso   1.000  O
  C385     1.0000 0.33909  0.21112  0.89112  Biso   1.000  C
  C386     1.0000 0.36552  0.23272  0.94700  Biso   1.000  C
  C387     1.0000 0.27299  0.20512  0.89891  Biso   1.000  C
  H321     1.0000 0.35591  0.17471  0.88190  Biso   1.000  H
  O370     1.0000 0.42378  0.23461  0.93809  Biso   1.000  O
  C388     1.0000 0.35029  0.19190  0.99630  Biso   1.000  C
  H322     1.0000 0.35172  0.27009  0.95742  Biso   1.000  H
  C389     1.0000 0.26309  0.16829  0.95040  Biso   1.000  C
  O371     1.0000 0.24950  0.18100  0.84940  Biso   1.000  O
  H323     1.0000 0.25549  0.24182  0.90459  Biso   1.000  H
  C390     1.0000 0.45008  0.28742  0.94980  Biso   1.000  C
  H324     1.0000 0.36648  0.15499  0.98842  Biso   1.000  H
  C391     1.0000 0.37429  0.21338  0.05420  Biso   1.000  C
  O372     1.0000 0.29039  0.18821  0.00000  Biso   1.000  O
  O373     1.0000 0.27999  0.11250  0.93762  Biso   1.000  O
  H325     1.0000 0.22282  0.16892  0.95880  Biso   1.000  H
  C392     1.0000 0.48742  0.30398  0.89878  Biso   1.000  C
  O374     1.0000 0.48549  0.28150  0.99948  Biso   1.000  O
  O375     1.0000 0.35780  0.27219  0.06342  Biso   1.000  O
  O376     1.0000 0.36162  0.16590  0.09588  Biso   1.000  O
  C393     1.0000 0.23968  0.06841  0.94558  Biso   1.000  C
  C394     1.0000 0.53591  0.26401  0.89129  Biso   1.000  C
  O377     1.0000 0.45218  0.30512  0.84699  Biso   1.000  O
  H326     1.0000 0.50382  0.34098  0.90589  Biso   1.000  H
  C395     1.0000 0.53100  0.24249  0.99578  Biso   1.000  C
  C396     1.0000 0.23599  0.03591  0.89129  Biso   1.000  C
  C397     1.0000 0.25751  0.03100  0.99578  Biso   1.000  C
  H327     1.0000 0.20281  0.08402  0.95479  Biso   1.000  H
  C398     1.0000 0.56841  0.26032  0.94558  Biso   1.000  C
  O378     1.0000 0.57081  0.28419  0.84432  Biso   1.000  O
  H328     1.0000 0.52219  0.22630  0.88199  Biso   1.000  H
  H329     1.0000 0.51711  0.20461  0.98812  Biso   1.000  H
  C399     1.0000 0.56149  0.23750  0.05209  Biso   1.000  C
  O379     1.0000 0.21581  0.07081  0.84432  Biso   1.000  O
  H330     1.0000 0.27370  0.02219  0.88199  Biso   1.000  H
  C400     1.0000 0.19602  0.98742  0.89878  Biso   1.000  C
  H331     1.0000 0.29539  0.01711  0.98812  Biso   1.000  H
  O380     1.0000 0.21850  0.98549  0.99948  Biso   1.000  O
  C401     1.0000 0.26250  0.06149  0.05209  Biso   1.000  C
  O381     1.0000 0.61250  0.22001  0.93762  Biso   1.000  O
  H332     1.0000 0.58402  0.29719  0.95479  Biso   1.000  H
  O382     1.0000 0.59119  0.28930  0.06221  Biso   1.000  O
  O383     1.0000 0.52601  0.21799  0.09502  Biso   1.000  O
  H333     1.0000 0.15902  0.00382  0.90589  Biso   1.000  H
  C402     1.0000 0.21258  0.95008  0.94980  Biso   1.000  C
  O384     1.0000 0.19488  0.95218  0.84699  Biso   1.000  O
  O385     1.0000 0.21070  0.09119  0.06221  Biso   1.000  O
  O386     1.0000 0.28201  0.02601  0.09502  Biso   1.000  O
  C403     1.0000 0.66829  0.23691  0.95040  Biso   1.000  C
  O387     1.0000 0.26539  0.92378  0.93809  Biso   1.000  O
  C404     1.0000 0.70512  0.22701  0.89891  Biso   1.000  C
  H334     1.0000 0.66892  0.27718  0.95880  Biso   1.000  H
  O388     1.0000 0.68821  0.20961  0.00000  Biso   1.000  O
  C405     1.0000 0.26728  0.86552  0.94700  Biso   1.000  C
  C406     1.0000 0.71112  0.16091  0.89112  Biso   1.000  C
  O389     1.0000 0.68100  0.25050  0.84940  Biso   1.000  O
  H335     1.0000 0.74182  0.24451  0.90459  Biso   1.000  H
  C407     1.0000 0.69190  0.14971  0.99630  Biso   1.000  C
  C408     1.0000 0.28888  0.83909  0.89112  Biso   1.000  C
  C409     1.0000 0.30810  0.85029  0.99630  Biso   1.000  C
  H336     1.0000 0.22991  0.85172  0.95742  Biso   1.000  H
  C410     1.0000 0.73272  0.13448  0.94700  Biso   1.000  C
  O390     1.0000 0.75109  0.15071  0.84419  Biso   1.000  O
  H337     1.0000 0.67471  0.14409  0.88190  Biso   1.000  H
  H338     1.0000 0.65499  0.13352  0.98842  Biso   1.000  H
  C411     1.0000 0.71338  0.12571  0.05420  Biso   1.000  C
  C412     1.0000 0.29488  0.77299  0.89891  Biso   1.000  C
  O391     1.0000 0.24891  0.84929  0.84419  Biso   1.000  O
  H339     1.0000 0.32529  0.85591  0.88190  Biso   1.000  H
  H340     1.0000 0.34501  0.86648  0.98842  Biso   1.000  H
  O392     1.0000 0.31179  0.79039  0.00000  Biso   1.000  O
  C413     1.0000 0.28662  0.87429  0.05420  Biso   1.000  C
  O393     1.0000 0.73461  0.07622  0.93809  Biso   1.000  O
  H341     1.0000 0.77009  0.14828  0.95742  Biso   1.000  H
  O394     1.0000 0.77219  0.14220  0.06342  Biso   1.000  O
  O395     1.0000 0.66590  0.13838  0.09588  Biso   1.000  O
  C414     1.0000 0.33171  0.76309  0.95040  Biso   1.000  C
  O396     1.0000 0.31900  0.74950  0.84940  Biso   1.000  O
  H342     1.0000 0.25818  0.75549  0.90459  Biso   1.000  H
  O397     1.0000 0.22781  0.85780  0.06342  Biso   1.000  O
  O398     1.0000 0.33410  0.86162  0.09588  Biso   1.000  O
  C415     1.0000 0.78742  0.04992  0.94980  Biso   1.000  C
  O399     1.0000 0.38750  0.77999  0.93762  Biso   1.000  O
  H343     1.0000 0.33108  0.72282  0.95880  Biso   1.000  H
  C416     1.0000 0.80398  0.01258  0.89878  Biso   1.000  C
  O400     1.0000 0.78150  0.01451  0.99948  Biso   1.000  O
  C417     1.0000 0.43159  0.73968  0.94558  Biso   1.000  C
  O401     1.0000 0.80512  0.04782  0.84699  Biso   1.000  O
  C418     1.0000 0.76401  0.96409  0.89129  Biso   1.000  C
  H344     1.0000 0.84098  0.99618  0.90589  Biso   1.000  H
  C419     1.0000 0.74249  0.96900  0.99578  Biso   1.000  C
  C420     1.0000 0.46409  0.73599  0.89129  Biso   1.000  C
  C421     1.0000 0.46900  0.75751  0.99578  Biso   1.000  C
  H345     1.0000 0.41598  0.70281  0.95479  Biso   1.000  H
  C422     1.0000 0.76032  0.93159  0.94558  Biso   1.000  C
  O402     1.0000 0.78419  0.92919  0.84432  Biso   1.000  O
  H346     1.0000 0.72630  0.97781  0.88199  Biso   1.000  H
  H347     1.0000 0.70461  0.98289  0.98812  Biso   1.000  H
  C423     1.0000 0.73750  0.93851  0.05209  Biso   1.000  C
  C424     1.0000 0.51258  0.69602  0.89878  Biso   1.000  C
  O403     1.0000 0.42919  0.71581  0.84432  Biso   1.000  O
  H348     1.0000 0.47781  0.77370  0.88199  Biso   1.000  H
  O404     1.0000 0.51451  0.71850  0.99948  Biso   1.000  O
  H349     1.0000 0.48289  0.79539  0.98812  Biso   1.000  H
  C425     1.0000 0.43851  0.76250  0.05209  Biso   1.000  C
  H350     1.0000 0.79719  0.91598  0.95479  Biso   1.000  H
  O405     1.0000 0.72001  0.88750  0.93762  Biso   1.000  O
  O406     1.0000 0.78930  0.90881  0.06221  Biso   1.000  O
  O407     1.0000 0.71799  0.97399  0.09502  Biso   1.000  O
  C426     1.0000 0.54992  0.71258  0.94980  Biso   1.000  C
  O408     1.0000 0.54782  0.69488  0.84699  Biso   1.000  O
  H351     1.0000 0.49618  0.65902  0.90589  Biso   1.000  H
  O409     1.0000 0.40881  0.71070  0.06221  Biso   1.000  O
  O410     1.0000 0.47399  0.78201  0.09502  Biso   1.000  O
  C427     1.0000 0.73691  0.83171  0.95040  Biso   1.000  C
  O411     1.0000 0.57622  0.76539  0.93809  Biso   1.000  O
  C428     1.0000 0.72701  0.79488  0.89891  Biso   1.000  C
  H352     1.0000 0.77718  0.83108  0.95880  Biso   1.000  H
  O412     1.0000 0.70961  0.81179  0.00000  Biso   1.000  O
  C429     1.0000 0.63448  0.76728  0.94700  Biso   1.000  C
  C430     1.0000 0.66091  0.78888  0.89112  Biso   1.000  C
  O413     1.0000 0.75050  0.81900  0.84940  Biso   1.000  O
  H353     1.0000 0.74451  0.75818  0.90459  Biso   1.000  H
  C431     1.0000 0.64971  0.80810  0.99630  Biso   1.000  C
  H354     1.0000 0.64828  0.72991  0.95742  Biso   1.000  H
  O414     1.0000 0.65071  0.74891  0.84419  Biso   1.000  O
  H355     1.0000 0.64409  0.82529  0.88190  Biso   1.000  H
  H356     1.0000 0.63352  0.84501  0.98842  Biso   1.000  H
  C432     1.0000 0.62571  0.78662  0.05420  Biso   1.000  C
  O415     1.0000 0.64220  0.72781  0.06342  Biso   1.000  O
  O416     1.0000 0.63838  0.83410  0.09588  Biso   1.000  O
  O417     1.0000 0.34929  0.25109  0.84419  Biso   1.000  O
  C433     1.0000 0.33909  0.21112  0.89112  Biso   1.000  C
  C434     1.0000 0.36552  0.23272  0.94700  Biso   1.000  C
  C435     1.0000 0.27299  0.20512  0.89891  Biso   1.000  C
  H357     1.0000 0.35591  0.17471  0.88190  Biso   1.000  H
  O418     1.0000 0.42378  0.23461  0.93809  Biso   1.000  O
  C436     1.0000 0.35029  0.19190  0.99630  Biso   1.000  C
  H358     1.0000 0.35172  0.27009  0.95742  Biso   1.000  H
  C437     1.0000 0.26309  0.16829  0.95040  Biso   1.000  C
  O419     1.0000 0.24950  0.18100  0.84940  Biso   1.000  O
  H359     1.0000 0.25549  0.24182  0.90459  Biso   1.000  H
  C438     1.0000 0.45008  0.28742  0.94980  Biso   1.000  C
  H360     1.0000 0.36648  0.15499  0.98842  Biso   1.000  H
  C439     1.0000 0.37429  0.21338  0.05420  Biso   1.000  C
  O420     1.0000 0.29039  0.18821  0.00000  Biso   1.000  O
  O421     1.0000 0.27999  0.11250  0.93762  Biso   1.000  O
  H361     1.0000 0.22282  0.16892  0.95880  Biso   1.000  H
  C440     1.0000 0.48742  0.30398  0.89878  Biso   1.000  C
  O422     1.0000 0.48549  0.28150  0.99948  Biso   1.000  O
  O423     1.0000 0.35780  0.27219  0.06342  Biso   1.000  O
  O424     1.0000 0.36162  0.16590  0.09588  Biso   1.000  O
  C441     1.0000 0.23968  0.06841  0.94558  Biso   1.000  C
  C442     1.0000 0.53591  0.26401  0.89129  Biso   1.000  C
  O425     1.0000 0.45218  0.30512  0.84699  Biso   1.000  O
  H362     1.0000 0.50382  0.34098  0.90589  Biso   1.000  H
  C443     1.0000 0.53100  0.24249  0.99578  Biso   1.000  C
  C444     1.0000 0.23599  0.03591  0.89129  Biso   1.000  C
  C445     1.0000 0.25751  0.03100  0.99578  Biso   1.000  C
  H363     1.0000 0.20281  0.08402  0.95479  Biso   1.000  H
  C446     1.0000 0.56841  0.26032  0.94558  Biso   1.000  C
  O426     1.0000 0.57081  0.28419  0.84432  Biso   1.000  O
  H364     1.0000 0.52219  0.22630  0.88199  Biso   1.000  H
  H365     1.0000 0.51711  0.20461  0.98812  Biso   1.000  H
  C447     1.0000 0.56149  0.23750  0.05209  Biso   1.000  C
  O427     1.0000 0.21581  0.07081  0.84432  Biso   1.000  O
  H366     1.0000 0.27370  0.02219  0.88199  Biso   1.000  H
  C448     1.0000 0.19602  0.98742  0.89878  Biso   1.000  C
  H367     1.0000 0.29539  0.01711  0.98812  Biso   1.000  H
  O428     1.0000 0.21850  0.98549  0.99948  Biso   1.000  O
  C449     1.0000 0.26250  0.06149  0.05209  Biso   1.000  C
  O429     1.0000 0.61250  0.22001  0.93762  Biso   1.000  O
  H368     1.0000 0.58402  0.29719  0.95479  Biso   1.000  H
  O430     1.0000 0.59119  0.28930  0.06221  Biso   1.000  O
  O431     1.0000 0.52601  0.21799  0.09502  Biso   1.000  O
  H369     1.0000 0.15902  0.00382  0.90589  Biso   1.000  H
  C450     1.0000 0.21258  0.95008  0.94980  Biso   1.000  C
  O432     1.0000 0.19488  0.95218  0.84699  Biso   1.000  O
  O433     1.0000 0.21070  0.09119  0.06221  Biso   1.000  O
  O434     1.0000 0.28201  0.02601  0.09502  Biso   1.000  O
  C451     1.0000 0.66829  0.23691  0.95040  Biso   1.000  C
  O435     1.0000 0.26539  0.92378  0.93809  Biso   1.000  O
  C452     1.0000 0.70512  0.22701  0.89891  Biso   1.000  C
  H370     1.0000 0.66892  0.27718  0.95880  Biso   1.000  H
  O436     1.0000 0.68821  0.20961  0.00000  Biso   1.000  O
  C453     1.0000 0.26728  0.86552  0.94700  Biso   1.000  C
  C454     1.0000 0.71112  0.16091  0.89112  Biso   1.000  C
  O437     1.0000 0.68100  0.25050  0.84940  Biso   1.000  O
  H371     1.0000 0.74182  0.24451  0.90459  Biso   1.000  H
  C455     1.0000 0.69190  0.14971  0.99630  Biso   1.000  C
  C456     1.0000 0.28888  0.83909  0.89112  Biso   1.000  C
  C457     1.0000 0.30810  0.85029  0.99630  Biso   1.000  C
  H372     1.0000 0.22991  0.85172  0.95742  Biso   1.000  H
  C458     1.0000 0.73272  0.13448  0.94700  Biso   1.000  C
  O438     1.0000 0.75109  0.15071  0.84419  Biso   1.000  O
  H373     1.0000 0.67471  0.14409  0.88190  Biso   1.000  H
  H374     1.0000 0.65499  0.13352  0.98842  Biso   1.000  H
  C459     1.0000 0.71338  0.12571  0.05420  Biso   1.000  C
  C460     1.0000 0.29488  0.77299  0.89891  Biso   1.000  C
  O439     1.0000 0.24891  0.84929  0.84419  Biso   1.000  O
  H375     1.0000 0.32529  0.85591  0.88190  Biso   1.000  H
  H376     1.0000 0.34501  0.86648  0.98842  Biso   1.000  H
  O440     1.0000 0.31179  0.79039  0.00000  Biso   1.000  O
  C461     1.0000 0.28662  0.87429  0.05420  Biso   1.000  C
  O441     1.0000 0.73461  0.07622  0.93809  Biso   1.000  O
  H377     1.0000 0.77009  0.14828  0.95742  Biso   1.000  H
  O442     1.0000 0.77219  0.14220  0.06342  Biso   1.000  O
  O443     1.0000 0.66590  0.13838  0.09588  Biso   1.000  O
  C462     1.0000 0.33171  0.76309  0.95040  Biso   1.000  C
  O444     1.0000 0.31900  0.74950  0.84940  Biso   1.000  O
  H378     1.0000 0.25818  0.75549  0.90459  Biso   1.000  H
  O445     1.0000 0.22781  0.85780  0.06342  Biso   1.000  O
  O446     1.0000 0.33410  0.86162  0.09588  Biso   1.000  O
  C463     1.0000 0.78742  0.04992  0.94980  Biso   1.000  C
  O447     1.0000 0.38750  0.77999  0.93762  Biso   1.000  O
  H379     1.0000 0.33108  0.72282  0.95880  Biso   1.000  H
  C464     1.0000 0.80398  0.01258  0.89878  Biso   1.000  C
  O448     1.0000 0.78150  0.01451  0.99948  Biso   1.000  O
  C465     1.0000 0.43159  0.73968  0.94558  Biso   1.000  C
  O449     1.0000 0.80512  0.04782  0.84699  Biso   1.000  O
  C466     1.0000 0.76401  0.96409  0.89129  Biso   1.000  C
  H380     1.0000 0.84098  0.99618  0.90589  Biso   1.000  H
  C467     1.0000 0.74249  0.96900  0.99578  Biso   1.000  C
  C468     1.0000 0.46409  0.73599  0.89129  Biso   1.000  C
  C469     1.0000 0.46900  0.75751  0.99578  Biso   1.000  C
  H381     1.0000 0.41598  0.70281  0.95479  Biso   1.000  H
  C470     1.0000 0.76032  0.93159  0.94558  Biso   1.000  C
  O450     1.0000 0.78419  0.92919  0.84432  Biso   1.000  O
  H382     1.0000 0.72630  0.97781  0.88199  Biso   1.000  H
  H383     1.0000 0.70461  0.98289  0.98812  Biso   1.000  H
  C471     1.0000 0.73750  0.93851  0.05209  Biso   1.000  C
  C472     1.0000 0.51258  0.69602  0.89878  Biso   1.000  C
  O451     1.0000 0.42919  0.71581  0.84432  Biso   1.000  O
  H384     1.0000 0.47781  0.77370  0.88199  Biso   1.000  H
  O452     1.0000 0.51451  0.71850  0.99948  Biso   1.000  O
  H385     1.0000 0.48289  0.79539  0.98812  Biso   1.000  H
  C473     1.0000 0.43851  0.76250  0.05209  Biso   1.000  C
  H386     1.0000 0.79719  0.91598  0.95479  Biso   1.000  H
  O453     1.0000 0.72001  0.88750  0.93762  Biso   1.000  O
  O454     1.0000 0.78930  0.90881  0.06221  Biso   1.000  O
  O455     1.0000 0.71799  0.97399  0.09502  Biso   1.000  O
  C474     1.0000 0.54992  0.71258  0.94980  Biso   1.000  C
  O456     1.0000 0.54782  0.69488  0.84699  Biso   1.000  O
  H387     1.0000 0.49618  0.65902  0.90589  Biso   1.000  H
  O457     1.0000 0.40881  0.71070  0.06221  Biso   1.000  O
  O458     1.0000 0.47399  0.78201  0.09502  Biso   1.000  O
  C475     1.0000 0.73691  0.83171  0.95040  Biso   1.000  C
  O459     1.0000 0.57622  0.76539  0.93809  Biso   1.000  O
  C476     1.0000 0.72701  0.79488  0.89891  Biso   1.000  C
  H388     1.0000 0.77718  0.83108  0.95880  Biso   1.000  H
  O460     1.0000 0.70961  0.81179  0.00000  Biso   1.000  O
  C477     1.0000 0.63448  0.76728  0.94700  Biso   1.000  C
  C478     1.0000 0.66091  0.78888  0.89112  Biso   1.000  C
  O461     1.0000 0.75050  0.81900  0.84940  Biso   1.000  O
  H389     1.0000 0.74451  0.75818  0.90459  Biso   1.000  H
  C479     1.0000 0.64971  0.80810  0.99630  Biso   1.000  C
  H390     1.0000 0.64828  0.72991  0.95742  Biso   1.000  H
  O462     1.0000 0.65071  0.74891  0.84419  Biso   1.000  O
  H391     1.0000 0.64409  0.82529  0.88190  Biso   1.000  H
  H392     1.0000 0.63352  0.84501  0.98842  Biso   1.000  H
  C480     1.0000 0.62571  0.78662  0.05420  Biso   1.000  C
  O463     1.0000 0.64220  0.72781  0.06342  Biso   1.000  O
  O464     1.0000 0.63838  0.83410  0.09588  Biso   1.000  O
  O465     1.0000 0.25109  0.34929  0.15581  Biso   1.000  O
  C481     1.0000 0.21112  0.33909  0.10888  Biso   1.000  C
  C482     1.0000 0.20512  0.27299  0.10109  Biso   1.000  C
  C483     1.0000 0.23272  0.36552  0.05300  Biso   1.000  C
  H393     1.0000 0.17471  0.35591  0.11810  Biso   1.000  H
  O466     1.0000 0.18100  0.24950  0.15060  Biso   1.000  O
  C484     1.0000 0.16829  0.26309  0.04960  Biso   1.000  C
  H394     1.0000 0.24182  0.25549  0.09541  Biso   1.000  H
  O467     1.0000 0.23461  0.42378  0.06191  Biso   1.000  O
  C485     1.0000 0.19190  0.35029  0.00370  Biso   1.000  C
  H395     1.0000 0.27009  0.35172  0.04258  Biso   1.000  H
  O468     1.0000 0.18821  0.29039  0.00000  Biso   1.000  O
  O469     1.0000 0.11250  0.27999  0.06238  Biso   1.000  O
  H396     1.0000 0.16892  0.22282  0.04120  Biso   1.000  H
  C486     1.0000 0.28742  0.45008  0.05020  Biso   1.000  C
  H397     1.0000 0.15499  0.36648  0.01158  Biso   1.000  H
  C487     1.0000 0.21338  0.37429  0.94580  Biso   1.000  C
  C488     1.0000 0.06841  0.23968  0.05442  Biso   1.000  C
  C489     1.0000 0.30398  0.48742  0.10122  Biso   1.000  C
  O470     1.0000 0.28150  0.48549  0.00052  Biso   1.000  O
  O471     1.0000 0.27219  0.35780  0.93658  Biso   1.000  O
  O472     1.0000 0.16590  0.36162  0.90412  Biso   1.000  O
  C490     1.0000 0.03591  0.23599  0.10871  Biso   1.000  C
  C491     1.0000 0.03100  0.25751  0.00422  Biso   1.000  C
  H398     1.0000 0.08402  0.20281  0.04521  Biso   1.000  H
  C492     1.0000 0.26401  0.53591  0.10871  Biso   1.000  C
  O473     1.0000 0.30512  0.45218  0.15301  Biso   1.000  O
  H399     1.0000 0.34098  0.50382  0.09411  Biso   1.000  H
  C493     1.0000 0.24249  0.53100  0.00422  Biso   1.000  C
  O474     1.0000 0.07081  0.21581  0.15568  Biso   1.000  O
  H400     1.0000 0.02219  0.27370  0.11801  Biso   1.000  H
  C494     1.0000 0.98742  0.19602  0.10122  Biso   1.000  C
  H401     1.0000 0.01711  0.29539  0.01188  Biso   1.000  H
  O475     1.0000 0.98549  0.21850  0.00052  Biso   1.000  O
  C495     1.0000 0.06149  0.26250  0.94791  Biso   1.000  C
  C496     1.0000 0.26032  0.56841  0.05442  Biso   1.000  C
  O476     1.0000 0.28419  0.57081  0.15568  Biso   1.000  O
  H402     1.0000 0.22630  0.52219  0.11801  Biso   1.000  H
  H403     1.0000 0.20461  0.51711  0.01188  Biso   1.000  H
  C497     1.0000 0.23750  0.56149  0.94791  Biso   1.000  C
  H404     1.0000 0.00382  0.15902  0.09411  Biso   1.000  H
  C498     1.0000 0.95008  0.21258  0.05020  Biso   1.000  C
  O477     1.0000 0.95218  0.19488  0.15301  Biso   1.000  O
  O478     1.0000 0.09119  0.21070  0.93779  Biso   1.000  O
  O479     1.0000 0.02601  0.28201  0.90498  Biso   1.000  O
  O480     1.0000 0.22001  0.61250  0.06238  Biso   1.000  O
  H405     1.0000 0.29719  0.58402  0.04521  Biso   1.000  H
  O481     1.0000 0.28930  0.59119  0.93779  Biso   1.000  O
  O482     1.0000 0.21799  0.52601  0.90498  Biso   1.000  O
  O483     1.0000 0.92378  0.26539  0.06191  Biso   1.000  O
  C499     1.0000 0.23691  0.66829  0.04960  Biso   1.000  C
  C500     1.0000 0.86552  0.26728  0.05300  Biso   1.000  C
  C501     1.0000 0.22701  0.70512  0.10109  Biso   1.000  C
  O484     1.0000 0.20961  0.68821  0.00000  Biso   1.000  O
  H406     1.0000 0.27718  0.66892  0.04120  Biso   1.000  H
  C502     1.0000 0.83909  0.28888  0.10888  Biso   1.000  C
  C503     1.0000 0.85029  0.30810  0.00370  Biso   1.000  C
  H407     1.0000 0.85172  0.22991  0.04258  Biso   1.000  H
  C504     1.0000 0.16091  0.71112  0.10888  Biso   1.000  C
  O485     1.0000 0.25050  0.68100  0.15060  Biso   1.000  O
  H408     1.0000 0.24451  0.74182  0.09541  Biso   1.000  H
  C505     1.0000 0.14971  0.69190  0.00370  Biso   1.000  C
  C506     1.0000 0.77299  0.29488  0.10109  Biso   1.000  C
  O486     1.0000 0.84929  0.24891  0.15581  Biso   1.000  O
  H409     1.0000 0.85591  0.32529  0.11810  Biso   1.000  H
  C507     1.0000 0.87429  0.28662  0.94580  Biso   1.000  C
  O487     1.0000 0.79039  0.31179  0.00000  Biso   1.000  O
  H410     1.0000 0.86648  0.34501  0.01158  Biso   1.000  H
  C508     1.0000 0.13448  0.73272  0.05300  Biso   1.000  C
  O488     1.0000 0.15071  0.75109  0.15581  Biso   1.000  O
  H411     1.0000 0.14409  0.67471  0.11810  Biso   1.000  H
  H412     1.0000 0.13352  0.65499  0.01158  Biso   1.000  H
  C509     1.0000 0.12571  0.71338  0.94580  Biso   1.000  C
  C510     1.0000 0.76309  0.33171  0.04960  Biso   1.000  C
  O489     1.0000 0.74950  0.31900  0.15060  Biso   1.000  O
  H413     1.0000 0.75549  0.25818  0.09541  Biso   1.000  H
  O490     1.0000 0.85780  0.22781  0.93658  Biso   1.000  O
  O491     1.0000 0.86162  0.33410  0.90412  Biso   1.000  O
  O492     1.0000 0.07622  0.73461  0.06191  Biso   1.000  O
  H414     1.0000 0.14828  0.77009  0.04258  Biso   1.000  H
  O493     1.0000 0.14220  0.77219  0.93658  Biso   1.000  O
  O494     1.0000 0.13838  0.66590  0.90412  Biso   1.000  O
  O495     1.0000 0.77999  0.38750  0.06238  Biso   1.000  O
  H415     1.0000 0.72282  0.33108  0.04120  Biso   1.000  H
  C511     1.0000 0.04992  0.78742  0.05020  Biso   1.000  C
  C512     1.0000 0.73968  0.43159  0.05442  Biso   1.000  C
  C513     1.0000 0.01258  0.80398  0.10122  Biso   1.000  C
  O496     1.0000 0.01451  0.78150  0.00052  Biso   1.000  O
  C514     1.0000 0.73599  0.46409  0.10871  Biso   1.000  C
  C515     1.0000 0.75751  0.46900  0.00422  Biso   1.000  C
  H416     1.0000 0.70281  0.41598  0.04521  Biso   1.000  H
  O497     1.0000 0.04782  0.80512  0.15301  Biso   1.000  O
  C516     1.0000 0.96409  0.76401  0.10871  Biso   1.000  C
  H417     1.0000 0.99618  0.84098  0.09411  Biso   1.000  H
  C517     1.0000 0.96900  0.74249  0.00422  Biso   1.000  C
  C518     1.0000 0.69602  0.51258  0.10122  Biso   1.000  C
  O498     1.0000 0.71581  0.42919  0.15568  Biso   1.000  O
  H418     1.0000 0.77370  0.47781  0.11801  Biso   1.000  H
  C519     1.0000 0.76250  0.43851  0.94791  Biso   1.000  C
  O499     1.0000 0.71850  0.51451  0.00052  Biso   1.000  O
  H419     1.0000 0.79539  0.48289  0.01188  Biso   1.000  H
  C520     1.0000 0.93159  0.76032  0.05442  Biso   1.000  C
  O500     1.0000 0.92919  0.78419  0.15568  Biso   1.000  O
  H420     1.0000 0.97781  0.72630  0.11801  Biso   1.000  H
  C521     1.0000 0.93851  0.73750  0.94791  Biso   1.000  C
  H421     1.0000 0.98289  0.70461  0.01188  Biso   1.000  H
  C522     1.0000 0.71258  0.54992  0.05020  Biso   1.000  C
  O501     1.0000 0.69488  0.54782  0.15301  Biso   1.000  O
  H422     1.0000 0.65902  0.49618  0.09411  Biso   1.000  H
  O502     1.0000 0.71070  0.40881  0.93779  Biso   1.000  O
  O503     1.0000 0.78201  0.47399  0.90498  Biso   1.000  O
  H423     1.0000 0.91598  0.79719  0.04521  Biso   1.000  H
  O504     1.0000 0.88750  0.72001  0.06238  Biso   1.000  O
  O505     1.0000 0.90881  0.78930  0.93779  Biso   1.000  O
  O506     1.0000 0.97399  0.71799  0.90498  Biso   1.000  O
  O507     1.0000 0.76539  0.57622  0.06191  Biso   1.000  O
  C523     1.0000 0.83171  0.73691  0.04960  Biso   1.000  C
  C524     1.0000 0.76728  0.63448  0.05300  Biso   1.000  C
  C525     1.0000 0.79488  0.72701  0.10109  Biso   1.000  C
  O508     1.0000 0.81179  0.70961  0.00000  Biso   1.000  O
  H424     1.0000 0.83108  0.77718  0.04120  Biso   1.000  H
  C526     1.0000 0.78888  0.66091  0.10888  Biso   1.000  C
  C527     1.0000 0.80810  0.64971  0.00370  Biso   1.000  C
  H425     1.0000 0.72991  0.64828  0.04258  Biso   1.000  H
  O509     1.0000 0.81900  0.75050  0.15060  Biso   1.000  O
  H426     1.0000 0.75818  0.74451  0.09541  Biso   1.000  H
  O510     1.0000 0.74891  0.65071  0.15581  Biso   1.000  O
  H427     1.0000 0.82529  0.64409  0.11810  Biso   1.000  H
  C528     1.0000 0.78662  0.62571  0.94580  Biso   1.000  C
  H428     1.0000 0.84501  0.63352  0.01158  Biso   1.000  H
  O511     1.0000 0.72781  0.64220  0.93658  Biso   1.000  O
  O512     1.0000 0.83410  0.63838  0.90412  Biso   1.000  O
  O513     1.0000 0.25109  0.34929  0.15581  Biso   1.000  O
  C529     1.0000 0.21112  0.33909  0.10888  Biso   1.000  C
  C530     1.0000 0.20512  0.27299  0.10109  Biso   1.000  C
  C531     1.0000 0.23272  0.36552  0.05300  Biso   1.000  C
  H429     1.0000 0.17471  0.35591  0.11810  Biso   1.000  H
  O514     1.0000 0.18100  0.24950  0.15060  Biso   1.000  O
  C532     1.0000 0.16829  0.26309  0.04960  Biso   1.000  C
  H430     1.0000 0.24182  0.25549  0.09541  Biso   1.000  H
  O515     1.0000 0.23461  0.42378  0.06191  Biso   1.000  O
  C533     1.0000 0.19190  0.35029  0.00370  Biso   1.000  C
  H431     1.0000 0.27009  0.35172  0.04258  Biso   1.000  H
  O516     1.0000 0.18821  0.29039  0.00000  Biso   1.000  O
  O517     1.0000 0.11250  0.27999  0.06238  Biso   1.000  O
  H432     1.0000 0.16892  0.22282  0.04120  Biso   1.000  H
  C534     1.0000 0.28742  0.45008  0.05020  Biso   1.000  C
  H433     1.0000 0.15499  0.36648  0.01158  Biso   1.000  H
  C535     1.0000 0.21338  0.37429  0.94580  Biso   1.000  C
  C536     1.0000 0.06841  0.23968  0.05442  Biso   1.000  C
  C537     1.0000 0.30398  0.48742  0.10122  Biso   1.000  C
  O518     1.0000 0.28150  0.48549  0.00052  Biso   1.000  O
  O519     1.0000 0.27219  0.35780  0.93658  Biso   1.000  O
  O520     1.0000 0.16590  0.36162  0.90412  Biso   1.000  O
  C538     1.0000 0.03591  0.23599  0.10871  Biso   1.000  C
  C539     1.0000 0.03100  0.25751  0.00422  Biso   1.000  C
  H434     1.0000 0.08402  0.20281  0.04521  Biso   1.000  H
  C540     1.0000 0.26401  0.53591  0.10871  Biso   1.000  C
  O521     1.0000 0.30512  0.45218  0.15301  Biso   1.000  O
  H435     1.0000 0.34098  0.50382  0.09411  Biso   1.000  H
  C541     1.0000 0.24249  0.53100  0.00422  Biso   1.000  C
  O522     1.0000 0.07081  0.21581  0.15568  Biso   1.000  O
  H436     1.0000 0.02219  0.27370  0.11801  Biso   1.000  H
  C542     1.0000 0.98742  0.19602  0.10122  Biso   1.000  C
  H437     1.0000 0.01711  0.29539  0.01188  Biso   1.000  H
  O523     1.0000 0.98549  0.21850  0.00052  Biso   1.000  O
  C543     1.0000 0.06149  0.26250  0.94791  Biso   1.000  C
  C544     1.0000 0.26032  0.56841  0.05442  Biso   1.000  C
  O524     1.0000 0.28419  0.57081  0.15568  Biso   1.000  O
  H438     1.0000 0.22630  0.52219  0.11801  Biso   1.000  H
  H439     1.0000 0.20461  0.51711  0.01188  Biso   1.000  H
  C545     1.0000 0.23750  0.56149  0.94791  Biso   1.000  C
  H440     1.0000 0.00382  0.15902  0.09411  Biso   1.000  H
  C546     1.0000 0.95008  0.21258  0.05020  Biso   1.000  C
  O525     1.0000 0.95218  0.19488  0.15301  Biso   1.000  O
  O526     1.0000 0.09119  0.21070  0.93779  Biso   1.000  O
  O527     1.0000 0.02601  0.28201  0.90498  Biso   1.000  O
  O528     1.0000 0.22001  0.61250  0.06238  Biso   1.000  O
  H441     1.0000 0.29719  0.58402  0.04521  Biso   1.000  H
  O529     1.0000 0.28930  0.59119  0.93779  Biso   1.000  O
  O530     1.0000 0.21799  0.52601  0.90498  Biso   1.000  O
  O531     1.0000 0.92378  0.26539  0.06191  Biso   1.000  O
  C547     1.0000 0.23691  0.66829  0.04960  Biso   1.000  C
  C548     1.0000 0.86552  0.26728  0.05300  Biso   1.000  C
  C549     1.0000 0.22701  0.70512  0.10109  Biso   1.000  C
  O532     1.0000 0.20961  0.68821  0.00000  Biso   1.000  O
  H442     1.0000 0.27718  0.66892  0.04120  Biso   1.000  H
  C550     1.0000 0.83909  0.28888  0.10888  Biso   1.000  C
  C551     1.0000 0.85029  0.30810  0.00370  Biso   1.000  C
  H443     1.0000 0.85172  0.22991  0.04258  Biso   1.000  H
  C552     1.0000 0.16091  0.71112  0.10888  Biso   1.000  C
  O533     1.0000 0.25050  0.68100  0.15060  Biso   1.000  O
  H444     1.0000 0.24451  0.74182  0.09541  Biso   1.000  H
  C553     1.0000 0.14971  0.69190  0.00370  Biso   1.000  C
  C554     1.0000 0.77299  0.29488  0.10109  Biso   1.000  C
  O534     1.0000 0.84929  0.24891  0.15581  Biso   1.000  O
  H445     1.0000 0.85591  0.32529  0.11810  Biso   1.000  H
  C555     1.0000 0.87429  0.28662  0.94580  Biso   1.000  C
  O535     1.0000 0.79039  0.31179  0.00000  Biso   1.000  O
  H446     1.0000 0.86648  0.34501  0.01158  Biso   1.000  H
  C556     1.0000 0.13448  0.73272  0.05300  Biso   1.000  C
  O536     1.0000 0.15071  0.75109  0.15581  Biso   1.000  O
  H447     1.0000 0.14409  0.67471  0.11810  Biso   1.000  H
  H448     1.0000 0.13352  0.65499  0.01158  Biso   1.000  H
  C557     1.0000 0.12571  0.71338  0.94580  Biso   1.000  C
  C558     1.0000 0.76309  0.33171  0.04960  Biso   1.000  C
  O537     1.0000 0.74950  0.31900  0.15060  Biso   1.000  O
  H449     1.0000 0.75549  0.25818  0.09541  Biso   1.000  H
  O538     1.0000 0.85780  0.22781  0.93658  Biso   1.000  O
  O539     1.0000 0.86162  0.33410  0.90412  Biso   1.000  O
  O540     1.0000 0.07622  0.73461  0.06191  Biso   1.000  O
  H450     1.0000 0.14828  0.77009  0.04258  Biso   1.000  H
  O541     1.0000 0.14220  0.77219  0.93658  Biso   1.000  O
  O542     1.0000 0.13838  0.66590  0.90412  Biso   1.000  O
  O543     1.0000 0.77999  0.38750  0.06238  Biso   1.000  O
  H451     1.0000 0.72282  0.33108  0.04120  Biso   1.000  H
  C559     1.0000 0.04992  0.78742  0.05020  Biso   1.000  C
  C560     1.0000 0.73968  0.43159  0.05442  Biso   1.000  C
  C561     1.0000 0.01258  0.80398  0.10122  Biso   1.000  C
  O544     1.0000 0.01451  0.78150  0.00052  Biso   1.000  O
  C562     1.0000 0.73599  0.46409  0.10871  Biso   1.000  C
  C563     1.0000 0.75751  0.46900  0.00422  Biso   1.000  C
  H452     1.0000 0.70281  0.41598  0.04521  Biso   1.000  H
  O545     1.0000 0.04782  0.80512  0.15301  Biso   1.000  O
  C564     1.0000 0.96409  0.76401  0.10871  Biso   1.000  C
  H453     1.0000 0.99618  0.84098  0.09411  Biso   1.000  H
  C565     1.0000 0.96900  0.74249  0.00422  Biso   1.000  C
  C566     1.0000 0.69602  0.51258  0.10122  Biso   1.000  C
  O546     1.0000 0.71581  0.42919  0.15568  Biso   1.000  O
  H454     1.0000 0.77370  0.47781  0.11801  Biso   1.000  H
  C567     1.0000 0.76250  0.43851  0.94791  Biso   1.000  C
  O547     1.0000 0.71850  0.51451  0.00052  Biso   1.000  O
  H455     1.0000 0.79539  0.48289  0.01188  Biso   1.000  H
  C568     1.0000 0.93159  0.76032  0.05442  Biso   1.000  C
  O548     1.0000 0.92919  0.78419  0.15568  Biso   1.000  O
  H456     1.0000 0.97781  0.72630  0.11801  Biso   1.000  H
  C569     1.0000 0.93851  0.73750  0.94791  Biso   1.000  C
  H457     1.0000 0.98289  0.70461  0.01188  Biso   1.000  H
  C570     1.0000 0.71258  0.54992  0.05020  Biso   1.000  C
  O549     1.0000 0.69488  0.54782  0.15301  Biso   1.000  O
  H458     1.0000 0.65902  0.49618  0.09411  Biso   1.000  H
  O550     1.0000 0.71070  0.40881  0.93779  Biso   1.000  O
  O551     1.0000 0.78201  0.47399  0.90498  Biso   1.000  O
  H459     1.0000 0.91598  0.79719  0.04521  Biso   1.000  H
  O552     1.0000 0.88750  0.72001  0.06238  Biso   1.000  O
  O553     1.0000 0.90881  0.78930  0.93779  Biso   1.000  O
  O554     1.0000 0.97399  0.71799  0.90498  Biso   1.000  O
  O555     1.0000 0.76539  0.57622  0.06191  Biso   1.000  O
  C571     1.0000 0.83171  0.73691  0.04960  Biso   1.000  C
  C572     1.0000 0.76728  0.63448  0.05300  Biso   1.000  C
  C573     1.0000 0.79488  0.72701  0.10109  Biso   1.000  C
  O556     1.0000 0.81179  0.70961  0.00000  Biso   1.000  O
  H460     1.0000 0.83108  0.77718  0.04120  Biso   1.000  H
  C574     1.0000 0.78888  0.66091  0.10888  Biso   1.000  C
  C575     1.0000 0.80810  0.64971  0.00370  Biso   1.000  C
  H461     1.0000 0.72991  0.64828  0.04258  Biso   1.000  H
  O557     1.0000 0.81900  0.75050  0.15060  Biso   1.000  O
  H462     1.0000 0.75818  0.74451  0.09541  Biso   1.000  H
  O558     1.0000 0.74891  0.65071  0.15581  Biso   1.000  O
  H463     1.0000 0.82529  0.64409  0.11810  Biso   1.000  H
  C576     1.0000 0.78662  0.62571  0.94580  Biso   1.000  C
  H464     1.0000 0.84501  0.63352  0.01158  Biso   1.000  H
  O559     1.0000 0.72781  0.64220  0.93658  Biso   1.000  O
  O560     1.0000 0.83410  0.63838  0.90412  Biso   1.000  O
  Ne1      1.0000 0.00000  0.50000  0.38231  Biso   1.000  Ne
  He1      1.0000 1.00000  0.50000  0.41309  Biso   1.000  He
  He2      1.0000 1.00000  0.50000  0.36095  Biso   1.000  He
  Ar1      1.0000 0.00000  0.50000  0.38231  Biso   1.000  Ar
  Ne2      1.0000 0.00000  0.50000  0.38231  Biso   1.000  Ne
  He3      1.0000 1.00000  0.50000  0.41309  Biso   1.000  He
  He4      1.0000 1.00000  0.50000  0.36095  Biso   1.000  He
  Ar2      1.0000 0.00000  0.50000  0.38231  Biso   1.000  Ar
  Ne3      1.0000 0.50000  0.00000  0.28512  Biso   1.000  Ne
  He5      1.0000 0.50000  0.00000  0.43132  Biso   1.000  He
  He6      1.0000 0.50000  0.00000  0.25787  Biso   1.000  He
  Ar3      1.0000 0.50000  0.00000  0.28512  Biso   1.000  Ar
  Ne4      1.0000 0.50000  0.00000  0.28512  Biso   1.000  Ne
  He7      1.0000 0.50000  0.00000  0.43132  Biso   1.000  He
  He8      1.0000 0.50000  0.00000  0.25787  Biso   1.000  He
  Ar4      1.0000 0.50000  0.00000  0.28512  Biso   1.000  Ar
  Ne5      1.0000 0.00000  0.50000  0.03971  Biso   1.000  Ne
  He9      1.0000 0.00000  0.50000  0.03971  Biso   1.000  He
  He10     1.0000 1.00000  0.50000  0.89274  Biso   1.000  He
  Ar5      1.0000 0.00000  0.50000  0.03971  Biso   1.000  Ar
  Ne6      1.0000 0.00000  0.50000  0.03971  Biso   1.000  Ne
  He11     1.0000 0.00000  0.50000  0.03971  Biso   1.000  He
  He12     1.0000 1.00000  0.50000  0.89274  Biso   1.000  He
  Ar6      1.0000 0.00000  0.50000  0.03971  Biso   1.000  Ar
  Ne7      1.0000 0.50000  0.00000  0.61769  Biso   1.000  Ne
  He13     1.0000 0.50000  1.00000  0.61769  Biso   1.000  He
  He14     1.0000 0.50000  1.00000  0.58723  Biso   1.000  He
  Ar7      1.0000 0.50000  0.00000  0.61769  Biso   1.000  Ar
  Ne8      1.0000 0.50000  0.00000  0.61769  Biso   1.000  Ne
  He15     1.0000 0.50000  1.00000  0.61769  Biso   1.000  He
  He16     1.0000 0.50000  1.00000  0.58723  Biso   1.000  He
  Ar8      1.0000 0.50000  0.00000  0.61769  Biso   1.000  Ar
  Ne9      1.0000 0.00000  0.50000  0.71488  Biso   1.000  Ne
  He17     1.0000 1.00000  0.50000  0.71488  Biso   1.000  He
  He18     1.0000 1.00000  0.50000  0.56907  Biso   1.000  He
  Ar9      1.0000 0.00000  0.50000  0.71488  Biso   1.000  Ar
  Ne10     1.0000 0.00000  0.50000  0.71488  Biso   1.000  Ne
  He19     1.0000 1.00000  0.50000  0.71488  Biso   1.000  He
  He20     1.0000 1.00000  0.50000  0.56907  Biso   1.000  He
  Ar10     1.0000 0.00000  0.50000  0.71488  Biso   1.000  Ar
  Ne11     1.0000 0.50000  0.00000  0.96029  Biso   1.000  Ne
  He21     1.0000 0.50000  1.00000  0.10463  Biso   1.000  He
  He22     1.0000 0.50000  1.00000  0.95597  Biso   1.000  He
  Ar11     1.0000 0.50000  0.00000  0.96029  Biso   1.000  Ar
  Ne12     1.0000 0.50000  0.00000  0.96029  Biso   1.000  Ne
  He23     1.0000 0.50000  1.00000  0.10463  Biso   1.000  He
  He24     1.0000 0.50000  1.00000  0.95597  Biso   1.000  He
  Ar12     1.0000 0.50000  0.00000  0.96029  Biso   1.000  Ar
