data_image0
_cell_length_a       20.01
_cell_length_b       34.8
_cell_length_c       13.08
_cell_angle_alpha    90
_cell_angle_beta     90
_cell_angle_gamma    90

_symmetry_space_group_name_H-M    "P 1"
_symmetry_int_tables_number       1

loop_
  _symmetry_equiv_pos_as_xyz
  'x, y, z'

loop_
  _atom_site_label
  _atom_site_occupancy
  _atom_site_fract_x
  _atom_site_fract_y
  _atom_site_fract_z
  _atom_site_thermal_displace_type
  _atom_site_B_iso_or_equiv
  _atom_site_type_symbol
  C1       1.0000 0.37381  0.30181  0.51682  Biso   1.000  C
  N1       1.0000 0.35022  0.31069  0.41369  Biso   1.000  N
  C2       1.0000 0.41399  0.33299  0.56628  Biso   1.000  C
  H1       1.0000 0.33398  0.29601  0.56101  Biso   1.000  H
  H2       1.0000 0.40300  0.27799  0.51300  Biso   1.000  H
  C3       1.0000 0.29510  0.28471  0.38670  Biso   1.000  C
  C4       1.0000 0.40490  0.30589  0.34312  Biso   1.000  C
  N2       1.0000 0.37211  0.36569  0.60099  Biso   1.000  N
  H3       1.0000 0.44698  0.34299  0.51598  Biso   1.000  H
  H4       1.0000 0.43798  0.32201  0.62699  Biso   1.000  H
  C5       1.0000 0.22869  0.29871  0.42798  Biso   1.000  C
  H5       1.0000 0.29200  0.28299  0.31101  Biso   1.000  H
  H6       1.0000 0.30500  0.25899  0.41598  Biso   1.000  H
  C6       1.0000 0.39510  0.32509  0.23861  Biso   1.000  C
  H7       1.0000 0.44598  0.31701  0.37500  Biso   1.000  H
  H8       1.0000 0.41099  0.27799  0.33203  Biso   1.000  H
  C7       1.0000 0.41029  0.39190  0.66988  Biso   1.000  C
  H9       1.0000 0.35602  0.38101  0.53998  Biso   1.000  H
  H10      1.0000 0.33298  0.35601  0.63998  Biso   1.000  H
  N3       1.0000 0.20260  0.33069  0.36437  Biso   1.000  N
  H11      1.0000 0.23498  0.30799  0.50000  Biso   1.000  H
  H12      1.0000 0.19600  0.27701  0.42699  Biso   1.000  H
  N4       1.0000 0.39750  0.36799  0.24472  Biso   1.000  N
  H13      1.0000 0.35102  0.31701  0.21101  Biso   1.000  H
  H14      1.0000 0.43098  0.31601  0.19098  Biso   1.000  H
  C8       1.0000 0.36842  0.41879  0.72859  Biso   1.000  C
  H15      1.0000 0.44198  0.40701  0.62699  Biso   1.000  H
  H16      1.0000 0.43698  0.37601  0.71904  Biso   1.000  H
  C9       1.0000 0.13228  0.34221  0.39327  Biso   1.000  C
  H17      1.0000 0.23298  0.35299  0.37301  Biso   1.000  H
  H18      1.0000 0.20300  0.32201  0.29098  Biso   1.000  H
  C10      1.0000 0.41129  0.38451  0.14289  Biso   1.000  C
  H19      1.0000 0.43398  0.37601  0.29297  Biso   1.000  H
  H20      1.0000 0.35402  0.37799  0.27003  Biso   1.000  H
  C11      1.0000 0.33438  0.40819  0.81613  Biso   1.000  C
  C12      1.0000 0.36232  0.45741  0.70031  Biso   1.000  C
  C13      1.0000 0.10450  0.37129  0.31972  Biso   1.000  C
  H21      1.0000 0.13298  0.35399  0.46300  Biso   1.000  H
  H22      1.0000 0.10300  0.31899  0.39404  Biso   1.000  H
  C14      1.0000 0.42669  0.42701  0.14258  Biso   1.000  C
  H23      1.0000 0.45102  0.37101  0.11399  Biso   1.000  H
  H24      1.0000 0.37201  0.38000  0.09801  Biso   1.000  H
  C15      1.0000 0.29640  0.43371  0.86972  Biso   1.000  C
  H25      1.0000 0.33798  0.38101  0.84098  Biso   1.000  H
  C16      1.0000 0.32429  0.48221  0.75466  Biso   1.000  C
  H26      1.0000 0.38701  0.46701  0.63899  Biso   1.000  H
  C17      1.0000 0.10450  0.40980  0.34312  Biso   1.000  C
  C18      1.0000 0.07681  0.36009  0.22561  Biso   1.000  C
  C19      1.0000 0.38061  0.45391  0.10887  Biso   1.000  C
  C20      1.0000 0.48881  0.43940  0.17118  Biso   1.000  C
  C21      1.0000 0.29080  0.47230  0.83899  Biso   1.000  C
  H27      1.0000 0.27201  0.42500  0.93203  Biso   1.000  H
  H28      1.0000 0.32099  0.50899  0.73096  Biso   1.000  H
  C22      1.0000 0.07731  0.43621  0.27683  Biso   1.000  C
  H29      1.0000 0.12399  0.41899  0.40902  Biso   1.000  H
  C23      1.0000 0.05062  0.38661  0.15933  Biso   1.000  C
  H30      1.0000 0.07601  0.33201  0.20596  Biso   1.000  H
  C24      1.0000 0.39890  0.49190  0.09962  Biso   1.000  C
  H31      1.0000 0.33398  0.44601  0.09197  Biso   1.000  H
  C25      1.0000 0.50620  0.47779  0.16292  Biso   1.000  C
  H32      1.0000 0.52199  0.42000  0.19901  Biso   1.000  H
  C26      1.0000 0.25002  0.50000  0.89908  Biso   1.000  C
  C27      1.0000 0.05012  0.42569  0.18471  Biso   1.000  C
  H33      1.0000 0.07801  0.46399  0.29602  Biso   1.000  H
  H34      1.0000 0.03198  0.37799  0.09197  Biso   1.000  H
  C28      1.0000 0.46022  0.50509  0.12462  Biso   1.000  C
  H35      1.0000 0.36502  0.51101  0.07301  Biso   1.000  H
  H36      1.0000 0.55202  0.48601  0.18402  Biso   1.000  H
  C29      1.0000 0.20920  0.52770  0.83899  Biso   1.000  C
  H37      1.0000 0.28101  0.51500  0.94297  Biso   1.000  H
  H38      1.0000 0.21899  0.48500  0.94297  Biso   1.000  H
  C30      1.0000 0.01909  0.45440  0.11170  Biso   1.000  C
  C31      1.0000 0.48091  0.54560  0.11170  Biso   1.000  C
  C32      1.0000 0.20360  0.56629  0.86972  Biso   1.000  C
  C33      1.0000 0.17571  0.51779  0.75466  Biso   1.000  C
  C34      1.0000 0.03978  0.49491  0.12462  Biso   1.000  C
  H39      1.0000 0.03098  0.44601  0.04098  Biso   1.000  H
  H40      1.0000 0.97001  0.45299  0.12003  Biso   1.000  H
  C35      1.0000 0.44988  0.57431  0.18471  Biso   1.000  C
  H41      1.0000 0.46902  0.55399  0.04098  Biso   1.000  H
  H42      1.0000 0.52999  0.54701  0.12003  Biso   1.000  H
  C36      1.0000 0.16562  0.59181  0.81613  Biso   1.000  C
  H43      1.0000 0.22799  0.57500  0.93203  Biso   1.000  H
  C37      1.0000 0.13768  0.54259  0.70031  Biso   1.000  C
  H44      1.0000 0.17901  0.49101  0.73096  Biso   1.000  H
  C38      1.0000 0.10110  0.50810  0.09962  Biso   1.000  C
  C39      1.0000 0.99380  0.52221  0.16292  Biso   1.000  C
  C40      1.0000 0.42269  0.56379  0.27683  Biso   1.000  C
  C41      1.0000 0.44938  0.61339  0.15933  Biso   1.000  C
  C42      1.0000 0.13158  0.58121  0.72859  Biso   1.000  C
  H45      1.0000 0.16202  0.61899  0.84098  Biso   1.000  H
  H46      1.0000 0.11299  0.53299  0.63899  Biso   1.000  H
  C43      1.0000 0.11939  0.54609  0.10887  Biso   1.000  C
  H47      1.0000 0.13498  0.48899  0.07301  Biso   1.000  H
  C44      1.0000 0.01119  0.56060  0.17118  Biso   1.000  C
  H48      1.0000 0.94798  0.51399  0.18402  Biso   1.000  H
  C45      1.0000 0.39550  0.59020  0.34312  Biso   1.000  C
  H49      1.0000 0.42199  0.53601  0.29602  Biso   1.000  H
  C46      1.0000 0.42319  0.63991  0.22561  Biso   1.000  C
  H50      1.0000 0.46802  0.62201  0.09197  Biso   1.000  H
  C47      1.0000 0.08971  0.60810  0.66988  Biso   1.000  C
  C48      1.0000 0.07331  0.57299  0.14258  Biso   1.000  C
  H51      1.0000 0.16602  0.55399  0.09197  Biso   1.000  H
  H52      1.0000 0.97801  0.58000  0.19901  Biso   1.000  H
  C49      1.0000 0.39550  0.62871  0.31972  Biso   1.000  C
  H53      1.0000 0.37601  0.58101  0.40902  Biso   1.000  H
  H54      1.0000 0.42399  0.66799  0.20596  Biso   1.000  H
  N5       1.0000 0.12789  0.63431  0.60099  Biso   1.000  N
  H55      1.0000 0.05802  0.59299  0.62699  Biso   1.000  H
  H56      1.0000 0.06302  0.62399  0.71904  Biso   1.000  H
  C50      1.0000 0.08871  0.61549  0.14289  Biso   1.000  C
  C51      1.0000 0.36772  0.65779  0.39327  Biso   1.000  C
  C52      1.0000 0.08601  0.66701  0.56628  Biso   1.000  C
  H57      1.0000 0.14398  0.61899  0.53998  Biso   1.000  H
  H58      1.0000 0.16702  0.64399  0.63998  Biso   1.000  H
  N6       1.0000 0.10250  0.63201  0.24472  Biso   1.000  N
  H59      1.0000 0.04898  0.62899  0.11399  Biso   1.000  H
  H60      1.0000 0.12799  0.62000  0.09801  Biso   1.000  H
  N7       1.0000 0.29740  0.66931  0.36437  Biso   1.000  N
  H61      1.0000 0.36702  0.64601  0.46300  Biso   1.000  H
  H62      1.0000 0.39700  0.68101  0.39404  Biso   1.000  H
  C53      1.0000 0.12619  0.69819  0.51682  Biso   1.000  C
  H63      1.0000 0.05302  0.65701  0.51598  Biso   1.000  H
  H64      1.0000 0.06202  0.67799  0.62699  Biso   1.000  H
  C54      1.0000 0.10490  0.67491  0.23861  Biso   1.000  C
  H65      1.0000 0.06602  0.62399  0.29297  Biso   1.000  H
  H66      1.0000 0.14598  0.62201  0.27003  Biso   1.000  H
  C55      1.0000 0.27131  0.70129  0.42798  Biso   1.000  C
  H67      1.0000 0.26702  0.64701  0.37301  Biso   1.000  H
  H68      1.0000 0.29700  0.67799  0.29098  Biso   1.000  H
  N8       1.0000 0.14978  0.68931  0.41369  Biso   1.000  N
  H69      1.0000 0.16602  0.70399  0.56101  Biso   1.000  H
  H70      1.0000 0.09700  0.72201  0.51300  Biso   1.000  H
  C56      1.0000 0.09510  0.69411  0.34312  Biso   1.000  C
  H71      1.0000 0.14898  0.68299  0.21101  Biso   1.000  H
  H72      1.0000 0.06902  0.68399  0.19098  Biso   1.000  H
  C57      1.0000 0.20490  0.71529  0.38670  Biso   1.000  C
  H73      1.0000 0.26502  0.69201  0.50000  Biso   1.000  H
  H74      1.0000 0.30400  0.72299  0.42699  Biso   1.000  H
  H75      1.0000 0.05402  0.68299  0.37500  Biso   1.000  H
  H76      1.0000 0.08901  0.72201  0.33203  Biso   1.000  H
  H77      1.0000 0.20800  0.71701  0.31101  Biso   1.000  H
  H78      1.0000 0.19500  0.74101  0.41598  Biso   1.000  H
  C58      1.0000 0.39510  0.17491  0.26139  Biso   1.000  C
  C59      1.0000 0.40490  0.19411  0.15688  Biso   1.000  C
  N9       1.0000 0.39750  0.13201  0.25528  Biso   1.000  N
  H79      1.0000 0.35102  0.18299  0.28899  Biso   1.000  H
  H80      1.0000 0.43098  0.18399  0.30902  Biso   1.000  H
  N10      1.0000 0.35022  0.18931  0.08631  Biso   1.000  N
  H81      1.0000 0.44598  0.18299  0.12500  Biso   1.000  H
  H82      1.0000 0.41099  0.22201  0.16797  Biso   1.000  H
  C60      1.0000 0.41129  0.11549  0.35711  Biso   1.000  C
  H83      1.0000 0.43398  0.12399  0.20703  Biso   1.000  H
  H84      1.0000 0.35402  0.12201  0.22997  Biso   1.000  H
  C61      1.0000 0.29510  0.21529  0.11330  Biso   1.000  C
  C62      1.0000 0.37381  0.19819  0.98318  Biso   1.000  C
  C63      1.0000 0.42669  0.07299  0.35742  Biso   1.000  C
  H85      1.0000 0.45102  0.12899  0.38601  Biso   1.000  H
  H86      1.0000 0.37201  0.12000  0.40199  Biso   1.000  H
  C64      1.0000 0.22869  0.20129  0.07202  Biso   1.000  C
  H87      1.0000 0.29200  0.21701  0.18899  Biso   1.000  H
  H88      1.0000 0.30500  0.24101  0.08402  Biso   1.000  H
  C65      1.0000 0.41399  0.16701  0.93372  Biso   1.000  C
  H89      1.0000 0.33398  0.20399  0.93899  Biso   1.000  H
  H90      1.0000 0.40300  0.22201  0.98700  Biso   1.000  H
  C66      1.0000 0.38061  0.04609  0.39113  Biso   1.000  C
  C67      1.0000 0.48881  0.06060  0.32882  Biso   1.000  C
  N11      1.0000 0.20260  0.16931  0.13563  Biso   1.000  N
  H91      1.0000 0.23498  0.19201  0.00000  Biso   1.000  H
  H92      1.0000 0.19600  0.22299  0.07301  Biso   1.000  H
  N12      1.0000 0.37211  0.13431  0.89901  Biso   1.000  N
  H93      1.0000 0.44698  0.15701  0.98402  Biso   1.000  H
  H94      1.0000 0.43798  0.17799  0.87301  Biso   1.000  H
  C68      1.0000 0.39890  0.00810  0.40038  Biso   1.000  C
  H95      1.0000 0.33398  0.05399  0.40803  Biso   1.000  H
  C69      1.0000 0.50620  0.02221  0.33708  Biso   1.000  C
  H96      1.0000 0.52199  0.08000  0.30099  Biso   1.000  H
  C70      1.0000 0.13228  0.15779  0.10673  Biso   1.000  C
  H97      1.0000 0.23298  0.14701  0.12699  Biso   1.000  H
  H98      1.0000 0.20300  0.17799  0.20902  Biso   1.000  H
  C71      1.0000 0.41029  0.10810  0.83012  Biso   1.000  C
  H99      1.0000 0.35602  0.11899  0.96002  Biso   1.000  H
  H100     1.0000 0.33298  0.14399  0.86002  Biso   1.000  H
  C72      1.0000 0.46022  0.99491  0.37538  Biso   1.000  C
  H101     1.0000 0.36502  0.98899  0.42699  Biso   1.000  H
  H102     1.0000 0.55202  0.01399  0.31598  Biso   1.000  H
  C73      1.0000 0.10450  0.12871  0.18028  Biso   1.000  C
  H103     1.0000 0.13298  0.14601  0.03700  Biso   1.000  H
  H104     1.0000 0.10300  0.18101  0.10596  Biso   1.000  H
  C74      1.0000 0.36842  0.08121  0.77141  Biso   1.000  C
  H105     1.0000 0.44198  0.09299  0.87301  Biso   1.000  H
  H106     1.0000 0.43698  0.12399  0.78096  Biso   1.000  H
  C75      1.0000 0.48091  0.95440  0.38830  Biso   1.000  C
  C76      1.0000 0.10450  0.09020  0.15688  Biso   1.000  C
  C77      1.0000 0.07681  0.13991  0.27439  Biso   1.000  C
  C78      1.0000 0.33438  0.09181  0.68387  Biso   1.000  C
  C79      1.0000 0.36232  0.04259  0.79969  Biso   1.000  C
  C80      1.0000 0.44988  0.92569  0.31529  Biso   1.000  C
  H107     1.0000 0.46902  0.94601  0.45902  Biso   1.000  H
  H108     1.0000 0.52999  0.95299  0.37997  Biso   1.000  H
  C81      1.0000 0.07731  0.06379  0.22317  Biso   1.000  C
  H109     1.0000 0.12399  0.08101  0.09098  Biso   1.000  H
  C82      1.0000 0.05062  0.11339  0.34067  Biso   1.000  C
  H110     1.0000 0.07601  0.16799  0.29404  Biso   1.000  H
  C83      1.0000 0.29640  0.06629  0.63028  Biso   1.000  C
  H111     1.0000 0.33798  0.11899  0.65902  Biso   1.000  H
  C84      1.0000 0.32429  0.01779  0.74534  Biso   1.000  C
  H112     1.0000 0.38701  0.03299  0.86101  Biso   1.000  H
  C85      1.0000 0.42269  0.93621  0.22317  Biso   1.000  C
  C86      1.0000 0.44938  0.88661  0.34067  Biso   1.000  C
  C87      1.0000 0.05012  0.07431  0.31529  Biso   1.000  C
  H113     1.0000 0.07801  0.03601  0.20398  Biso   1.000  H
  H114     1.0000 0.03198  0.12201  0.40803  Biso   1.000  H
  C88      1.0000 0.29080  0.02770  0.66101  Biso   1.000  C
  H115     1.0000 0.27201  0.07500  0.56797  Biso   1.000  H
  H116     1.0000 0.32099  0.99101  0.76904  Biso   1.000  H
  C89      1.0000 0.39550  0.90980  0.15688  Biso   1.000  C
  H117     1.0000 0.42199  0.96399  0.20398  Biso   1.000  H
  C90      1.0000 0.42319  0.86009  0.27439  Biso   1.000  C
  H118     1.0000 0.46802  0.87799  0.40803  Biso   1.000  H
  C91      1.0000 0.01909  0.04560  0.38830  Biso   1.000  C
  C92      1.0000 0.25002  0.00000  0.60092  Biso   1.000  C
  C93      1.0000 0.39550  0.87129  0.18028  Biso   1.000  C
  H119     1.0000 0.37601  0.91899  0.09098  Biso   1.000  H
  H120     1.0000 0.42399  0.83201  0.29404  Biso   1.000  H
  C94      1.0000 0.03978  0.00509  0.37538  Biso   1.000  C
  H121     1.0000 0.03098  0.05399  0.45902  Biso   1.000  H
  H122     1.0000 0.97001  0.04701  0.37997  Biso   1.000  H
  C95      1.0000 0.20920  0.97230  0.66101  Biso   1.000  C
  H123     1.0000 0.28101  0.98500  0.55703  Biso   1.000  H
  H124     1.0000 0.21899  0.01500  0.55703  Biso   1.000  H
  C96      1.0000 0.36772  0.84221  0.10673  Biso   1.000  C
  C97      1.0000 0.99380  0.97779  0.33708  Biso   1.000  C
  C98      1.0000 0.10110  0.99190  0.40038  Biso   1.000  C
  C99      1.0000 0.20360  0.93371  0.63028  Biso   1.000  C
  C100     1.0000 0.17571  0.98221  0.74534  Biso   1.000  C
  N13      1.0000 0.29740  0.83069  0.13563  Biso   1.000  N
  H125     1.0000 0.36702  0.85399  0.03700  Biso   1.000  H
  H126     1.0000 0.39700  0.81899  0.10596  Biso   1.000  H
  H127     1.0000 0.94798  0.98601  0.31598  Biso   1.000  H
  C101     1.0000 0.01119  0.93940  0.32882  Biso   1.000  C
  H128     1.0000 0.13498  0.01101  0.42699  Biso   1.000  H
  C102     1.0000 0.11939  0.95391  0.39113  Biso   1.000  C
  C103     1.0000 0.16562  0.90819  0.68387  Biso   1.000  C
  H129     1.0000 0.22799  0.92500  0.56797  Biso   1.000  H
  C104     1.0000 0.13768  0.95741  0.79969  Biso   1.000  C
  H130     1.0000 0.17901  0.00899  0.76904  Biso   1.000  H
  C105     1.0000 0.27131  0.79871  0.07202  Biso   1.000  C
  H131     1.0000 0.26702  0.85299  0.12699  Biso   1.000  H
  H132     1.0000 0.29700  0.82201  0.20902  Biso   1.000  H
  H133     1.0000 0.97801  0.92000  0.30099  Biso   1.000  H
  C106     1.0000 0.07331  0.92701  0.35742  Biso   1.000  C
  H134     1.0000 0.16602  0.94601  0.40803  Biso   1.000  H
  C107     1.0000 0.13158  0.91879  0.77141  Biso   1.000  C
  H135     1.0000 0.16202  0.88101  0.65902  Biso   1.000  H
  H136     1.0000 0.11299  0.96701  0.86101  Biso   1.000  H
  C108     1.0000 0.20490  0.78471  0.11330  Biso   1.000  C
  H137     1.0000 0.26502  0.80799  0.00000  Biso   1.000  H
  H138     1.0000 0.30400  0.77701  0.07301  Biso   1.000  H
  C109     1.0000 0.08871  0.88451  0.35711  Biso   1.000  C
  C110     1.0000 0.08971  0.89190  0.83012  Biso   1.000  C
  N14      1.0000 0.14978  0.81069  0.08631  Biso   1.000  N
  H139     1.0000 0.20800  0.78299  0.18899  Biso   1.000  H
  H140     1.0000 0.19500  0.75899  0.08402  Biso   1.000  H
  N15      1.0000 0.10250  0.86799  0.25528  Biso   1.000  N
  H141     1.0000 0.04898  0.87101  0.38601  Biso   1.000  H
  H142     1.0000 0.12799  0.88000  0.40199  Biso   1.000  H
  N16      1.0000 0.12789  0.86569  0.89901  Biso   1.000  N
  H143     1.0000 0.05802  0.90701  0.87301  Biso   1.000  H
  H144     1.0000 0.06302  0.87601  0.78096  Biso   1.000  H
  C111     1.0000 0.09510  0.80589  0.15688  Biso   1.000  C
  C112     1.0000 0.12619  0.80181  0.98318  Biso   1.000  C
  C113     1.0000 0.10490  0.82509  0.26139  Biso   1.000  C
  H145     1.0000 0.06602  0.87601  0.20703  Biso   1.000  H
  H146     1.0000 0.14598  0.87799  0.22997  Biso   1.000  H
  C114     1.0000 0.08601  0.83299  0.93372  Biso   1.000  C
  H147     1.0000 0.14398  0.88101  0.96002  Biso   1.000  H
  H148     1.0000 0.16702  0.85601  0.86002  Biso   1.000  H
  H149     1.0000 0.05402  0.81701  0.12500  Biso   1.000  H
  H150     1.0000 0.08901  0.77799  0.16797  Biso   1.000  H
  H151     1.0000 0.16602  0.79601  0.93899  Biso   1.000  H
  H152     1.0000 0.09700  0.77799  0.98700  Biso   1.000  H
  H153     1.0000 0.14898  0.81701  0.28899  Biso   1.000  H
  H154     1.0000 0.06902  0.81601  0.30902  Biso   1.000  H
  H155     1.0000 0.05302  0.84299  0.98402  Biso   1.000  H
  H156     1.0000 0.06202  0.82201  0.87301  Biso   1.000  H
  C115     1.0000 0.39510  0.17491  0.26139  Biso   1.000  C
  C116     1.0000 0.40490  0.19411  0.15688  Biso   1.000  C
  N17      1.0000 0.39750  0.13201  0.25528  Biso   1.000  N
  H157     1.0000 0.35102  0.18299  0.28899  Biso   1.000  H
  H158     1.0000 0.43098  0.18399  0.30902  Biso   1.000  H
  N18      1.0000 0.35022  0.18931  0.08631  Biso   1.000  N
  H159     1.0000 0.44598  0.18299  0.12500  Biso   1.000  H
  H160     1.0000 0.41099  0.22201  0.16797  Biso   1.000  H
  C117     1.0000 0.41129  0.11549  0.35711  Biso   1.000  C
  H161     1.0000 0.43398  0.12399  0.20703  Biso   1.000  H
  H162     1.0000 0.35402  0.12201  0.22997  Biso   1.000  H
  C118     1.0000 0.29510  0.21529  0.11330  Biso   1.000  C
  C119     1.0000 0.37381  0.19819  0.98318  Biso   1.000  C
  C120     1.0000 0.42669  0.07299  0.35742  Biso   1.000  C
  H163     1.0000 0.45102  0.12899  0.38601  Biso   1.000  H
  H164     1.0000 0.37201  0.12000  0.40199  Biso   1.000  H
  C121     1.0000 0.22869  0.20129  0.07202  Biso   1.000  C
  H165     1.0000 0.29200  0.21701  0.18899  Biso   1.000  H
  H166     1.0000 0.30500  0.24101  0.08402  Biso   1.000  H
  C122     1.0000 0.41399  0.16701  0.93372  Biso   1.000  C
  H167     1.0000 0.33398  0.20399  0.93899  Biso   1.000  H
  H168     1.0000 0.40300  0.22201  0.98700  Biso   1.000  H
  C123     1.0000 0.38061  0.04609  0.39113  Biso   1.000  C
  C124     1.0000 0.48881  0.06060  0.32882  Biso   1.000  C
  N19      1.0000 0.20260  0.16931  0.13563  Biso   1.000  N
  H169     1.0000 0.23498  0.19201  0.00000  Biso   1.000  H
  H170     1.0000 0.19600  0.22299  0.07301  Biso   1.000  H
  N20      1.0000 0.37211  0.13431  0.89901  Biso   1.000  N
  H171     1.0000 0.44698  0.15701  0.98402  Biso   1.000  H
  H172     1.0000 0.43798  0.17799  0.87301  Biso   1.000  H
  C125     1.0000 0.39890  0.00810  0.40038  Biso   1.000  C
  H173     1.0000 0.33398  0.05399  0.40803  Biso   1.000  H
  C126     1.0000 0.50620  0.02221  0.33708  Biso   1.000  C
  H174     1.0000 0.52199  0.08000  0.30099  Biso   1.000  H
  C127     1.0000 0.13228  0.15779  0.10673  Biso   1.000  C
  H175     1.0000 0.23298  0.14701  0.12699  Biso   1.000  H
  H176     1.0000 0.20300  0.17799  0.20902  Biso   1.000  H
  C128     1.0000 0.41029  0.10810  0.83012  Biso   1.000  C
  H177     1.0000 0.35602  0.11899  0.96002  Biso   1.000  H
  H178     1.0000 0.33298  0.14399  0.86002  Biso   1.000  H
  C129     1.0000 0.46022  0.99491  0.37538  Biso   1.000  C
  H179     1.0000 0.36502  0.98899  0.42699  Biso   1.000  H
  H180     1.0000 0.55202  0.01399  0.31598  Biso   1.000  H
  C130     1.0000 0.10450  0.12871  0.18028  Biso   1.000  C
  H181     1.0000 0.13298  0.14601  0.03700  Biso   1.000  H
  H182     1.0000 0.10300  0.18101  0.10596  Biso   1.000  H
  C131     1.0000 0.36842  0.08121  0.77141  Biso   1.000  C
  H183     1.0000 0.44198  0.09299  0.87301  Biso   1.000  H
  H184     1.0000 0.43698  0.12399  0.78096  Biso   1.000  H
  C132     1.0000 0.48091  0.95440  0.38830  Biso   1.000  C
  C133     1.0000 0.10450  0.09020  0.15688  Biso   1.000  C
  C134     1.0000 0.07681  0.13991  0.27439  Biso   1.000  C
  C135     1.0000 0.33438  0.09181  0.68387  Biso   1.000  C
  C136     1.0000 0.36232  0.04259  0.79969  Biso   1.000  C
  C137     1.0000 0.44988  0.92569  0.31529  Biso   1.000  C
  H185     1.0000 0.46902  0.94601  0.45902  Biso   1.000  H
  H186     1.0000 0.52999  0.95299  0.37997  Biso   1.000  H
  C138     1.0000 0.07731  0.06379  0.22317  Biso   1.000  C
  H187     1.0000 0.12399  0.08101  0.09098  Biso   1.000  H
  C139     1.0000 0.05062  0.11339  0.34067  Biso   1.000  C
  H188     1.0000 0.07601  0.16799  0.29404  Biso   1.000  H
  C140     1.0000 0.29640  0.06629  0.63028  Biso   1.000  C
  H189     1.0000 0.33798  0.11899  0.65902  Biso   1.000  H
  C141     1.0000 0.32429  0.01779  0.74534  Biso   1.000  C
  H190     1.0000 0.38701  0.03299  0.86101  Biso   1.000  H
  C142     1.0000 0.42269  0.93621  0.22317  Biso   1.000  C
  C143     1.0000 0.44938  0.88661  0.34067  Biso   1.000  C
  C144     1.0000 0.05012  0.07431  0.31529  Biso   1.000  C
  H191     1.0000 0.07801  0.03601  0.20398  Biso   1.000  H
  H192     1.0000 0.03198  0.12201  0.40803  Biso   1.000  H
  C145     1.0000 0.29080  0.02770  0.66101  Biso   1.000  C
  H193     1.0000 0.27201  0.07500  0.56797  Biso   1.000  H
  H194     1.0000 0.32099  0.99101  0.76904  Biso   1.000  H
  C146     1.0000 0.39550  0.90980  0.15688  Biso   1.000  C
  H195     1.0000 0.42199  0.96399  0.20398  Biso   1.000  H
  C147     1.0000 0.42319  0.86009  0.27439  Biso   1.000  C
  H196     1.0000 0.46802  0.87799  0.40803  Biso   1.000  H
  C148     1.0000 0.01909  0.04560  0.38830  Biso   1.000  C
  C149     1.0000 0.25002  0.00000  0.60092  Biso   1.000  C
  C150     1.0000 0.39550  0.87129  0.18028  Biso   1.000  C
  H197     1.0000 0.37601  0.91899  0.09098  Biso   1.000  H
  H198     1.0000 0.42399  0.83201  0.29404  Biso   1.000  H
  C151     1.0000 0.03978  0.00509  0.37538  Biso   1.000  C
  H199     1.0000 0.03098  0.05399  0.45902  Biso   1.000  H
  H200     1.0000 0.97001  0.04701  0.37997  Biso   1.000  H
  C152     1.0000 0.20920  0.97230  0.66101  Biso   1.000  C
  H201     1.0000 0.28101  0.98500  0.55703  Biso   1.000  H
  H202     1.0000 0.21899  0.01500  0.55703  Biso   1.000  H
  C153     1.0000 0.36772  0.84221  0.10673  Biso   1.000  C
  C154     1.0000 0.99380  0.97779  0.33708  Biso   1.000  C
  C155     1.0000 0.10110  0.99190  0.40038  Biso   1.000  C
  C156     1.0000 0.20360  0.93371  0.63028  Biso   1.000  C
  C157     1.0000 0.17571  0.98221  0.74534  Biso   1.000  C
  N21      1.0000 0.29740  0.83069  0.13563  Biso   1.000  N
  H203     1.0000 0.36702  0.85399  0.03700  Biso   1.000  H
  H204     1.0000 0.39700  0.81899  0.10596  Biso   1.000  H
  H205     1.0000 0.94798  0.98601  0.31598  Biso   1.000  H
  C158     1.0000 0.01119  0.93940  0.32882  Biso   1.000  C
  C159     1.0000 0.11939  0.95391  0.39113  Biso   1.000  C
  H206     1.0000 0.13498  0.01101  0.42699  Biso   1.000  H
  C160     1.0000 0.16562  0.90819  0.68387  Biso   1.000  C
  H207     1.0000 0.22799  0.92500  0.56797  Biso   1.000  H
  C161     1.0000 0.13768  0.95741  0.79969  Biso   1.000  C
  H208     1.0000 0.17901  0.00899  0.76904  Biso   1.000  H
  C162     1.0000 0.27131  0.79871  0.07202  Biso   1.000  C
  H209     1.0000 0.26702  0.85299  0.12699  Biso   1.000  H
  H210     1.0000 0.29700  0.82201  0.20902  Biso   1.000  H
  H211     1.0000 0.97801  0.92000  0.30099  Biso   1.000  H
  C163     1.0000 0.07331  0.92701  0.35742  Biso   1.000  C
  H212     1.0000 0.16602  0.94601  0.40803  Biso   1.000  H
  C164     1.0000 0.13158  0.91879  0.77141  Biso   1.000  C
  H213     1.0000 0.16202  0.88101  0.65902  Biso   1.000  H
  H214     1.0000 0.11299  0.96701  0.86101  Biso   1.000  H
  C165     1.0000 0.20490  0.78471  0.11330  Biso   1.000  C
  H215     1.0000 0.26502  0.80799  0.00000  Biso   1.000  H
  H216     1.0000 0.30400  0.77701  0.07301  Biso   1.000  H
  C166     1.0000 0.08871  0.88451  0.35711  Biso   1.000  C
  C167     1.0000 0.08971  0.89190  0.83012  Biso   1.000  C
  N22      1.0000 0.14978  0.81069  0.08631  Biso   1.000  N
  H217     1.0000 0.20800  0.78299  0.18899  Biso   1.000  H
  H218     1.0000 0.19500  0.75899  0.08402  Biso   1.000  H
  N23      1.0000 0.10250  0.86799  0.25528  Biso   1.000  N
  H219     1.0000 0.04898  0.87101  0.38601  Biso   1.000  H
  H220     1.0000 0.12799  0.88000  0.40199  Biso   1.000  H
  N24      1.0000 0.12789  0.86569  0.89901  Biso   1.000  N
  H221     1.0000 0.05802  0.90701  0.87301  Biso   1.000  H
  H222     1.0000 0.06302  0.87601  0.78096  Biso   1.000  H
  C168     1.0000 0.09510  0.80589  0.15688  Biso   1.000  C
  C169     1.0000 0.12619  0.80181  0.98318  Biso   1.000  C
  C170     1.0000 0.10490  0.82509  0.26139  Biso   1.000  C
  H223     1.0000 0.06602  0.87601  0.20703  Biso   1.000  H
  H224     1.0000 0.14598  0.87799  0.22997  Biso   1.000  H
  C171     1.0000 0.08601  0.83299  0.93372  Biso   1.000  C
  H225     1.0000 0.14398  0.88101  0.96002  Biso   1.000  H
  H226     1.0000 0.16702  0.85601  0.86002  Biso   1.000  H
  H227     1.0000 0.05402  0.81701  0.12500  Biso   1.000  H
  H228     1.0000 0.08901  0.77799  0.16797  Biso   1.000  H
  H229     1.0000 0.16602  0.79601  0.93899  Biso   1.000  H
  H230     1.0000 0.09700  0.77799  0.98700  Biso   1.000  H
  H231     1.0000 0.14898  0.81701  0.28899  Biso   1.000  H
  H232     1.0000 0.06902  0.81601  0.30902  Biso   1.000  H
  H233     1.0000 0.05302  0.84299  0.98402  Biso   1.000  H
  H234     1.0000 0.06202  0.82201  0.87301  Biso   1.000  H
  C172     1.0000 0.63228  0.34221  0.60673  Biso   1.000  C
  N25      1.0000 0.70260  0.33069  0.63563  Biso   1.000  N
  C173     1.0000 0.60450  0.37129  0.68028  Biso   1.000  C
  H235     1.0000 0.63298  0.35399  0.53700  Biso   1.000  H
  H236     1.0000 0.60300  0.31899  0.60596  Biso   1.000  H
  C174     1.0000 0.72869  0.29871  0.57202  Biso   1.000  C
  H237     1.0000 0.73298  0.35299  0.62699  Biso   1.000  H
  H238     1.0000 0.70300  0.32201  0.70902  Biso   1.000  H
  C175     1.0000 0.60450  0.40980  0.65688  Biso   1.000  C
  C176     1.0000 0.57681  0.36009  0.77439  Biso   1.000  C
  C177     1.0000 0.79510  0.28471  0.61330  Biso   1.000  C
  H239     1.0000 0.73498  0.30799  0.50000  Biso   1.000  H
  H240     1.0000 0.69600  0.27701  0.57301  Biso   1.000  H
  C178     1.0000 0.57731  0.43621  0.72317  Biso   1.000  C
  H241     1.0000 0.62399  0.41899  0.59098  Biso   1.000  H
  C179     1.0000 0.55062  0.38661  0.84067  Biso   1.000  C
  H242     1.0000 0.57601  0.33201  0.79404  Biso   1.000  H
  N26      1.0000 0.85022  0.31069  0.58631  Biso   1.000  N
  H243     1.0000 0.79200  0.28299  0.68899  Biso   1.000  H
  H244     1.0000 0.80500  0.25899  0.58402  Biso   1.000  H
  C180     1.0000 0.55012  0.42569  0.81529  Biso   1.000  C
  H245     1.0000 0.57801  0.46399  0.70398  Biso   1.000  H
  H246     1.0000 0.53198  0.37799  0.90803  Biso   1.000  H
  C181     1.0000 0.87381  0.30181  0.48318  Biso   1.000  C
  C182     1.0000 0.90490  0.30589  0.65688  Biso   1.000  C
  C183     1.0000 0.51909  0.45440  0.88830  Biso   1.000  C
  C184     1.0000 0.91399  0.33299  0.43372  Biso   1.000  C
  H247     1.0000 0.83398  0.29601  0.43899  Biso   1.000  H
  H248     1.0000 0.90300  0.27799  0.48700  Biso   1.000  H
  C185     1.0000 0.89510  0.32509  0.76139  Biso   1.000  C
  H249     1.0000 0.94598  0.31701  0.62500  Biso   1.000  H
  H250     1.0000 0.91099  0.27799  0.66797  Biso   1.000  H
  C186     1.0000 0.53978  0.49491  0.87538  Biso   1.000  C
  H251     1.0000 0.53098  0.44601  0.95902  Biso   1.000  H
  H252     1.0000 0.47001  0.45299  0.87997  Biso   1.000  H
  N27      1.0000 0.87211  0.36569  0.39901  Biso   1.000  N
  H253     1.0000 0.94698  0.34299  0.48402  Biso   1.000  H
  H254     1.0000 0.93798  0.32201  0.37301  Biso   1.000  H
  N28      1.0000 0.89750  0.36799  0.75528  Biso   1.000  N
  H255     1.0000 0.85102  0.31701  0.78899  Biso   1.000  H
  H256     1.0000 0.93098  0.31601  0.80902  Biso   1.000  H
  C187     1.0000 0.60110  0.50810  0.90038  Biso   1.000  C
  C188     1.0000 0.49380  0.52221  0.83708  Biso   1.000  C
  C189     1.0000 0.91029  0.39190  0.33012  Biso   1.000  C
  H257     1.0000 0.85602  0.38101  0.46002  Biso   1.000  H
  H258     1.0000 0.83298  0.35601  0.36002  Biso   1.000  H
  C190     1.0000 0.91129  0.38451  0.85711  Biso   1.000  C
  H259     1.0000 0.93398  0.37601  0.70703  Biso   1.000  H
  H260     1.0000 0.85402  0.37799  0.72997  Biso   1.000  H
  C191     1.0000 0.61939  0.54609  0.89113  Biso   1.000  C
  H261     1.0000 0.63498  0.48899  0.92699  Biso   1.000  H
  C192     1.0000 0.51119  0.56060  0.82882  Biso   1.000  C
  H262     1.0000 0.44798  0.51399  0.81598  Biso   1.000  H
  C193     1.0000 0.86842  0.41879  0.27141  Biso   1.000  C
  H263     1.0000 0.94198  0.40701  0.37301  Biso   1.000  H
  H264     1.0000 0.93698  0.37601  0.28096  Biso   1.000  H
  C194     1.0000 0.92669  0.42701  0.85742  Biso   1.000  C
  H265     1.0000 0.95102  0.37101  0.88601  Biso   1.000  H
  H266     1.0000 0.87201  0.38000  0.90199  Biso   1.000  H
  C195     1.0000 0.57331  0.57299  0.85742  Biso   1.000  C
  H267     1.0000 0.66602  0.55399  0.90803  Biso   1.000  H
  H268     1.0000 0.47801  0.58000  0.80099  Biso   1.000  H
  C196     1.0000 0.83438  0.40819  0.18387  Biso   1.000  C
  C197     1.0000 0.86232  0.45741  0.29969  Biso   1.000  C
  C198     1.0000 0.98881  0.43940  0.82882  Biso   1.000  C
  C199     1.0000 0.88061  0.45391  0.89113  Biso   1.000  C
  C200     1.0000 0.58871  0.61549  0.85711  Biso   1.000  C
  C201     1.0000 0.79640  0.43371  0.13028  Biso   1.000  C
  H269     1.0000 0.83798  0.38101  0.15902  Biso   1.000  H
  C202     1.0000 0.82429  0.48221  0.24534  Biso   1.000  C
  H270     1.0000 0.88701  0.46701  0.36101  Biso   1.000  H
  C203     1.0000 0.00620  0.47779  0.83708  Biso   1.000  C
  H271     1.0000 0.02199  0.42000  0.80099  Biso   1.000  H
  C204     1.0000 0.89890  0.49190  0.90038  Biso   1.000  C
  H272     1.0000 0.83398  0.44601  0.90803  Biso   1.000  H
  N29      1.0000 0.60250  0.63201  0.75528  Biso   1.000  N
  H273     1.0000 0.54898  0.62899  0.88601  Biso   1.000  H
  H274     1.0000 0.62799  0.62000  0.90199  Biso   1.000  H
  C205     1.0000 0.79080  0.47230  0.16101  Biso   1.000  C
  H275     1.0000 0.77201  0.42500  0.06797  Biso   1.000  H
  H276     1.0000 0.82099  0.50899  0.26904  Biso   1.000  H
  C206     1.0000 0.96022  0.50509  0.87538  Biso   1.000  C
  H277     1.0000 0.05202  0.48601  0.81598  Biso   1.000  H
  H278     1.0000 0.86502  0.51101  0.92699  Biso   1.000  H
  C207     1.0000 0.60490  0.67491  0.76139  Biso   1.000  C
  H279     1.0000 0.56602  0.62399  0.70703  Biso   1.000  H
  H280     1.0000 0.64598  0.62201  0.72997  Biso   1.000  H
  C208     1.0000 0.75002  0.50000  0.10092  Biso   1.000  C
  C209     1.0000 0.98091  0.54560  0.88830  Biso   1.000  C
  C210     1.0000 0.59510  0.69411  0.65688  Biso   1.000  C
  H281     1.0000 0.64898  0.68299  0.78899  Biso   1.000  H
  H282     1.0000 0.56902  0.68399  0.80902  Biso   1.000  H
  H283     1.0000 0.71899  0.48500  0.05703  Biso   1.000  H
  C211     1.0000 0.70920  0.52770  0.16101  Biso   1.000  C
  H284     1.0000 0.78101  0.51500  0.05703  Biso   1.000  H
  C212     1.0000 0.94988  0.57431  0.81529  Biso   1.000  C
  H285     1.0000 0.96902  0.55399  0.95902  Biso   1.000  H
  H286     1.0000 0.02999  0.54701  0.87997  Biso   1.000  H
  N30      1.0000 0.64978  0.68931  0.58631  Biso   1.000  N
  H287     1.0000 0.55402  0.68299  0.62500  Biso   1.000  H
  H288     1.0000 0.58901  0.72201  0.66797  Biso   1.000  H
  C213     1.0000 0.70360  0.56629  0.13028  Biso   1.000  C
  C214     1.0000 0.67571  0.51779  0.24534  Biso   1.000  C
  C215     1.0000 0.92269  0.56379  0.72317  Biso   1.000  C
  C216     1.0000 0.94938  0.61339  0.84067  Biso   1.000  C
  C217     1.0000 0.62619  0.69819  0.48318  Biso   1.000  C
  C218     1.0000 0.70490  0.71529  0.61330  Biso   1.000  C
  C219     1.0000 0.66562  0.59181  0.18387  Biso   1.000  C
  H289     1.0000 0.72799  0.57500  0.06797  Biso   1.000  H
  C220     1.0000 0.63768  0.54259  0.29969  Biso   1.000  C
  H290     1.0000 0.67901  0.49101  0.26904  Biso   1.000  H
  C221     1.0000 0.89550  0.59020  0.65688  Biso   1.000  C
  H291     1.0000 0.92199  0.53601  0.70398  Biso   1.000  H
  C222     1.0000 0.92319  0.63991  0.77439  Biso   1.000  C
  H292     1.0000 0.96802  0.62201  0.90803  Biso   1.000  H
  C223     1.0000 0.58601  0.66701  0.43372  Biso   1.000  C
  H293     1.0000 0.66602  0.70399  0.43899  Biso   1.000  H
  H294     1.0000 0.59700  0.72201  0.48700  Biso   1.000  H
  C224     1.0000 0.77131  0.70129  0.57202  Biso   1.000  C
  H295     1.0000 0.70800  0.71701  0.68899  Biso   1.000  H
  H296     1.0000 0.69500  0.74101  0.58402  Biso   1.000  H
  C225     1.0000 0.63158  0.58121  0.27141  Biso   1.000  C
  H297     1.0000 0.66202  0.61899  0.15902  Biso   1.000  H
  H298     1.0000 0.61299  0.53299  0.36101  Biso   1.000  H
  C226     1.0000 0.89550  0.62871  0.68028  Biso   1.000  C
  H299     1.0000 0.87601  0.58101  0.59098  Biso   1.000  H
  H300     1.0000 0.92399  0.66799  0.79404  Biso   1.000  H
  N31      1.0000 0.62789  0.63431  0.39901  Biso   1.000  N
  H301     1.0000 0.55302  0.65701  0.48402  Biso   1.000  H
  H302     1.0000 0.56202  0.67799  0.37301  Biso   1.000  H
  N32      1.0000 0.79740  0.66931  0.63563  Biso   1.000  N
  H303     1.0000 0.76502  0.69201  0.50000  Biso   1.000  H
  H304     1.0000 0.80400  0.72299  0.57301  Biso   1.000  H
  C227     1.0000 0.58971  0.60810  0.33012  Biso   1.000  C
  C228     1.0000 0.86772  0.65779  0.60673  Biso   1.000  C
  H305     1.0000 0.64398  0.61899  0.46002  Biso   1.000  H
  H306     1.0000 0.66702  0.64399  0.36002  Biso   1.000  H
  H307     1.0000 0.76702  0.64701  0.62699  Biso   1.000  H
  H308     1.0000 0.79700  0.67799  0.70902  Biso   1.000  H
  H309     1.0000 0.55802  0.59299  0.37301  Biso   1.000  H
  H310     1.0000 0.56302  0.62399  0.28096  Biso   1.000  H
  H311     1.0000 0.86702  0.64601  0.53700  Biso   1.000  H
  H312     1.0000 0.89700  0.68101  0.60596  Biso   1.000  H
  C229     1.0000 0.57681  0.13991  0.72561  Biso   1.000  C
  C230     1.0000 0.55062  0.11339  0.65933  Biso   1.000  C
  C231     1.0000 0.60450  0.12871  0.81972  Biso   1.000  C
  H313     1.0000 0.57601  0.16799  0.70596  Biso   1.000  H
  C232     1.0000 0.55012  0.07431  0.68471  Biso   1.000  C
  H314     1.0000 0.53198  0.12201  0.59197  Biso   1.000  H
  C233     1.0000 0.60450  0.09020  0.84312  Biso   1.000  C
  C234     1.0000 0.63228  0.15779  0.89327  Biso   1.000  C
  C235     1.0000 0.57731  0.06379  0.77683  Biso   1.000  C
  C236     1.0000 0.51909  0.04560  0.61170  Biso   1.000  C
  H315     1.0000 0.62399  0.08101  0.90902  Biso   1.000  H
  N33      1.0000 0.70260  0.16931  0.86437  Biso   1.000  N
  H316     1.0000 0.63298  0.14601  0.96300  Biso   1.000  H
  H317     1.0000 0.60300  0.18101  0.89404  Biso   1.000  H
  H318     1.0000 0.57801  0.03601  0.79602  Biso   1.000  H
  C237     1.0000 0.53978  0.00509  0.62462  Biso   1.000  C
  H319     1.0000 0.53098  0.05399  0.54098  Biso   1.000  H
  H320     1.0000 0.47001  0.04701  0.62003  Biso   1.000  H
  C238     1.0000 0.72869  0.20129  0.92798  Biso   1.000  C
  H321     1.0000 0.73298  0.14701  0.87301  Biso   1.000  H
  H322     1.0000 0.70300  0.17799  0.79098  Biso   1.000  H
  C239     1.0000 0.60110  0.99190  0.59962  Biso   1.000  C
  C240     1.0000 0.49380  0.97779  0.66292  Biso   1.000  C
  C241     1.0000 0.79510  0.21529  0.88670  Biso   1.000  C
  H323     1.0000 0.69600  0.22299  0.92699  Biso   1.000  H
  H324     1.0000 0.73498  0.19201  1.00000  Biso   1.000  H
  H325     1.0000 0.63498  0.01101  0.57301  Biso   1.000  H
  C242     1.0000 0.61939  0.95391  0.60887  Biso   1.000  C
  C243     1.0000 0.51119  0.93940  0.67118  Biso   1.000  C
  H326     1.0000 0.44798  0.98601  0.68402  Biso   1.000  H
  N34      1.0000 0.85022  0.18931  0.91369  Biso   1.000  N
  H327     1.0000 0.79200  0.21701  0.81101  Biso   1.000  H
  H328     1.0000 0.80500  0.24101  0.91598  Biso   1.000  H
  C244     1.0000 0.57331  0.92701  0.64258  Biso   1.000  C
  H329     1.0000 0.66602  0.94601  0.59197  Biso   1.000  H
  H330     1.0000 0.47801  0.92000  0.69901  Biso   1.000  H
  C245     1.0000 0.90490  0.19411  0.84312  Biso   1.000  C
  C246     1.0000 0.87381  0.19819  0.01682  Biso   1.000  C
  C247     1.0000 0.58871  0.88451  0.64289  Biso   1.000  C
  C248     1.0000 0.89510  0.17491  0.73861  Biso   1.000  C
  H331     1.0000 0.94598  0.18299  0.87500  Biso   1.000  H
  H332     1.0000 0.91099  0.22201  0.83203  Biso   1.000  H
  C249     1.0000 0.91399  0.16701  0.06628  Biso   1.000  C
  H333     1.0000 0.83398  0.20399  0.06101  Biso   1.000  H
  H334     1.0000 0.90300  0.22201  0.01300  Biso   1.000  H
  N35      1.0000 0.60250  0.86799  0.74472  Biso   1.000  N
  H335     1.0000 0.54898  0.87101  0.61399  Biso   1.000  H
  H336     1.0000 0.62799  0.88000  0.59801  Biso   1.000  H
  N36      1.0000 0.89750  0.13201  0.74472  Biso   1.000  N
  H337     1.0000 0.85102  0.18299  0.71101  Biso   1.000  H
  H338     1.0000 0.93098  0.18399  0.69098  Biso   1.000  H
  N37      1.0000 0.87211  0.13431  0.10099  Biso   1.000  N
  H339     1.0000 0.94698  0.15701  0.01598  Biso   1.000  H
  H340     1.0000 0.93798  0.17799  0.12699  Biso   1.000  H
  C250     1.0000 0.60490  0.82509  0.73861  Biso   1.000  C
  H341     1.0000 0.56602  0.87601  0.79297  Biso   1.000  H
  H342     1.0000 0.64598  0.87799  0.77003  Biso   1.000  H
  C251     1.0000 0.91129  0.11549  0.64289  Biso   1.000  C
  H343     1.0000 0.93398  0.12399  0.79297  Biso   1.000  H
  H344     1.0000 0.85402  0.12201  0.77003  Biso   1.000  H
  C252     1.0000 0.91029  0.10810  0.16988  Biso   1.000  C
  H345     1.0000 0.85602  0.11899  0.03998  Biso   1.000  H
  H346     1.0000 0.83298  0.14399  0.13998  Biso   1.000  H
  C253     1.0000 0.59510  0.80589  0.84312  Biso   1.000  C
  H347     1.0000 0.64898  0.81701  0.71101  Biso   1.000  H
  H348     1.0000 0.56902  0.81601  0.69098  Biso   1.000  H
  C254     1.0000 0.92669  0.07299  0.64258  Biso   1.000  C
  H349     1.0000 0.95102  0.12899  0.61399  Biso   1.000  H
  H350     1.0000 0.87201  0.12000  0.59801  Biso   1.000  H
  C255     1.0000 0.86842  0.08121  0.22859  Biso   1.000  C
  H351     1.0000 0.94198  0.09299  0.12699  Biso   1.000  H
  H352     1.0000 0.93698  0.12399  0.21904  Biso   1.000  H
  N38      1.0000 0.64978  0.81069  0.91369  Biso   1.000  N
  H353     1.0000 0.55402  0.81701  0.87500  Biso   1.000  H
  H354     1.0000 0.58901  0.77799  0.83203  Biso   1.000  H
  C256     1.0000 0.98881  0.06060  0.67118  Biso   1.000  C
  C257     1.0000 0.88061  0.04609  0.60887  Biso   1.000  C
  C258     1.0000 0.83438  0.09181  0.31613  Biso   1.000  C
  C259     1.0000 0.86232  0.04259  0.20031  Biso   1.000  C
  C260     1.0000 0.70490  0.78471  0.88670  Biso   1.000  C
  C261     1.0000 0.62619  0.80181  0.01682  Biso   1.000  C
  C262     1.0000 0.00620  0.02221  0.66292  Biso   1.000  C
  H355     1.0000 0.02199  0.08000  0.69901  Biso   1.000  H
  C263     1.0000 0.89890  0.00810  0.59962  Biso   1.000  C
  H356     1.0000 0.83398  0.05399  0.59197  Biso   1.000  H
  C264     1.0000 0.79640  0.06629  0.36972  Biso   1.000  C
  H357     1.0000 0.83798  0.11899  0.34098  Biso   1.000  H
  C265     1.0000 0.82429  0.01779  0.25466  Biso   1.000  C
  H358     1.0000 0.88701  0.03299  0.13899  Biso   1.000  H
  C266     1.0000 0.77131  0.79871  0.92798  Biso   1.000  C
  H359     1.0000 0.70800  0.78299  0.81101  Biso   1.000  H
  H360     1.0000 0.69500  0.75899  0.91598  Biso   1.000  H
  C267     1.0000 0.58601  0.83299  0.06628  Biso   1.000  C
  H361     1.0000 0.66602  0.79601  0.06101  Biso   1.000  H
  H362     1.0000 0.59700  0.77799  0.01300  Biso   1.000  H
  C268     1.0000 0.96022  0.99491  0.62462  Biso   1.000  C
  H363     1.0000 0.05202  0.01399  0.68402  Biso   1.000  H
  H364     1.0000 0.86502  0.98899  0.57301  Biso   1.000  H
  C269     1.0000 0.79080  0.02770  0.33899  Biso   1.000  C
  H365     1.0000 0.77201  0.07500  0.43203  Biso   1.000  H
  H366     1.0000 0.82099  0.99101  0.23096  Biso   1.000  H
  N39      1.0000 0.79740  0.83069  0.86437  Biso   1.000  N
  H367     1.0000 0.80400  0.77701  0.92699  Biso   1.000  H
  H368     1.0000 0.76502  0.80799  1.00000  Biso   1.000  H
  N40      1.0000 0.62789  0.86569  0.10099  Biso   1.000  N
  H369     1.0000 0.55302  0.84299  0.01598  Biso   1.000  H
  H370     1.0000 0.56202  0.82201  0.12699  Biso   1.000  H
  C270     1.0000 0.98091  0.95440  0.61170  Biso   1.000  C
  C271     1.0000 0.75002  0.00000  0.39908  Biso   1.000  C
  C272     1.0000 0.86772  0.84221  0.89327  Biso   1.000  C
  H371     1.0000 0.76702  0.85299  0.87301  Biso   1.000  H
  H372     1.0000 0.79700  0.82201  0.79098  Biso   1.000  H
  C273     1.0000 0.58971  0.89190  0.16988  Biso   1.000  C
  H373     1.0000 0.64398  0.88101  0.03998  Biso   1.000  H
  H374     1.0000 0.66702  0.85601  0.13998  Biso   1.000  H
  C274     1.0000 0.94988  0.92569  0.68471  Biso   1.000  C
  H375     1.0000 0.96902  0.94601  0.54098  Biso   1.000  H
  H376     1.0000 0.02999  0.95299  0.62003  Biso   1.000  H
  C275     1.0000 0.70920  0.97230  0.33899  Biso   1.000  C
  H377     1.0000 0.78101  0.98500  0.44297  Biso   1.000  H
  H378     1.0000 0.71899  0.01500  0.44297  Biso   1.000  H
  C276     1.0000 0.89550  0.87129  0.81972  Biso   1.000  C
  H379     1.0000 0.86702  0.85399  0.96300  Biso   1.000  H
  H380     1.0000 0.89700  0.81899  0.89404  Biso   1.000  H
  C277     1.0000 0.63158  0.91879  0.22859  Biso   1.000  C
  H381     1.0000 0.55802  0.90701  0.12699  Biso   1.000  H
  H382     1.0000 0.56302  0.87601  0.21904  Biso   1.000  H
  C278     1.0000 0.92269  0.93621  0.77683  Biso   1.000  C
  C279     1.0000 0.94938  0.88661  0.65933  Biso   1.000  C
  C280     1.0000 0.70360  0.93371  0.36972  Biso   1.000  C
  C281     1.0000 0.67571  0.98221  0.25466  Biso   1.000  C
  C282     1.0000 0.89550  0.90980  0.84312  Biso   1.000  C
  C283     1.0000 0.92319  0.86009  0.72561  Biso   1.000  C
  C284     1.0000 0.66562  0.90819  0.31613  Biso   1.000  C
  C285     1.0000 0.63768  0.95741  0.20031  Biso   1.000  C
  H383     1.0000 0.92199  0.96399  0.79602  Biso   1.000  H
  H384     1.0000 0.96802  0.87799  0.59197  Biso   1.000  H
  H385     1.0000 0.72799  0.92500  0.43203  Biso   1.000  H
  H386     1.0000 0.67901  0.00899  0.23096  Biso   1.000  H
  H387     1.0000 0.87601  0.91899  0.90902  Biso   1.000  H
  H388     1.0000 0.92399  0.83201  0.70596  Biso   1.000  H
  H389     1.0000 0.66202  0.88101  0.34098  Biso   1.000  H
  H390     1.0000 0.61299  0.96701  0.13899  Biso   1.000  H
  C286     1.0000 0.57681  0.13991  0.72561  Biso   1.000  C
  C287     1.0000 0.55062  0.11339  0.65933  Biso   1.000  C
  C288     1.0000 0.60450  0.12871  0.81972  Biso   1.000  C
  H391     1.0000 0.57601  0.16799  0.70596  Biso   1.000  H
  C289     1.0000 0.55012  0.07431  0.68471  Biso   1.000  C
  H392     1.0000 0.53198  0.12201  0.59197  Biso   1.000  H
  C290     1.0000 0.60450  0.09020  0.84312  Biso   1.000  C
  C291     1.0000 0.63228  0.15779  0.89327  Biso   1.000  C
  C292     1.0000 0.57731  0.06379  0.77683  Biso   1.000  C
  C293     1.0000 0.51909  0.04560  0.61170  Biso   1.000  C
  H393     1.0000 0.62399  0.08101  0.90902  Biso   1.000  H
  N41      1.0000 0.70260  0.16931  0.86437  Biso   1.000  N
  H394     1.0000 0.63298  0.14601  0.96300  Biso   1.000  H
  H395     1.0000 0.60300  0.18101  0.89404  Biso   1.000  H
  H396     1.0000 0.57801  0.03601  0.79602  Biso   1.000  H
  C294     1.0000 0.53978  0.00509  0.62462  Biso   1.000  C
  H397     1.0000 0.53098  0.05399  0.54098  Biso   1.000  H
  H398     1.0000 0.47001  0.04701  0.62003  Biso   1.000  H
  C295     1.0000 0.72869  0.20129  0.92798  Biso   1.000  C
  H399     1.0000 0.73298  0.14701  0.87301  Biso   1.000  H
  H400     1.0000 0.70300  0.17799  0.79098  Biso   1.000  H
  C296     1.0000 0.60110  0.99190  0.59962  Biso   1.000  C
  C297     1.0000 0.49380  0.97779  0.66292  Biso   1.000  C
  C298     1.0000 0.79510  0.21529  0.88670  Biso   1.000  C
  H401     1.0000 0.69600  0.22299  0.92699  Biso   1.000  H
  H402     1.0000 0.73498  0.19201  1.00000  Biso   1.000  H
  C299     1.0000 0.61939  0.95391  0.60887  Biso   1.000  C
  H403     1.0000 0.63498  0.01101  0.57301  Biso   1.000  H
  C300     1.0000 0.51119  0.93940  0.67118  Biso   1.000  C
  H404     1.0000 0.44798  0.98601  0.68402  Biso   1.000  H
  N42      1.0000 0.85022  0.18931  0.91369  Biso   1.000  N
  H405     1.0000 0.79200  0.21701  0.81101  Biso   1.000  H
  H406     1.0000 0.80500  0.24101  0.91598  Biso   1.000  H
  C301     1.0000 0.57331  0.92701  0.64258  Biso   1.000  C
  H407     1.0000 0.66602  0.94601  0.59197  Biso   1.000  H
  H408     1.0000 0.47801  0.92000  0.69901  Biso   1.000  H
  C302     1.0000 0.90490  0.19411  0.84312  Biso   1.000  C
  C303     1.0000 0.87381  0.19819  0.01682  Biso   1.000  C
  C304     1.0000 0.58871  0.88451  0.64289  Biso   1.000  C
  C305     1.0000 0.89510  0.17491  0.73861  Biso   1.000  C
  H409     1.0000 0.94598  0.18299  0.87500  Biso   1.000  H
  H410     1.0000 0.91099  0.22201  0.83203  Biso   1.000  H
  C306     1.0000 0.91399  0.16701  0.06628  Biso   1.000  C
  H411     1.0000 0.83398  0.20399  0.06101  Biso   1.000  H
  H412     1.0000 0.90300  0.22201  0.01300  Biso   1.000  H
  N43      1.0000 0.60250  0.86799  0.74472  Biso   1.000  N
  H413     1.0000 0.54898  0.87101  0.61399  Biso   1.000  H
  H414     1.0000 0.62799  0.88000  0.59801  Biso   1.000  H
  N44      1.0000 0.89750  0.13201  0.74472  Biso   1.000  N
  H415     1.0000 0.85102  0.18299  0.71101  Biso   1.000  H
  H416     1.0000 0.93098  0.18399  0.69098  Biso   1.000  H
  N45      1.0000 0.87211  0.13431  0.10099  Biso   1.000  N
  H417     1.0000 0.94698  0.15701  0.01598  Biso   1.000  H
  H418     1.0000 0.93798  0.17799  0.12699  Biso   1.000  H
  C307     1.0000 0.60490  0.82509  0.73861  Biso   1.000  C
  H419     1.0000 0.56602  0.87601  0.79297  Biso   1.000  H
  H420     1.0000 0.64598  0.87799  0.77003  Biso   1.000  H
  C308     1.0000 0.91129  0.11549  0.64289  Biso   1.000  C
  H421     1.0000 0.93398  0.12399  0.79297  Biso   1.000  H
  H422     1.0000 0.85402  0.12201  0.77003  Biso   1.000  H
  C309     1.0000 0.91029  0.10810  0.16988  Biso   1.000  C
  H423     1.0000 0.85602  0.11899  0.03998  Biso   1.000  H
  H424     1.0000 0.83298  0.14399  0.13998  Biso   1.000  H
  C310     1.0000 0.59510  0.80589  0.84312  Biso   1.000  C
  H425     1.0000 0.64898  0.81701  0.71101  Biso   1.000  H
  H426     1.0000 0.56902  0.81601  0.69098  Biso   1.000  H
  C311     1.0000 0.92669  0.07299  0.64258  Biso   1.000  C
  H427     1.0000 0.95102  0.12899  0.61399  Biso   1.000  H
  H428     1.0000 0.87201  0.12000  0.59801  Biso   1.000  H
  C312     1.0000 0.86842  0.08121  0.22859  Biso   1.000  C
  H429     1.0000 0.94198  0.09299  0.12699  Biso   1.000  H
  H430     1.0000 0.93698  0.12399  0.21904  Biso   1.000  H
  N46      1.0000 0.64978  0.81069  0.91369  Biso   1.000  N
  H431     1.0000 0.55402  0.81701  0.87500  Biso   1.000  H
  H432     1.0000 0.58901  0.77799  0.83203  Biso   1.000  H
  C313     1.0000 0.98881  0.06060  0.67118  Biso   1.000  C
  C314     1.0000 0.88061  0.04609  0.60887  Biso   1.000  C
  C315     1.0000 0.83438  0.09181  0.31613  Biso   1.000  C
  C316     1.0000 0.86232  0.04259  0.20031  Biso   1.000  C
  C317     1.0000 0.70490  0.78471  0.88670  Biso   1.000  C
  C318     1.0000 0.62619  0.80181  0.01682  Biso   1.000  C
  C319     1.0000 0.00620  0.02221  0.66292  Biso   1.000  C
  H433     1.0000 0.02199  0.08000  0.69901  Biso   1.000  H
  C320     1.0000 0.89890  0.00810  0.59962  Biso   1.000  C
  H434     1.0000 0.83398  0.05399  0.59197  Biso   1.000  H
  C321     1.0000 0.79640  0.06629  0.36972  Biso   1.000  C
  H435     1.0000 0.83798  0.11899  0.34098  Biso   1.000  H
  C322     1.0000 0.82429  0.01779  0.25466  Biso   1.000  C
  H436     1.0000 0.88701  0.03299  0.13899  Biso   1.000  H
  C323     1.0000 0.77131  0.79871  0.92798  Biso   1.000  C
  H437     1.0000 0.70800  0.78299  0.81101  Biso   1.000  H
  H438     1.0000 0.69500  0.75899  0.91598  Biso   1.000  H
  C324     1.0000 0.58601  0.83299  0.06628  Biso   1.000  C
  H439     1.0000 0.66602  0.79601  0.06101  Biso   1.000  H
  H440     1.0000 0.59700  0.77799  0.01300  Biso   1.000  H
  C325     1.0000 0.96022  0.99491  0.62462  Biso   1.000  C
  H441     1.0000 0.05202  0.01399  0.68402  Biso   1.000  H
  H442     1.0000 0.86502  0.98899  0.57301  Biso   1.000  H
  C326     1.0000 0.79080  0.02770  0.33899  Biso   1.000  C
  H443     1.0000 0.77201  0.07500  0.43203  Biso   1.000  H
  H444     1.0000 0.82099  0.99101  0.23096  Biso   1.000  H
  N47      1.0000 0.79740  0.83069  0.86437  Biso   1.000  N
  H445     1.0000 0.80400  0.77701  0.92699  Biso   1.000  H
  H446     1.0000 0.76502  0.80799  1.00000  Biso   1.000  H
  N48      1.0000 0.62789  0.86569  0.10099  Biso   1.000  N
  H447     1.0000 0.55302  0.84299  0.01598  Biso   1.000  H
  H448     1.0000 0.56202  0.82201  0.12699  Biso   1.000  H
  C327     1.0000 0.98091  0.95440  0.61170  Biso   1.000  C
  C328     1.0000 0.75002  0.00000  0.39908  Biso   1.000  C
  C329     1.0000 0.86772  0.84221  0.89327  Biso   1.000  C
  H449     1.0000 0.76702  0.85299  0.87301  Biso   1.000  H
  H450     1.0000 0.79700  0.82201  0.79098  Biso   1.000  H
  C330     1.0000 0.58971  0.89190  0.16988  Biso   1.000  C
  H451     1.0000 0.64398  0.88101  0.03998  Biso   1.000  H
  H452     1.0000 0.66702  0.85601  0.13998  Biso   1.000  H
  C331     1.0000 0.94988  0.92569  0.68471  Biso   1.000  C
  H453     1.0000 0.96902  0.94601  0.54098  Biso   1.000  H
  H454     1.0000 0.02999  0.95299  0.62003  Biso   1.000  H
  C332     1.0000 0.70920  0.97230  0.33899  Biso   1.000  C
  H455     1.0000 0.78101  0.98500  0.44297  Biso   1.000  H
  H456     1.0000 0.71899  0.01500  0.44297  Biso   1.000  H
  C333     1.0000 0.89550  0.87129  0.81972  Biso   1.000  C
  H457     1.0000 0.86702  0.85399  0.96300  Biso   1.000  H
  H458     1.0000 0.89700  0.81899  0.89404  Biso   1.000  H
  C334     1.0000 0.63158  0.91879  0.22859  Biso   1.000  C
  H459     1.0000 0.55802  0.90701  0.12699  Biso   1.000  H
  H460     1.0000 0.56302  0.87601  0.21904  Biso   1.000  H
  C335     1.0000 0.92269  0.93621  0.77683  Biso   1.000  C
  C336     1.0000 0.94938  0.88661  0.65933  Biso   1.000  C
  C337     1.0000 0.70360  0.93371  0.36972  Biso   1.000  C
  C338     1.0000 0.67571  0.98221  0.25466  Biso   1.000  C
  C339     1.0000 0.89550  0.90980  0.84312  Biso   1.000  C
  C340     1.0000 0.92319  0.86009  0.72561  Biso   1.000  C
  C341     1.0000 0.66562  0.90819  0.31613  Biso   1.000  C
  C342     1.0000 0.63768  0.95741  0.20031  Biso   1.000  C
  H461     1.0000 0.92199  0.96399  0.79602  Biso   1.000  H
  H462     1.0000 0.96802  0.87799  0.59197  Biso   1.000  H
  H463     1.0000 0.72799  0.92500  0.43203  Biso   1.000  H
  H464     1.0000 0.67901  0.00899  0.23096  Biso   1.000  H
  H465     1.0000 0.87601  0.91899  0.90902  Biso   1.000  H
  H466     1.0000 0.92399  0.83201  0.70596  Biso   1.000  H
  H467     1.0000 0.66202  0.88101  0.34098  Biso   1.000  H
  H468     1.0000 0.61299  0.96701  0.13899  Biso   1.000  H
