data_image0
_cell_length_a       20.67
_cell_length_b       27.198
_cell_length_c       28.726
_cell_angle_alpha    90
_cell_angle_beta     90
_cell_angle_gamma    90

_symmetry_space_group_name_H-M    "P 1"
_symmetry_int_tables_number       1

loop_
  _symmetry_equiv_pos_as_xyz
  'x, y, z'

loop_
  _atom_site_label
  _atom_site_occupancy
  _atom_site_fract_x
  _atom_site_fract_y
  _atom_site_fract_z
  _atom_site_thermal_displace_type
  _atom_site_B_iso_or_equiv
  _atom_site_type_symbol
  C1       1.0000 0.52719  0.54070  0.57109  Biso   1.000  C
  C2       1.0000 0.56812  0.59059  0.57770  Biso   1.000  C
  C3       1.0000 0.56052  0.62060  0.53241  Biso   1.000  C
  C4       1.0000 0.53972  0.61688  0.62031  Biso   1.000  C
  C5       1.0000 0.63691  0.57559  0.58289  Biso   1.000  C
  N1       1.0000 0.55578  0.66560  0.62811  Biso   1.000  N
  C6       1.0000 0.49182  0.60280  0.65070  Biso   1.000  C
  N2       1.0000 0.68471  0.61170  0.59089  Biso   1.000  N
  C7       1.0000 0.66768  0.53011  0.57620  Biso   1.000  C
  C8       1.0000 0.52100  0.68251  0.66581  Biso   1.000  C
  C9       1.0000 0.48031  0.64420  0.68039  Biso   1.000  C
  C10      1.0000 0.74519  0.58850  0.58811  Biso   1.000  C
  C11      1.0000 0.73701  0.53978  0.58122  Biso   1.000  C
  C12      1.0000 0.52501  0.73491  0.68280  Biso   1.000  C
  C13      1.0000 0.80668  0.61821  0.59789  Biso   1.000  C
  C14      1.0000 0.52148  0.77311  0.64370  Biso   1.000  C
  C15      1.0000 0.58699  0.74252  0.71061  Biso   1.000  C
  C16      1.0000 0.46778  0.74428  0.71709  Biso   1.000  C
  C17      1.0000 0.86439  0.58019  0.59281  Biso   1.000  C
  C18      1.0000 0.81601  0.65920  0.56120  Biso   1.000  C
  C19      1.0000 0.80798  0.64350  0.64419  Biso   1.000  C
  C20      1.0000 0.48529  0.76428  0.60381  Biso   1.000  C
  C21      1.0000 0.54910  0.81870  0.64979  Biso   1.000  C
  N3       1.0000 0.64669  0.74101  0.68770  Biso   1.000  N
  C22      1.0000 0.59681  0.75829  0.75601  Biso   1.000  C
  C23      1.0000 0.78002  0.66141  0.51859  Biso   1.000  C
  C24      1.0000 0.86072  0.69612  0.56879  Biso   1.000  C
  N4       1.0000 0.77218  0.68468  0.65140  Biso   1.000  N
  C25      1.0000 0.85210  0.63839  0.68029  Biso   1.000  C
  C26      1.0000 0.47852  0.80131  0.56861  Biso   1.000  C
  C27      1.0000 0.54219  0.85528  0.61551  Biso   1.000  C
  C28      1.0000 0.69458  0.75461  0.71900  Biso   1.000  C
  C29      1.0000 0.66570  0.76469  0.76161  Biso   1.000  C
  C30      1.0000 0.78979  0.69840  0.48729  Biso   1.000  C
  C31      1.0000 0.87092  0.73520  0.53669  Biso   1.000  C
  C32      1.0000 0.79182  0.70840  0.69209  Biso   1.000  C
  C33      1.0000 0.83948  0.68001  0.71152  Biso   1.000  C
  C34      1.0000 0.50842  0.84602  0.57498  Biso   1.000  C
  C35      1.0000 0.76488  0.75759  0.70459  Biso   1.000  C
  C36      1.0000 0.83382  0.73538  0.49659  Biso   1.000  C
  O1       1.0000 0.50150  0.88440  0.54411  Biso   1.000  O
  C37      1.0000 0.76899  0.79359  0.66111  Biso   1.000  C
  C38      1.0000 0.80329  0.77921  0.74560  Biso   1.000  C
  O2       1.0000 0.84088  0.77090  0.46209  Biso   1.000  O
  C39      1.0000 0.47392  0.87639  0.49889  Biso   1.000  C
  C40      1.0000 0.86928  0.81359  0.47560  Biso   1.000  C
  C41      1.0000 0.51921  0.84900  0.46439  Biso   1.000  C
  C42      1.0000 0.87460  0.84958  0.43379  Biso   1.000  C
  O3       1.0000 0.57421  0.87951  0.45060  Biso   1.000  O
  O4       1.0000 0.81040  0.86889  0.42470  Biso   1.000  O
  C43      1.0000 0.55738  0.91481  0.41952  Biso   1.000  C
  C44      1.0000 0.81509  0.90510  0.39111  Biso   1.000  C
  C45      1.0000 0.54161  0.90371  0.37210  Biso   1.000  C
  C46      1.0000 0.56009  0.96360  0.43441  Biso   1.000  C
  C47      1.0000 0.80779  0.89091  0.34481  Biso   1.000  C
  C48      1.0000 0.82801  0.95342  0.40531  Biso   1.000  C
  C49      1.0000 0.54412  0.85381  0.35209  Biso   1.000  C
  C50      1.0000 0.51930  0.94319  0.34380  Biso   1.000  C
  C51      1.0000 0.58539  0.97669  0.48179  Biso   1.000  C
  C52      1.0000 0.53798  0.00279  0.40479  Biso   1.000  C
  C53      1.0000 0.82042  0.92720  0.30961  Biso   1.000  C
  C54      1.0000 0.79018  0.83969  0.32901  Biso   1.000  C
  C55      1.0000 0.84170  0.98801  0.36970  Biso   1.000  C
  C56      1.0000 0.83000  0.96889  0.45568  Biso   1.000  C
  C57      1.0000 0.60900  0.82649  0.36009  Biso   1.000  C
  C58      1.0000 0.51558  0.99000  0.35999  Biso   1.000  C
  C59      1.0000 0.65259  0.95809  0.49520  Biso   1.000  C
  C60      1.0000 0.83962  0.97261  0.32371  Biso   1.000  C
  C61      1.0000 0.72501  0.82138  0.35048  Biso   1.000  C
  C62      1.0000 0.76821  0.95400  0.48249  Biso   1.000  C
  C63      1.0000 0.61060  0.78532  0.38940  Biso   1.000  C
  C64      1.0000 0.66478  0.84219  0.34102  Biso   1.000  C
  Cs1      1.0000 0.67605  0.99312  0.32907  Biso   1.000  Cs
  C65      1.0000 0.65868  0.92731  0.53241  Biso   1.000  C
  C66      1.0000 0.70682  0.97180  0.47309  Biso   1.000  C
  C67      1.0000 0.72661  0.77991  0.38119  Biso   1.000  C
  C68      1.0000 0.77412  0.92371  0.52050  Biso   1.000  C
  C69      1.0000 0.66899  0.76109  0.39870  Biso   1.000  C
  O5       1.0000 0.66410  0.88271  0.30909  Biso   1.000  O
  O6       1.0000 0.67939  0.94330  0.23320  Biso   1.000  O
  O7       1.0000 0.70290  0.00699  0.43682  Biso   1.000  O
  O8       1.0000 0.69652  0.09361  0.38209  Biso   1.000  O
  O9       1.0000 0.62598  0.03401  0.23272  Biso   1.000  O
  O10      1.0000 0.63251  0.10740  0.29931  Biso   1.000  O
  C70      1.0000 0.71800  0.90911  0.54560  Biso   1.000  C
  C71      1.0000 0.65602  0.86459  0.26241  Biso   1.000  C
  C72      1.0000 0.70600  0.97629  0.19300  Biso   1.000  C
  C73      1.0000 0.65201  0.90099  0.22551  Biso   1.000  C
  C74      1.0000 0.71209  0.05710  0.45429  Biso   1.000  C
  C75      1.0000 0.74301  0.08821  0.41161  Biso   1.000  C
  C76      1.0000 0.67702  0.14299  0.36399  Biso   1.000  C
  C77      1.0000 0.63299  0.99401  0.19000  Biso   1.000  C
  C78      1.0000 0.57900  0.06798  0.23501  Biso   1.000  C
  C79      1.0000 0.58070  0.10740  0.27278  Biso   1.000  C
  C80      1.0000 0.62390  0.14030  0.33551  Biso   1.000  C
  C81      1.0000 0.47281  0.45930  0.42891  Biso   1.000  C
  C82      1.0000 0.43188  0.40941  0.42230  Biso   1.000  C
  C83      1.0000 0.46028  0.38312  0.37969  Biso   1.000  C
  C84      1.0000 0.43948  0.37940  0.46759  Biso   1.000  C
  C85      1.0000 0.36309  0.42441  0.41711  Biso   1.000  C
  N5       1.0000 0.44422  0.33440  0.37189  Biso   1.000  N
  C86      1.0000 0.50818  0.39720  0.34930  Biso   1.000  C
  N6       1.0000 0.31529  0.38830  0.40911  Biso   1.000  N
  C87      1.0000 0.33232  0.46989  0.42380  Biso   1.000  C
  C88      1.0000 0.47900  0.31749  0.33419  Biso   1.000  C
  C89      1.0000 0.51969  0.35580  0.31961  Biso   1.000  C
  C90      1.0000 0.25481  0.41150  0.41189  Biso   1.000  C
  C91      1.0000 0.26299  0.46022  0.41878  Biso   1.000  C
  C92      1.0000 0.47499  0.26509  0.31720  Biso   1.000  C
  C93      1.0000 0.19332  0.38179  0.40211  Biso   1.000  C
  C94      1.0000 0.41301  0.25748  0.28939  Biso   1.000  C
  C95      1.0000 0.47852  0.22689  0.35630  Biso   1.000  C
  C96      1.0000 0.53222  0.25572  0.28291  Biso   1.000  C
  C97      1.0000 0.19202  0.35650  0.35581  Biso   1.000  C
  C98      1.0000 0.13561  0.41981  0.40719  Biso   1.000  C
  C99      1.0000 0.18399  0.34080  0.43880  Biso   1.000  C
  N7       1.0000 0.35331  0.25899  0.31230  Biso   1.000  N
  C100     1.0000 0.40319  0.24171  0.24399  Biso   1.000  C
  C101     1.0000 0.51471  0.23572  0.39619  Biso   1.000  C
  C102     1.0000 0.45090  0.18130  0.35021  Biso   1.000  C
  N8       1.0000 0.22782  0.31532  0.34860  Biso   1.000  N
  C103     1.0000 0.14790  0.36161  0.31971  Biso   1.000  C
  C104     1.0000 0.21998  0.33859  0.48141  Biso   1.000  C
  C105     1.0000 0.13928  0.30388  0.43121  Biso   1.000  C
  C106     1.0000 0.30542  0.24539  0.28100  Biso   1.000  C
  C107     1.0000 0.33430  0.23531  0.23839  Biso   1.000  C
  C108     1.0000 0.52148  0.19869  0.43139  Biso   1.000  C
  C109     1.0000 0.45781  0.14472  0.38449  Biso   1.000  C
  C110     1.0000 0.20818  0.29160  0.30791  Biso   1.000  C
  C111     1.0000 0.16052  0.31999  0.28848  Biso   1.000  C
  C112     1.0000 0.21021  0.30160  0.51271  Biso   1.000  C
  C113     1.0000 0.12908  0.26480  0.46331  Biso   1.000  C
  C114     1.0000 0.23512  0.24241  0.29541  Biso   1.000  C
  C115     1.0000 0.49158  0.15398  0.42502  Biso   1.000  C
  C116     1.0000 0.16618  0.26462  0.50341  Biso   1.000  C
  C117     1.0000 0.23101  0.20641  0.33889  Biso   1.000  C
  C118     1.0000 0.19671  0.22079  0.25440  Biso   1.000  C
  O11      1.0000 0.49850  0.11560  0.45589  Biso   1.000  O
  O12      1.0000 0.15912  0.22910  0.53791  Biso   1.000  O
  C119     1.0000 0.52608  0.12361  0.50111  Biso   1.000  C
  C120     1.0000 0.13072  0.18641  0.52440  Biso   1.000  C
  C121     1.0000 0.48079  0.15100  0.53561  Biso   1.000  C
  C122     1.0000 0.12540  0.15042  0.56621  Biso   1.000  C
  O13      1.0000 0.42579  0.12049  0.54940  Biso   1.000  O
  O14      1.0000 0.18960  0.13111  0.57530  Biso   1.000  O
  C123     1.0000 0.44262  0.08519  0.58048  Biso   1.000  C
  C124     1.0000 0.18491  0.09490  0.60889  Biso   1.000  C
  C125     1.0000 0.45839  0.09629  0.62790  Biso   1.000  C
  C126     1.0000 0.43991  0.03640  0.56559  Biso   1.000  C
  C127     1.0000 0.19221  0.10909  0.65519  Biso   1.000  C
  C128     1.0000 0.17199  0.04658  0.59469  Biso   1.000  C
  C129     1.0000 0.45588  0.14619  0.64791  Biso   1.000  C
  C130     1.0000 0.48070  0.05681  0.65620  Biso   1.000  C
  C131     1.0000 0.41461  0.02331  0.51821  Biso   1.000  C
  C132     1.0000 0.46202  0.99721  0.59521  Biso   1.000  C
  C133     1.0000 0.17958  0.07280  0.69039  Biso   1.000  C
  C134     1.0000 0.20982  0.16031  0.67099  Biso   1.000  C
  C135     1.0000 0.15830  0.01199  0.63030  Biso   1.000  C
  C136     1.0000 0.17000  0.03111  0.54432  Biso   1.000  C
  C137     1.0000 0.39100  0.17351  0.63991  Biso   1.000  C
  C138     1.0000 0.48442  0.01000  0.64001  Biso   1.000  C
  C139     1.0000 0.34741  0.04191  0.50480  Biso   1.000  C
  C140     1.0000 0.16038  0.02739  0.67629  Biso   1.000  C
  C141     1.0000 0.27499  0.17862  0.64952  Biso   1.000  C
  C142     1.0000 0.23179  0.04600  0.51751  Biso   1.000  C
  C143     1.0000 0.38940  0.21468  0.61060  Biso   1.000  C
  C144     1.0000 0.33522  0.15781  0.65898  Biso   1.000  C
  Cs2      1.0000 0.32395  0.00688  0.67093  Biso   1.000  Cs
  C145     1.0000 0.34132  0.07269  0.46759  Biso   1.000  C
  C146     1.0000 0.29318  0.02820  0.52691  Biso   1.000  C
  C147     1.0000 0.27339  0.22009  0.61881  Biso   1.000  C
  C148     1.0000 0.22588  0.07629  0.47950  Biso   1.000  C
  C149     1.0000 0.33101  0.23891  0.60130  Biso   1.000  C
  O15      1.0000 0.33590  0.11729  0.69091  Biso   1.000  O
  O16      1.0000 0.32061  0.05670  0.76680  Biso   1.000  O
  O17      1.0000 0.29710  0.99301  0.56318  Biso   1.000  O
  O18      1.0000 0.30348  0.90639  0.61791  Biso   1.000  O
  O19      1.0000 0.37402  0.96599  0.76728  Biso   1.000  O
  O20      1.0000 0.36749  0.89260  0.70069  Biso   1.000  O
  C150     1.0000 0.28200  0.09089  0.45440  Biso   1.000  C
  C151     1.0000 0.34398  0.13541  0.73759  Biso   1.000  C
  C152     1.0000 0.29400  0.02371  0.80700  Biso   1.000  C
  C153     1.0000 0.34799  0.09901  0.77449  Biso   1.000  C
  C154     1.0000 0.28791  0.94290  0.54571  Biso   1.000  C
  C155     1.0000 0.25699  0.91179  0.58839  Biso   1.000  C
  C156     1.0000 0.32298  0.85701  0.63601  Biso   1.000  C
  C157     1.0000 0.36701  0.00599  0.81000  Biso   1.000  C
  C158     1.0000 0.42100  0.93202  0.76499  Biso   1.000  C
  C159     1.0000 0.41930  0.89260  0.72722  Biso   1.000  C
  C160     1.0000 0.37610  0.85970  0.66449  Biso   1.000  C
  C161     1.0000 0.67000  0.46889  0.45568  Biso   1.000  C
  C162     1.0000 0.67199  0.45342  0.40531  Biso   1.000  C
  C163     1.0000 0.73179  0.45400  0.48249  Biso   1.000  C
  C164     1.0000 0.68491  0.40510  0.39111  Biso   1.000  C
  C165     1.0000 0.65830  0.48801  0.36970  Biso   1.000  C
  C166     1.0000 0.72588  0.42371  0.52050  Biso   1.000  C
  C167     1.0000 0.79318  0.47180  0.47309  Biso   1.000  C
  O21      1.0000 0.68960  0.36889  0.42470  Biso   1.000  O
  C168     1.0000 0.69221  0.39091  0.34481  Biso   1.000  C
  C169     1.0000 0.66038  0.47261  0.32371  Biso   1.000  C
  C170     1.0000 0.78200  0.40911  0.54560  Biso   1.000  C
  O22      1.0000 0.79710  0.50699  0.43682  Biso   1.000  O
  C171     1.0000 0.84741  0.45809  0.49520  Biso   1.000  C
  C172     1.0000 0.62540  0.34958  0.43379  Biso   1.000  C
  C173     1.0000 0.67958  0.42720  0.30961  Biso   1.000  C
  C174     1.0000 0.70982  0.33969  0.32901  Biso   1.000  C
  Cs3      1.0000 0.82395  0.49312  0.32907  Biso   1.000  Cs
  C175     1.0000 0.84132  0.42731  0.53241  Biso   1.000  C
  C176     1.0000 0.78791  0.55710  0.45429  Biso   1.000  C
  C177     1.0000 0.91461  0.47669  0.48179  Biso   1.000  C
  C178     1.0000 0.63072  0.31359  0.47560  Biso   1.000  C
  C179     1.0000 0.77499  0.32138  0.35048  Biso   1.000  C
  O23      1.0000 0.80348  0.59361  0.38209  Biso   1.000  O
  O24      1.0000 0.83590  0.38271  0.30909  Biso   1.000  O
  O25      1.0000 0.87402  0.53401  0.23272  Biso   1.000  O
  O26      1.0000 0.82061  0.44330  0.23320  Biso   1.000  O
  O27      1.0000 0.86749  0.60740  0.29931  Biso   1.000  O
  C180     1.0000 0.98442  0.49000  0.35999  Biso   1.000  C
  C181     1.0000 0.75699  0.58821  0.41161  Biso   1.000  C
  C182     1.0000 0.93991  0.46360  0.43441  Biso   1.000  C
  O28      1.0000 0.65912  0.27090  0.46209  Biso   1.000  O
  C183     1.0000 0.77339  0.27991  0.38119  Biso   1.000  C
  C184     1.0000 0.83522  0.34219  0.34102  Biso   1.000  C
  C185     1.0000 0.82298  0.64299  0.36399  Biso   1.000  C
  C186     1.0000 0.84398  0.36459  0.26241  Biso   1.000  C
  C187     1.0000 0.92100  0.56798  0.23501  Biso   1.000  C
  C188     1.0000 0.86701  0.49401  0.19000  Biso   1.000  C
  C189     1.0000 0.79400  0.47629  0.19300  Biso   1.000  C
  C190     1.0000 0.84799  0.40099  0.22551  Biso   1.000  C
  C191     1.0000 0.91930  0.60740  0.27278  Biso   1.000  C
  C192     1.0000 0.87610  0.64030  0.33551  Biso   1.000  C
  C193     1.0000 0.98070  0.44319  0.34380  Biso   1.000  C
  C194     1.0000 0.96202  0.50279  0.40479  Biso   1.000  C
  C195     1.0000 0.94262  0.41481  0.41952  Biso   1.000  C
  C196     1.0000 0.66618  0.23538  0.49659  Biso   1.000  C
  C197     1.0000 0.83101  0.26109  0.39870  Biso   1.000  C
  C198     1.0000 0.89100  0.32649  0.36009  Biso   1.000  C
  C199     1.0000 0.95839  0.40371  0.37210  Biso   1.000  C
  O29      1.0000 0.92579  0.37951  0.45060  Biso   1.000  O
  C200     1.0000 0.71021  0.19840  0.48729  Biso   1.000  C
  C201     1.0000 0.62908  0.23520  0.53669  Biso   1.000  C
  C202     1.0000 0.88940  0.28532  0.38940  Biso   1.000  C
  C203     1.0000 0.95588  0.35381  0.35209  Biso   1.000  C
  C204     1.0000 0.98079  0.34900  0.46439  Biso   1.000  C
  C205     1.0000 0.71998  0.16141  0.51859  Biso   1.000  C
  C206     1.0000 0.63928  0.19612  0.56879  Biso   1.000  C
  C207     1.0000 0.02608  0.37639  0.49889  Biso   1.000  C
  C208     1.0000 0.68399  0.15920  0.56120  Biso   1.000  C
  O30      1.0000 0.99850  0.38440  0.54411  Biso   1.000  O
  C209     1.0000 0.69332  0.11821  0.59789  Biso   1.000  C
  C210     1.0000 0.99158  0.34602  0.57498  Biso   1.000  C
  C211     1.0000 0.63561  0.08019  0.59281  Biso   1.000  C
  C212     1.0000 0.69202  0.14350  0.64419  Biso   1.000  C
  C213     1.0000 0.75481  0.08850  0.58811  Biso   1.000  C
  C214     1.0000 0.95781  0.35528  0.61551  Biso   1.000  C
  C215     1.0000 0.02148  0.30131  0.56861  Biso   1.000  C
  N9       1.0000 0.72782  0.18468  0.65140  Biso   1.000  N
  C216     1.0000 0.64790  0.13839  0.68029  Biso   1.000  C
  N10      1.0000 0.81529  0.11170  0.59089  Biso   1.000  N
  C217     1.0000 0.76299  0.03978  0.58122  Biso   1.000  C
  C218     1.0000 0.95090  0.31870  0.64979  Biso   1.000  C
  C219     1.0000 0.01471  0.26428  0.60381  Biso   1.000  C
  C220     1.0000 0.70818  0.20840  0.69209  Biso   1.000  C
  C221     1.0000 0.66052  0.18001  0.71152  Biso   1.000  C
  C222     1.0000 0.86309  0.07559  0.58289  Biso   1.000  C
  C223     1.0000 0.83232  0.03011  0.57620  Biso   1.000  C
  C224     1.0000 0.97852  0.27311  0.64370  Biso   1.000  C
  C225     1.0000 0.73512  0.25759  0.70459  Biso   1.000  C
  C226     1.0000 0.93188  0.09059  0.57770  Biso   1.000  C
  C227     1.0000 0.97499  0.23491  0.68280  Biso   1.000  C
  C228     1.0000 0.80542  0.25461  0.71900  Biso   1.000  C
  C229     1.0000 0.73101  0.29359  0.66111  Biso   1.000  C
  C230     1.0000 0.69671  0.27921  0.74560  Biso   1.000  C
  C231     1.0000 0.97281  0.04070  0.57109  Biso   1.000  C
  C232     1.0000 0.93948  0.12060  0.53241  Biso   1.000  C
  C233     1.0000 0.96028  0.11688  0.62031  Biso   1.000  C
  C234     1.0000 0.91301  0.24252  0.71061  Biso   1.000  C
  C235     1.0000 0.97900  0.18251  0.66581  Biso   1.000  C
  C236     1.0000 0.03222  0.24428  0.71709  Biso   1.000  C
  N11      1.0000 0.85331  0.24101  0.68770  Biso   1.000  N
  C237     1.0000 0.83430  0.26469  0.76161  Biso   1.000  C
  N12      1.0000 0.94422  0.16560  0.62811  Biso   1.000  N
  C238     1.0000 0.00818  0.10280  0.65070  Biso   1.000  C
  C239     1.0000 0.90319  0.25829  0.75601  Biso   1.000  C
  C240     1.0000 0.01969  0.14420  0.68039  Biso   1.000  C
  C241     1.0000 0.33000  0.53111  0.54432  Biso   1.000  C
  C242     1.0000 0.26821  0.54600  0.51751  Biso   1.000  C
  C243     1.0000 0.32801  0.54658  0.59469  Biso   1.000  C
  C244     1.0000 0.20682  0.52820  0.52691  Biso   1.000  C
  C245     1.0000 0.27412  0.57629  0.47950  Biso   1.000  C
  C246     1.0000 0.34170  0.51199  0.63030  Biso   1.000  C
  C247     1.0000 0.31509  0.59490  0.60889  Biso   1.000  C
  O31      1.0000 0.20290  0.49301  0.56318  Biso   1.000  O
  C248     1.0000 0.15259  0.54191  0.50480  Biso   1.000  C
  C249     1.0000 0.21800  0.59089  0.45440  Biso   1.000  C
  C250     1.0000 0.33962  0.52739  0.67629  Biso   1.000  C
  C251     1.0000 0.30779  0.60909  0.65519  Biso   1.000  C
  O32      1.0000 0.31040  0.63111  0.57530  Biso   1.000  O
  C252     1.0000 0.21209  0.44290  0.54571  Biso   1.000  C
  Cs4      1.0000 0.17605  0.50688  0.67093  Biso   1.000  Cs
  C253     1.0000 0.15868  0.57269  0.46759  Biso   1.000  C
  C254     1.0000 0.08539  0.52331  0.51821  Biso   1.000  C
  C255     1.0000 0.32042  0.57280  0.69039  Biso   1.000  C
  C256     1.0000 0.29018  0.66031  0.67099  Biso   1.000  C
  C257     1.0000 0.37460  0.65042  0.56621  Biso   1.000  C
  C258     1.0000 0.24301  0.41179  0.58839  Biso   1.000  C
  O33      1.0000 0.19652  0.40639  0.61791  Biso   1.000  O
  O34      1.0000 0.16410  0.61729  0.69091  Biso   1.000  O
  O35      1.0000 0.12598  0.46599  0.76728  Biso   1.000  O
  O36      1.0000 0.17939  0.55670  0.76680  Biso   1.000  O
  O37      1.0000 0.13251  0.39260  0.70069  Biso   1.000  O
  C259     1.0000 0.01558  0.51000  0.64001  Biso   1.000  C
  C260     1.0000 0.06009  0.53640  0.56559  Biso   1.000  C
  C261     1.0000 0.22501  0.67862  0.64952  Biso   1.000  C
  C262     1.0000 0.36928  0.68641  0.52440  Biso   1.000  C
  C263     1.0000 0.17702  0.35701  0.63601  Biso   1.000  C
  C264     1.0000 0.15602  0.63541  0.73759  Biso   1.000  C
  C265     1.0000 0.16478  0.65781  0.65898  Biso   1.000  C
  C266     1.0000 0.07900  0.43202  0.76499  Biso   1.000  C
  C267     1.0000 0.13299  0.50599  0.81000  Biso   1.000  C
  C268     1.0000 0.20600  0.52371  0.80700  Biso   1.000  C
  C269     1.0000 0.15201  0.59901  0.77449  Biso   1.000  C
  C270     1.0000 0.08070  0.39260  0.72722  Biso   1.000  C
  C271     1.0000 0.12390  0.35970  0.66449  Biso   1.000  C
  C272     1.0000 0.01930  0.55681  0.65620  Biso   1.000  C
  C273     1.0000 0.03798  0.49721  0.59521  Biso   1.000  C
  C274     1.0000 0.05738  0.58519  0.58048  Biso   1.000  C
  C275     1.0000 0.22661  0.72009  0.61881  Biso   1.000  C
  O38      1.0000 0.34088  0.72910  0.53791  Biso   1.000  O
  C276     1.0000 0.10900  0.67351  0.63991  Biso   1.000  C
  C277     1.0000 0.04161  0.59629  0.62790  Biso   1.000  C
  O39      1.0000 0.07421  0.62049  0.54940  Biso   1.000  O
  C278     1.0000 0.16899  0.73891  0.60130  Biso   1.000  C
  C279     1.0000 0.33382  0.76462  0.50341  Biso   1.000  C
  C280     1.0000 0.04412  0.64619  0.64791  Biso   1.000  C
  C281     1.0000 0.11060  0.71468  0.61060  Biso   1.000  C
  C282     1.0000 0.01921  0.65100  0.53561  Biso   1.000  C
  C283     1.0000 0.28979  0.80160  0.51271  Biso   1.000  C
  C284     1.0000 0.37092  0.76480  0.46331  Biso   1.000  C
  C285     1.0000 0.97392  0.62361  0.50111  Biso   1.000  C
  C286     1.0000 0.28002  0.83859  0.48141  Biso   1.000  C
  C287     1.0000 0.36072  0.80388  0.43121  Biso   1.000  C
  O40      1.0000 0.00150  0.61560  0.45589  Biso   1.000  O
  C288     1.0000 0.31601  0.84080  0.43880  Biso   1.000  C
  C289     1.0000 0.00842  0.65398  0.42502  Biso   1.000  C
  C290     1.0000 0.30668  0.88179  0.40211  Biso   1.000  C
  C291     1.0000 0.04219  0.64472  0.38449  Biso   1.000  C
  C292     1.0000 0.97852  0.69869  0.43139  Biso   1.000  C
  C293     1.0000 0.36439  0.91981  0.40719  Biso   1.000  C
  C294     1.0000 0.30798  0.85650  0.35581  Biso   1.000  C
  C295     1.0000 0.24519  0.91150  0.41189  Biso   1.000  C
  C296     1.0000 0.04910  0.68130  0.35021  Biso   1.000  C
  C297     1.0000 0.98529  0.73572  0.39619  Biso   1.000  C
  N13      1.0000 0.27218  0.81532  0.34860  Biso   1.000  N
  C298     1.0000 0.35210  0.86161  0.31971  Biso   1.000  C
  N14      1.0000 0.18471  0.88830  0.40911  Biso   1.000  N
  C299     1.0000 0.23701  0.96022  0.41878  Biso   1.000  C
  C300     1.0000 0.02148  0.72689  0.35630  Biso   1.000  C
  C301     1.0000 0.29182  0.79160  0.30791  Biso   1.000  C
  C302     1.0000 0.33948  0.81999  0.28848  Biso   1.000  C
  C303     1.0000 0.13691  0.92441  0.41711  Biso   1.000  C
  C304     1.0000 0.16768  0.96989  0.42380  Biso   1.000  C
  C305     1.0000 0.02501  0.76509  0.31720  Biso   1.000  C
  C306     1.0000 0.26488  0.74241  0.29541  Biso   1.000  C
  C307     1.0000 0.06812  0.90941  0.42230  Biso   1.000  C
  C308     1.0000 0.02100  0.81749  0.33419  Biso   1.000  C
  C309     1.0000 0.08699  0.75748  0.28939  Biso   1.000  C
  C310     1.0000 0.96778  0.75572  0.28291  Biso   1.000  C
  C311     1.0000 0.19458  0.74539  0.28100  Biso   1.000  C
  C312     1.0000 0.26899  0.70641  0.33889  Biso   1.000  C
  C313     1.0000 0.30329  0.72079  0.25440  Biso   1.000  C
  C314     1.0000 0.03972  0.88312  0.37969  Biso   1.000  C
  C315     1.0000 0.02719  0.95930  0.42891  Biso   1.000  C
  C316     1.0000 0.06052  0.87940  0.46759  Biso   1.000  C
  N15      1.0000 0.05578  0.83440  0.37189  Biso   1.000  N
  C317     1.0000 0.98031  0.85580  0.31961  Biso   1.000  C
  N16      1.0000 0.14669  0.75899  0.31230  Biso   1.000  N
  C318     1.0000 0.09681  0.74171  0.24399  Biso   1.000  C
  C319     1.0000 0.16570  0.73531  0.23839  Biso   1.000  C
  C320     1.0000 0.99182  0.89720  0.34930  Biso   1.000  C
  C321     1.0000 0.63299  0.50599  0.69000  Biso   1.000  C
  O41      1.0000 0.62598  0.46599  0.73272  Biso   1.000  O
  C322     1.0000 0.70600  0.52371  0.69300  Biso   1.000  C
  C323     1.0000 0.57900  0.43202  0.73501  Biso   1.000  C
  Cs5      1.0000 0.67605  0.50688  0.82907  Biso   1.000  Cs
  O42      1.0000 0.67939  0.55670  0.73320  Biso   1.000  O
  C324     1.0000 0.58070  0.39260  0.77278  Biso   1.000  C
  O43      1.0000 0.63251  0.39260  0.79931  Biso   1.000  O
  O44      1.0000 0.70290  0.49301  0.93682  Biso   1.000  O
  O45      1.0000 0.69652  0.40639  0.88209  Biso   1.000  O
  O46      1.0000 0.66410  0.61729  0.80909  Biso   1.000  O
  C325     1.0000 0.83962  0.52739  0.82371  Biso   1.000  C
  C326     1.0000 0.51558  0.51000  0.85999  Biso   1.000  C
  C327     1.0000 0.65201  0.59901  0.72551  Biso   1.000  C
  C328     1.0000 0.62390  0.35970  0.83551  Biso   1.000  C
  C329     1.0000 0.71209  0.44290  0.95429  Biso   1.000  C
  C330     1.0000 0.70682  0.52820  0.97309  Biso   1.000  C
  C331     1.0000 0.74301  0.41179  0.91161  Biso   1.000  C
  C332     1.0000 0.67702  0.35701  0.86399  Biso   1.000  C
  C333     1.0000 0.65602  0.63541  0.76241  Biso   1.000  C
  C334     1.0000 0.66478  0.65781  0.84102  Biso   1.000  C
  C335     1.0000 0.84170  0.51199  0.86970  Biso   1.000  C
  C336     1.0000 0.82042  0.57280  0.80961  Biso   1.000  C
  C337     1.0000 0.51930  0.55681  0.84380  Biso   1.000  C
  C338     1.0000 0.53798  0.49721  0.90479  Biso   1.000  C
  C339     1.0000 0.65259  0.54191  0.99520  Biso   1.000  C
  C340     1.0000 0.76821  0.54600  0.98249  Biso   1.000  C
  C341     1.0000 0.72501  0.67862  0.85048  Biso   1.000  C
  C342     1.0000 0.60900  0.67351  0.86009  Biso   1.000  C
  C343     1.0000 0.82801  0.54658  0.90531  Biso   1.000  C
  C344     1.0000 0.80779  0.60909  0.84481  Biso   1.000  C
  C345     1.0000 0.54161  0.59629  0.87210  Biso   1.000  C
  C346     1.0000 0.56009  0.53640  0.93441  Biso   1.000  C
  C347     1.0000 0.58539  0.52331  0.98179  Biso   1.000  C
  C348     1.0000 0.65868  0.57269  0.03241  Biso   1.000  C
  C349     1.0000 0.83000  0.53111  0.95568  Biso   1.000  C
  C350     1.0000 0.77412  0.57629  0.02050  Biso   1.000  C
  C351     1.0000 0.79018  0.66031  0.82901  Biso   1.000  C
  C352     1.0000 0.72661  0.72009  0.88119  Biso   1.000  C
  C353     1.0000 0.54412  0.64619  0.85209  Biso   1.000  C
  C354     1.0000 0.61060  0.71468  0.88940  Biso   1.000  C
  C355     1.0000 0.81509  0.59490  0.89111  Biso   1.000  C
  C356     1.0000 0.55738  0.58519  0.91952  Biso   1.000  C
  C357     1.0000 0.71800  0.59089  0.04560  Biso   1.000  C
  C358     1.0000 0.66899  0.73891  0.89870  Biso   1.000  C
  O47      1.0000 0.81040  0.63111  0.92470  Biso   1.000  O
  O48      1.0000 0.57421  0.62049  0.95060  Biso   1.000  O
  C359     1.0000 0.87460  0.65042  0.93379  Biso   1.000  C
  C360     1.0000 0.51921  0.65100  0.96439  Biso   1.000  C
  C361     1.0000 0.86928  0.68641  0.97560  Biso   1.000  C
  C362     1.0000 0.47392  0.62361  0.99889  Biso   1.000  C
  O49      1.0000 0.84088  0.72910  0.96209  Biso   1.000  O
  O50      1.0000 0.50150  0.61560  0.04411  Biso   1.000  O
  C363     1.0000 0.83382  0.76462  0.99659  Biso   1.000  C
  C364     1.0000 0.50842  0.65398  0.07498  Biso   1.000  C
  C365     1.0000 0.78979  0.80160  0.98729  Biso   1.000  C
  C366     1.0000 0.87092  0.76480  0.03669  Biso   1.000  C
  C367     1.0000 0.47852  0.69869  0.06861  Biso   1.000  C
  C368     1.0000 0.54219  0.64472  0.11551  Biso   1.000  C
  C369     1.0000 0.78002  0.83859  0.01859  Biso   1.000  C
  C370     1.0000 0.86072  0.80388  0.06879  Biso   1.000  C
  C371     1.0000 0.48529  0.73572  0.10381  Biso   1.000  C
  C372     1.0000 0.54910  0.68130  0.14979  Biso   1.000  C
  C373     1.0000 0.81601  0.84080  0.06120  Biso   1.000  C
  C374     1.0000 0.52148  0.72689  0.14370  Biso   1.000  C
  C375     1.0000 0.80668  0.88179  0.09789  Biso   1.000  C
  C376     1.0000 0.52501  0.76509  0.18280  Biso   1.000  C
  C377     1.0000 0.86439  0.91981  0.09281  Biso   1.000  C
  C378     1.0000 0.80798  0.85650  0.14419  Biso   1.000  C
  C379     1.0000 0.74519  0.91150  0.08811  Biso   1.000  C
  C380     1.0000 0.52100  0.81749  0.16581  Biso   1.000  C
  C381     1.0000 0.58699  0.75748  0.21061  Biso   1.000  C
  C382     1.0000 0.46778  0.75572  0.21709  Biso   1.000  C
  N17      1.0000 0.77218  0.81532  0.15140  Biso   1.000  N
  C383     1.0000 0.85210  0.86161  0.18029  Biso   1.000  C
  N18      1.0000 0.68471  0.88830  0.09089  Biso   1.000  N
  C384     1.0000 0.73701  0.96022  0.08122  Biso   1.000  C
  N19      1.0000 0.55578  0.83440  0.12811  Biso   1.000  N
  C385     1.0000 0.48031  0.85580  0.18039  Biso   1.000  C
  N20      1.0000 0.64669  0.75899  0.18770  Biso   1.000  N
  C386     1.0000 0.59681  0.74171  0.25601  Biso   1.000  C
  C387     1.0000 0.79182  0.79160  0.19209  Biso   1.000  C
  C388     1.0000 0.83948  0.81999  0.21152  Biso   1.000  C
  C389     1.0000 0.63691  0.92441  0.08289  Biso   1.000  C
  C390     1.0000 0.66768  0.96989  0.07620  Biso   1.000  C
  C391     1.0000 0.53972  0.88312  0.12031  Biso   1.000  C
  C392     1.0000 0.49182  0.89720  0.15070  Biso   1.000  C
  C393     1.0000 0.69458  0.74539  0.21900  Biso   1.000  C
  C394     1.0000 0.66570  0.73531  0.26161  Biso   1.000  C
  C395     1.0000 0.76488  0.74241  0.20459  Biso   1.000  C
  C396     1.0000 0.56812  0.90941  0.07770  Biso   1.000  C
  C397     1.0000 0.76899  0.70641  0.16111  Biso   1.000  C
  C398     1.0000 0.80329  0.72079  0.24560  Biso   1.000  C
  C399     1.0000 0.52719  0.95930  0.07109  Biso   1.000  C
  C400     1.0000 0.56052  0.87940  0.03241  Biso   1.000  C
  C401     1.0000 0.36701  0.49401  0.31000  Biso   1.000  C
  O51      1.0000 0.37402  0.53401  0.26728  Biso   1.000  O
  C402     1.0000 0.29400  0.47629  0.30700  Biso   1.000  C
  Cs6      1.0000 0.32395  0.49312  0.17093  Biso   1.000  Cs
  C403     1.0000 0.42100  0.56798  0.26499  Biso   1.000  C
  O52      1.0000 0.32061  0.44330  0.26680  Biso   1.000  O
  O53      1.0000 0.33590  0.38271  0.19091  Biso   1.000  O
  C404     1.0000 0.16038  0.47261  0.17629  Biso   1.000  C
  O54      1.0000 0.29710  0.50699  0.06318  Biso   1.000  O
  O55      1.0000 0.30348  0.59361  0.11791  Biso   1.000  O
  O56      1.0000 0.36749  0.60740  0.20069  Biso   1.000  O
  C405     1.0000 0.48442  0.49000  0.14001  Biso   1.000  C
  C406     1.0000 0.41930  0.60740  0.22722  Biso   1.000  C
  C407     1.0000 0.34799  0.40099  0.27449  Biso   1.000  C
  C408     1.0000 0.33522  0.34219  0.15898  Biso   1.000  C
  C409     1.0000 0.34398  0.36459  0.23759  Biso   1.000  C
  C410     1.0000 0.17958  0.42720  0.19039  Biso   1.000  C
  C411     1.0000 0.15830  0.48801  0.13030  Biso   1.000  C
  C412     1.0000 0.28791  0.55710  0.04571  Biso   1.000  C
  C413     1.0000 0.29318  0.47180  0.02691  Biso   1.000  C
  C414     1.0000 0.25699  0.58821  0.08839  Biso   1.000  C
  C415     1.0000 0.32298  0.64299  0.13601  Biso   1.000  C
  C416     1.0000 0.37610  0.64030  0.16449  Biso   1.000  C
  C417     1.0000 0.48070  0.44319  0.15620  Biso   1.000  C
  C418     1.0000 0.46202  0.50279  0.09521  Biso   1.000  C
  C419     1.0000 0.27499  0.32138  0.14952  Biso   1.000  C
  C420     1.0000 0.39100  0.32649  0.13991  Biso   1.000  C
  C421     1.0000 0.19221  0.39091  0.15519  Biso   1.000  C
  C422     1.0000 0.17199  0.45342  0.09469  Biso   1.000  C
  C423     1.0000 0.23179  0.45400  0.01751  Biso   1.000  C
  C424     1.0000 0.34741  0.45809  0.00480  Biso   1.000  C
  C425     1.0000 0.45839  0.40371  0.12790  Biso   1.000  C
  C426     1.0000 0.43991  0.46360  0.06559  Biso   1.000  C
  C427     1.0000 0.20982  0.33969  0.17099  Biso   1.000  C
  C428     1.0000 0.27339  0.27991  0.11881  Biso   1.000  C
  C429     1.0000 0.38940  0.28532  0.11060  Biso   1.000  C
  C430     1.0000 0.45588  0.35381  0.14791  Biso   1.000  C
  C431     1.0000 0.18491  0.40510  0.10889  Biso   1.000  C
  C432     1.0000 0.17000  0.46889  0.04432  Biso   1.000  C
  C433     1.0000 0.22588  0.42371  0.97950  Biso   1.000  C
  C434     1.0000 0.41461  0.47669  0.01821  Biso   1.000  C
  C435     1.0000 0.34132  0.42731  0.96759  Biso   1.000  C
  C436     1.0000 0.44262  0.41481  0.08048  Biso   1.000  C
  C437     1.0000 0.33101  0.26109  0.10130  Biso   1.000  C
  O57      1.0000 0.18960  0.36889  0.07530  Biso   1.000  O
  C438     1.0000 0.28200  0.40911  0.95440  Biso   1.000  C
  O58      1.0000 0.42579  0.37951  0.04940  Biso   1.000  O
  C439     1.0000 0.12540  0.34958  0.06621  Biso   1.000  C
  C440     1.0000 0.48079  0.34900  0.03561  Biso   1.000  C
  C441     1.0000 0.13072  0.31359  0.02440  Biso   1.000  C
  C442     1.0000 0.52608  0.37639  0.00111  Biso   1.000  C
  O59      1.0000 0.15912  0.27090  0.03791  Biso   1.000  O
  O60      1.0000 0.49850  0.38440  0.95589  Biso   1.000  O
  C443     1.0000 0.16618  0.23538  0.00341  Biso   1.000  C
  C444     1.0000 0.49158  0.34602  0.92502  Biso   1.000  C
  C445     1.0000 0.21021  0.19840  0.01271  Biso   1.000  C
  C446     1.0000 0.12908  0.23520  0.96331  Biso   1.000  C
  C447     1.0000 0.52148  0.30131  0.93139  Biso   1.000  C
  C448     1.0000 0.45781  0.35528  0.88449  Biso   1.000  C
  C449     1.0000 0.21998  0.16141  0.98141  Biso   1.000  C
  C450     1.0000 0.13928  0.19612  0.93121  Biso   1.000  C
  C451     1.0000 0.51471  0.26428  0.89619  Biso   1.000  C
  C452     1.0000 0.45090  0.31870  0.85021  Biso   1.000  C
  C453     1.0000 0.18399  0.15920  0.93880  Biso   1.000  C
  C454     1.0000 0.47852  0.27311  0.85630  Biso   1.000  C
  C455     1.0000 0.19332  0.11821  0.90211  Biso   1.000  C
  C456     1.0000 0.47499  0.23491  0.81720  Biso   1.000  C
  C457     1.0000 0.13561  0.08019  0.90719  Biso   1.000  C
  C458     1.0000 0.19202  0.14350  0.85581  Biso   1.000  C
  C459     1.0000 0.25481  0.08850  0.91189  Biso   1.000  C
  C460     1.0000 0.47900  0.18251  0.83419  Biso   1.000  C
  C461     1.0000 0.41301  0.24252  0.78939  Biso   1.000  C
  C462     1.0000 0.53222  0.24428  0.78291  Biso   1.000  C
  N21      1.0000 0.22782  0.18468  0.84860  Biso   1.000  N
  C463     1.0000 0.14790  0.13839  0.81971  Biso   1.000  C
  N22      1.0000 0.31529  0.11170  0.90911  Biso   1.000  N
  C464     1.0000 0.26299  0.03978  0.91878  Biso   1.000  C
  N23      1.0000 0.44422  0.16560  0.87189  Biso   1.000  N
  C465     1.0000 0.51969  0.14420  0.81961  Biso   1.000  C
  N24      1.0000 0.35331  0.24101  0.81230  Biso   1.000  N
  C466     1.0000 0.40319  0.25829  0.74399  Biso   1.000  C
  C467     1.0000 0.20818  0.20840  0.80791  Biso   1.000  C
  C468     1.0000 0.16052  0.18001  0.78848  Biso   1.000  C
  C469     1.0000 0.36309  0.07559  0.91711  Biso   1.000  C
  C470     1.0000 0.33232  0.03011  0.92380  Biso   1.000  C
  C471     1.0000 0.46028  0.11688  0.87969  Biso   1.000  C
  C472     1.0000 0.50818  0.10280  0.84930  Biso   1.000  C
  C473     1.0000 0.30542  0.25461  0.78100  Biso   1.000  C
  C474     1.0000 0.33430  0.26469  0.73839  Biso   1.000  C
  C475     1.0000 0.23512  0.25759  0.79541  Biso   1.000  C
  C476     1.0000 0.43188  0.09059  0.92230  Biso   1.000  C
  C477     1.0000 0.23101  0.29359  0.83889  Biso   1.000  C
  C478     1.0000 0.19671  0.27921  0.75440  Biso   1.000  C
  C479     1.0000 0.47281  0.04070  0.92891  Biso   1.000  C
  C480     1.0000 0.43948  0.12060  0.96759  Biso   1.000  C
  C481     1.0000 0.70982  0.16031  0.82901  Biso   1.000  C
  C482     1.0000 0.77499  0.17862  0.85048  Biso   1.000  C
  C483     1.0000 0.69221  0.10909  0.84481  Biso   1.000  C
  C484     1.0000 0.83522  0.15781  0.84102  Biso   1.000  C
  C485     1.0000 0.77339  0.22009  0.88119  Biso   1.000  C
  C486     1.0000 0.67958  0.07280  0.80961  Biso   1.000  C
  C487     1.0000 0.68491  0.09490  0.89111  Biso   1.000  C
  O61      1.0000 0.83590  0.11729  0.80909  Biso   1.000  O
  C488     1.0000 0.89100  0.17351  0.86009  Biso   1.000  C
  C489     1.0000 0.83101  0.23891  0.89870  Biso   1.000  C
  C490     1.0000 0.66038  0.02739  0.82371  Biso   1.000  C
  C491     1.0000 0.67199  0.04658  0.90531  Biso   1.000  C
  O62      1.0000 0.68960  0.13111  0.92470  Biso   1.000  O
  Cs7      1.0000 0.82395  0.00688  0.82907  Biso   1.000  Cs
  C492     1.0000 0.84398  0.13541  0.76241  Biso   1.000  C
  C493     1.0000 0.95588  0.14619  0.85209  Biso   1.000  C
  C494     1.0000 0.88940  0.21468  0.88940  Biso   1.000  C
  C495     1.0000 0.65830  0.01199  0.86970  Biso   1.000  C
  C496     1.0000 0.67000  0.03111  0.95568  Biso   1.000  C
  C497     1.0000 0.62540  0.15042  0.93379  Biso   1.000  C
  O63      1.0000 0.82061  0.05670  0.73320  Biso   1.000  O
  O64      1.0000 0.87402  0.96599  0.73272  Biso   1.000  O
  C498     1.0000 0.98442  0.01000  0.85999  Biso   1.000  C
  O65      1.0000 0.79710  0.99301  0.93682  Biso   1.000  O
  O66      1.0000 0.80348  0.90639  0.88209  Biso   1.000  O
  O67      1.0000 0.86749  0.89260  0.79931  Biso   1.000  O
  C499     1.0000 0.84799  0.09901  0.72551  Biso   1.000  C
  C500     1.0000 0.95839  0.09629  0.87210  Biso   1.000  C
  C501     1.0000 0.73179  0.04600  0.98249  Biso   1.000  C
  C502     1.0000 0.63072  0.18641  0.97560  Biso   1.000  C
  C503     1.0000 0.79400  0.02371  0.69300  Biso   1.000  C
  C504     1.0000 0.86701  0.00599  0.69000  Biso   1.000  C
  C505     1.0000 0.92100  0.93202  0.73501  Biso   1.000  C
  C506     1.0000 0.98070  0.05681  0.84380  Biso   1.000  C
  C507     1.0000 0.96202  0.99721  0.90479  Biso   1.000  C
  C508     1.0000 0.79318  0.02820  0.97309  Biso   1.000  C
  C509     1.0000 0.78791  0.94290  0.95429  Biso   1.000  C
  C510     1.0000 0.75699  0.91179  0.91161  Biso   1.000  C
  C511     1.0000 0.82298  0.85701  0.86399  Biso   1.000  C
  C512     1.0000 0.91930  0.89260  0.77278  Biso   1.000  C
  C513     1.0000 0.87610  0.85970  0.83551  Biso   1.000  C
  C514     1.0000 0.94262  0.08519  0.91952  Biso   1.000  C
  C515     1.0000 0.72588  0.07629  0.02050  Biso   1.000  C
  O68      1.0000 0.65912  0.22910  0.96209  Biso   1.000  O
  C516     1.0000 0.93991  0.03640  0.93441  Biso   1.000  C
  C517     1.0000 0.84741  0.04191  0.99520  Biso   1.000  C
  O69      1.0000 0.92579  0.12049  0.95060  Biso   1.000  O
  C518     1.0000 0.78200  0.09089  0.04560  Biso   1.000  C
  C519     1.0000 0.66618  0.26462  0.99659  Biso   1.000  C
  C520     1.0000 0.91461  0.02331  0.98179  Biso   1.000  C
  C521     1.0000 0.84132  0.07269  0.03241  Biso   1.000  C
  C522     1.0000 0.98079  0.15100  0.96439  Biso   1.000  C
  C523     1.0000 0.71021  0.30160  0.98729  Biso   1.000  C
  C524     1.0000 0.62908  0.26480  0.03669  Biso   1.000  C
  C525     1.0000 0.02608  0.12361  0.99889  Biso   1.000  C
  C526     1.0000 0.71998  0.33859  0.01859  Biso   1.000  C
  C527     1.0000 0.63928  0.30388  0.06879  Biso   1.000  C
  O70      1.0000 0.99850  0.11560  0.04411  Biso   1.000  O
  C528     1.0000 0.68399  0.34080  0.06120  Biso   1.000  C
  C529     1.0000 0.99158  0.15398  0.07498  Biso   1.000  C
  C530     1.0000 0.69332  0.38179  0.09789  Biso   1.000  C
  C531     1.0000 0.95781  0.14472  0.11551  Biso   1.000  C
  C532     1.0000 0.02148  0.19869  0.06861  Biso   1.000  C
  C533     1.0000 0.63561  0.41981  0.09281  Biso   1.000  C
  C534     1.0000 0.69202  0.35650  0.14419  Biso   1.000  C
  C535     1.0000 0.75481  0.41150  0.08811  Biso   1.000  C
  C536     1.0000 0.95090  0.18130  0.14979  Biso   1.000  C
  C537     1.0000 0.01471  0.23572  0.10381  Biso   1.000  C
  N25      1.0000 0.72782  0.31532  0.15140  Biso   1.000  N
  C538     1.0000 0.64790  0.36161  0.18029  Biso   1.000  C
  N26      1.0000 0.81529  0.38830  0.09089  Biso   1.000  N
  C539     1.0000 0.76299  0.46022  0.08122  Biso   1.000  C
  C540     1.0000 0.97852  0.22689  0.14370  Biso   1.000  C
  C541     1.0000 0.70818  0.29160  0.19209  Biso   1.000  C
  C542     1.0000 0.66052  0.31999  0.21152  Biso   1.000  C
  C543     1.0000 0.86309  0.42441  0.08289  Biso   1.000  C
  C544     1.0000 0.83232  0.46989  0.07620  Biso   1.000  C
  C545     1.0000 0.97499  0.26509  0.18280  Biso   1.000  C
  C546     1.0000 0.73512  0.24241  0.20459  Biso   1.000  C
  C547     1.0000 0.93188  0.40941  0.07770  Biso   1.000  C
  C548     1.0000 0.97900  0.31749  0.16581  Biso   1.000  C
  C549     1.0000 0.91301  0.25748  0.21061  Biso   1.000  C
  C550     1.0000 0.03222  0.25572  0.21709  Biso   1.000  C
  C551     1.0000 0.80542  0.24539  0.21900  Biso   1.000  C
  C552     1.0000 0.73101  0.20641  0.16111  Biso   1.000  C
  C553     1.0000 0.69671  0.22079  0.24560  Biso   1.000  C
  C554     1.0000 0.96028  0.38312  0.12031  Biso   1.000  C
  C555     1.0000 0.97281  0.45930  0.07109  Biso   1.000  C
  C556     1.0000 0.93948  0.37940  0.03241  Biso   1.000  C
  N27      1.0000 0.94422  0.33440  0.12811  Biso   1.000  N
  C557     1.0000 0.01969  0.35580  0.18039  Biso   1.000  C
  N28      1.0000 0.85331  0.25899  0.18770  Biso   1.000  N
  C558     1.0000 0.90319  0.24171  0.25601  Biso   1.000  C
  C559     1.0000 0.83430  0.23531  0.26161  Biso   1.000  C
  C560     1.0000 0.00818  0.39720  0.15070  Biso   1.000  C
  C561     1.0000 0.29018  0.83969  0.17099  Biso   1.000  C
  C562     1.0000 0.30779  0.89091  0.15519  Biso   1.000  C
  C563     1.0000 0.22501  0.82138  0.14952  Biso   1.000  C
  C564     1.0000 0.31509  0.90510  0.10889  Biso   1.000  C
  C565     1.0000 0.32042  0.92720  0.19039  Biso   1.000  C
  C566     1.0000 0.22661  0.77991  0.11881  Biso   1.000  C
  C567     1.0000 0.16478  0.84219  0.15898  Biso   1.000  C
  O71      1.0000 0.31040  0.86889  0.07530  Biso   1.000  O
  C568     1.0000 0.32801  0.95342  0.09469  Biso   1.000  C
  C569     1.0000 0.33962  0.97261  0.17629  Biso   1.000  C
  C570     1.0000 0.16899  0.76109  0.10130  Biso   1.000  C
  O72      1.0000 0.16410  0.88271  0.19091  Biso   1.000  O
  C571     1.0000 0.10900  0.82649  0.13991  Biso   1.000  C
  C572     1.0000 0.37460  0.84958  0.06621  Biso   1.000  C
  C573     1.0000 0.34170  0.98801  0.13030  Biso   1.000  C
  C574     1.0000 0.33000  0.96889  0.04432  Biso   1.000  C
  Cs8      1.0000 0.17605  0.99312  0.17093  Biso   1.000  Cs
  C575     1.0000 0.11060  0.78532  0.11060  Biso   1.000  C
  C576     1.0000 0.15602  0.86459  0.23759  Biso   1.000  C
  C577     1.0000 0.04412  0.85381  0.14791  Biso   1.000  C
  C578     1.0000 0.36928  0.81359  0.02440  Biso   1.000  C
  C579     1.0000 0.26821  0.95400  0.01751  Biso   1.000  C
  O73      1.0000 0.17939  0.94330  0.26680  Biso   1.000  O
  C580     1.0000 0.01558  0.99000  0.14001  Biso   1.000  C
  O74      1.0000 0.20290  0.00699  0.06318  Biso   1.000  O
  O75      1.0000 0.19652  0.09361  0.11791  Biso   1.000  O
  O76      1.0000 0.12598  0.03401  0.26728  Biso   1.000  O
  O77      1.0000 0.13251  0.10740  0.20069  Biso   1.000  O
  C581     1.0000 0.15201  0.90099  0.27449  Biso   1.000  C
  C582     1.0000 0.04161  0.90371  0.12790  Biso   1.000  C
  O78      1.0000 0.34088  0.77090  0.03791  Biso   1.000  O
  C583     1.0000 0.20682  0.97180  0.02691  Biso   1.000  C
  C584     1.0000 0.27412  0.92371  0.97950  Biso   1.000  C
  C585     1.0000 0.20600  0.97629  0.30700  Biso   1.000  C
  C586     1.0000 0.01930  0.94319  0.15620  Biso   1.000  C
  C587     1.0000 0.03798  0.00279  0.09521  Biso   1.000  C
  C588     1.0000 0.21209  0.05710  0.04571  Biso   1.000  C
  C589     1.0000 0.24301  0.08821  0.08839  Biso   1.000  C
  C590     1.0000 0.17702  0.14299  0.13601  Biso   1.000  C
  C591     1.0000 0.13299  0.99401  0.31000  Biso   1.000  C
  C592     1.0000 0.07900  0.06798  0.26499  Biso   1.000  C
  C593     1.0000 0.08070  0.10740  0.22722  Biso   1.000  C
  C594     1.0000 0.12390  0.14030  0.16449  Biso   1.000  C
  C595     1.0000 0.05738  0.91481  0.08048  Biso   1.000  C
  C596     1.0000 0.33382  0.73538  0.00341  Biso   1.000  C
  C597     1.0000 0.15259  0.95809  0.00480  Biso   1.000  C
  C598     1.0000 0.21800  0.90911  0.95440  Biso   1.000  C
  C599     1.0000 0.06009  0.96360  0.06559  Biso   1.000  C
  O79      1.0000 0.07421  0.87951  0.04940  Biso   1.000  O
  C600     1.0000 0.28979  0.69840  0.01271  Biso   1.000  C
  C601     1.0000 0.37092  0.73520  0.96331  Biso   1.000  C
  C602     1.0000 0.08539  0.97669  0.01821  Biso   1.000  C
  C603     1.0000 0.15868  0.92731  0.96759  Biso   1.000  C
  C604     1.0000 0.01921  0.84900  0.03561  Biso   1.000  C
  C605     1.0000 0.28002  0.66141  0.98141  Biso   1.000  C
  C606     1.0000 0.36072  0.69612  0.93121  Biso   1.000  C
  C607     1.0000 0.97392  0.87639  0.00111  Biso   1.000  C
  C608     1.0000 0.31601  0.65920  0.93880  Biso   1.000  C
  O80      1.0000 0.00150  0.88440  0.95589  Biso   1.000  O
  C609     1.0000 0.30668  0.61821  0.90211  Biso   1.000  C
  C610     1.0000 0.00842  0.84602  0.92502  Biso   1.000  C
  C611     1.0000 0.36439  0.58019  0.90719  Biso   1.000  C
  C612     1.0000 0.30798  0.64350  0.85581  Biso   1.000  C
  C613     1.0000 0.24519  0.58850  0.91189  Biso   1.000  C
  C614     1.0000 0.97852  0.80131  0.93139  Biso   1.000  C
  C615     1.0000 0.04219  0.85528  0.88449  Biso   1.000  C
  N29      1.0000 0.27218  0.68468  0.84860  Biso   1.000  N
  C616     1.0000 0.35210  0.63839  0.81971  Biso   1.000  C
  N30      1.0000 0.18471  0.61170  0.90911  Biso   1.000  N
  C617     1.0000 0.23701  0.53978  0.91878  Biso   1.000  C
  C618     1.0000 0.98529  0.76428  0.89619  Biso   1.000  C
  C619     1.0000 0.04910  0.81870  0.85021  Biso   1.000  C
  C620     1.0000 0.29182  0.70840  0.80791  Biso   1.000  C
  C621     1.0000 0.33948  0.68001  0.78848  Biso   1.000  C
  C622     1.0000 0.13691  0.57559  0.91711  Biso   1.000  C
  C623     1.0000 0.16768  0.53011  0.92380  Biso   1.000  C
  C624     1.0000 0.02148  0.77311  0.85630  Biso   1.000  C
  C625     1.0000 0.26488  0.75759  0.79541  Biso   1.000  C
  C626     1.0000 0.06812  0.59059  0.92230  Biso   1.000  C
  C627     1.0000 0.02501  0.73491  0.81720  Biso   1.000  C
  C628     1.0000 0.19458  0.75461  0.78100  Biso   1.000  C
  C629     1.0000 0.26899  0.79359  0.83889  Biso   1.000  C
  C630     1.0000 0.30329  0.77921  0.75440  Biso   1.000  C
  C631     1.0000 0.02719  0.54070  0.92891  Biso   1.000  C
  C632     1.0000 0.06052  0.62060  0.96759  Biso   1.000  C
  C633     1.0000 0.03972  0.61688  0.87969  Biso   1.000  C
  C634     1.0000 0.08699  0.74252  0.78939  Biso   1.000  C
  C635     1.0000 0.02100  0.68251  0.83419  Biso   1.000  C
  C636     1.0000 0.96778  0.74428  0.78291  Biso   1.000  C
  N31      1.0000 0.14669  0.74101  0.81230  Biso   1.000  N
  C637     1.0000 0.16570  0.76469  0.73839  Biso   1.000  C
  C638     1.0000 0.99182  0.60280  0.84930  Biso   1.000  C
  N32      1.0000 0.05578  0.66560  0.87189  Biso   1.000  N
  C639     1.0000 0.09681  0.75829  0.74399  Biso   1.000  C
  C640     1.0000 0.98031  0.64420  0.81961  Biso   1.000  C
  Ne1      1.0000 0.32682  0.15437  0.52621  Biso   1.000  Ne
  He1      1.0000 0.33411  0.22491  0.44712  Biso   1.000  He
  He2      1.0000 0.24966  0.19883  0.44320  Biso   1.000  He
  Ar1      1.0000 0.28714  0.18453  0.51347  Biso   1.000  Ar
  Ne2      1.0000 0.32682  0.34563  0.02621  Biso   1.000  Ne
  He3      1.0000 0.48097  0.22305  0.03041  Biso   1.000  He
  He4      1.0000 0.26597  0.29535  0.94469  Biso   1.000  He
  He5      1.0000 0.34021  0.26450  0.93490  Biso   1.000  He
  Ar2      1.0000 0.28714  0.31547  0.01347  Biso   1.000  Ar
  Ne3      1.0000 0.82682  0.34563  0.47379  Biso   1.000  Ne
  He6      1.0000 0.83859  0.25368  0.56460  Biso   1.000  He
  He7      1.0000 0.75050  0.30087  0.55672  Biso   1.000  He
  He8      1.0000 0.83442  0.27533  0.55300  Biso   1.000  He
  Ar3      1.0000 0.78714  0.31547  0.48653  Biso   1.000  Ar
  Ne4      1.0000 0.17318  0.65437  0.52621  Biso   1.000  Ne
  He9      1.0000 0.01737  0.77737  0.53114  Biso   1.000  He
  He10     1.0000 0.25402  0.69752  0.44287  Biso   1.000  He
  He11     1.0000 0.17928  0.62307  0.35903  Biso   1.000  He
  Ar4      1.0000 0.21286  0.68453  0.51347  Biso   1.000  Ar
  Ne5      1.0000 0.17318  0.84563  0.02621  Biso   1.000  Ne
  He12     1.0000 0.96521  0.70956  0.05410  Biso   1.000  He
  He13     1.0000 0.23104  0.79429  0.94496  Biso   1.000  He
  Ar5      1.0000 0.21286  0.81547  0.01347  Biso   1.000  Ar
  Ne6      1.0000 0.67318  0.84563  0.47379  Biso   1.000  Ne
  He14     1.0000 0.65959  0.76033  0.57097  Biso   1.000  He
  He15     1.0000 0.75264  0.80199  0.55701  Biso   1.000  He
  He16     1.0000 0.66389  0.77256  0.55400  Biso   1.000  He
  Ar6      1.0000 0.71286  0.81547  0.48653  Biso   1.000  Ar
  Ne7      1.0000 0.67318  0.65437  0.97379  Biso   1.000  Ne
  He17     1.0000 0.73919  0.70281  0.05578  Biso   1.000  He
  He18     1.0000 0.67559  0.72276  0.05243  Biso   1.000  He
  Ar7      1.0000 0.71286  0.68453  0.98653  Biso   1.000  Ar
  Ne8      1.0000 0.82682  0.15437  0.97379  Biso   1.000  Ne
  He19     1.0000 0.62343  0.14550  0.08935  Biso   1.000  He
  He20     1.0000 0.83777  0.21673  0.02437  Biso   1.000  He
  Ar8      1.0000 0.78714  0.18453  0.98653  Biso   1.000  Ar
