data_image0
_cell_length_a       14.535
_cell_length_b       14.535
_cell_length_c       35.836
_cell_angle_alpha    90
_cell_angle_beta     90
_cell_angle_gamma    90

_symmetry_space_group_name_H-M    "P 1"
_symmetry_int_tables_number       1

loop_
  _symmetry_equiv_pos_as_xyz
  'x, y, z'

loop_
  _atom_site_label
  _atom_site_occupancy
  _atom_site_fract_x
  _atom_site_fract_y
  _atom_site_fract_z
  _atom_site_thermal_displace_type
  _atom_site_B_iso_or_equiv
  _atom_site_type_symbol
  C1       1.0000 0.32191  0.18548  0.17669  Biso   1.000  C
  C2       1.0000 0.37007  0.09770  0.17694  Biso   1.000  C
  C3       1.0000 0.26137  0.18101  0.14123  Biso   1.000  C
  H1       1.0000 0.36491  0.23639  0.17541  Biso   1.000  H
  H2       1.0000 0.28428  0.19243  0.19891  Biso   1.000  H
  C4       1.0000 0.27410  0.12061  0.17661  Biso   1.000  C
  C5       1.0000 0.39642  0.07678  0.13643  Biso   1.000  C
  H3       1.0000 0.38108  0.04451  0.19260  Biso   1.000  H
  H4       1.0000 0.40612  0.14888  0.18640  Biso   1.000  H
  C6       1.0000 0.32343  0.13120  0.11332  Biso   1.000  C
  H5       1.0000 0.19780  0.18170  0.13299  Biso   1.000  H
  H6       1.0000 0.28187  0.24369  0.14550  Biso   1.000  H
  H7       1.0000 0.25731  0.15452  0.19891  Biso   1.000  H
  H8       1.0000 0.23660  0.06550  0.17510  Biso   1.000  H
  N1       1.0000 0.48311  0.11730  0.12407  Biso   1.000  N
  N2       1.0000 0.38411  0.98252  0.12440  Biso   1.000  N
  N3       1.0000 0.27981  0.06006  0.09122  Biso   1.000  N
  N4       1.0000 0.37957  0.19401  0.09130  Biso   1.000  N
  C7       1.0000 0.47107  0.18562  0.09901  Biso   1.000  C
  C8       1.0000 0.57200  0.09563  0.14047  Biso   1.000  C
  C9       1.0000 0.31297  0.97448  0.09881  Biso   1.000  C
  C10      1.0000 0.42800  0.90437  0.14047  Biso   1.000  C
  C11      1.0000 0.19911  0.07327  0.06823  Biso   1.000  C
  C12      1.0000 0.34228  0.26839  0.06781  Biso   1.000  C
  O1       1.0000 0.53209  0.23447  0.08653  Biso   1.000  O
  H9       1.0000 0.61218  0.14840  0.13771  Biso   1.000  H
  H10      1.0000 0.56381  0.08469  0.16701  Biso   1.000  H
  N5       1.0000 0.61589  0.01748  0.12440  Biso   1.000  N
  O2       1.0000 0.28572  0.90155  0.08581  Biso   1.000  O
  H11      1.0000 0.38782  0.85160  0.13771  Biso   1.000  H
  H12      1.0000 0.43619  0.91531  0.16701  Biso   1.000  H
  N6       1.0000 0.51689  0.88270  0.12407  Biso   1.000  N
  H13      1.0000 0.16567  0.01569  0.06680  Biso   1.000  H
  H14      1.0000 0.15927  0.11799  0.08020  Biso   1.000  H
  N7       1.0000 0.21940  0.10416  0.03109  Biso   1.000  N
  H15      1.0000 0.28772  0.29322  0.07970  Biso   1.000  H
  H16      1.0000 0.38727  0.31751  0.06630  Biso   1.000  H
  N8       1.0000 0.31923  0.23949  0.03106  Biso   1.000  N
  C13      1.0000 0.68703  0.02552  0.09881  Biso   1.000  C
  C14      1.0000 0.60358  0.92322  0.13643  Biso   1.000  C
  C15      1.0000 0.52893  0.81438  0.09901  Biso   1.000  C
  C16      1.0000 0.20523  0.05112  0.00000  Biso   1.000  C
  C17      1.0000 0.23048  0.20110  0.02121  Biso   1.000  C
  C18      1.0000 0.36560  0.26550  0.00000  Biso   1.000  C
  O3       1.0000 0.71428  0.09845  0.08581  Biso   1.000  O
  N9       1.0000 0.72019  0.93994  0.09122  Biso   1.000  N
  C19      1.0000 0.67657  0.86880  0.11332  Biso   1.000  C
  C20      1.0000 0.62993  0.90230  0.17694  Biso   1.000  C
  N10      1.0000 0.62043  0.80599  0.09130  Biso   1.000  N
  O4       1.0000 0.46791  0.76553  0.08653  Biso   1.000  O
  O5       1.0000 0.18259  0.96959  0.00000  Biso   1.000  O
  N11      1.0000 0.21940  0.10416  0.96891  Biso   1.000  N
  H17      1.0000 0.18012  0.23860  0.03109  Biso   1.000  H
  C21      1.0000 0.23048  0.20110  0.97879  Biso   1.000  C
  O6       1.0000 0.44032  0.30671  0.00000  Biso   1.000  O
  N12      1.0000 0.31923  0.23949  0.96894  Biso   1.000  N
  C22      1.0000 0.80089  0.92673  0.06823  Biso   1.000  C
  C23      1.0000 0.73863  0.81899  0.14123  Biso   1.000  C
  H18      1.0000 0.61892  0.95549  0.19260  Biso   1.000  H
  H19      1.0000 0.59388  0.85112  0.18640  Biso   1.000  H
  C24      1.0000 0.67809  0.81452  0.17669  Biso   1.000  C
  C25      1.0000 0.72590  0.87939  0.17661  Biso   1.000  C
  C26      1.0000 0.65772  0.73161  0.06781  Biso   1.000  C
  C27      1.0000 0.19911  0.07327  0.93177  Biso   1.000  C
  H20      1.0000 0.18012  0.23860  0.96891  Biso   1.000  H
  C28      1.0000 0.34228  0.26839  0.93219  Biso   1.000  C
  H21      1.0000 0.83433  0.98431  0.06680  Biso   1.000  H
  H22      1.0000 0.84073  0.88201  0.08020  Biso   1.000  H
  N13      1.0000 0.78060  0.89584  0.03109  Biso   1.000  N
  H23      1.0000 0.80220  0.81830  0.13299  Biso   1.000  H
  H24      1.0000 0.71813  0.75631  0.14550  Biso   1.000  H
  H25      1.0000 0.63509  0.76361  0.17541  Biso   1.000  H
  H26      1.0000 0.71572  0.80757  0.19891  Biso   1.000  H
  H27      1.0000 0.74269  0.84548  0.19891  Biso   1.000  H
  H28      1.0000 0.76340  0.93450  0.17510  Biso   1.000  H
  H29      1.0000 0.71228  0.70678  0.07970  Biso   1.000  H
  H30      1.0000 0.61273  0.68249  0.06630  Biso   1.000  H
  N14      1.0000 0.68077  0.76051  0.03106  Biso   1.000  N
  H31      1.0000 0.16567  0.01569  0.93320  Biso   1.000  H
  H32      1.0000 0.15927  0.11799  0.91980  Biso   1.000  H
  N15      1.0000 0.27981  0.06006  0.90878  Biso   1.000  N
  H33      1.0000 0.28772  0.29322  0.92030  Biso   1.000  H
  H34      1.0000 0.38727  0.31751  0.93370  Biso   1.000  H
  N16      1.0000 0.37957  0.19401  0.90870  Biso   1.000  N
  C29      1.0000 0.79477  0.94888  0.00000  Biso   1.000  C
  C30      1.0000 0.76952  0.79890  0.02121  Biso   1.000  C
  C31      1.0000 0.63440  0.73450  0.00000  Biso   1.000  C
  C32      1.0000 0.31297  0.97448  0.90119  Biso   1.000  C
  C33      1.0000 0.32343  0.13120  0.88668  Biso   1.000  C
  C34      1.0000 0.47107  0.18562  0.90099  Biso   1.000  C
  O7       1.0000 0.81741  0.03041  0.00000  Biso   1.000  O
  N17      1.0000 0.78060  0.89584  0.96891  Biso   1.000  N
  C35      1.0000 0.76952  0.79890  0.97879  Biso   1.000  C
  H35      1.0000 0.81988  0.76140  0.03109  Biso   1.000  H
  N18      1.0000 0.68077  0.76051  0.96894  Biso   1.000  N
  O8       1.0000 0.55968  0.69329  0.00000  Biso   1.000  O
  N19      1.0000 0.38411  0.98252  0.87560  Biso   1.000  N
  O9       1.0000 0.28572  0.90155  0.91419  Biso   1.000  O
  C36      1.0000 0.39642  0.07678  0.86357  Biso   1.000  C
  C37      1.0000 0.26137  0.18101  0.85877  Biso   1.000  C
  N20      1.0000 0.48311  0.11730  0.87593  Biso   1.000  N
  O10      1.0000 0.53209  0.23447  0.91347  Biso   1.000  O
  C38      1.0000 0.80089  0.92673  0.93177  Biso   1.000  C
  H36      1.0000 0.81988  0.76140  0.96891  Biso   1.000  H
  C39      1.0000 0.65772  0.73161  0.93219  Biso   1.000  C
  C40      1.0000 0.42800  0.90437  0.85953  Biso   1.000  C
  C41      1.0000 0.37007  0.09770  0.82306  Biso   1.000  C
  H37      1.0000 0.19780  0.18170  0.86701  Biso   1.000  H
  H38      1.0000 0.28187  0.24369  0.85450  Biso   1.000  H
  C42      1.0000 0.32191  0.18548  0.82331  Biso   1.000  C
  C43      1.0000 0.27410  0.12061  0.82339  Biso   1.000  C
  C44      1.0000 0.57200  0.09563  0.85953  Biso   1.000  C
  H39      1.0000 0.83433  0.98431  0.93320  Biso   1.000  H
  H40      1.0000 0.84073  0.88201  0.91980  Biso   1.000  H
  N21      1.0000 0.72019  0.93994  0.90878  Biso   1.000  N
  H41      1.0000 0.71228  0.70678  0.92030  Biso   1.000  H
  H42      1.0000 0.61273  0.68249  0.93370  Biso   1.000  H
  N22      1.0000 0.62043  0.80599  0.90870  Biso   1.000  N
  H43      1.0000 0.38782  0.85160  0.86229  Biso   1.000  H
  H44      1.0000 0.43619  0.91531  0.83299  Biso   1.000  H
  N23      1.0000 0.51689  0.88270  0.87593  Biso   1.000  N
  H45      1.0000 0.38108  0.04451  0.80740  Biso   1.000  H
  H46      1.0000 0.40612  0.14888  0.81360  Biso   1.000  H
  H47      1.0000 0.36491  0.23639  0.82459  Biso   1.000  H
  H48      1.0000 0.28428  0.19243  0.80109  Biso   1.000  H
  H49      1.0000 0.25731  0.15452  0.80109  Biso   1.000  H
  H50      1.0000 0.23660  0.06550  0.82490  Biso   1.000  H
  H51      1.0000 0.61218  0.14840  0.86229  Biso   1.000  H
  H52      1.0000 0.56381  0.08469  0.83299  Biso   1.000  H
  N24      1.0000 0.61589  0.01748  0.87560  Biso   1.000  N
  C45      1.0000 0.67657  0.86880  0.88668  Biso   1.000  C
  C46      1.0000 0.68703  0.02552  0.90119  Biso   1.000  C
  C47      1.0000 0.52893  0.81438  0.90099  Biso   1.000  C
  C48      1.0000 0.60358  0.92322  0.86357  Biso   1.000  C
  C49      1.0000 0.73863  0.81899  0.85877  Biso   1.000  C
  O11      1.0000 0.71428  0.09845  0.91419  Biso   1.000  O
  O12      1.0000 0.46791  0.76553  0.91347  Biso   1.000  O
  C50      1.0000 0.62993  0.90230  0.82306  Biso   1.000  C
  H53      1.0000 0.80220  0.81830  0.86701  Biso   1.000  H
  H54      1.0000 0.71813  0.75631  0.85450  Biso   1.000  H
  C51      1.0000 0.67809  0.81452  0.82331  Biso   1.000  C
  C52      1.0000 0.72590  0.87939  0.82339  Biso   1.000  C
  H55      1.0000 0.61892  0.95549  0.80740  Biso   1.000  H
  H56      1.0000 0.59388  0.85112  0.81360  Biso   1.000  H
  H57      1.0000 0.63509  0.76361  0.82459  Biso   1.000  H
  H58      1.0000 0.71572  0.80757  0.80109  Biso   1.000  H
  H59      1.0000 0.74269  0.84548  0.80109  Biso   1.000  H
  H60      1.0000 0.76340  0.93450  0.82490  Biso   1.000  H
  C53      1.0000 0.32191  0.18548  0.17669  Biso   1.000  C
  C54      1.0000 0.37007  0.09770  0.17694  Biso   1.000  C
  C55      1.0000 0.26137  0.18101  0.14123  Biso   1.000  C
  H61      1.0000 0.36491  0.23639  0.17541  Biso   1.000  H
  H62      1.0000 0.28428  0.19243  0.19891  Biso   1.000  H
  C56      1.0000 0.27410  0.12061  0.17661  Biso   1.000  C
  C57      1.0000 0.39642  0.07678  0.13643  Biso   1.000  C
  H63      1.0000 0.38108  0.04451  0.19260  Biso   1.000  H
  H64      1.0000 0.40612  0.14888  0.18640  Biso   1.000  H
  C58      1.0000 0.32343  0.13120  0.11332  Biso   1.000  C
  H65      1.0000 0.19780  0.18170  0.13299  Biso   1.000  H
  H66      1.0000 0.28187  0.24369  0.14550  Biso   1.000  H
  H67      1.0000 0.25731  0.15452  0.19891  Biso   1.000  H
  H68      1.0000 0.23660  0.06550  0.17510  Biso   1.000  H
  N25      1.0000 0.48311  0.11730  0.12407  Biso   1.000  N
  N26      1.0000 0.38411  0.98252  0.12440  Biso   1.000  N
  N27      1.0000 0.27981  0.06006  0.09122  Biso   1.000  N
  N28      1.0000 0.37957  0.19401  0.09130  Biso   1.000  N
  C59      1.0000 0.47107  0.18562  0.09901  Biso   1.000  C
  C60      1.0000 0.57200  0.09563  0.14047  Biso   1.000  C
  C61      1.0000 0.31297  0.97448  0.09881  Biso   1.000  C
  C62      1.0000 0.42800  0.90437  0.14047  Biso   1.000  C
  C63      1.0000 0.19911  0.07327  0.06823  Biso   1.000  C
  C64      1.0000 0.34228  0.26839  0.06781  Biso   1.000  C
  O13      1.0000 0.53209  0.23447  0.08653  Biso   1.000  O
  H69      1.0000 0.61218  0.14840  0.13771  Biso   1.000  H
  H70      1.0000 0.56381  0.08469  0.16701  Biso   1.000  H
  N29      1.0000 0.61589  0.01748  0.12440  Biso   1.000  N
  O14      1.0000 0.28572  0.90155  0.08581  Biso   1.000  O
  H71      1.0000 0.38782  0.85160  0.13771  Biso   1.000  H
  H72      1.0000 0.43619  0.91531  0.16701  Biso   1.000  H
  N30      1.0000 0.51689  0.88270  0.12407  Biso   1.000  N
  H73      1.0000 0.16567  0.01569  0.06680  Biso   1.000  H
  H74      1.0000 0.15927  0.11799  0.08020  Biso   1.000  H
  N31      1.0000 0.21940  0.10416  0.03109  Biso   1.000  N
  H75      1.0000 0.28772  0.29322  0.07970  Biso   1.000  H
  H76      1.0000 0.38727  0.31751  0.06630  Biso   1.000  H
  N32      1.0000 0.31923  0.23949  0.03106  Biso   1.000  N
  C65      1.0000 0.68703  0.02552  0.09881  Biso   1.000  C
  C66      1.0000 0.60358  0.92322  0.13643  Biso   1.000  C
  C67      1.0000 0.52893  0.81438  0.09901  Biso   1.000  C
  C68      1.0000 0.20523  0.05112  0.00000  Biso   1.000  C
  C69      1.0000 0.23048  0.20110  0.02121  Biso   1.000  C
  C70      1.0000 0.36560  0.26550  0.00000  Biso   1.000  C
  O15      1.0000 0.71428  0.09845  0.08581  Biso   1.000  O
  N33      1.0000 0.72019  0.93994  0.09122  Biso   1.000  N
  C71      1.0000 0.67657  0.86880  0.11332  Biso   1.000  C
  C72      1.0000 0.62993  0.90230  0.17694  Biso   1.000  C
  N34      1.0000 0.62043  0.80599  0.09130  Biso   1.000  N
  O16      1.0000 0.46791  0.76553  0.08653  Biso   1.000  O
  O17      1.0000 0.18259  0.96959  0.00000  Biso   1.000  O
  N35      1.0000 0.21940  0.10416  0.96891  Biso   1.000  N
  H77      1.0000 0.18012  0.23860  0.03109  Biso   1.000  H
  C73      1.0000 0.23048  0.20110  0.97879  Biso   1.000  C
  O18      1.0000 0.44032  0.30671  0.00000  Biso   1.000  O
  N36      1.0000 0.31923  0.23949  0.96894  Biso   1.000  N
  C74      1.0000 0.80089  0.92673  0.06823  Biso   1.000  C
  C75      1.0000 0.73863  0.81899  0.14123  Biso   1.000  C
  H78      1.0000 0.61892  0.95549  0.19260  Biso   1.000  H
  H79      1.0000 0.59388  0.85112  0.18640  Biso   1.000  H
  C76      1.0000 0.67809  0.81452  0.17669  Biso   1.000  C
  C77      1.0000 0.72590  0.87939  0.17661  Biso   1.000  C
  C78      1.0000 0.65772  0.73161  0.06781  Biso   1.000  C
  C79      1.0000 0.19911  0.07327  0.93177  Biso   1.000  C
  H80      1.0000 0.18012  0.23860  0.96891  Biso   1.000  H
  C80      1.0000 0.34228  0.26839  0.93219  Biso   1.000  C
  H81      1.0000 0.83433  0.98431  0.06680  Biso   1.000  H
  H82      1.0000 0.84073  0.88201  0.08020  Biso   1.000  H
  N37      1.0000 0.78060  0.89584  0.03109  Biso   1.000  N
  H83      1.0000 0.80220  0.81830  0.13299  Biso   1.000  H
  H84      1.0000 0.71813  0.75631  0.14550  Biso   1.000  H
  H85      1.0000 0.63509  0.76361  0.17541  Biso   1.000  H
  H86      1.0000 0.71572  0.80757  0.19891  Biso   1.000  H
  H87      1.0000 0.74269  0.84548  0.19891  Biso   1.000  H
  H88      1.0000 0.76340  0.93450  0.17510  Biso   1.000  H
  H89      1.0000 0.71228  0.70678  0.07970  Biso   1.000  H
  H90      1.0000 0.61273  0.68249  0.06630  Biso   1.000  H
  N38      1.0000 0.68077  0.76051  0.03106  Biso   1.000  N
  H91      1.0000 0.16567  0.01569  0.93320  Biso   1.000  H
  H92      1.0000 0.15927  0.11799  0.91980  Biso   1.000  H
  N39      1.0000 0.27981  0.06006  0.90878  Biso   1.000  N
  H93      1.0000 0.28772  0.29322  0.92030  Biso   1.000  H
  H94      1.0000 0.38727  0.31751  0.93370  Biso   1.000  H
  N40      1.0000 0.37957  0.19401  0.90870  Biso   1.000  N
  C81      1.0000 0.79477  0.94888  0.00000  Biso   1.000  C
  C82      1.0000 0.76952  0.79890  0.02121  Biso   1.000  C
  C83      1.0000 0.63440  0.73450  0.00000  Biso   1.000  C
  C84      1.0000 0.31297  0.97448  0.90119  Biso   1.000  C
  C85      1.0000 0.32343  0.13120  0.88668  Biso   1.000  C
  C86      1.0000 0.47107  0.18562  0.90099  Biso   1.000  C
  O19      1.0000 0.81741  0.03041  0.00000  Biso   1.000  O
  N41      1.0000 0.78060  0.89584  0.96891  Biso   1.000  N
  C87      1.0000 0.76952  0.79890  0.97879  Biso   1.000  C
  H95      1.0000 0.81988  0.76140  0.03109  Biso   1.000  H
  N42      1.0000 0.68077  0.76051  0.96894  Biso   1.000  N
  O20      1.0000 0.55968  0.69329  0.00000  Biso   1.000  O
  N43      1.0000 0.38411  0.98252  0.87560  Biso   1.000  N
  O21      1.0000 0.28572  0.90155  0.91419  Biso   1.000  O
  C88      1.0000 0.39642  0.07678  0.86357  Biso   1.000  C
  C89      1.0000 0.26137  0.18101  0.85877  Biso   1.000  C
  N44      1.0000 0.48311  0.11730  0.87593  Biso   1.000  N
  O22      1.0000 0.53209  0.23447  0.91347  Biso   1.000  O
  C90      1.0000 0.80089  0.92673  0.93177  Biso   1.000  C
  H96      1.0000 0.81988  0.76140  0.96891  Biso   1.000  H
  C91      1.0000 0.65772  0.73161  0.93219  Biso   1.000  C
  C92      1.0000 0.42800  0.90437  0.85953  Biso   1.000  C
  C93      1.0000 0.37007  0.09770  0.82306  Biso   1.000  C
  H97      1.0000 0.19780  0.18170  0.86701  Biso   1.000  H
  H98      1.0000 0.28187  0.24369  0.85450  Biso   1.000  H
  C94      1.0000 0.32191  0.18548  0.82331  Biso   1.000  C
  C95      1.0000 0.27410  0.12061  0.82339  Biso   1.000  C
  C96      1.0000 0.57200  0.09563  0.85953  Biso   1.000  C
  H99      1.0000 0.83433  0.98431  0.93320  Biso   1.000  H
  H100     1.0000 0.84073  0.88201  0.91980  Biso   1.000  H
  N45      1.0000 0.72019  0.93994  0.90878  Biso   1.000  N
  H101     1.0000 0.71228  0.70678  0.92030  Biso   1.000  H
  H102     1.0000 0.61273  0.68249  0.93370  Biso   1.000  H
  N46      1.0000 0.62043  0.80599  0.90870  Biso   1.000  N
  H103     1.0000 0.38782  0.85160  0.86229  Biso   1.000  H
  H104     1.0000 0.43619  0.91531  0.83299  Biso   1.000  H
  N47      1.0000 0.51689  0.88270  0.87593  Biso   1.000  N
  H105     1.0000 0.38108  0.04451  0.80740  Biso   1.000  H
  H106     1.0000 0.40612  0.14888  0.81360  Biso   1.000  H
  H107     1.0000 0.36491  0.23639  0.82459  Biso   1.000  H
  H108     1.0000 0.28428  0.19243  0.80109  Biso   1.000  H
  H109     1.0000 0.25731  0.15452  0.80109  Biso   1.000  H
  H110     1.0000 0.23660  0.06550  0.82490  Biso   1.000  H
  H111     1.0000 0.61218  0.14840  0.86229  Biso   1.000  H
  H112     1.0000 0.56381  0.08469  0.83299  Biso   1.000  H
  N48      1.0000 0.61589  0.01748  0.87560  Biso   1.000  N
  C97      1.0000 0.67657  0.86880  0.88668  Biso   1.000  C
  C98      1.0000 0.68703  0.02552  0.90119  Biso   1.000  C
  C99      1.0000 0.52893  0.81438  0.90099  Biso   1.000  C
  C100     1.0000 0.60358  0.92322  0.86357  Biso   1.000  C
  C101     1.0000 0.73863  0.81899  0.85877  Biso   1.000  C
  O23      1.0000 0.71428  0.09845  0.91419  Biso   1.000  O
  O24      1.0000 0.46791  0.76553  0.91347  Biso   1.000  O
  C102     1.0000 0.62993  0.90230  0.82306  Biso   1.000  C
  H113     1.0000 0.80220  0.81830  0.86701  Biso   1.000  H
  H114     1.0000 0.71813  0.75631  0.85450  Biso   1.000  H
  C103     1.0000 0.67809  0.81452  0.82331  Biso   1.000  C
  C104     1.0000 0.72590  0.87939  0.82339  Biso   1.000  C
  H115     1.0000 0.61892  0.95549  0.80740  Biso   1.000  H
  H116     1.0000 0.59388  0.85112  0.81360  Biso   1.000  H
  H117     1.0000 0.63509  0.76361  0.82459  Biso   1.000  H
  H118     1.0000 0.71572  0.80757  0.80109  Biso   1.000  H
  H119     1.0000 0.74269  0.84548  0.80109  Biso   1.000  H
  H120     1.0000 0.76340  0.93450  0.82490  Biso   1.000  H
  C105     1.0000 0.32191  0.18548  0.17669  Biso   1.000  C
  C106     1.0000 0.37007  0.09770  0.17694  Biso   1.000  C
  C107     1.0000 0.26137  0.18101  0.14123  Biso   1.000  C
  H121     1.0000 0.36491  0.23639  0.17541  Biso   1.000  H
  H122     1.0000 0.28428  0.19243  0.19891  Biso   1.000  H
  C108     1.0000 0.27410  0.12061  0.17661  Biso   1.000  C
  C109     1.0000 0.39642  0.07678  0.13643  Biso   1.000  C
  H123     1.0000 0.38108  0.04451  0.19260  Biso   1.000  H
  H124     1.0000 0.40612  0.14888  0.18640  Biso   1.000  H
  C110     1.0000 0.32343  0.13120  0.11332  Biso   1.000  C
  H125     1.0000 0.19780  0.18170  0.13299  Biso   1.000  H
  H126     1.0000 0.28187  0.24369  0.14550  Biso   1.000  H
  H127     1.0000 0.25731  0.15452  0.19891  Biso   1.000  H
  H128     1.0000 0.23660  0.06550  0.17510  Biso   1.000  H
  N49      1.0000 0.48311  0.11730  0.12407  Biso   1.000  N
  N50      1.0000 0.38411  0.98252  0.12440  Biso   1.000  N
  N51      1.0000 0.27981  0.06006  0.09122  Biso   1.000  N
  N52      1.0000 0.37957  0.19401  0.09130  Biso   1.000  N
  C111     1.0000 0.47107  0.18562  0.09901  Biso   1.000  C
  C112     1.0000 0.57200  0.09563  0.14047  Biso   1.000  C
  C113     1.0000 0.31297  0.97448  0.09881  Biso   1.000  C
  C114     1.0000 0.42800  0.90437  0.14047  Biso   1.000  C
  C115     1.0000 0.19911  0.07327  0.06823  Biso   1.000  C
  C116     1.0000 0.34228  0.26839  0.06781  Biso   1.000  C
  O25      1.0000 0.53209  0.23447  0.08653  Biso   1.000  O
  H129     1.0000 0.61218  0.14840  0.13771  Biso   1.000  H
  H130     1.0000 0.56381  0.08469  0.16701  Biso   1.000  H
  N53      1.0000 0.61589  0.01748  0.12440  Biso   1.000  N
  O26      1.0000 0.28572  0.90155  0.08581  Biso   1.000  O
  H131     1.0000 0.38782  0.85160  0.13771  Biso   1.000  H
  H132     1.0000 0.43619  0.91531  0.16701  Biso   1.000  H
  N54      1.0000 0.51689  0.88270  0.12407  Biso   1.000  N
  H133     1.0000 0.16567  0.01569  0.06680  Biso   1.000  H
  H134     1.0000 0.15927  0.11799  0.08020  Biso   1.000  H
  N55      1.0000 0.21940  0.10416  0.03109  Biso   1.000  N
  H135     1.0000 0.28772  0.29322  0.07970  Biso   1.000  H
  H136     1.0000 0.38727  0.31751  0.06630  Biso   1.000  H
  N56      1.0000 0.31923  0.23949  0.03106  Biso   1.000  N
  C117     1.0000 0.68703  0.02552  0.09881  Biso   1.000  C
  C118     1.0000 0.60358  0.92322  0.13643  Biso   1.000  C
  C119     1.0000 0.52893  0.81438  0.09901  Biso   1.000  C
  C120     1.0000 0.20523  0.05112  0.00000  Biso   1.000  C
  C121     1.0000 0.23048  0.20110  0.02121  Biso   1.000  C
  C122     1.0000 0.36560  0.26550  0.00000  Biso   1.000  C
  O27      1.0000 0.71428  0.09845  0.08581  Biso   1.000  O
  N57      1.0000 0.72019  0.93994  0.09122  Biso   1.000  N
  C123     1.0000 0.67657  0.86880  0.11332  Biso   1.000  C
  C124     1.0000 0.62993  0.90230  0.17694  Biso   1.000  C
  N58      1.0000 0.62043  0.80599  0.09130  Biso   1.000  N
  O28      1.0000 0.46791  0.76553  0.08653  Biso   1.000  O
  O29      1.0000 0.18259  0.96959  0.00000  Biso   1.000  O
  N59      1.0000 0.21940  0.10416  0.96891  Biso   1.000  N
  H137     1.0000 0.18012  0.23860  0.03109  Biso   1.000  H
  C125     1.0000 0.23048  0.20110  0.97879  Biso   1.000  C
  O30      1.0000 0.44032  0.30671  0.00000  Biso   1.000  O
  N60      1.0000 0.31923  0.23949  0.96894  Biso   1.000  N
  C126     1.0000 0.80089  0.92673  0.06823  Biso   1.000  C
  C127     1.0000 0.73863  0.81899  0.14123  Biso   1.000  C
  H138     1.0000 0.61892  0.95549  0.19260  Biso   1.000  H
  H139     1.0000 0.59388  0.85112  0.18640  Biso   1.000  H
  C128     1.0000 0.67809  0.81452  0.17669  Biso   1.000  C
  C129     1.0000 0.72590  0.87939  0.17661  Biso   1.000  C
  C130     1.0000 0.65772  0.73161  0.06781  Biso   1.000  C
  C131     1.0000 0.19911  0.07327  0.93177  Biso   1.000  C
  H140     1.0000 0.18012  0.23860  0.96891  Biso   1.000  H
  C132     1.0000 0.34228  0.26839  0.93219  Biso   1.000  C
  H141     1.0000 0.83433  0.98431  0.06680  Biso   1.000  H
  H142     1.0000 0.84073  0.88201  0.08020  Biso   1.000  H
  N61      1.0000 0.78060  0.89584  0.03109  Biso   1.000  N
  H143     1.0000 0.80220  0.81830  0.13299  Biso   1.000  H
  H144     1.0000 0.71813  0.75631  0.14550  Biso   1.000  H
  H145     1.0000 0.63509  0.76361  0.17541  Biso   1.000  H
  H146     1.0000 0.71572  0.80757  0.19891  Biso   1.000  H
  H147     1.0000 0.74269  0.84548  0.19891  Biso   1.000  H
  H148     1.0000 0.76340  0.93450  0.17510  Biso   1.000  H
  H149     1.0000 0.71228  0.70678  0.07970  Biso   1.000  H
  H150     1.0000 0.61273  0.68249  0.06630  Biso   1.000  H
  N62      1.0000 0.68077  0.76051  0.03106  Biso   1.000  N
  H151     1.0000 0.16567  0.01569  0.93320  Biso   1.000  H
  H152     1.0000 0.15927  0.11799  0.91980  Biso   1.000  H
  N63      1.0000 0.27981  0.06006  0.90878  Biso   1.000  N
  H153     1.0000 0.28772  0.29322  0.92030  Biso   1.000  H
  H154     1.0000 0.38727  0.31751  0.93370  Biso   1.000  H
  N64      1.0000 0.37957  0.19401  0.90870  Biso   1.000  N
  C133     1.0000 0.79477  0.94888  0.00000  Biso   1.000  C
  C134     1.0000 0.76952  0.79890  0.02121  Biso   1.000  C
  C135     1.0000 0.63440  0.73450  0.00000  Biso   1.000  C
  C136     1.0000 0.31297  0.97448  0.90119  Biso   1.000  C
  C137     1.0000 0.32343  0.13120  0.88668  Biso   1.000  C
  C138     1.0000 0.47107  0.18562  0.90099  Biso   1.000  C
  O31      1.0000 0.81741  0.03041  0.00000  Biso   1.000  O
  N65      1.0000 0.78060  0.89584  0.96891  Biso   1.000  N
  C139     1.0000 0.76952  0.79890  0.97879  Biso   1.000  C
  H155     1.0000 0.81988  0.76140  0.03109  Biso   1.000  H
  N66      1.0000 0.68077  0.76051  0.96894  Biso   1.000  N
  O32      1.0000 0.55968  0.69329  0.00000  Biso   1.000  O
  N67      1.0000 0.38411  0.98252  0.87560  Biso   1.000  N
  O33      1.0000 0.28572  0.90155  0.91419  Biso   1.000  O
  C140     1.0000 0.39642  0.07678  0.86357  Biso   1.000  C
  C141     1.0000 0.26137  0.18101  0.85877  Biso   1.000  C
  N68      1.0000 0.48311  0.11730  0.87593  Biso   1.000  N
  O34      1.0000 0.53209  0.23447  0.91347  Biso   1.000  O
  C142     1.0000 0.80089  0.92673  0.93177  Biso   1.000  C
  H156     1.0000 0.81988  0.76140  0.96891  Biso   1.000  H
  C143     1.0000 0.65772  0.73161  0.93219  Biso   1.000  C
  C144     1.0000 0.42800  0.90437  0.85953  Biso   1.000  C
  C145     1.0000 0.37007  0.09770  0.82306  Biso   1.000  C
  H157     1.0000 0.19780  0.18170  0.86701  Biso   1.000  H
  H158     1.0000 0.28187  0.24369  0.85450  Biso   1.000  H
  C146     1.0000 0.32191  0.18548  0.82331  Biso   1.000  C
  C147     1.0000 0.27410  0.12061  0.82339  Biso   1.000  C
  C148     1.0000 0.57200  0.09563  0.85953  Biso   1.000  C
  H159     1.0000 0.83433  0.98431  0.93320  Biso   1.000  H
  H160     1.0000 0.84073  0.88201  0.91980  Biso   1.000  H
  N69      1.0000 0.72019  0.93994  0.90878  Biso   1.000  N
  H161     1.0000 0.71228  0.70678  0.92030  Biso   1.000  H
  H162     1.0000 0.61273  0.68249  0.93370  Biso   1.000  H
  N70      1.0000 0.62043  0.80599  0.90870  Biso   1.000  N
  H163     1.0000 0.38782  0.85160  0.86229  Biso   1.000  H
  H164     1.0000 0.43619  0.91531  0.83299  Biso   1.000  H
  N71      1.0000 0.51689  0.88270  0.87593  Biso   1.000  N
  H165     1.0000 0.38108  0.04451  0.80740  Biso   1.000  H
  H166     1.0000 0.40612  0.14888  0.81360  Biso   1.000  H
  H167     1.0000 0.36491  0.23639  0.82459  Biso   1.000  H
  H168     1.0000 0.28428  0.19243  0.80109  Biso   1.000  H
  H169     1.0000 0.25731  0.15452  0.80109  Biso   1.000  H
  H170     1.0000 0.23660  0.06550  0.82490  Biso   1.000  H
  H171     1.0000 0.61218  0.14840  0.86229  Biso   1.000  H
  H172     1.0000 0.56381  0.08469  0.83299  Biso   1.000  H
  N72      1.0000 0.61589  0.01748  0.87560  Biso   1.000  N
  C149     1.0000 0.67657  0.86880  0.88668  Biso   1.000  C
  C150     1.0000 0.68703  0.02552  0.90119  Biso   1.000  C
  C151     1.0000 0.52893  0.81438  0.90099  Biso   1.000  C
  C152     1.0000 0.60358  0.92322  0.86357  Biso   1.000  C
  C153     1.0000 0.73863  0.81899  0.85877  Biso   1.000  C
  O35      1.0000 0.71428  0.09845  0.91419  Biso   1.000  O
  O36      1.0000 0.46791  0.76553  0.91347  Biso   1.000  O
  C154     1.0000 0.62993  0.90230  0.82306  Biso   1.000  C
  H173     1.0000 0.80220  0.81830  0.86701  Biso   1.000  H
  H174     1.0000 0.71813  0.75631  0.85450  Biso   1.000  H
  C155     1.0000 0.67809  0.81452  0.82331  Biso   1.000  C
  C156     1.0000 0.72590  0.87939  0.82339  Biso   1.000  C
  H175     1.0000 0.61892  0.95549  0.80740  Biso   1.000  H
  H176     1.0000 0.59388  0.85112  0.81360  Biso   1.000  H
  H177     1.0000 0.63509  0.76361  0.82459  Biso   1.000  H
  H178     1.0000 0.71572  0.80757  0.80109  Biso   1.000  H
  H179     1.0000 0.74269  0.84548  0.80109  Biso   1.000  H
  H180     1.0000 0.76340  0.93450  0.82490  Biso   1.000  H
  C157     1.0000 0.32191  0.18548  0.17669  Biso   1.000  C
  C158     1.0000 0.37007  0.09770  0.17694  Biso   1.000  C
  C159     1.0000 0.26137  0.18101  0.14123  Biso   1.000  C
  H181     1.0000 0.36491  0.23639  0.17541  Biso   1.000  H
  H182     1.0000 0.28428  0.19243  0.19891  Biso   1.000  H
  C160     1.0000 0.27410  0.12061  0.17661  Biso   1.000  C
  C161     1.0000 0.39642  0.07678  0.13643  Biso   1.000  C
  H183     1.0000 0.38108  0.04451  0.19260  Biso   1.000  H
  H184     1.0000 0.40612  0.14888  0.18640  Biso   1.000  H
  C162     1.0000 0.32343  0.13120  0.11332  Biso   1.000  C
  H185     1.0000 0.19780  0.18170  0.13299  Biso   1.000  H
  H186     1.0000 0.28187  0.24369  0.14550  Biso   1.000  H
  H187     1.0000 0.25731  0.15452  0.19891  Biso   1.000  H
  H188     1.0000 0.23660  0.06550  0.17510  Biso   1.000  H
  N73      1.0000 0.48311  0.11730  0.12407  Biso   1.000  N
  N74      1.0000 0.38411  0.98252  0.12440  Biso   1.000  N
  N75      1.0000 0.27981  0.06006  0.09122  Biso   1.000  N
  N76      1.0000 0.37957  0.19401  0.09130  Biso   1.000  N
  C163     1.0000 0.47107  0.18562  0.09901  Biso   1.000  C
  C164     1.0000 0.57200  0.09563  0.14047  Biso   1.000  C
  C165     1.0000 0.31297  0.97448  0.09881  Biso   1.000  C
  C166     1.0000 0.42800  0.90437  0.14047  Biso   1.000  C
  C167     1.0000 0.19911  0.07327  0.06823  Biso   1.000  C
  C168     1.0000 0.34228  0.26839  0.06781  Biso   1.000  C
  O37      1.0000 0.53209  0.23447  0.08653  Biso   1.000  O
  H189     1.0000 0.61218  0.14840  0.13771  Biso   1.000  H
  H190     1.0000 0.56381  0.08469  0.16701  Biso   1.000  H
  N77      1.0000 0.61589  0.01748  0.12440  Biso   1.000  N
  O38      1.0000 0.28572  0.90155  0.08581  Biso   1.000  O
  H191     1.0000 0.38782  0.85160  0.13771  Biso   1.000  H
  H192     1.0000 0.43619  0.91531  0.16701  Biso   1.000  H
  N78      1.0000 0.51689  0.88270  0.12407  Biso   1.000  N
  H193     1.0000 0.16567  0.01569  0.06680  Biso   1.000  H
  H194     1.0000 0.15927  0.11799  0.08020  Biso   1.000  H
  N79      1.0000 0.21940  0.10416  0.03109  Biso   1.000  N
  H195     1.0000 0.28772  0.29322  0.07970  Biso   1.000  H
  H196     1.0000 0.38727  0.31751  0.06630  Biso   1.000  H
  N80      1.0000 0.31923  0.23949  0.03106  Biso   1.000  N
  C169     1.0000 0.68703  0.02552  0.09881  Biso   1.000  C
  C170     1.0000 0.60358  0.92322  0.13643  Biso   1.000  C
  C171     1.0000 0.52893  0.81438  0.09901  Biso   1.000  C
  C172     1.0000 0.20523  0.05112  0.00000  Biso   1.000  C
  C173     1.0000 0.23048  0.20110  0.02121  Biso   1.000  C
  C174     1.0000 0.36560  0.26550  0.00000  Biso   1.000  C
  O39      1.0000 0.71428  0.09845  0.08581  Biso   1.000  O
  N81      1.0000 0.72019  0.93994  0.09122  Biso   1.000  N
  C175     1.0000 0.67657  0.86880  0.11332  Biso   1.000  C
  C176     1.0000 0.62993  0.90230  0.17694  Biso   1.000  C
  N82      1.0000 0.62043  0.80599  0.09130  Biso   1.000  N
  O40      1.0000 0.46791  0.76553  0.08653  Biso   1.000  O
  O41      1.0000 0.18259  0.96959  0.00000  Biso   1.000  O
  N83      1.0000 0.21940  0.10416  0.96891  Biso   1.000  N
  H197     1.0000 0.18012  0.23860  0.03109  Biso   1.000  H
  C177     1.0000 0.23048  0.20110  0.97879  Biso   1.000  C
  O42      1.0000 0.44032  0.30671  0.00000  Biso   1.000  O
  N84      1.0000 0.31923  0.23949  0.96894  Biso   1.000  N
  C178     1.0000 0.80089  0.92673  0.06823  Biso   1.000  C
  C179     1.0000 0.73863  0.81899  0.14123  Biso   1.000  C
  H198     1.0000 0.61892  0.95549  0.19260  Biso   1.000  H
  H199     1.0000 0.59388  0.85112  0.18640  Biso   1.000  H
  C180     1.0000 0.67809  0.81452  0.17669  Biso   1.000  C
  C181     1.0000 0.72590  0.87939  0.17661  Biso   1.000  C
  C182     1.0000 0.65772  0.73161  0.06781  Biso   1.000  C
  C183     1.0000 0.19911  0.07327  0.93177  Biso   1.000  C
  H200     1.0000 0.18012  0.23860  0.96891  Biso   1.000  H
  C184     1.0000 0.34228  0.26839  0.93219  Biso   1.000  C
  H201     1.0000 0.83433  0.98431  0.06680  Biso   1.000  H
  H202     1.0000 0.84073  0.88201  0.08020  Biso   1.000  H
  N85      1.0000 0.78060  0.89584  0.03109  Biso   1.000  N
  H203     1.0000 0.80220  0.81830  0.13299  Biso   1.000  H
  H204     1.0000 0.71813  0.75631  0.14550  Biso   1.000  H
  H205     1.0000 0.63509  0.76361  0.17541  Biso   1.000  H
  H206     1.0000 0.71572  0.80757  0.19891  Biso   1.000  H
  H207     1.0000 0.74269  0.84548  0.19891  Biso   1.000  H
  H208     1.0000 0.76340  0.93450  0.17510  Biso   1.000  H
  H209     1.0000 0.71228  0.70678  0.07970  Biso   1.000  H
  H210     1.0000 0.61273  0.68249  0.06630  Biso   1.000  H
  N86      1.0000 0.68077  0.76051  0.03106  Biso   1.000  N
  H211     1.0000 0.16567  0.01569  0.93320  Biso   1.000  H
  H212     1.0000 0.15927  0.11799  0.91980  Biso   1.000  H
  N87      1.0000 0.27981  0.06006  0.90878  Biso   1.000  N
  H213     1.0000 0.28772  0.29322  0.92030  Biso   1.000  H
  H214     1.0000 0.38727  0.31751  0.93370  Biso   1.000  H
  N88      1.0000 0.37957  0.19401  0.90870  Biso   1.000  N
  C185     1.0000 0.79477  0.94888  0.00000  Biso   1.000  C
  C186     1.0000 0.76952  0.79890  0.02121  Biso   1.000  C
  C187     1.0000 0.63440  0.73450  0.00000  Biso   1.000  C
  C188     1.0000 0.31297  0.97448  0.90119  Biso   1.000  C
  C189     1.0000 0.32343  0.13120  0.88668  Biso   1.000  C
  C190     1.0000 0.47107  0.18562  0.90099  Biso   1.000  C
  O43      1.0000 0.81741  0.03041  0.00000  Biso   1.000  O
  N89      1.0000 0.78060  0.89584  0.96891  Biso   1.000  N
  C191     1.0000 0.76952  0.79890  0.97879  Biso   1.000  C
  H215     1.0000 0.81988  0.76140  0.03109  Biso   1.000  H
  N90      1.0000 0.68077  0.76051  0.96894  Biso   1.000  N
  O44      1.0000 0.55968  0.69329  0.00000  Biso   1.000  O
  N91      1.0000 0.38411  0.98252  0.87560  Biso   1.000  N
  O45      1.0000 0.28572  0.90155  0.91419  Biso   1.000  O
  C192     1.0000 0.39642  0.07678  0.86357  Biso   1.000  C
  C193     1.0000 0.26137  0.18101  0.85877  Biso   1.000  C
  N92      1.0000 0.48311  0.11730  0.87593  Biso   1.000  N
  O46      1.0000 0.53209  0.23447  0.91347  Biso   1.000  O
  C194     1.0000 0.80089  0.92673  0.93177  Biso   1.000  C
  H216     1.0000 0.81988  0.76140  0.96891  Biso   1.000  H
  C195     1.0000 0.65772  0.73161  0.93219  Biso   1.000  C
  C196     1.0000 0.42800  0.90437  0.85953  Biso   1.000  C
  C197     1.0000 0.37007  0.09770  0.82306  Biso   1.000  C
  H217     1.0000 0.19780  0.18170  0.86701  Biso   1.000  H
  H218     1.0000 0.28187  0.24369  0.85450  Biso   1.000  H
  C198     1.0000 0.32191  0.18548  0.82331  Biso   1.000  C
  C199     1.0000 0.27410  0.12061  0.82339  Biso   1.000  C
  C200     1.0000 0.57200  0.09563  0.85953  Biso   1.000  C
  H219     1.0000 0.83433  0.98431  0.93320  Biso   1.000  H
  H220     1.0000 0.84073  0.88201  0.91980  Biso   1.000  H
  N93      1.0000 0.72019  0.93994  0.90878  Biso   1.000  N
  H221     1.0000 0.71228  0.70678  0.92030  Biso   1.000  H
  H222     1.0000 0.61273  0.68249  0.93370  Biso   1.000  H
  N94      1.0000 0.62043  0.80599  0.90870  Biso   1.000  N
  H223     1.0000 0.38782  0.85160  0.86229  Biso   1.000  H
  H224     1.0000 0.43619  0.91531  0.83299  Biso   1.000  H
  N95      1.0000 0.51689  0.88270  0.87593  Biso   1.000  N
  H225     1.0000 0.38108  0.04451  0.80740  Biso   1.000  H
  H226     1.0000 0.40612  0.14888  0.81360  Biso   1.000  H
  H227     1.0000 0.36491  0.23639  0.82459  Biso   1.000  H
  H228     1.0000 0.28428  0.19243  0.80109  Biso   1.000  H
  H229     1.0000 0.25731  0.15452  0.80109  Biso   1.000  H
  H230     1.0000 0.23660  0.06550  0.82490  Biso   1.000  H
  H231     1.0000 0.61218  0.14840  0.86229  Biso   1.000  H
  H232     1.0000 0.56381  0.08469  0.83299  Biso   1.000  H
  N96      1.0000 0.61589  0.01748  0.87560  Biso   1.000  N
  C201     1.0000 0.67657  0.86880  0.88668  Biso   1.000  C
  C202     1.0000 0.68703  0.02552  0.90119  Biso   1.000  C
  C203     1.0000 0.52893  0.81438  0.90099  Biso   1.000  C
  C204     1.0000 0.60358  0.92322  0.86357  Biso   1.000  C
  C205     1.0000 0.73863  0.81899  0.85877  Biso   1.000  C
  O47      1.0000 0.71428  0.09845  0.91419  Biso   1.000  O
  O48      1.0000 0.46791  0.76553  0.91347  Biso   1.000  O
  C206     1.0000 0.62993  0.90230  0.82306  Biso   1.000  C
  H233     1.0000 0.80220  0.81830  0.86701  Biso   1.000  H
  H234     1.0000 0.71813  0.75631  0.85450  Biso   1.000  H
  C207     1.0000 0.67809  0.81452  0.82331  Biso   1.000  C
  C208     1.0000 0.72590  0.87939  0.82339  Biso   1.000  C
  H235     1.0000 0.61892  0.95549  0.80740  Biso   1.000  H
  H236     1.0000 0.59388  0.85112  0.81360  Biso   1.000  H
  H237     1.0000 0.63509  0.76361  0.82459  Biso   1.000  H
  H238     1.0000 0.71572  0.80757  0.80109  Biso   1.000  H
  H239     1.0000 0.74269  0.84548  0.80109  Biso   1.000  H
  H240     1.0000 0.76340  0.93450  0.82490  Biso   1.000  H
  C209     1.0000 0.09563  0.42800  0.14047  Biso   1.000  C
  H241     1.0000 0.14840  0.38782  0.13771  Biso   1.000  H
  H242     1.0000 0.08469  0.43619  0.16701  Biso   1.000  H
  N97      1.0000 0.01748  0.38411  0.12440  Biso   1.000  N
  N98      1.0000 0.11730  0.51689  0.12407  Biso   1.000  N
  C210     1.0000 0.02552  0.31297  0.09881  Biso   1.000  C
  C211     1.0000 0.92322  0.39642  0.13643  Biso   1.000  C
  C212     1.0000 0.07678  0.60358  0.13643  Biso   1.000  C
  C213     1.0000 0.18562  0.52893  0.09901  Biso   1.000  C
  O49      1.0000 0.09845  0.28572  0.08581  Biso   1.000  O
  N99      1.0000 0.93994  0.27981  0.09122  Biso   1.000  N
  C214     1.0000 0.86880  0.32343  0.11332  Biso   1.000  C
  C215     1.0000 0.90230  0.37007  0.17694  Biso   1.000  C
  N100     1.0000 0.88270  0.48311  0.12407  Biso   1.000  N
  C216     1.0000 0.13120  0.67657  0.11332  Biso   1.000  C
  C217     1.0000 0.09770  0.62993  0.17694  Biso   1.000  C
  N101     1.0000 0.98252  0.61589  0.12440  Biso   1.000  N
  N102     1.0000 0.19401  0.62043  0.09130  Biso   1.000  N
  O50      1.0000 0.23447  0.46791  0.08653  Biso   1.000  O
  C218     1.0000 0.92673  0.19911  0.06823  Biso   1.000  C
  C219     1.0000 0.81899  0.26137  0.14123  Biso   1.000  C
  N103     1.0000 0.80599  0.37957  0.09130  Biso   1.000  N
  H243     1.0000 0.95549  0.38108  0.19260  Biso   1.000  H
  H244     1.0000 0.85112  0.40612  0.18640  Biso   1.000  H
  C220     1.0000 0.81452  0.32191  0.17669  Biso   1.000  C
  C221     1.0000 0.87939  0.27410  0.17661  Biso   1.000  C
  C222     1.0000 0.81438  0.47107  0.09901  Biso   1.000  C
  C223     1.0000 0.90437  0.57200  0.14047  Biso   1.000  C
  C224     1.0000 0.18101  0.73863  0.14123  Biso   1.000  C
  N104     1.0000 0.06006  0.72019  0.09122  Biso   1.000  N
  H245     1.0000 0.04451  0.61892  0.19260  Biso   1.000  H
  H246     1.0000 0.14888  0.59388  0.18640  Biso   1.000  H
  C225     1.0000 0.18548  0.67809  0.17669  Biso   1.000  C
  C226     1.0000 0.12061  0.72590  0.17661  Biso   1.000  C
  C227     1.0000 0.97448  0.68703  0.09881  Biso   1.000  C
  C228     1.0000 0.26839  0.65772  0.06781  Biso   1.000  C
  H247     1.0000 0.98431  0.16567  0.06680  Biso   1.000  H
  H248     1.0000 0.88201  0.15927  0.08020  Biso   1.000  H
  N105     1.0000 0.89584  0.21940  0.03109  Biso   1.000  N
  H249     1.0000 0.81830  0.19780  0.13299  Biso   1.000  H
  H250     1.0000 0.75631  0.28187  0.14550  Biso   1.000  H
  C229     1.0000 0.73161  0.34228  0.06781  Biso   1.000  C
  H251     1.0000 0.76361  0.36491  0.17541  Biso   1.000  H
  H252     1.0000 0.80757  0.28428  0.19891  Biso   1.000  H
  H253     1.0000 0.84548  0.25731  0.19891  Biso   1.000  H
  H254     1.0000 0.93450  0.23660  0.17510  Biso   1.000  H
  O51      1.0000 0.76553  0.53209  0.08653  Biso   1.000  O
  H255     1.0000 0.85160  0.61218  0.13771  Biso   1.000  H
  H256     1.0000 0.91531  0.56381  0.16701  Biso   1.000  H
  H257     1.0000 0.18170  0.80220  0.13299  Biso   1.000  H
  H258     1.0000 0.24369  0.71813  0.14550  Biso   1.000  H
  C230     1.0000 0.07327  0.80089  0.06823  Biso   1.000  C
  H259     1.0000 0.23639  0.63509  0.17541  Biso   1.000  H
  H260     1.0000 0.19243  0.71572  0.19891  Biso   1.000  H
  H261     1.0000 0.15452  0.74269  0.19891  Biso   1.000  H
  H262     1.0000 0.06550  0.76340  0.17510  Biso   1.000  H
  O52      1.0000 0.90155  0.71428  0.08581  Biso   1.000  O
  H263     1.0000 0.29322  0.71228  0.07970  Biso   1.000  H
  H264     1.0000 0.31751  0.61273  0.06630  Biso   1.000  H
  N106     1.0000 0.23949  0.68077  0.03106  Biso   1.000  N
  C231     1.0000 0.94888  0.20523  0.00000  Biso   1.000  C
  C232     1.0000 0.79890  0.23048  0.02121  Biso   1.000  C
  H265     1.0000 0.70678  0.28772  0.07970  Biso   1.000  H
  H266     1.0000 0.68249  0.38727  0.06630  Biso   1.000  H
  N107     1.0000 0.76051  0.31923  0.03106  Biso   1.000  N
  H267     1.0000 0.01569  0.83433  0.06680  Biso   1.000  H
  H268     1.0000 0.11799  0.84073  0.08020  Biso   1.000  H
  N108     1.0000 0.10416  0.78060  0.03109  Biso   1.000  N
  C233     1.0000 0.20110  0.76952  0.02121  Biso   1.000  C
  C234     1.0000 0.26550  0.63440  0.00000  Biso   1.000  C
  O53      1.0000 0.03041  0.18259  0.00000  Biso   1.000  O
  N109     1.0000 0.89584  0.21940  0.96891  Biso   1.000  N
  C235     1.0000 0.79890  0.23048  0.97879  Biso   1.000  C
  H269     1.0000 0.76140  0.18012  0.03109  Biso   1.000  H
  C236     1.0000 0.73450  0.36560  0.00000  Biso   1.000  C
  C237     1.0000 0.05112  0.79477  0.00000  Biso   1.000  C
  H270     1.0000 0.23860  0.81988  0.03109  Biso   1.000  H
  C238     1.0000 0.20110  0.76952  0.97879  Biso   1.000  C
  O54      1.0000 0.30671  0.55968  0.00000  Biso   1.000  O
  N110     1.0000 0.23949  0.68077  0.96894  Biso   1.000  N
  C239     1.0000 0.92673  0.19911  0.93177  Biso   1.000  C
  H271     1.0000 0.76140  0.18012  0.96891  Biso   1.000  H
  N111     1.0000 0.76051  0.31923  0.96894  Biso   1.000  N
  O55      1.0000 0.69329  0.44032  0.00000  Biso   1.000  O
  O56      1.0000 0.96959  0.81741  0.00000  Biso   1.000  O
  N112     1.0000 0.10416  0.78060  0.96891  Biso   1.000  N
  H272     1.0000 0.23860  0.81988  0.96891  Biso   1.000  H
  C240     1.0000 0.26839  0.65772  0.93219  Biso   1.000  C
  H273     1.0000 0.98431  0.16567  0.93320  Biso   1.000  H
  H274     1.0000 0.88201  0.15927  0.91980  Biso   1.000  H
  N113     1.0000 0.93994  0.27981  0.90878  Biso   1.000  N
  C241     1.0000 0.73161  0.34228  0.93219  Biso   1.000  C
  C242     1.0000 0.07327  0.80089  0.93177  Biso   1.000  C
  H275     1.0000 0.29322  0.71228  0.92030  Biso   1.000  H
  H276     1.0000 0.31751  0.61273  0.93370  Biso   1.000  H
  N114     1.0000 0.19401  0.62043  0.90870  Biso   1.000  N
  C243     1.0000 0.86880  0.32343  0.88668  Biso   1.000  C
  C244     1.0000 0.02552  0.31297  0.90119  Biso   1.000  C
  H277     1.0000 0.70678  0.28772  0.92030  Biso   1.000  H
  H278     1.0000 0.68249  0.38727  0.93370  Biso   1.000  H
  N115     1.0000 0.80599  0.37957  0.90870  Biso   1.000  N
  H279     1.0000 0.01569  0.83433  0.93320  Biso   1.000  H
  H280     1.0000 0.11799  0.84073  0.91980  Biso   1.000  H
  N116     1.0000 0.06006  0.72019  0.90878  Biso   1.000  N
  C245     1.0000 0.13120  0.67657  0.88668  Biso   1.000  C
  C246     1.0000 0.18562  0.52893  0.90099  Biso   1.000  C
  C247     1.0000 0.92322  0.39642  0.86357  Biso   1.000  C
  C248     1.0000 0.81899  0.26137  0.85877  Biso   1.000  C
  N117     1.0000 0.01748  0.38411  0.87560  Biso   1.000  N
  O57      1.0000 0.09845  0.28572  0.91419  Biso   1.000  O
  C249     1.0000 0.81438  0.47107  0.90099  Biso   1.000  C
  C250     1.0000 0.97448  0.68703  0.90119  Biso   1.000  C
  C251     1.0000 0.07678  0.60358  0.86357  Biso   1.000  C
  C252     1.0000 0.18101  0.73863  0.85877  Biso   1.000  C
  N118     1.0000 0.11730  0.51689  0.87593  Biso   1.000  N
  O58      1.0000 0.23447  0.46791  0.91347  Biso   1.000  O
  C253     1.0000 0.90230  0.37007  0.82306  Biso   1.000  C
  N119     1.0000 0.88270  0.48311  0.87593  Biso   1.000  N
  H281     1.0000 0.81830  0.19780  0.86701  Biso   1.000  H
  H282     1.0000 0.75631  0.28187  0.85450  Biso   1.000  H
  C254     1.0000 0.81452  0.32191  0.82331  Biso   1.000  C
  C255     1.0000 0.87939  0.27410  0.82339  Biso   1.000  C
  C256     1.0000 0.09563  0.42800  0.85953  Biso   1.000  C
  O59      1.0000 0.76553  0.53209  0.91347  Biso   1.000  O
  N120     1.0000 0.98252  0.61589  0.87560  Biso   1.000  N
  O60      1.0000 0.90155  0.71428  0.91419  Biso   1.000  O
  C257     1.0000 0.09770  0.62993  0.82306  Biso   1.000  C
  H283     1.0000 0.18170  0.80220  0.86701  Biso   1.000  H
  H284     1.0000 0.24369  0.71813  0.85450  Biso   1.000  H
  C258     1.0000 0.18548  0.67809  0.82331  Biso   1.000  C
  C259     1.0000 0.12061  0.72590  0.82339  Biso   1.000  C
  H285     1.0000 0.95549  0.38108  0.80740  Biso   1.000  H
  H286     1.0000 0.85112  0.40612  0.81360  Biso   1.000  H
  C260     1.0000 0.90437  0.57200  0.85953  Biso   1.000  C
  H287     1.0000 0.76361  0.36491  0.82459  Biso   1.000  H
  H288     1.0000 0.80757  0.28428  0.80109  Biso   1.000  H
  H289     1.0000 0.84548  0.25731  0.80109  Biso   1.000  H
  H290     1.0000 0.93450  0.23660  0.82490  Biso   1.000  H
  H291     1.0000 0.14840  0.38782  0.86229  Biso   1.000  H
  H292     1.0000 0.08469  0.43619  0.83299  Biso   1.000  H
  H293     1.0000 0.04451  0.61892  0.80740  Biso   1.000  H
  H294     1.0000 0.14888  0.59388  0.81360  Biso   1.000  H
  H295     1.0000 0.23639  0.63509  0.82459  Biso   1.000  H
  H296     1.0000 0.19243  0.71572  0.80109  Biso   1.000  H
  H297     1.0000 0.15452  0.74269  0.80109  Biso   1.000  H
  H298     1.0000 0.06550  0.76340  0.82490  Biso   1.000  H
  H299     1.0000 0.85160  0.61218  0.86229  Biso   1.000  H
  H300     1.0000 0.91531  0.56381  0.83299  Biso   1.000  H
  C261     1.0000 0.09563  0.42800  0.14047  Biso   1.000  C
  H301     1.0000 0.14840  0.38782  0.13771  Biso   1.000  H
  H302     1.0000 0.08469  0.43619  0.16701  Biso   1.000  H
  N121     1.0000 0.01748  0.38411  0.12440  Biso   1.000  N
  N122     1.0000 0.11730  0.51689  0.12407  Biso   1.000  N
  C262     1.0000 0.02552  0.31297  0.09881  Biso   1.000  C
  C263     1.0000 0.92322  0.39642  0.13643  Biso   1.000  C
  C264     1.0000 0.07678  0.60358  0.13643  Biso   1.000  C
  C265     1.0000 0.18562  0.52893  0.09901  Biso   1.000  C
  O61      1.0000 0.09845  0.28572  0.08581  Biso   1.000  O
  N123     1.0000 0.93994  0.27981  0.09122  Biso   1.000  N
  C266     1.0000 0.86880  0.32343  0.11332  Biso   1.000  C
  C267     1.0000 0.90230  0.37007  0.17694  Biso   1.000  C
  N124     1.0000 0.88270  0.48311  0.12407  Biso   1.000  N
  C268     1.0000 0.13120  0.67657  0.11332  Biso   1.000  C
  C269     1.0000 0.09770  0.62993  0.17694  Biso   1.000  C
  N125     1.0000 0.98252  0.61589  0.12440  Biso   1.000  N
  N126     1.0000 0.19401  0.62043  0.09130  Biso   1.000  N
  O62      1.0000 0.23447  0.46791  0.08653  Biso   1.000  O
  C270     1.0000 0.92673  0.19911  0.06823  Biso   1.000  C
  C271     1.0000 0.81899  0.26137  0.14123  Biso   1.000  C
  N127     1.0000 0.80599  0.37957  0.09130  Biso   1.000  N
  H303     1.0000 0.95549  0.38108  0.19260  Biso   1.000  H
  H304     1.0000 0.85112  0.40612  0.18640  Biso   1.000  H
  C272     1.0000 0.81452  0.32191  0.17669  Biso   1.000  C
  C273     1.0000 0.87939  0.27410  0.17661  Biso   1.000  C
  C274     1.0000 0.81438  0.47107  0.09901  Biso   1.000  C
  C275     1.0000 0.90437  0.57200  0.14047  Biso   1.000  C
  C276     1.0000 0.18101  0.73863  0.14123  Biso   1.000  C
  N128     1.0000 0.06006  0.72019  0.09122  Biso   1.000  N
  H305     1.0000 0.04451  0.61892  0.19260  Biso   1.000  H
  H306     1.0000 0.14888  0.59388  0.18640  Biso   1.000  H
  C277     1.0000 0.18548  0.67809  0.17669  Biso   1.000  C
  C278     1.0000 0.12061  0.72590  0.17661  Biso   1.000  C
  C279     1.0000 0.97448  0.68703  0.09881  Biso   1.000  C
  C280     1.0000 0.26839  0.65772  0.06781  Biso   1.000  C
  H307     1.0000 0.98431  0.16567  0.06680  Biso   1.000  H
  H308     1.0000 0.88201  0.15927  0.08020  Biso   1.000  H
  N129     1.0000 0.89584  0.21940  0.03109  Biso   1.000  N
  H309     1.0000 0.81830  0.19780  0.13299  Biso   1.000  H
  H310     1.0000 0.75631  0.28187  0.14550  Biso   1.000  H
  C281     1.0000 0.73161  0.34228  0.06781  Biso   1.000  C
  H311     1.0000 0.76361  0.36491  0.17541  Biso   1.000  H
  H312     1.0000 0.80757  0.28428  0.19891  Biso   1.000  H
  H313     1.0000 0.84548  0.25731  0.19891  Biso   1.000  H
  H314     1.0000 0.93450  0.23660  0.17510  Biso   1.000  H
  O63      1.0000 0.76553  0.53209  0.08653  Biso   1.000  O
  H315     1.0000 0.85160  0.61218  0.13771  Biso   1.000  H
  H316     1.0000 0.91531  0.56381  0.16701  Biso   1.000  H
  H317     1.0000 0.18170  0.80220  0.13299  Biso   1.000  H
  H318     1.0000 0.24369  0.71813  0.14550  Biso   1.000  H
  C282     1.0000 0.07327  0.80089  0.06823  Biso   1.000  C
  H319     1.0000 0.23639  0.63509  0.17541  Biso   1.000  H
  H320     1.0000 0.19243  0.71572  0.19891  Biso   1.000  H
  H321     1.0000 0.15452  0.74269  0.19891  Biso   1.000  H
  H322     1.0000 0.06550  0.76340  0.17510  Biso   1.000  H
  O64      1.0000 0.90155  0.71428  0.08581  Biso   1.000  O
  H323     1.0000 0.29322  0.71228  0.07970  Biso   1.000  H
  H324     1.0000 0.31751  0.61273  0.06630  Biso   1.000  H
  N130     1.0000 0.23949  0.68077  0.03106  Biso   1.000  N
  C283     1.0000 0.94888  0.20523  0.00000  Biso   1.000  C
  C284     1.0000 0.79890  0.23048  0.02121  Biso   1.000  C
  H325     1.0000 0.70678  0.28772  0.07970  Biso   1.000  H
  H326     1.0000 0.68249  0.38727  0.06630  Biso   1.000  H
  N131     1.0000 0.76051  0.31923  0.03106  Biso   1.000  N
  H327     1.0000 0.01569  0.83433  0.06680  Biso   1.000  H
  H328     1.0000 0.11799  0.84073  0.08020  Biso   1.000  H
  N132     1.0000 0.10416  0.78060  0.03109  Biso   1.000  N
  C285     1.0000 0.20110  0.76952  0.02121  Biso   1.000  C
  C286     1.0000 0.26550  0.63440  0.00000  Biso   1.000  C
  O65      1.0000 0.03041  0.18259  0.00000  Biso   1.000  O
  N133     1.0000 0.89584  0.21940  0.96891  Biso   1.000  N
  C287     1.0000 0.79890  0.23048  0.97879  Biso   1.000  C
  H329     1.0000 0.76140  0.18012  0.03109  Biso   1.000  H
  C288     1.0000 0.73450  0.36560  0.00000  Biso   1.000  C
  C289     1.0000 0.05112  0.79477  0.00000  Biso   1.000  C
  H330     1.0000 0.23860  0.81988  0.03109  Biso   1.000  H
  C290     1.0000 0.20110  0.76952  0.97879  Biso   1.000  C
  O66      1.0000 0.30671  0.55968  0.00000  Biso   1.000  O
  N134     1.0000 0.23949  0.68077  0.96894  Biso   1.000  N
  C291     1.0000 0.92673  0.19911  0.93177  Biso   1.000  C
  H331     1.0000 0.76140  0.18012  0.96891  Biso   1.000  H
  N135     1.0000 0.76051  0.31923  0.96894  Biso   1.000  N
  O67      1.0000 0.69329  0.44032  0.00000  Biso   1.000  O
  O68      1.0000 0.96959  0.81741  0.00000  Biso   1.000  O
  N136     1.0000 0.10416  0.78060  0.96891  Biso   1.000  N
  H332     1.0000 0.23860  0.81988  0.96891  Biso   1.000  H
  C292     1.0000 0.26839  0.65772  0.93219  Biso   1.000  C
  H333     1.0000 0.98431  0.16567  0.93320  Biso   1.000  H
  H334     1.0000 0.88201  0.15927  0.91980  Biso   1.000  H
  N137     1.0000 0.93994  0.27981  0.90878  Biso   1.000  N
  C293     1.0000 0.73161  0.34228  0.93219  Biso   1.000  C
  C294     1.0000 0.07327  0.80089  0.93177  Biso   1.000  C
  H335     1.0000 0.29322  0.71228  0.92030  Biso   1.000  H
  H336     1.0000 0.31751  0.61273  0.93370  Biso   1.000  H
  N138     1.0000 0.19401  0.62043  0.90870  Biso   1.000  N
  C295     1.0000 0.86880  0.32343  0.88668  Biso   1.000  C
  C296     1.0000 0.02552  0.31297  0.90119  Biso   1.000  C
  H337     1.0000 0.70678  0.28772  0.92030  Biso   1.000  H
  H338     1.0000 0.68249  0.38727  0.93370  Biso   1.000  H
  N139     1.0000 0.80599  0.37957  0.90870  Biso   1.000  N
  H339     1.0000 0.01569  0.83433  0.93320  Biso   1.000  H
  H340     1.0000 0.11799  0.84073  0.91980  Biso   1.000  H
  N140     1.0000 0.06006  0.72019  0.90878  Biso   1.000  N
  C297     1.0000 0.13120  0.67657  0.88668  Biso   1.000  C
  C298     1.0000 0.18562  0.52893  0.90099  Biso   1.000  C
  C299     1.0000 0.92322  0.39642  0.86357  Biso   1.000  C
  C300     1.0000 0.81899  0.26137  0.85877  Biso   1.000  C
  N141     1.0000 0.01748  0.38411  0.87560  Biso   1.000  N
  O69      1.0000 0.09845  0.28572  0.91419  Biso   1.000  O
  C301     1.0000 0.81438  0.47107  0.90099  Biso   1.000  C
  C302     1.0000 0.97448  0.68703  0.90119  Biso   1.000  C
  C303     1.0000 0.07678  0.60358  0.86357  Biso   1.000  C
  C304     1.0000 0.18101  0.73863  0.85877  Biso   1.000  C
  N142     1.0000 0.11730  0.51689  0.87593  Biso   1.000  N
  O70      1.0000 0.23447  0.46791  0.91347  Biso   1.000  O
  C305     1.0000 0.90230  0.37007  0.82306  Biso   1.000  C
  N143     1.0000 0.88270  0.48311  0.87593  Biso   1.000  N
  H341     1.0000 0.81830  0.19780  0.86701  Biso   1.000  H
  H342     1.0000 0.75631  0.28187  0.85450  Biso   1.000  H
  C306     1.0000 0.81452  0.32191  0.82331  Biso   1.000  C
  C307     1.0000 0.87939  0.27410  0.82339  Biso   1.000  C
  C308     1.0000 0.09563  0.42800  0.85953  Biso   1.000  C
  O71      1.0000 0.76553  0.53209  0.91347  Biso   1.000  O
  N144     1.0000 0.98252  0.61589  0.87560  Biso   1.000  N
  O72      1.0000 0.90155  0.71428  0.91419  Biso   1.000  O
  C309     1.0000 0.09770  0.62993  0.82306  Biso   1.000  C
  H343     1.0000 0.18170  0.80220  0.86701  Biso   1.000  H
  H344     1.0000 0.24369  0.71813  0.85450  Biso   1.000  H
  C310     1.0000 0.18548  0.67809  0.82331  Biso   1.000  C
  C311     1.0000 0.12061  0.72590  0.82339  Biso   1.000  C
  H345     1.0000 0.95549  0.38108  0.80740  Biso   1.000  H
  H346     1.0000 0.85112  0.40612  0.81360  Biso   1.000  H
  C312     1.0000 0.90437  0.57200  0.85953  Biso   1.000  C
  H347     1.0000 0.76361  0.36491  0.82459  Biso   1.000  H
  H348     1.0000 0.80757  0.28428  0.80109  Biso   1.000  H
  H349     1.0000 0.84548  0.25731  0.80109  Biso   1.000  H
  H350     1.0000 0.93450  0.23660  0.82490  Biso   1.000  H
  H351     1.0000 0.14840  0.38782  0.86229  Biso   1.000  H
  H352     1.0000 0.08469  0.43619  0.83299  Biso   1.000  H
  H353     1.0000 0.04451  0.61892  0.80740  Biso   1.000  H
  H354     1.0000 0.14888  0.59388  0.81360  Biso   1.000  H
  H355     1.0000 0.23639  0.63509  0.82459  Biso   1.000  H
  H356     1.0000 0.19243  0.71572  0.80109  Biso   1.000  H
  H357     1.0000 0.15452  0.74269  0.80109  Biso   1.000  H
  H358     1.0000 0.06550  0.76340  0.82490  Biso   1.000  H
  H359     1.0000 0.85160  0.61218  0.86229  Biso   1.000  H
  H360     1.0000 0.91531  0.56381  0.83299  Biso   1.000  H
  C313     1.0000 0.09563  0.42800  0.14047  Biso   1.000  C
  H361     1.0000 0.14840  0.38782  0.13771  Biso   1.000  H
  H362     1.0000 0.08469  0.43619  0.16701  Biso   1.000  H
  N145     1.0000 0.01748  0.38411  0.12440  Biso   1.000  N
  N146     1.0000 0.11730  0.51689  0.12407  Biso   1.000  N
  C314     1.0000 0.02552  0.31297  0.09881  Biso   1.000  C
  C315     1.0000 0.92322  0.39642  0.13643  Biso   1.000  C
  C316     1.0000 0.07678  0.60358  0.13643  Biso   1.000  C
  C317     1.0000 0.18562  0.52893  0.09901  Biso   1.000  C
  O73      1.0000 0.09845  0.28572  0.08581  Biso   1.000  O
  N147     1.0000 0.93994  0.27981  0.09122  Biso   1.000  N
  C318     1.0000 0.86880  0.32343  0.11332  Biso   1.000  C
  C319     1.0000 0.90230  0.37007  0.17694  Biso   1.000  C
  N148     1.0000 0.88270  0.48311  0.12407  Biso   1.000  N
  C320     1.0000 0.13120  0.67657  0.11332  Biso   1.000  C
  C321     1.0000 0.09770  0.62993  0.17694  Biso   1.000  C
  N149     1.0000 0.98252  0.61589  0.12440  Biso   1.000  N
  N150     1.0000 0.19401  0.62043  0.09130  Biso   1.000  N
  O74      1.0000 0.23447  0.46791  0.08653  Biso   1.000  O
  C322     1.0000 0.92673  0.19911  0.06823  Biso   1.000  C
  C323     1.0000 0.81899  0.26137  0.14123  Biso   1.000  C
  N151     1.0000 0.80599  0.37957  0.09130  Biso   1.000  N
  H363     1.0000 0.95549  0.38108  0.19260  Biso   1.000  H
  H364     1.0000 0.85112  0.40612  0.18640  Biso   1.000  H
  C324     1.0000 0.81452  0.32191  0.17669  Biso   1.000  C
  C325     1.0000 0.87939  0.27410  0.17661  Biso   1.000  C
  C326     1.0000 0.81438  0.47107  0.09901  Biso   1.000  C
  C327     1.0000 0.90437  0.57200  0.14047  Biso   1.000  C
  C328     1.0000 0.18101  0.73863  0.14123  Biso   1.000  C
  N152     1.0000 0.06006  0.72019  0.09122  Biso   1.000  N
  H365     1.0000 0.04451  0.61892  0.19260  Biso   1.000  H
  H366     1.0000 0.14888  0.59388  0.18640  Biso   1.000  H
  C329     1.0000 0.18548  0.67809  0.17669  Biso   1.000  C
  C330     1.0000 0.12061  0.72590  0.17661  Biso   1.000  C
  C331     1.0000 0.97448  0.68703  0.09881  Biso   1.000  C
  C332     1.0000 0.26839  0.65772  0.06781  Biso   1.000  C
  H367     1.0000 0.98431  0.16567  0.06680  Biso   1.000  H
  H368     1.0000 0.88201  0.15927  0.08020  Biso   1.000  H
  N153     1.0000 0.89584  0.21940  0.03109  Biso   1.000  N
  H369     1.0000 0.81830  0.19780  0.13299  Biso   1.000  H
  H370     1.0000 0.75631  0.28187  0.14550  Biso   1.000  H
  C333     1.0000 0.73161  0.34228  0.06781  Biso   1.000  C
  H371     1.0000 0.76361  0.36491  0.17541  Biso   1.000  H
  H372     1.0000 0.80757  0.28428  0.19891  Biso   1.000  H
  H373     1.0000 0.84548  0.25731  0.19891  Biso   1.000  H
  H374     1.0000 0.93450  0.23660  0.17510  Biso   1.000  H
  O75      1.0000 0.76553  0.53209  0.08653  Biso   1.000  O
  H375     1.0000 0.85160  0.61218  0.13771  Biso   1.000  H
  H376     1.0000 0.91531  0.56381  0.16701  Biso   1.000  H
  H377     1.0000 0.18170  0.80220  0.13299  Biso   1.000  H
  H378     1.0000 0.24369  0.71813  0.14550  Biso   1.000  H
  C334     1.0000 0.07327  0.80089  0.06823  Biso   1.000  C
  H379     1.0000 0.23639  0.63509  0.17541  Biso   1.000  H
  H380     1.0000 0.19243  0.71572  0.19891  Biso   1.000  H
  H381     1.0000 0.15452  0.74269  0.19891  Biso   1.000  H
  H382     1.0000 0.06550  0.76340  0.17510  Biso   1.000  H
  O76      1.0000 0.90155  0.71428  0.08581  Biso   1.000  O
  H383     1.0000 0.29322  0.71228  0.07970  Biso   1.000  H
  H384     1.0000 0.31751  0.61273  0.06630  Biso   1.000  H
  N154     1.0000 0.23949  0.68077  0.03106  Biso   1.000  N
  C335     1.0000 0.94888  0.20523  0.00000  Biso   1.000  C
  C336     1.0000 0.79890  0.23048  0.02121  Biso   1.000  C
  H385     1.0000 0.70678  0.28772  0.07970  Biso   1.000  H
  H386     1.0000 0.68249  0.38727  0.06630  Biso   1.000  H
  N155     1.0000 0.76051  0.31923  0.03106  Biso   1.000  N
  H387     1.0000 0.01569  0.83433  0.06680  Biso   1.000  H
  H388     1.0000 0.11799  0.84073  0.08020  Biso   1.000  H
  N156     1.0000 0.10416  0.78060  0.03109  Biso   1.000  N
  C337     1.0000 0.20110  0.76952  0.02121  Biso   1.000  C
  C338     1.0000 0.26550  0.63440  0.00000  Biso   1.000  C
  O77      1.0000 0.03041  0.18259  0.00000  Biso   1.000  O
  N157     1.0000 0.89584  0.21940  0.96891  Biso   1.000  N
  C339     1.0000 0.79890  0.23048  0.97879  Biso   1.000  C
  H389     1.0000 0.76140  0.18012  0.03109  Biso   1.000  H
  C340     1.0000 0.73450  0.36560  0.00000  Biso   1.000  C
  C341     1.0000 0.05112  0.79477  0.00000  Biso   1.000  C
  H390     1.0000 0.23860  0.81988  0.03109  Biso   1.000  H
  C342     1.0000 0.20110  0.76952  0.97879  Biso   1.000  C
  O78      1.0000 0.30671  0.55968  0.00000  Biso   1.000  O
  N158     1.0000 0.23949  0.68077  0.96894  Biso   1.000  N
  C343     1.0000 0.92673  0.19911  0.93177  Biso   1.000  C
  H391     1.0000 0.76140  0.18012  0.96891  Biso   1.000  H
  N159     1.0000 0.76051  0.31923  0.96894  Biso   1.000  N
  O79      1.0000 0.69329  0.44032  0.00000  Biso   1.000  O
  O80      1.0000 0.96959  0.81741  0.00000  Biso   1.000  O
  N160     1.0000 0.10416  0.78060  0.96891  Biso   1.000  N
  H392     1.0000 0.23860  0.81988  0.96891  Biso   1.000  H
  C344     1.0000 0.26839  0.65772  0.93219  Biso   1.000  C
  H393     1.0000 0.98431  0.16567  0.93320  Biso   1.000  H
  H394     1.0000 0.88201  0.15927  0.91980  Biso   1.000  H
  N161     1.0000 0.93994  0.27981  0.90878  Biso   1.000  N
  C345     1.0000 0.73161  0.34228  0.93219  Biso   1.000  C
  C346     1.0000 0.07327  0.80089  0.93177  Biso   1.000  C
  H395     1.0000 0.29322  0.71228  0.92030  Biso   1.000  H
  H396     1.0000 0.31751  0.61273  0.93370  Biso   1.000  H
  N162     1.0000 0.19401  0.62043  0.90870  Biso   1.000  N
  C347     1.0000 0.86880  0.32343  0.88668  Biso   1.000  C
  C348     1.0000 0.02552  0.31297  0.90119  Biso   1.000  C
  H397     1.0000 0.70678  0.28772  0.92030  Biso   1.000  H
  H398     1.0000 0.68249  0.38727  0.93370  Biso   1.000  H
  N163     1.0000 0.80599  0.37957  0.90870  Biso   1.000  N
  H399     1.0000 0.01569  0.83433  0.93320  Biso   1.000  H
  H400     1.0000 0.11799  0.84073  0.91980  Biso   1.000  H
  N164     1.0000 0.06006  0.72019  0.90878  Biso   1.000  N
  C349     1.0000 0.13120  0.67657  0.88668  Biso   1.000  C
  C350     1.0000 0.18562  0.52893  0.90099  Biso   1.000  C
  C351     1.0000 0.92322  0.39642  0.86357  Biso   1.000  C
  C352     1.0000 0.81899  0.26137  0.85877  Biso   1.000  C
  N165     1.0000 0.01748  0.38411  0.87560  Biso   1.000  N
  O81      1.0000 0.09845  0.28572  0.91419  Biso   1.000  O
  C353     1.0000 0.81438  0.47107  0.90099  Biso   1.000  C
  C354     1.0000 0.97448  0.68703  0.90119  Biso   1.000  C
  C355     1.0000 0.07678  0.60358  0.86357  Biso   1.000  C
  C356     1.0000 0.18101  0.73863  0.85877  Biso   1.000  C
  N166     1.0000 0.11730  0.51689  0.87593  Biso   1.000  N
  O82      1.0000 0.23447  0.46791  0.91347  Biso   1.000  O
  C357     1.0000 0.90230  0.37007  0.82306  Biso   1.000  C
  N167     1.0000 0.88270  0.48311  0.87593  Biso   1.000  N
  H401     1.0000 0.81830  0.19780  0.86701  Biso   1.000  H
  H402     1.0000 0.75631  0.28187  0.85450  Biso   1.000  H
  C358     1.0000 0.81452  0.32191  0.82331  Biso   1.000  C
  C359     1.0000 0.87939  0.27410  0.82339  Biso   1.000  C
  C360     1.0000 0.09563  0.42800  0.85953  Biso   1.000  C
  O83      1.0000 0.76553  0.53209  0.91347  Biso   1.000  O
  N168     1.0000 0.98252  0.61589  0.87560  Biso   1.000  N
  O84      1.0000 0.90155  0.71428  0.91419  Biso   1.000  O
  C361     1.0000 0.09770  0.62993  0.82306  Biso   1.000  C
  H403     1.0000 0.18170  0.80220  0.86701  Biso   1.000  H
  H404     1.0000 0.24369  0.71813  0.85450  Biso   1.000  H
  C362     1.0000 0.18548  0.67809  0.82331  Biso   1.000  C
  C363     1.0000 0.12061  0.72590  0.82339  Biso   1.000  C
  H405     1.0000 0.95549  0.38108  0.80740  Biso   1.000  H
  H406     1.0000 0.85112  0.40612  0.81360  Biso   1.000  H
  C364     1.0000 0.90437  0.57200  0.85953  Biso   1.000  C
  H407     1.0000 0.76361  0.36491  0.82459  Biso   1.000  H
  H408     1.0000 0.80757  0.28428  0.80109  Biso   1.000  H
  H409     1.0000 0.84548  0.25731  0.80109  Biso   1.000  H
  H410     1.0000 0.93450  0.23660  0.82490  Biso   1.000  H
  H411     1.0000 0.14840  0.38782  0.86229  Biso   1.000  H
  H412     1.0000 0.08469  0.43619  0.83299  Biso   1.000  H
  H413     1.0000 0.04451  0.61892  0.80740  Biso   1.000  H
  H414     1.0000 0.14888  0.59388  0.81360  Biso   1.000  H
  H415     1.0000 0.23639  0.63509  0.82459  Biso   1.000  H
  H416     1.0000 0.19243  0.71572  0.80109  Biso   1.000  H
  H417     1.0000 0.15452  0.74269  0.80109  Biso   1.000  H
  H418     1.0000 0.06550  0.76340  0.82490  Biso   1.000  H
  H419     1.0000 0.85160  0.61218  0.86229  Biso   1.000  H
  H420     1.0000 0.91531  0.56381  0.83299  Biso   1.000  H
  C365     1.0000 0.09563  0.42800  0.14047  Biso   1.000  C
  H421     1.0000 0.14840  0.38782  0.13771  Biso   1.000  H
  H422     1.0000 0.08469  0.43619  0.16701  Biso   1.000  H
  N169     1.0000 0.01748  0.38411  0.12440  Biso   1.000  N
  N170     1.0000 0.11730  0.51689  0.12407  Biso   1.000  N
  C366     1.0000 0.02552  0.31297  0.09881  Biso   1.000  C
  C367     1.0000 0.92322  0.39642  0.13643  Biso   1.000  C
  C368     1.0000 0.07678  0.60358  0.13643  Biso   1.000  C
  C369     1.0000 0.18562  0.52893  0.09901  Biso   1.000  C
  O85      1.0000 0.09845  0.28572  0.08581  Biso   1.000  O
  N171     1.0000 0.93994  0.27981  0.09122  Biso   1.000  N
  C370     1.0000 0.86880  0.32343  0.11332  Biso   1.000  C
  C371     1.0000 0.90230  0.37007  0.17694  Biso   1.000  C
  N172     1.0000 0.88270  0.48311  0.12407  Biso   1.000  N
  C372     1.0000 0.13120  0.67657  0.11332  Biso   1.000  C
  C373     1.0000 0.09770  0.62993  0.17694  Biso   1.000  C
  N173     1.0000 0.98252  0.61589  0.12440  Biso   1.000  N
  N174     1.0000 0.19401  0.62043  0.09130  Biso   1.000  N
  O86      1.0000 0.23447  0.46791  0.08653  Biso   1.000  O
  C374     1.0000 0.92673  0.19911  0.06823  Biso   1.000  C
  C375     1.0000 0.81899  0.26137  0.14123  Biso   1.000  C
  N175     1.0000 0.80599  0.37957  0.09130  Biso   1.000  N
  H423     1.0000 0.95549  0.38108  0.19260  Biso   1.000  H
  H424     1.0000 0.85112  0.40612  0.18640  Biso   1.000  H
  C376     1.0000 0.81452  0.32191  0.17669  Biso   1.000  C
  C377     1.0000 0.87939  0.27410  0.17661  Biso   1.000  C
  C378     1.0000 0.81438  0.47107  0.09901  Biso   1.000  C
  C379     1.0000 0.90437  0.57200  0.14047  Biso   1.000  C
  C380     1.0000 0.18101  0.73863  0.14123  Biso   1.000  C
  N176     1.0000 0.06006  0.72019  0.09122  Biso   1.000  N
  H425     1.0000 0.04451  0.61892  0.19260  Biso   1.000  H
  H426     1.0000 0.14888  0.59388  0.18640  Biso   1.000  H
  C381     1.0000 0.18548  0.67809  0.17669  Biso   1.000  C
  C382     1.0000 0.12061  0.72590  0.17661  Biso   1.000  C
  C383     1.0000 0.97448  0.68703  0.09881  Biso   1.000  C
  C384     1.0000 0.26839  0.65772  0.06781  Biso   1.000  C
  H427     1.0000 0.98431  0.16567  0.06680  Biso   1.000  H
  H428     1.0000 0.88201  0.15927  0.08020  Biso   1.000  H
  N177     1.0000 0.89584  0.21940  0.03109  Biso   1.000  N
  H429     1.0000 0.81830  0.19780  0.13299  Biso   1.000  H
  H430     1.0000 0.75631  0.28187  0.14550  Biso   1.000  H
  C385     1.0000 0.73161  0.34228  0.06781  Biso   1.000  C
  H431     1.0000 0.76361  0.36491  0.17541  Biso   1.000  H
  H432     1.0000 0.80757  0.28428  0.19891  Biso   1.000  H
  H433     1.0000 0.84548  0.25731  0.19891  Biso   1.000  H
  H434     1.0000 0.93450  0.23660  0.17510  Biso   1.000  H
  O87      1.0000 0.76553  0.53209  0.08653  Biso   1.000  O
  H435     1.0000 0.85160  0.61218  0.13771  Biso   1.000  H
  H436     1.0000 0.91531  0.56381  0.16701  Biso   1.000  H
  H437     1.0000 0.18170  0.80220  0.13299  Biso   1.000  H
  H438     1.0000 0.24369  0.71813  0.14550  Biso   1.000  H
  C386     1.0000 0.07327  0.80089  0.06823  Biso   1.000  C
  H439     1.0000 0.23639  0.63509  0.17541  Biso   1.000  H
  H440     1.0000 0.19243  0.71572  0.19891  Biso   1.000  H
  H441     1.0000 0.15452  0.74269  0.19891  Biso   1.000  H
  H442     1.0000 0.06550  0.76340  0.17510  Biso   1.000  H
  O88      1.0000 0.90155  0.71428  0.08581  Biso   1.000  O
  H443     1.0000 0.29322  0.71228  0.07970  Biso   1.000  H
  H444     1.0000 0.31751  0.61273  0.06630  Biso   1.000  H
  N178     1.0000 0.23949  0.68077  0.03106  Biso   1.000  N
  C387     1.0000 0.94888  0.20523  0.00000  Biso   1.000  C
  C388     1.0000 0.79890  0.23048  0.02121  Biso   1.000  C
  H445     1.0000 0.70678  0.28772  0.07970  Biso   1.000  H
  H446     1.0000 0.68249  0.38727  0.06630  Biso   1.000  H
  N179     1.0000 0.76051  0.31923  0.03106  Biso   1.000  N
  H447     1.0000 0.01569  0.83433  0.06680  Biso   1.000  H
  H448     1.0000 0.11799  0.84073  0.08020  Biso   1.000  H
  N180     1.0000 0.10416  0.78060  0.03109  Biso   1.000  N
  C389     1.0000 0.20110  0.76952  0.02121  Biso   1.000  C
  C390     1.0000 0.26550  0.63440  0.00000  Biso   1.000  C
  O89      1.0000 0.03041  0.18259  0.00000  Biso   1.000  O
  N181     1.0000 0.89584  0.21940  0.96891  Biso   1.000  N
  C391     1.0000 0.79890  0.23048  0.97879  Biso   1.000  C
  H449     1.0000 0.76140  0.18012  0.03109  Biso   1.000  H
  C392     1.0000 0.73450  0.36560  0.00000  Biso   1.000  C
  C393     1.0000 0.05112  0.79477  0.00000  Biso   1.000  C
  H450     1.0000 0.23860  0.81988  0.03109  Biso   1.000  H
  C394     1.0000 0.20110  0.76952  0.97879  Biso   1.000  C
  O90      1.0000 0.30671  0.55968  0.00000  Biso   1.000  O
  N182     1.0000 0.23949  0.68077  0.96894  Biso   1.000  N
  C395     1.0000 0.92673  0.19911  0.93177  Biso   1.000  C
  H451     1.0000 0.76140  0.18012  0.96891  Biso   1.000  H
  N183     1.0000 0.76051  0.31923  0.96894  Biso   1.000  N
  O91      1.0000 0.69329  0.44032  0.00000  Biso   1.000  O
  O92      1.0000 0.96959  0.81741  0.00000  Biso   1.000  O
  N184     1.0000 0.10416  0.78060  0.96891  Biso   1.000  N
  H452     1.0000 0.23860  0.81988  0.96891  Biso   1.000  H
  C396     1.0000 0.26839  0.65772  0.93219  Biso   1.000  C
  H453     1.0000 0.98431  0.16567  0.93320  Biso   1.000  H
  H454     1.0000 0.88201  0.15927  0.91980  Biso   1.000  H
  N185     1.0000 0.93994  0.27981  0.90878  Biso   1.000  N
  C397     1.0000 0.73161  0.34228  0.93219  Biso   1.000  C
  C398     1.0000 0.07327  0.80089  0.93177  Biso   1.000  C
  H455     1.0000 0.29322  0.71228  0.92030  Biso   1.000  H
  H456     1.0000 0.31751  0.61273  0.93370  Biso   1.000  H
  N186     1.0000 0.19401  0.62043  0.90870  Biso   1.000  N
  C399     1.0000 0.86880  0.32343  0.88668  Biso   1.000  C
  C400     1.0000 0.02552  0.31297  0.90119  Biso   1.000  C
  H457     1.0000 0.70678  0.28772  0.92030  Biso   1.000  H
  H458     1.0000 0.68249  0.38727  0.93370  Biso   1.000  H
  N187     1.0000 0.80599  0.37957  0.90870  Biso   1.000  N
  H459     1.0000 0.01569  0.83433  0.93320  Biso   1.000  H
  H460     1.0000 0.11799  0.84073  0.91980  Biso   1.000  H
  N188     1.0000 0.06006  0.72019  0.90878  Biso   1.000  N
  C401     1.0000 0.13120  0.67657  0.88668  Biso   1.000  C
  C402     1.0000 0.18562  0.52893  0.90099  Biso   1.000  C
  C403     1.0000 0.92322  0.39642  0.86357  Biso   1.000  C
  C404     1.0000 0.81899  0.26137  0.85877  Biso   1.000  C
  N189     1.0000 0.01748  0.38411  0.87560  Biso   1.000  N
  O93      1.0000 0.09845  0.28572  0.91419  Biso   1.000  O
  C405     1.0000 0.81438  0.47107  0.90099  Biso   1.000  C
  C406     1.0000 0.97448  0.68703  0.90119  Biso   1.000  C
  C407     1.0000 0.07678  0.60358  0.86357  Biso   1.000  C
  C408     1.0000 0.18101  0.73863  0.85877  Biso   1.000  C
  N190     1.0000 0.11730  0.51689  0.87593  Biso   1.000  N
  O94      1.0000 0.23447  0.46791  0.91347  Biso   1.000  O
  C409     1.0000 0.90230  0.37007  0.82306  Biso   1.000  C
  N191     1.0000 0.88270  0.48311  0.87593  Biso   1.000  N
  H461     1.0000 0.81830  0.19780  0.86701  Biso   1.000  H
  H462     1.0000 0.75631  0.28187  0.85450  Biso   1.000  H
  C410     1.0000 0.81452  0.32191  0.82331  Biso   1.000  C
  C411     1.0000 0.87939  0.27410  0.82339  Biso   1.000  C
  C412     1.0000 0.09563  0.42800  0.85953  Biso   1.000  C
  O95      1.0000 0.76553  0.53209  0.91347  Biso   1.000  O
  N192     1.0000 0.98252  0.61589  0.87560  Biso   1.000  N
  O96      1.0000 0.90155  0.71428  0.91419  Biso   1.000  O
  C413     1.0000 0.09770  0.62993  0.82306  Biso   1.000  C
  H463     1.0000 0.18170  0.80220  0.86701  Biso   1.000  H
  H464     1.0000 0.24369  0.71813  0.85450  Biso   1.000  H
  C414     1.0000 0.18548  0.67809  0.82331  Biso   1.000  C
  C415     1.0000 0.12061  0.72590  0.82339  Biso   1.000  C
  H465     1.0000 0.95549  0.38108  0.80740  Biso   1.000  H
  H466     1.0000 0.85112  0.40612  0.81360  Biso   1.000  H
  C416     1.0000 0.90437  0.57200  0.85953  Biso   1.000  C
  H467     1.0000 0.76361  0.36491  0.82459  Biso   1.000  H
  H468     1.0000 0.80757  0.28428  0.80109  Biso   1.000  H
  H469     1.0000 0.84548  0.25731  0.80109  Biso   1.000  H
  H470     1.0000 0.93450  0.23660  0.82490  Biso   1.000  H
  H471     1.0000 0.14840  0.38782  0.86229  Biso   1.000  H
  H472     1.0000 0.08469  0.43619  0.83299  Biso   1.000  H
  H473     1.0000 0.04451  0.61892  0.80740  Biso   1.000  H
  H474     1.0000 0.14888  0.59388  0.81360  Biso   1.000  H
  H475     1.0000 0.23639  0.63509  0.82459  Biso   1.000  H
  H476     1.0000 0.19243  0.71572  0.80109  Biso   1.000  H
  H477     1.0000 0.15452  0.74269  0.80109  Biso   1.000  H
  H478     1.0000 0.06550  0.76340  0.82490  Biso   1.000  H
  H479     1.0000 0.85160  0.61218  0.86229  Biso   1.000  H
  H480     1.0000 0.91531  0.56381  0.83299  Biso   1.000  H
  C417     1.0000 0.17812  0.31448  0.32331  Biso   1.000  C
  C418     1.0000 0.12989  0.40227  0.32306  Biso   1.000  C
  C419     1.0000 0.23860  0.31902  0.35877  Biso   1.000  C
  H481     1.0000 0.13512  0.26357  0.32459  Biso   1.000  H
  H482     1.0000 0.21569  0.30760  0.30109  Biso   1.000  H
  C420     1.0000 0.22587  0.37943  0.32339  Biso   1.000  C
  C421     1.0000 0.10361  0.42319  0.36357  Biso   1.000  C
  H483     1.0000 0.11889  0.45552  0.30740  Biso   1.000  H
  H484     1.0000 0.09391  0.35108  0.31360  Biso   1.000  H
  C422     1.0000 0.17661  0.36883  0.38668  Biso   1.000  C
  H485     1.0000 0.30217  0.31827  0.36701  Biso   1.000  H
  H486     1.0000 0.21809  0.25628  0.35450  Biso   1.000  H
  H487     1.0000 0.24272  0.34551  0.30109  Biso   1.000  H
  H488     1.0000 0.26343  0.43447  0.32490  Biso   1.000  H
  N193     1.0000 0.11586  0.51751  0.37560  Biso   1.000  N
  N194     1.0000 0.01692  0.38273  0.37593  Biso   1.000  N
  N195     1.0000 0.22023  0.43997  0.40878  Biso   1.000  N
  N196     1.0000 0.12040  0.30595  0.40870  Biso   1.000  N
  C423     1.0000 0.18700  0.52549  0.40119  Biso   1.000  C
  C424     1.0000 0.07203  0.59560  0.35953  Biso   1.000  C
  C425     1.0000 0.02890  0.31441  0.40099  Biso   1.000  C
  C426     1.0000 0.92797  0.40440  0.35953  Biso   1.000  C
  C427     1.0000 0.30093  0.42669  0.43177  Biso   1.000  C
  C428     1.0000 0.15769  0.23158  0.43219  Biso   1.000  C
  O97      1.0000 0.21431  0.59849  0.41419  Biso   1.000  O
  H489     1.0000 0.11221  0.64837  0.36229  Biso   1.000  H
  H490     1.0000 0.06378  0.58473  0.33299  Biso   1.000  H
  N197     1.0000 0.98308  0.61727  0.37593  Biso   1.000  N
  O98      1.0000 0.96794  0.26550  0.41347  Biso   1.000  O
  H491     1.0000 0.88779  0.35163  0.36229  Biso   1.000  H
  H492     1.0000 0.93622  0.41527  0.33299  Biso   1.000  H
  N198     1.0000 0.88414  0.48249  0.37560  Biso   1.000  N
  H493     1.0000 0.33430  0.48428  0.43320  Biso   1.000  H
  H494     1.0000 0.34069  0.38197  0.41980  Biso   1.000  H
  N199     1.0000 0.28063  0.39580  0.46891  Biso   1.000  N
  H495     1.0000 0.21232  0.20681  0.42030  Biso   1.000  H
  H496     1.0000 0.11269  0.18252  0.43370  Biso   1.000  H
  N200     1.0000 0.18080  0.26054  0.46894  Biso   1.000  N
  C429     1.0000 0.89639  0.57681  0.36357  Biso   1.000  C
  C430     1.0000 0.97110  0.68559  0.40099  Biso   1.000  C
  C431     1.0000 0.81300  0.47451  0.40119  Biso   1.000  C
  C432     1.0000 0.29481  0.44892  0.50000  Biso   1.000  C
  C433     1.0000 0.26949  0.29893  0.47879  Biso   1.000  C
  C434     1.0000 0.13443  0.23447  0.50000  Biso   1.000  C
  C435     1.0000 0.82339  0.63117  0.38668  Biso   1.000  C
  C436     1.0000 0.87011  0.59773  0.32306  Biso   1.000  C
  O99      1.0000 0.03206  0.73450  0.41347  Biso   1.000  O
  N201     1.0000 0.87960  0.69405  0.40870  Biso   1.000  N
  N202     1.0000 0.77977  0.56003  0.40878  Biso   1.000  N
  O100     1.0000 0.78569  0.40151  0.41419  Biso   1.000  O
  N203     1.0000 0.28063  0.39580  0.53109  Biso   1.000  N
  O101     1.0000 0.31737  0.53037  0.50000  Biso   1.000  O
  C437     1.0000 0.26949  0.29893  0.52121  Biso   1.000  C
  H497     1.0000 0.31992  0.26137  0.46891  Biso   1.000  H
  N204     1.0000 0.18080  0.26054  0.53106  Biso   1.000  N
  O102     1.0000 0.05972  0.19333  0.50000  Biso   1.000  O
  C438     1.0000 0.76140  0.68098  0.35877  Biso   1.000  C
  H498     1.0000 0.88111  0.54448  0.30740  Biso   1.000  H
  H499     1.0000 0.90609  0.64892  0.31360  Biso   1.000  H
  C439     1.0000 0.82188  0.68552  0.32331  Biso   1.000  C
  C440     1.0000 0.77413  0.62057  0.32339  Biso   1.000  C
  C441     1.0000 0.84231  0.76842  0.43219  Biso   1.000  C
  C442     1.0000 0.69907  0.57331  0.43177  Biso   1.000  C
  C443     1.0000 0.30093  0.42669  0.56823  Biso   1.000  C
  H500     1.0000 0.31992  0.26137  0.53109  Biso   1.000  H
  C444     1.0000 0.15769  0.23158  0.56781  Biso   1.000  C
  H501     1.0000 0.69783  0.68173  0.36701  Biso   1.000  H
  H502     1.0000 0.78191  0.74372  0.35450  Biso   1.000  H
  H503     1.0000 0.86488  0.73643  0.32459  Biso   1.000  H
  H504     1.0000 0.78431  0.69240  0.30109  Biso   1.000  H
  H505     1.0000 0.75728  0.65449  0.30109  Biso   1.000  H
  H506     1.0000 0.73657  0.56553  0.32490  Biso   1.000  H
  H507     1.0000 0.78768  0.79319  0.42030  Biso   1.000  H
  H508     1.0000 0.88731  0.81748  0.43370  Biso   1.000  H
  N205     1.0000 0.81920  0.73946  0.46894  Biso   1.000  N
  H509     1.0000 0.66570  0.51572  0.43320  Biso   1.000  H
  H510     1.0000 0.65931  0.61803  0.41980  Biso   1.000  H
  N206     1.0000 0.71937  0.60420  0.46891  Biso   1.000  N
  H511     1.0000 0.33430  0.48428  0.56680  Biso   1.000  H
  H512     1.0000 0.34069  0.38197  0.58020  Biso   1.000  H
  N207     1.0000 0.22023  0.43997  0.59122  Biso   1.000  N
  H513     1.0000 0.21232  0.20681  0.57970  Biso   1.000  H
  H514     1.0000 0.11269  0.18252  0.56630  Biso   1.000  H
  N208     1.0000 0.12040  0.30595  0.59130  Biso   1.000  N
  C445     1.0000 0.73051  0.70107  0.47879  Biso   1.000  C
  C446     1.0000 0.86557  0.76553  0.50000  Biso   1.000  C
  C447     1.0000 0.70519  0.55108  0.50000  Biso   1.000  C
  C448     1.0000 0.18700  0.52549  0.59881  Biso   1.000  C
  C449     1.0000 0.17661  0.36883  0.61332  Biso   1.000  C
  C450     1.0000 0.02890  0.31441  0.59901  Biso   1.000  C
  H515     1.0000 0.68008  0.73863  0.46891  Biso   1.000  H
  C451     1.0000 0.73051  0.70107  0.52121  Biso   1.000  C
  O103     1.0000 0.94028  0.80667  0.50000  Biso   1.000  O
  N209     1.0000 0.81920  0.73946  0.53106  Biso   1.000  N
  O104     1.0000 0.68263  0.46963  0.50000  Biso   1.000  O
  N210     1.0000 0.71937  0.60420  0.53109  Biso   1.000  N
  N211     1.0000 0.11586  0.51751  0.62440  Biso   1.000  N
  O105     1.0000 0.21431  0.59849  0.58581  Biso   1.000  O
  C452     1.0000 0.10361  0.42319  0.63643  Biso   1.000  C
  C453     1.0000 0.23860  0.31902  0.64123  Biso   1.000  C
  N212     1.0000 0.01692  0.38273  0.62407  Biso   1.000  N
  O106     1.0000 0.96794  0.26550  0.58653  Biso   1.000  O
  H516     1.0000 0.68008  0.73863  0.53109  Biso   1.000  H
  C454     1.0000 0.84231  0.76842  0.56781  Biso   1.000  C
  C455     1.0000 0.69907  0.57331  0.56823  Biso   1.000  C
  C456     1.0000 0.07203  0.59560  0.64047  Biso   1.000  C
  C457     1.0000 0.12989  0.40227  0.67694  Biso   1.000  C
  H517     1.0000 0.30217  0.31827  0.63299  Biso   1.000  H
  H518     1.0000 0.21809  0.25628  0.64550  Biso   1.000  H
  C458     1.0000 0.17812  0.31448  0.67669  Biso   1.000  C
  C459     1.0000 0.22587  0.37943  0.67661  Biso   1.000  C
  C460     1.0000 0.92797  0.40440  0.64047  Biso   1.000  C
  H519     1.0000 0.78768  0.79319  0.57970  Biso   1.000  H
  H520     1.0000 0.88731  0.81748  0.56630  Biso   1.000  H
  N213     1.0000 0.87960  0.69405  0.59130  Biso   1.000  N
  H521     1.0000 0.66570  0.51572  0.56680  Biso   1.000  H
  H522     1.0000 0.65931  0.61803  0.58020  Biso   1.000  H
  N214     1.0000 0.77977  0.56003  0.59122  Biso   1.000  N
  H523     1.0000 0.11221  0.64837  0.63771  Biso   1.000  H
  H524     1.0000 0.06378  0.58473  0.66701  Biso   1.000  H
  N215     1.0000 0.98308  0.61727  0.62407  Biso   1.000  N
  H525     1.0000 0.11889  0.45552  0.69260  Biso   1.000  H
  H526     1.0000 0.09391  0.35108  0.68640  Biso   1.000  H
  H527     1.0000 0.13512  0.26357  0.67541  Biso   1.000  H
  H528     1.0000 0.21569  0.30760  0.69891  Biso   1.000  H
  H529     1.0000 0.24272  0.34551  0.69891  Biso   1.000  H
  H530     1.0000 0.26343  0.43447  0.67510  Biso   1.000  H
  H531     1.0000 0.88779  0.35163  0.63771  Biso   1.000  H
  H532     1.0000 0.93622  0.41527  0.66701  Biso   1.000  H
  N216     1.0000 0.88414  0.48249  0.62440  Biso   1.000  N
  C461     1.0000 0.82339  0.63117  0.61332  Biso   1.000  C
  C462     1.0000 0.97110  0.68559  0.59901  Biso   1.000  C
  C463     1.0000 0.81300  0.47451  0.59881  Biso   1.000  C
  C464     1.0000 0.89639  0.57681  0.63643  Biso   1.000  C
  C465     1.0000 0.76140  0.68098  0.64123  Biso   1.000  C
  O107     1.0000 0.03206  0.73450  0.58653  Biso   1.000  O
  O108     1.0000 0.78569  0.40151  0.58581  Biso   1.000  O
  C466     1.0000 0.87011  0.59773  0.67694  Biso   1.000  C
  H533     1.0000 0.69783  0.68173  0.63299  Biso   1.000  H
  H534     1.0000 0.78191  0.74372  0.64550  Biso   1.000  H
  C467     1.0000 0.82188  0.68552  0.67669  Biso   1.000  C
  C468     1.0000 0.77413  0.62057  0.67661  Biso   1.000  C
  H535     1.0000 0.88111  0.54448  0.69260  Biso   1.000  H
  H536     1.0000 0.90609  0.64892  0.68640  Biso   1.000  H
  H537     1.0000 0.86488  0.73643  0.67541  Biso   1.000  H
  H538     1.0000 0.78431  0.69240  0.69891  Biso   1.000  H
  H539     1.0000 0.75728  0.65449  0.69891  Biso   1.000  H
  H540     1.0000 0.73657  0.56553  0.67510  Biso   1.000  H
  C469     1.0000 0.17812  0.31448  0.32331  Biso   1.000  C
  C470     1.0000 0.12989  0.40227  0.32306  Biso   1.000  C
  C471     1.0000 0.23860  0.31902  0.35877  Biso   1.000  C
  H541     1.0000 0.13512  0.26357  0.32459  Biso   1.000  H
  H542     1.0000 0.21569  0.30760  0.30109  Biso   1.000  H
  C472     1.0000 0.22587  0.37943  0.32339  Biso   1.000  C
  C473     1.0000 0.10361  0.42319  0.36357  Biso   1.000  C
  H543     1.0000 0.11889  0.45552  0.30740  Biso   1.000  H
  H544     1.0000 0.09391  0.35108  0.31360  Biso   1.000  H
  C474     1.0000 0.17661  0.36883  0.38668  Biso   1.000  C
  H545     1.0000 0.30217  0.31827  0.36701  Biso   1.000  H
  H546     1.0000 0.21809  0.25628  0.35450  Biso   1.000  H
  H547     1.0000 0.24272  0.34551  0.30109  Biso   1.000  H
  H548     1.0000 0.26343  0.43447  0.32490  Biso   1.000  H
  N217     1.0000 0.11586  0.51751  0.37560  Biso   1.000  N
  N218     1.0000 0.01692  0.38273  0.37593  Biso   1.000  N
  N219     1.0000 0.22023  0.43997  0.40878  Biso   1.000  N
  N220     1.0000 0.12040  0.30595  0.40870  Biso   1.000  N
  C475     1.0000 0.18700  0.52549  0.40119  Biso   1.000  C
  C476     1.0000 0.07203  0.59560  0.35953  Biso   1.000  C
  C477     1.0000 0.02890  0.31441  0.40099  Biso   1.000  C
  C478     1.0000 0.92797  0.40440  0.35953  Biso   1.000  C
  C479     1.0000 0.30093  0.42669  0.43177  Biso   1.000  C
  C480     1.0000 0.15769  0.23158  0.43219  Biso   1.000  C
  O109     1.0000 0.21431  0.59849  0.41419  Biso   1.000  O
  H549     1.0000 0.11221  0.64837  0.36229  Biso   1.000  H
  H550     1.0000 0.06378  0.58473  0.33299  Biso   1.000  H
  N221     1.0000 0.98308  0.61727  0.37593  Biso   1.000  N
  O110     1.0000 0.96794  0.26550  0.41347  Biso   1.000  O
  H551     1.0000 0.88779  0.35163  0.36229  Biso   1.000  H
  H552     1.0000 0.93622  0.41527  0.33299  Biso   1.000  H
  N222     1.0000 0.88414  0.48249  0.37560  Biso   1.000  N
  H553     1.0000 0.33430  0.48428  0.43320  Biso   1.000  H
  H554     1.0000 0.34069  0.38197  0.41980  Biso   1.000  H
  N223     1.0000 0.28063  0.39580  0.46891  Biso   1.000  N
  H555     1.0000 0.21232  0.20681  0.42030  Biso   1.000  H
  H556     1.0000 0.11269  0.18252  0.43370  Biso   1.000  H
  N224     1.0000 0.18080  0.26054  0.46894  Biso   1.000  N
  C481     1.0000 0.89639  0.57681  0.36357  Biso   1.000  C
  C482     1.0000 0.97110  0.68559  0.40099  Biso   1.000  C
  C483     1.0000 0.81300  0.47451  0.40119  Biso   1.000  C
  C484     1.0000 0.29481  0.44892  0.50000  Biso   1.000  C
  C485     1.0000 0.26949  0.29893  0.47879  Biso   1.000  C
  C486     1.0000 0.13443  0.23447  0.50000  Biso   1.000  C
  C487     1.0000 0.82339  0.63117  0.38668  Biso   1.000  C
  C488     1.0000 0.87011  0.59773  0.32306  Biso   1.000  C
  O111     1.0000 0.03206  0.73450  0.41347  Biso   1.000  O
  N225     1.0000 0.87960  0.69405  0.40870  Biso   1.000  N
  N226     1.0000 0.77977  0.56003  0.40878  Biso   1.000  N
  O112     1.0000 0.78569  0.40151  0.41419  Biso   1.000  O
  N227     1.0000 0.28063  0.39580  0.53109  Biso   1.000  N
  O113     1.0000 0.31737  0.53037  0.50000  Biso   1.000  O
  C489     1.0000 0.26949  0.29893  0.52121  Biso   1.000  C
  H557     1.0000 0.31992  0.26137  0.46891  Biso   1.000  H
  N228     1.0000 0.18080  0.26054  0.53106  Biso   1.000  N
  O114     1.0000 0.05972  0.19333  0.50000  Biso   1.000  O
  C490     1.0000 0.76140  0.68098  0.35877  Biso   1.000  C
  H558     1.0000 0.88111  0.54448  0.30740  Biso   1.000  H
  H559     1.0000 0.90609  0.64892  0.31360  Biso   1.000  H
  C491     1.0000 0.82188  0.68552  0.32331  Biso   1.000  C
  C492     1.0000 0.77413  0.62057  0.32339  Biso   1.000  C
  C493     1.0000 0.84231  0.76842  0.43219  Biso   1.000  C
  C494     1.0000 0.69907  0.57331  0.43177  Biso   1.000  C
  C495     1.0000 0.30093  0.42669  0.56823  Biso   1.000  C
  H560     1.0000 0.31992  0.26137  0.53109  Biso   1.000  H
  C496     1.0000 0.15769  0.23158  0.56781  Biso   1.000  C
  H561     1.0000 0.69783  0.68173  0.36701  Biso   1.000  H
  H562     1.0000 0.78191  0.74372  0.35450  Biso   1.000  H
  H563     1.0000 0.86488  0.73643  0.32459  Biso   1.000  H
  H564     1.0000 0.78431  0.69240  0.30109  Biso   1.000  H
  H565     1.0000 0.75728  0.65449  0.30109  Biso   1.000  H
  H566     1.0000 0.73657  0.56553  0.32490  Biso   1.000  H
  H567     1.0000 0.78768  0.79319  0.42030  Biso   1.000  H
  H568     1.0000 0.88731  0.81748  0.43370  Biso   1.000  H
  N229     1.0000 0.81920  0.73946  0.46894  Biso   1.000  N
  H569     1.0000 0.66570  0.51572  0.43320  Biso   1.000  H
  H570     1.0000 0.65931  0.61803  0.41980  Biso   1.000  H
  N230     1.0000 0.71937  0.60420  0.46891  Biso   1.000  N
  H571     1.0000 0.33430  0.48428  0.56680  Biso   1.000  H
  H572     1.0000 0.34069  0.38197  0.58020  Biso   1.000  H
  N231     1.0000 0.22023  0.43997  0.59122  Biso   1.000  N
  H573     1.0000 0.21232  0.20681  0.57970  Biso   1.000  H
  H574     1.0000 0.11269  0.18252  0.56630  Biso   1.000  H
  N232     1.0000 0.12040  0.30595  0.59130  Biso   1.000  N
  C497     1.0000 0.73051  0.70107  0.47879  Biso   1.000  C
  C498     1.0000 0.86557  0.76553  0.50000  Biso   1.000  C
  C499     1.0000 0.70519  0.55108  0.50000  Biso   1.000  C
  C500     1.0000 0.18700  0.52549  0.59881  Biso   1.000  C
  C501     1.0000 0.17661  0.36883  0.61332  Biso   1.000  C
  C502     1.0000 0.02890  0.31441  0.59901  Biso   1.000  C
  H575     1.0000 0.68008  0.73863  0.46891  Biso   1.000  H
  C503     1.0000 0.73051  0.70107  0.52121  Biso   1.000  C
  O115     1.0000 0.94028  0.80667  0.50000  Biso   1.000  O
  N233     1.0000 0.81920  0.73946  0.53106  Biso   1.000  N
  O116     1.0000 0.68263  0.46963  0.50000  Biso   1.000  O
  N234     1.0000 0.71937  0.60420  0.53109  Biso   1.000  N
  N235     1.0000 0.11586  0.51751  0.62440  Biso   1.000  N
  O117     1.0000 0.21431  0.59849  0.58581  Biso   1.000  O
  C504     1.0000 0.10361  0.42319  0.63643  Biso   1.000  C
  C505     1.0000 0.23860  0.31902  0.64123  Biso   1.000  C
  N236     1.0000 0.01692  0.38273  0.62407  Biso   1.000  N
  O118     1.0000 0.96794  0.26550  0.58653  Biso   1.000  O
  H576     1.0000 0.68008  0.73863  0.53109  Biso   1.000  H
  C506     1.0000 0.84231  0.76842  0.56781  Biso   1.000  C
  C507     1.0000 0.69907  0.57331  0.56823  Biso   1.000  C
  C508     1.0000 0.07203  0.59560  0.64047  Biso   1.000  C
  C509     1.0000 0.12989  0.40227  0.67694  Biso   1.000  C
  H577     1.0000 0.30217  0.31827  0.63299  Biso   1.000  H
  H578     1.0000 0.21809  0.25628  0.64550  Biso   1.000  H
  C510     1.0000 0.17812  0.31448  0.67669  Biso   1.000  C
  C511     1.0000 0.22587  0.37943  0.67661  Biso   1.000  C
  C512     1.0000 0.92797  0.40440  0.64047  Biso   1.000  C
  H579     1.0000 0.78768  0.79319  0.57970  Biso   1.000  H
  H580     1.0000 0.88731  0.81748  0.56630  Biso   1.000  H
  N237     1.0000 0.87960  0.69405  0.59130  Biso   1.000  N
  H581     1.0000 0.66570  0.51572  0.56680  Biso   1.000  H
  H582     1.0000 0.65931  0.61803  0.58020  Biso   1.000  H
  N238     1.0000 0.77977  0.56003  0.59122  Biso   1.000  N
  H583     1.0000 0.11221  0.64837  0.63771  Biso   1.000  H
  H584     1.0000 0.06378  0.58473  0.66701  Biso   1.000  H
  N239     1.0000 0.98308  0.61727  0.62407  Biso   1.000  N
  H585     1.0000 0.11889  0.45552  0.69260  Biso   1.000  H
  H586     1.0000 0.09391  0.35108  0.68640  Biso   1.000  H
  H587     1.0000 0.13512  0.26357  0.67541  Biso   1.000  H
  H588     1.0000 0.21569  0.30760  0.69891  Biso   1.000  H
  H589     1.0000 0.24272  0.34551  0.69891  Biso   1.000  H
  H590     1.0000 0.26343  0.43447  0.67510  Biso   1.000  H
  H591     1.0000 0.88779  0.35163  0.63771  Biso   1.000  H
  H592     1.0000 0.93622  0.41527  0.66701  Biso   1.000  H
  N240     1.0000 0.88414  0.48249  0.62440  Biso   1.000  N
  C513     1.0000 0.82339  0.63117  0.61332  Biso   1.000  C
  C514     1.0000 0.97110  0.68559  0.59901  Biso   1.000  C
  C515     1.0000 0.81300  0.47451  0.59881  Biso   1.000  C
  C516     1.0000 0.89639  0.57681  0.63643  Biso   1.000  C
  C517     1.0000 0.76140  0.68098  0.64123  Biso   1.000  C
  O119     1.0000 0.03206  0.73450  0.58653  Biso   1.000  O
  O120     1.0000 0.78569  0.40151  0.58581  Biso   1.000  O
  C518     1.0000 0.87011  0.59773  0.67694  Biso   1.000  C
  H593     1.0000 0.69783  0.68173  0.63299  Biso   1.000  H
  H594     1.0000 0.78191  0.74372  0.64550  Biso   1.000  H
  C519     1.0000 0.82188  0.68552  0.67669  Biso   1.000  C
  C520     1.0000 0.77413  0.62057  0.67661  Biso   1.000  C
  H595     1.0000 0.88111  0.54448  0.69260  Biso   1.000  H
  H596     1.0000 0.90609  0.64892  0.68640  Biso   1.000  H
  H597     1.0000 0.86488  0.73643  0.67541  Biso   1.000  H
  H598     1.0000 0.78431  0.69240  0.69891  Biso   1.000  H
  H599     1.0000 0.75728  0.65449  0.69891  Biso   1.000  H
  H600     1.0000 0.73657  0.56553  0.67510  Biso   1.000  H
  C521     1.0000 0.40440  0.07203  0.35953  Biso   1.000  C
  H601     1.0000 0.35163  0.11221  0.36229  Biso   1.000  H
  H602     1.0000 0.41527  0.06378  0.33299  Biso   1.000  H
  N241     1.0000 0.48249  0.11586  0.37560  Biso   1.000  N
  N242     1.0000 0.38273  0.98308  0.37593  Biso   1.000  N
  C522     1.0000 0.47451  0.18700  0.40119  Biso   1.000  C
  C523     1.0000 0.57681  0.10361  0.36357  Biso   1.000  C
  C524     1.0000 0.42319  0.89639  0.36357  Biso   1.000  C
  C525     1.0000 0.31441  0.97110  0.40099  Biso   1.000  C
  N243     1.0000 0.56003  0.22023  0.40878  Biso   1.000  N
  O121     1.0000 0.40151  0.21431  0.41419  Biso   1.000  O
  C526     1.0000 0.63117  0.17661  0.38668  Biso   1.000  C
  C527     1.0000 0.59773  0.12989  0.32306  Biso   1.000  C
  N244     1.0000 0.61727  0.01692  0.37593  Biso   1.000  N
  C528     1.0000 0.36883  0.82339  0.38668  Biso   1.000  C
  C529     1.0000 0.40227  0.87011  0.32306  Biso   1.000  C
  N245     1.0000 0.51751  0.88414  0.37560  Biso   1.000  N
  O122     1.0000 0.26550  0.03206  0.41347  Biso   1.000  O
  N246     1.0000 0.30595  0.87960  0.40870  Biso   1.000  N
  C530     1.0000 0.57331  0.30093  0.43177  Biso   1.000  C
  C531     1.0000 0.68098  0.23860  0.35877  Biso   1.000  C
  N247     1.0000 0.69405  0.12040  0.40870  Biso   1.000  N
  H603     1.0000 0.54448  0.11889  0.30740  Biso   1.000  H
  H604     1.0000 0.64892  0.09391  0.31360  Biso   1.000  H
  C532     1.0000 0.68552  0.17812  0.32331  Biso   1.000  C
  C533     1.0000 0.62057  0.22587  0.32339  Biso   1.000  C
  C534     1.0000 0.68559  0.02890  0.40099  Biso   1.000  C
  C535     1.0000 0.59560  0.92797  0.35953  Biso   1.000  C
  C536     1.0000 0.31902  0.76140  0.35877  Biso   1.000  C
  N248     1.0000 0.43997  0.77977  0.40878  Biso   1.000  N
  H605     1.0000 0.45552  0.88111  0.30740  Biso   1.000  H
  H606     1.0000 0.35108  0.90609  0.31360  Biso   1.000  H
  C537     1.0000 0.31448  0.82188  0.32331  Biso   1.000  C
  C538     1.0000 0.37943  0.77413  0.32339  Biso   1.000  C
  C539     1.0000 0.52549  0.81300  0.40119  Biso   1.000  C
  C540     1.0000 0.23158  0.84231  0.43219  Biso   1.000  C
  H607     1.0000 0.51572  0.33430  0.43320  Biso   1.000  H
  H608     1.0000 0.61803  0.34069  0.41980  Biso   1.000  H
  N249     1.0000 0.60420  0.28063  0.46891  Biso   1.000  N
  H609     1.0000 0.68173  0.30217  0.36701  Biso   1.000  H
  H610     1.0000 0.74372  0.21809  0.35450  Biso   1.000  H
  C541     1.0000 0.76842  0.15769  0.43219  Biso   1.000  C
  H611     1.0000 0.73643  0.13512  0.32459  Biso   1.000  H
  H612     1.0000 0.69240  0.21569  0.30109  Biso   1.000  H
  H613     1.0000 0.65449  0.24272  0.30109  Biso   1.000  H
  H614     1.0000 0.56553  0.26343  0.32490  Biso   1.000  H
  O123     1.0000 0.73450  0.96794  0.41347  Biso   1.000  O
  H615     1.0000 0.64837  0.88779  0.36229  Biso   1.000  H
  H616     1.0000 0.58473  0.93622  0.33299  Biso   1.000  H
  H617     1.0000 0.31827  0.69783  0.36701  Biso   1.000  H
  H618     1.0000 0.25628  0.78191  0.35450  Biso   1.000  H
  C542     1.0000 0.42669  0.69907  0.43177  Biso   1.000  C
  H619     1.0000 0.26357  0.86488  0.32459  Biso   1.000  H
  H620     1.0000 0.30760  0.78431  0.30109  Biso   1.000  H
  H621     1.0000 0.34551  0.75728  0.30109  Biso   1.000  H
  H622     1.0000 0.43447  0.73657  0.32490  Biso   1.000  H
  O124     1.0000 0.59849  0.78569  0.41419  Biso   1.000  O
  H623     1.0000 0.20681  0.78768  0.42030  Biso   1.000  H
  H624     1.0000 0.18252  0.88731  0.43370  Biso   1.000  H
  N250     1.0000 0.26054  0.81920  0.46894  Biso   1.000  N
  C543     1.0000 0.55108  0.29481  0.50000  Biso   1.000  C
  C544     1.0000 0.70107  0.26949  0.47879  Biso   1.000  C
  H625     1.0000 0.79319  0.21232  0.42030  Biso   1.000  H
  H626     1.0000 0.81748  0.11269  0.43370  Biso   1.000  H
  N251     1.0000 0.73946  0.18080  0.46894  Biso   1.000  N
  H627     1.0000 0.48428  0.66570  0.43320  Biso   1.000  H
  H628     1.0000 0.38197  0.65931  0.41980  Biso   1.000  H
  N252     1.0000 0.39580  0.71937  0.46891  Biso   1.000  N
  C545     1.0000 0.29893  0.73051  0.47879  Biso   1.000  C
  C546     1.0000 0.23447  0.86557  0.50000  Biso   1.000  C
  N253     1.0000 0.60420  0.28063  0.53109  Biso   1.000  N
  O125     1.0000 0.46963  0.31737  0.50000  Biso   1.000  O
  C547     1.0000 0.70107  0.26949  0.52121  Biso   1.000  C
  H629     1.0000 0.73863  0.31992  0.46891  Biso   1.000  H
  C548     1.0000 0.76553  0.13443  0.50000  Biso   1.000  C
  C549     1.0000 0.44892  0.70519  0.50000  Biso   1.000  C
  H630     1.0000 0.26137  0.68008  0.46891  Biso   1.000  H
  C550     1.0000 0.29893  0.73051  0.52121  Biso   1.000  C
  O126     1.0000 0.19333  0.94028  0.50000  Biso   1.000  O
  N254     1.0000 0.26054  0.81920  0.53106  Biso   1.000  N
  C551     1.0000 0.57331  0.30093  0.56823  Biso   1.000  C
  H631     1.0000 0.73863  0.31992  0.53109  Biso   1.000  H
  N255     1.0000 0.73946  0.18080  0.53106  Biso   1.000  N
  O127     1.0000 0.80667  0.05972  0.50000  Biso   1.000  O
  O128     1.0000 0.53037  0.68263  0.50000  Biso   1.000  O
  N256     1.0000 0.39580  0.71937  0.53109  Biso   1.000  N
  H632     1.0000 0.26137  0.68008  0.53109  Biso   1.000  H
  C552     1.0000 0.23158  0.84231  0.56781  Biso   1.000  C
  H633     1.0000 0.51572  0.33430  0.56680  Biso   1.000  H
  H634     1.0000 0.61803  0.34069  0.58020  Biso   1.000  H
  N257     1.0000 0.56003  0.22023  0.59122  Biso   1.000  N
  C553     1.0000 0.76842  0.15769  0.56781  Biso   1.000  C
  C554     1.0000 0.42669  0.69907  0.56823  Biso   1.000  C
  H635     1.0000 0.20681  0.78768  0.57970  Biso   1.000  H
  H636     1.0000 0.18252  0.88731  0.56630  Biso   1.000  H
  N258     1.0000 0.30595  0.87960  0.59130  Biso   1.000  N
  C555     1.0000 0.47451  0.18700  0.59881  Biso   1.000  C
  C556     1.0000 0.63117  0.17661  0.61332  Biso   1.000  C
  H637     1.0000 0.79319  0.21232  0.57970  Biso   1.000  H
  H638     1.0000 0.81748  0.11269  0.56630  Biso   1.000  H
  N259     1.0000 0.69405  0.12040  0.59130  Biso   1.000  N
  H639     1.0000 0.48428  0.66570  0.56680  Biso   1.000  H
  H640     1.0000 0.38197  0.65931  0.58020  Biso   1.000  H
  N260     1.0000 0.43997  0.77977  0.59122  Biso   1.000  N
  C557     1.0000 0.36883  0.82339  0.61332  Biso   1.000  C
  C558     1.0000 0.31441  0.97110  0.59901  Biso   1.000  C
  N261     1.0000 0.48249  0.11586  0.62440  Biso   1.000  N
  O129     1.0000 0.40151  0.21431  0.58581  Biso   1.000  O
  C559     1.0000 0.57681  0.10361  0.63643  Biso   1.000  C
  C560     1.0000 0.68098  0.23860  0.64123  Biso   1.000  C
  C561     1.0000 0.68559  0.02890  0.59901  Biso   1.000  C
  C562     1.0000 0.52549  0.81300  0.59881  Biso   1.000  C
  C563     1.0000 0.42319  0.89639  0.63643  Biso   1.000  C
  C564     1.0000 0.31902  0.76140  0.64123  Biso   1.000  C
  O130     1.0000 0.26550  0.03206  0.58653  Biso   1.000  O
  N262     1.0000 0.38273  0.98308  0.62407  Biso   1.000  N
  C565     1.0000 0.40440  0.07203  0.64047  Biso   1.000  C
  C566     1.0000 0.59773  0.12989  0.67694  Biso   1.000  C
  N263     1.0000 0.61727  0.01692  0.62407  Biso   1.000  N
  H641     1.0000 0.68173  0.30217  0.63299  Biso   1.000  H
  H642     1.0000 0.74372  0.21809  0.64550  Biso   1.000  H
  C567     1.0000 0.68552  0.17812  0.67669  Biso   1.000  C
  C568     1.0000 0.62057  0.22587  0.67661  Biso   1.000  C
  O131     1.0000 0.73450  0.96794  0.58653  Biso   1.000  O
  N264     1.0000 0.51751  0.88414  0.62440  Biso   1.000  N
  O132     1.0000 0.59849  0.78569  0.58581  Biso   1.000  O
  C569     1.0000 0.40227  0.87011  0.67694  Biso   1.000  C
  H643     1.0000 0.31827  0.69783  0.63299  Biso   1.000  H
  H644     1.0000 0.25628  0.78191  0.64550  Biso   1.000  H
  C570     1.0000 0.31448  0.82188  0.67669  Biso   1.000  C
  C571     1.0000 0.37943  0.77413  0.67661  Biso   1.000  C
  H645     1.0000 0.35163  0.11221  0.63771  Biso   1.000  H
  H646     1.0000 0.41527  0.06378  0.66701  Biso   1.000  H
  H647     1.0000 0.54448  0.11889  0.69260  Biso   1.000  H
  H648     1.0000 0.64892  0.09391  0.68640  Biso   1.000  H
  C572     1.0000 0.59560  0.92797  0.64047  Biso   1.000  C
  H649     1.0000 0.73643  0.13512  0.67541  Biso   1.000  H
  H650     1.0000 0.69240  0.21569  0.69891  Biso   1.000  H
  H651     1.0000 0.65449  0.24272  0.69891  Biso   1.000  H
  H652     1.0000 0.56553  0.26343  0.67510  Biso   1.000  H
  H653     1.0000 0.45552  0.88111  0.69260  Biso   1.000  H
  H654     1.0000 0.35108  0.90609  0.68640  Biso   1.000  H
  H655     1.0000 0.26357  0.86488  0.67541  Biso   1.000  H
  H656     1.0000 0.30760  0.78431  0.69891  Biso   1.000  H
  H657     1.0000 0.34551  0.75728  0.69891  Biso   1.000  H
  H658     1.0000 0.43447  0.73657  0.67510  Biso   1.000  H
  H659     1.0000 0.64837  0.88779  0.63771  Biso   1.000  H
  H660     1.0000 0.58473  0.93622  0.66701  Biso   1.000  H
  C573     1.0000 0.40440  0.07203  0.35953  Biso   1.000  C
  H661     1.0000 0.35163  0.11221  0.36229  Biso   1.000  H
  H662     1.0000 0.41527  0.06378  0.33299  Biso   1.000  H
  N265     1.0000 0.48249  0.11586  0.37560  Biso   1.000  N
  N266     1.0000 0.38273  0.98308  0.37593  Biso   1.000  N
  C574     1.0000 0.47451  0.18700  0.40119  Biso   1.000  C
  C575     1.0000 0.57681  0.10361  0.36357  Biso   1.000  C
  C576     1.0000 0.42319  0.89639  0.36357  Biso   1.000  C
  C577     1.0000 0.31441  0.97110  0.40099  Biso   1.000  C
  N267     1.0000 0.56003  0.22023  0.40878  Biso   1.000  N
  O133     1.0000 0.40151  0.21431  0.41419  Biso   1.000  O
  C578     1.0000 0.63117  0.17661  0.38668  Biso   1.000  C
  C579     1.0000 0.59773  0.12989  0.32306  Biso   1.000  C
  N268     1.0000 0.61727  0.01692  0.37593  Biso   1.000  N
  C580     1.0000 0.36883  0.82339  0.38668  Biso   1.000  C
  C581     1.0000 0.40227  0.87011  0.32306  Biso   1.000  C
  N269     1.0000 0.51751  0.88414  0.37560  Biso   1.000  N
  O134     1.0000 0.26550  0.03206  0.41347  Biso   1.000  O
  N270     1.0000 0.30595  0.87960  0.40870  Biso   1.000  N
  C582     1.0000 0.57331  0.30093  0.43177  Biso   1.000  C
  C583     1.0000 0.68098  0.23860  0.35877  Biso   1.000  C
  N271     1.0000 0.69405  0.12040  0.40870  Biso   1.000  N
  H663     1.0000 0.54448  0.11889  0.30740  Biso   1.000  H
  H664     1.0000 0.64892  0.09391  0.31360  Biso   1.000  H
  C584     1.0000 0.68552  0.17812  0.32331  Biso   1.000  C
  C585     1.0000 0.62057  0.22587  0.32339  Biso   1.000  C
  C586     1.0000 0.68559  0.02890  0.40099  Biso   1.000  C
  C587     1.0000 0.59560  0.92797  0.35953  Biso   1.000  C
  C588     1.0000 0.31902  0.76140  0.35877  Biso   1.000  C
  N272     1.0000 0.43997  0.77977  0.40878  Biso   1.000  N
  H665     1.0000 0.45552  0.88111  0.30740  Biso   1.000  H
  H666     1.0000 0.35108  0.90609  0.31360  Biso   1.000  H
  C589     1.0000 0.31448  0.82188  0.32331  Biso   1.000  C
  C590     1.0000 0.37943  0.77413  0.32339  Biso   1.000  C
  C591     1.0000 0.52549  0.81300  0.40119  Biso   1.000  C
  C592     1.0000 0.23158  0.84231  0.43219  Biso   1.000  C
  H667     1.0000 0.51572  0.33430  0.43320  Biso   1.000  H
  H668     1.0000 0.61803  0.34069  0.41980  Biso   1.000  H
  N273     1.0000 0.60420  0.28063  0.46891  Biso   1.000  N
  H669     1.0000 0.68173  0.30217  0.36701  Biso   1.000  H
  H670     1.0000 0.74372  0.21809  0.35450  Biso   1.000  H
  C593     1.0000 0.76842  0.15769  0.43219  Biso   1.000  C
  H671     1.0000 0.73643  0.13512  0.32459  Biso   1.000  H
  H672     1.0000 0.69240  0.21569  0.30109  Biso   1.000  H
  H673     1.0000 0.65449  0.24272  0.30109  Biso   1.000  H
  H674     1.0000 0.56553  0.26343  0.32490  Biso   1.000  H
  O135     1.0000 0.73450  0.96794  0.41347  Biso   1.000  O
  H675     1.0000 0.64837  0.88779  0.36229  Biso   1.000  H
  H676     1.0000 0.58473  0.93622  0.33299  Biso   1.000  H
  H677     1.0000 0.31827  0.69783  0.36701  Biso   1.000  H
  H678     1.0000 0.25628  0.78191  0.35450  Biso   1.000  H
  C594     1.0000 0.42669  0.69907  0.43177  Biso   1.000  C
  H679     1.0000 0.26357  0.86488  0.32459  Biso   1.000  H
  H680     1.0000 0.30760  0.78431  0.30109  Biso   1.000  H
  H681     1.0000 0.34551  0.75728  0.30109  Biso   1.000  H
  H682     1.0000 0.43447  0.73657  0.32490  Biso   1.000  H
  O136     1.0000 0.59849  0.78569  0.41419  Biso   1.000  O
  H683     1.0000 0.20681  0.78768  0.42030  Biso   1.000  H
  H684     1.0000 0.18252  0.88731  0.43370  Biso   1.000  H
  N274     1.0000 0.26054  0.81920  0.46894  Biso   1.000  N
  C595     1.0000 0.55108  0.29481  0.50000  Biso   1.000  C
  C596     1.0000 0.70107  0.26949  0.47879  Biso   1.000  C
  H685     1.0000 0.79319  0.21232  0.42030  Biso   1.000  H
  H686     1.0000 0.81748  0.11269  0.43370  Biso   1.000  H
  N275     1.0000 0.73946  0.18080  0.46894  Biso   1.000  N
  H687     1.0000 0.48428  0.66570  0.43320  Biso   1.000  H
  H688     1.0000 0.38197  0.65931  0.41980  Biso   1.000  H
  N276     1.0000 0.39580  0.71937  0.46891  Biso   1.000  N
  C597     1.0000 0.29893  0.73051  0.47879  Biso   1.000  C
  C598     1.0000 0.23447  0.86557  0.50000  Biso   1.000  C
  N277     1.0000 0.60420  0.28063  0.53109  Biso   1.000  N
  O137     1.0000 0.46963  0.31737  0.50000  Biso   1.000  O
  C599     1.0000 0.70107  0.26949  0.52121  Biso   1.000  C
  H689     1.0000 0.73863  0.31992  0.46891  Biso   1.000  H
  C600     1.0000 0.76553  0.13443  0.50000  Biso   1.000  C
  C601     1.0000 0.44892  0.70519  0.50000  Biso   1.000  C
  H690     1.0000 0.26137  0.68008  0.46891  Biso   1.000  H
  C602     1.0000 0.29893  0.73051  0.52121  Biso   1.000  C
  O138     1.0000 0.19333  0.94028  0.50000  Biso   1.000  O
  N278     1.0000 0.26054  0.81920  0.53106  Biso   1.000  N
  C603     1.0000 0.57331  0.30093  0.56823  Biso   1.000  C
  H691     1.0000 0.73863  0.31992  0.53109  Biso   1.000  H
  N279     1.0000 0.73946  0.18080  0.53106  Biso   1.000  N
  O139     1.0000 0.80667  0.05972  0.50000  Biso   1.000  O
  O140     1.0000 0.53037  0.68263  0.50000  Biso   1.000  O
  N280     1.0000 0.39580  0.71937  0.53109  Biso   1.000  N
  H692     1.0000 0.26137  0.68008  0.53109  Biso   1.000  H
  C604     1.0000 0.23158  0.84231  0.56781  Biso   1.000  C
  H693     1.0000 0.51572  0.33430  0.56680  Biso   1.000  H
  H694     1.0000 0.61803  0.34069  0.58020  Biso   1.000  H
  N281     1.0000 0.56003  0.22023  0.59122  Biso   1.000  N
  C605     1.0000 0.76842  0.15769  0.56781  Biso   1.000  C
  C606     1.0000 0.42669  0.69907  0.56823  Biso   1.000  C
  H695     1.0000 0.20681  0.78768  0.57970  Biso   1.000  H
  H696     1.0000 0.18252  0.88731  0.56630  Biso   1.000  H
  N282     1.0000 0.30595  0.87960  0.59130  Biso   1.000  N
  C607     1.0000 0.47451  0.18700  0.59881  Biso   1.000  C
  C608     1.0000 0.63117  0.17661  0.61332  Biso   1.000  C
  H697     1.0000 0.79319  0.21232  0.57970  Biso   1.000  H
  H698     1.0000 0.81748  0.11269  0.56630  Biso   1.000  H
  N283     1.0000 0.69405  0.12040  0.59130  Biso   1.000  N
  H699     1.0000 0.48428  0.66570  0.56680  Biso   1.000  H
  H700     1.0000 0.38197  0.65931  0.58020  Biso   1.000  H
  N284     1.0000 0.43997  0.77977  0.59122  Biso   1.000  N
  C609     1.0000 0.36883  0.82339  0.61332  Biso   1.000  C
  C610     1.0000 0.31441  0.97110  0.59901  Biso   1.000  C
  N285     1.0000 0.48249  0.11586  0.62440  Biso   1.000  N
  O141     1.0000 0.40151  0.21431  0.58581  Biso   1.000  O
  C611     1.0000 0.57681  0.10361  0.63643  Biso   1.000  C
  C612     1.0000 0.68098  0.23860  0.64123  Biso   1.000  C
  C613     1.0000 0.68559  0.02890  0.59901  Biso   1.000  C
  C614     1.0000 0.52549  0.81300  0.59881  Biso   1.000  C
  C615     1.0000 0.42319  0.89639  0.63643  Biso   1.000  C
  C616     1.0000 0.31902  0.76140  0.64123  Biso   1.000  C
  O142     1.0000 0.26550  0.03206  0.58653  Biso   1.000  O
  N286     1.0000 0.38273  0.98308  0.62407  Biso   1.000  N
  C617     1.0000 0.40440  0.07203  0.64047  Biso   1.000  C
  C618     1.0000 0.59773  0.12989  0.67694  Biso   1.000  C
  N287     1.0000 0.61727  0.01692  0.62407  Biso   1.000  N
  H701     1.0000 0.68173  0.30217  0.63299  Biso   1.000  H
  H702     1.0000 0.74372  0.21809  0.64550  Biso   1.000  H
  C619     1.0000 0.68552  0.17812  0.67669  Biso   1.000  C
  C620     1.0000 0.62057  0.22587  0.67661  Biso   1.000  C
  O143     1.0000 0.73450  0.96794  0.58653  Biso   1.000  O
  N288     1.0000 0.51751  0.88414  0.62440  Biso   1.000  N
  O144     1.0000 0.59849  0.78569  0.58581  Biso   1.000  O
  C621     1.0000 0.40227  0.87011  0.67694  Biso   1.000  C
  H703     1.0000 0.31827  0.69783  0.63299  Biso   1.000  H
  H704     1.0000 0.25628  0.78191  0.64550  Biso   1.000  H
  C622     1.0000 0.31448  0.82188  0.67669  Biso   1.000  C
  C623     1.0000 0.37943  0.77413  0.67661  Biso   1.000  C
  H705     1.0000 0.35163  0.11221  0.63771  Biso   1.000  H
  H706     1.0000 0.41527  0.06378  0.66701  Biso   1.000  H
  H707     1.0000 0.54448  0.11889  0.69260  Biso   1.000  H
  H708     1.0000 0.64892  0.09391  0.68640  Biso   1.000  H
  C624     1.0000 0.59560  0.92797  0.64047  Biso   1.000  C
  H709     1.0000 0.73643  0.13512  0.67541  Biso   1.000  H
  H710     1.0000 0.69240  0.21569  0.69891  Biso   1.000  H
  H711     1.0000 0.65449  0.24272  0.69891  Biso   1.000  H
  H712     1.0000 0.56553  0.26343  0.67510  Biso   1.000  H
  H713     1.0000 0.45552  0.88111  0.69260  Biso   1.000  H
  H714     1.0000 0.35108  0.90609  0.68640  Biso   1.000  H
  H715     1.0000 0.26357  0.86488  0.67541  Biso   1.000  H
  H716     1.0000 0.30760  0.78431  0.69891  Biso   1.000  H
  H717     1.0000 0.34551  0.75728  0.69891  Biso   1.000  H
  H718     1.0000 0.43447  0.73657  0.67510  Biso   1.000  H
  H719     1.0000 0.64837  0.88779  0.63771  Biso   1.000  H
  H720     1.0000 0.58473  0.93622  0.66701  Biso   1.000  H
