data_image0
_cell_length_a       28.363
_cell_length_b       28.363
_cell_length_c       21.862
_cell_angle_alpha    90
_cell_angle_beta     90
_cell_angle_gamma    90

_symmetry_space_group_name_H-M    "P 1"
_symmetry_int_tables_number       1

loop_
  _symmetry_equiv_pos_as_xyz
  'x, y, z'

loop_
  _atom_site_label
  _atom_site_occupancy
  _atom_site_fract_x
  _atom_site_fract_y
  _atom_site_fract_z
  _atom_site_thermal_displace_type
  _atom_site_B_iso_or_equiv
  _atom_site_type_symbol
  O1       1.0000 0.45598  0.18362  0.62117  Biso   1.000  O
  C1       1.0000 0.47541  0.16335  0.66357  Biso   1.000  C
  C2       1.0000 0.47541  0.16338  0.66357  Biso   1.000  C
  N1       1.0000 0.45482  0.13444  0.70456  Biso   1.000  N
  N2       1.0000 0.52226  0.16719  0.67775  Biso   1.000  N
  N3       1.0000 0.52226  0.16722  0.67775  Biso   1.000  N
  C3       1.0000 0.40415  0.12774  0.70794  Biso   1.000  C
  C4       1.0000 0.48637  0.12037  0.75290  Biso   1.000  C
  C5       1.0000 0.53351  0.14438  0.73539  Biso   1.000  C
  C6       1.0000 0.55230  0.20181  0.64903  Biso   1.000  C
  N4       1.0000 0.38935  0.08053  0.69404  Biso   1.000  N
  N5       1.0000 0.38935  0.08056  0.69404  Biso   1.000  N
  H1       1.0000 0.39340  0.13592  0.74970  Biso   1.000  H
  H2       1.0000 0.38871  0.14970  0.67908  Biso   1.000  H
  N6       1.0000 0.49843  0.07076  0.75387  Biso   1.000  N
  H3       1.0000 0.47481  0.13130  0.79380  Biso   1.000  H
  N7       1.0000 0.56609  0.10528  0.73040  Biso   1.000  N
  H4       1.0000 0.54381  0.16761  0.76708  Biso   1.000  H
  H5       1.0000 0.56641  0.22201  0.68109  Biso   1.000  H
  H6       1.0000 0.53281  0.22219  0.62240  Biso   1.000  H
  N8       1.0000 0.58992  0.18112  0.61275  Biso   1.000  N
  H7       1.0000 0.53281  0.22223  0.62240  Biso   1.000  H
  C7       1.0000 0.35807  0.07101  0.64779  Biso   1.000  C
  C8       1.0000 0.38755  0.04449  0.74078  Biso   1.000  C
  C9       1.0000 0.46959  0.03550  0.78465  Biso   1.000  C
  C10      1.0000 0.54508  0.06318  0.74398  Biso   1.000  C
  C11      1.0000 0.61633  0.11078  0.72692  Biso   1.000  C
  C12      1.0000 0.59306  0.18665  0.55150  Biso   1.000  C
  C13      1.0000 0.63428  0.16659  0.63924  Biso   1.000  C
  N9       1.0000 0.33956  0.02732  0.65703  Biso   1.000  N
  O2       1.0000 0.34834  0.09770  0.60562  Biso   1.000  O
  C14      1.0000 0.35300  0.00751  0.71549  Biso   1.000  C
  N10      1.0000 0.43148  0.01840  0.74783  Biso   1.000  N
  H8       1.0000 0.37641  0.05761  0.78067  Biso   1.000  H
  H9       1.0000 0.48990  0.00860  0.79650  Biso   1.000  H
  H10      1.0000 0.45662  0.04929  0.82257  Biso   1.000  H
  H11      1.0000 0.45662  0.04932  0.82257  Biso   1.000  H
  O3       1.0000 0.56528  0.02500  0.74828  Biso   1.000  O
  H12      1.0000 0.62592  0.13712  0.75387  Biso   1.000  H
  N11      1.0000 0.63354  0.12005  0.66545  Biso   1.000  N
  N12      1.0000 0.63354  0.12009  0.66545  Biso   1.000  N
  H13      1.0000 0.63149  0.08173  0.74248  Biso   1.000  H
  N13      1.0000 0.63703  0.17283  0.53257  Biso   1.000  N
  O4       1.0000 0.56140  0.20104  0.51784  Biso   1.000  O
  O5       1.0000 0.56140  0.20107  0.51784  Biso   1.000  O
  H14      1.0000 0.64651  0.19049  0.66879  Biso   1.000  H
  H15      1.0000 0.64651  0.19053  0.66879  Biso   1.000  H
  C15      1.0000 0.66721  0.16127  0.58316  Biso   1.000  C
  C16      1.0000 0.29768  0.01118  0.62474  Biso   1.000  C
  C17      1.0000 0.29768  0.01121  0.62474  Biso   1.000  C
  N14      1.0000 0.38117  0.96481  0.71187  Biso   1.000  N
  N15      1.0000 0.38117  0.96485  0.71187  Biso   1.000  N
  H16      1.0000 0.32511  0.00331  0.74298  Biso   1.000  H
  C18      1.0000 0.42555  0.97169  0.73415  Biso   1.000  C
  C19      1.0000 0.42555  0.97172  0.73415  Biso   1.000  C
  C20      1.0000 0.66414  0.09015  0.63668  Biso   1.000  C
  C21      1.0000 0.65504  0.18228  0.47159  Biso   1.000  C
  N16      1.0000 0.68149  0.11247  0.58618  Biso   1.000  N
  H17      1.0000 0.69481  0.18302  0.58567  Biso   1.000  H
  N17      1.0000 0.30519  0.96873  0.59071  Biso   1.000  N
  H18      1.0000 0.27212  0.00582  0.65479  Biso   1.000  H
  H19      1.0000 0.28710  0.03631  0.59638  Biso   1.000  H
  C22      1.0000 0.36019  0.91873  0.70712  Biso   1.000  C
  O6       1.0000 0.45581  0.94123  0.74065  Biso   1.000  O
  O7       1.0000 0.67447  0.05010  0.65392  Biso   1.000  O
  N18      1.0000 0.66083  0.14015  0.43532  Biso   1.000  N
  H20      1.0000 0.68589  0.19839  0.47507  Biso   1.000  H
  H21      1.0000 0.68589  0.19843  0.47507  Biso   1.000  H
  H22      1.0000 0.63311  0.20393  0.45028  Biso   1.000  H
  C23      1.0000 0.71949  0.09259  0.54972  Biso   1.000  C
  C24      1.0000 0.29859  0.96707  0.52813  Biso   1.000  C
  C25      1.0000 0.30279  0.92191  0.61797  Biso   1.000  C
  N19      1.0000 0.34665  0.90667  0.64518  Biso   1.000  N
  H23      1.0000 0.33202  0.91739  0.73369  Biso   1.000  H
  H24      1.0000 0.38289  0.89500  0.72230  Biso   1.000  H
  C26      1.0000 0.63407  0.13066  0.38560  Biso   1.000  C
  C27      1.0000 0.70306  0.11131  0.43797  Biso   1.000  C
  N20      1.0000 0.70458  0.07884  0.48911  Biso   1.000  N
  H25      1.0000 0.73240  0.06470  0.57108  Biso   1.000  H
  H26      1.0000 0.74509  0.11610  0.54611  Biso   1.000  H
  O8       1.0000 0.29588  0.00127  0.49451  Biso   1.000  O
  N21      1.0000 0.29546  0.92116  0.51084  Biso   1.000  N
  N22      1.0000 0.29546  0.92120  0.51084  Biso   1.000  N
  C28      1.0000 0.29697  0.88869  0.56203  Biso   1.000  C
  H27      1.0000 0.27582  0.91901  0.64720  Biso   1.000  H
  C29      1.0000 0.36593  0.86934  0.61440  Biso   1.000  C
  N23      1.0000 0.65335  0.09333  0.35477  Biso   1.000  N
  O9       1.0000 0.59888  0.15221  0.36991  Biso   1.000  O
  C30      1.0000 0.69721  0.07809  0.38203  Biso   1.000  C
  C31      1.0000 0.69721  0.07813  0.38203  Biso   1.000  C
  H28      1.0000 0.73240  0.13070  0.43509  Biso   1.000  H
  C32      1.0000 0.70144  0.03293  0.47187  Biso   1.000  C
  C33      1.0000 0.70144  0.03297  0.47187  Biso   1.000  C
  C34      1.0000 0.28051  0.90741  0.45028  Biso   1.000  C
  H29      1.0000 0.26760  0.86930  0.56491  Biso   1.000  H
  N24      1.0000 0.33917  0.85989  0.56468  Biso   1.000  N
  O10      1.0000 0.40112  0.84779  0.63004  Biso   1.000  O
  C35      1.0000 0.63981  0.08127  0.29284  Biso   1.000  C
  N25      1.0000 0.69481  0.03127  0.40929  Biso   1.000  N
  H30      1.0000 0.72422  0.08102  0.35280  Biso   1.000  H
  O11      1.0000 0.70416  0.99873  0.50544  Biso   1.000  O
  H31      1.0000 0.26760  0.93530  0.42887  Biso   1.000  H
  H32      1.0000 0.25491  0.88390  0.45389  Biso   1.000  H
  N26      1.0000 0.31851  0.88756  0.41378  Biso   1.000  N
  C36      1.0000 0.34496  0.81772  0.52841  Biso   1.000  C
  N27      1.0000 0.61883  0.03519  0.28808  Biso   1.000  N
  H33      1.0000 0.66802  0.08261  0.26631  Biso   1.000  H
  H34      1.0000 0.61711  0.10500  0.27770  Biso   1.000  H
  C37      1.0000 0.70232  0.98882  0.37522  Biso   1.000  C
  C38      1.0000 0.33586  0.90985  0.36332  Biso   1.000  C
  C39      1.0000 0.33283  0.83877  0.41684  Biso   1.000  C
  N28      1.0000 0.36301  0.82717  0.46743  Biso   1.000  N
  H35      1.0000 0.31411  0.80161  0.52488  Biso   1.000  H
  H36      1.0000 0.36689  0.79611  0.54968  Biso   1.000  H
  C40      1.0000 0.57445  0.02831  0.26580  Biso   1.000  C
  C41      1.0000 0.64700  0.99249  0.28451  Biso   1.000  C
  C42      1.0000 0.64700  0.99253  0.28451  Biso   1.000  C
  N29      1.0000 0.66044  0.97268  0.34292  Biso   1.000  N
  N30      1.0000 0.66044  0.97271  0.34292  Biso   1.000  N
  H37      1.0000 0.72792  0.99418  0.34521  Biso   1.000  H
  H38      1.0000 0.71290  0.96369  0.40358  Biso   1.000  H
  H39      1.0000 0.72792  0.99422  0.34521  Biso   1.000  H
  H40      1.0000 0.71290  0.96372  0.40358  Biso   1.000  H
  O12      1.0000 0.32553  0.94990  0.34603  Biso   1.000  O
  N31      1.0000 0.36646  0.87995  0.33455  Biso   1.000  N
  O13      1.0000 0.32553  0.94993  0.34603  Biso   1.000  O
  C43      1.0000 0.36576  0.83344  0.36076  Biso   1.000  C
  H41      1.0000 0.30519  0.81702  0.41428  Biso   1.000  H
  C44      1.0000 0.40694  0.81335  0.44845  Biso   1.000  C
  N32      1.0000 0.56852  0.98160  0.25217  Biso   1.000  N
  O14      1.0000 0.54419  0.05877  0.25935  Biso   1.000  O
  C45      1.0000 0.61245  0.95551  0.25922  Biso   1.000  C
  H42      1.0000 0.67489  0.99669  0.25698  Biso   1.000  H
  H43      1.0000 0.67489  0.99672  0.25698  Biso   1.000  H
  C46      1.0000 0.64193  0.92903  0.35216  Biso   1.000  C
  C47      1.0000 0.38367  0.88922  0.27308  Biso   1.000  C
  N33      1.0000 0.41011  0.81892  0.38720  Biso   1.000  N
  H44      1.0000 0.35349  0.80951  0.33121  Biso   1.000  H
  O15      1.0000 0.43860  0.79896  0.48216  Biso   1.000  O
  C48      1.0000 0.53041  0.96453  0.21531  Biso   1.000  C
  N34      1.0000 0.61069  0.91947  0.30596  Biso   1.000  N
  H45      1.0000 0.62359  0.94242  0.21928  Biso   1.000  H
  O16      1.0000 0.65166  0.90234  0.39438  Biso   1.000  O
  N35      1.0000 0.43391  0.89472  0.26955  Biso   1.000  N
  H46      1.0000 0.36851  0.91831  0.25748  Biso   1.000  H
  H47      1.0000 0.37411  0.86292  0.24609  Biso   1.000  H
  C49      1.0000 0.44770  0.79819  0.35093  Biso   1.000  C
  N36      1.0000 0.50157  0.92924  0.24613  Biso   1.000  N
  H48      1.0000 0.51010  0.99140  0.20350  Biso   1.000  H
  H49      1.0000 0.54342  0.95071  0.17739  Biso   1.000  H
  C50      1.0000 0.59585  0.87226  0.29201  Biso   1.000  C
  C51      1.0000 0.45496  0.93682  0.25602  Biso   1.000  C
  C52      1.0000 0.46649  0.85566  0.26457  Biso   1.000  C
  N37      1.0000 0.47774  0.83281  0.32225  Biso   1.000  N
  H50      1.0000 0.46719  0.77781  0.37760  Biso   1.000  H
  H51      1.0000 0.43359  0.77802  0.31891  Biso   1.000  H
  C53      1.0000 0.51366  0.87963  0.24705  Biso   1.000  C
  N38      1.0000 0.54518  0.86556  0.29540  Biso   1.000  N
  H52      1.0000 0.61129  0.85030  0.32088  Biso   1.000  H
  H53      1.0000 0.60660  0.86412  0.25030  Biso   1.000  H
  H54      1.0000 0.45619  0.83242  0.23292  Biso   1.000  H
  O17      1.0000 0.43472  0.97500  0.25167  Biso   1.000  O
  C54      1.0000 0.52459  0.83665  0.33638  Biso   1.000  C
  H55      1.0000 0.52519  0.86870  0.20620  Biso   1.000  H
  O18      1.0000 0.54402  0.81638  0.37879  Biso   1.000  O
  O19      1.0000 0.54402  0.81642  0.37879  Biso   1.000  O
  C55      1.0000 0.36576  0.33343  0.63924  Biso   1.000  C
  C56      1.0000 0.33283  0.33875  0.58316  Biso   1.000  C
  N39      1.0000 0.41011  0.31890  0.61275  Biso   1.000  N
  N40      1.0000 0.36646  0.37993  0.66545  Biso   1.000  N
  H56      1.0000 0.35349  0.30949  0.66879  Biso   1.000  H
  N41      1.0000 0.36301  0.32719  0.53257  Biso   1.000  N
  N42      1.0000 0.31851  0.38755  0.58618  Biso   1.000  N
  H57      1.0000 0.30519  0.31700  0.58567  Biso   1.000  H
  C57      1.0000 0.40694  0.31337  0.55150  Biso   1.000  C
  C58      1.0000 0.44770  0.29821  0.64903  Biso   1.000  C
  C59      1.0000 0.33586  0.40986  0.63668  Biso   1.000  C
  C60      1.0000 0.38367  0.38924  0.72692  Biso   1.000  C
  C61      1.0000 0.34496  0.31774  0.47159  Biso   1.000  C
  C62      1.0000 0.28051  0.40743  0.54972  Biso   1.000  C
  O20      1.0000 0.43860  0.29895  0.51784  Biso   1.000  O
  N43      1.0000 0.47774  0.33279  0.67775  Biso   1.000  N
  H58      1.0000 0.46719  0.27779  0.62240  Biso   1.000  H
  H59      1.0000 0.43359  0.27800  0.68109  Biso   1.000  H
  O21      1.0000 0.32553  0.44992  0.65392  Biso   1.000  O
  N44      1.0000 0.43391  0.39474  0.73040  Biso   1.000  N
  H60      1.0000 0.37411  0.36290  0.75387  Biso   1.000  H
  H61      1.0000 0.36851  0.41829  0.74248  Biso   1.000  H
  N45      1.0000 0.33917  0.35987  0.43532  Biso   1.000  N
  H62      1.0000 0.31411  0.30159  0.47507  Biso   1.000  H
  H63      1.0000 0.36689  0.29609  0.45028  Biso   1.000  H
  N46      1.0000 0.29546  0.42118  0.48911  Biso   1.000  N
  H64      1.0000 0.26760  0.43532  0.57108  Biso   1.000  H
  H65      1.0000 0.25491  0.38392  0.54611  Biso   1.000  H
  C63      1.0000 0.52459  0.33664  0.66357  Biso   1.000  C
  C64      1.0000 0.46649  0.35564  0.73539  Biso   1.000  C
  C65      1.0000 0.45496  0.43684  0.74398  Biso   1.000  C
  C66      1.0000 0.36593  0.36935  0.38560  Biso   1.000  C
  C67      1.0000 0.29697  0.38871  0.43797  Biso   1.000  C
  C68      1.0000 0.29859  0.46705  0.47187  Biso   1.000  C
  O22      1.0000 0.54402  0.31640  0.62117  Biso   1.000  O
  N47      1.0000 0.54518  0.36555  0.70456  Biso   1.000  N
  C69      1.0000 0.51366  0.37965  0.75290  Biso   1.000  C
  H66      1.0000 0.45619  0.33240  0.76708  Biso   1.000  H
  O23      1.0000 0.43472  0.47502  0.74828  Biso   1.000  O
  N48      1.0000 0.50157  0.42926  0.75387  Biso   1.000  N
  O24      1.0000 0.40112  0.34781  0.36991  Biso   1.000  O
  N49      1.0000 0.34665  0.40669  0.35477  Biso   1.000  N
  C70      1.0000 0.30279  0.42189  0.38203  Biso   1.000  C
  H67      1.0000 0.26760  0.36932  0.43509  Biso   1.000  H
  N50      1.0000 0.30519  0.46874  0.40929  Biso   1.000  N
  O25      1.0000 0.29588  0.50129  0.50544  Biso   1.000  O
  C71      1.0000 0.59585  0.37228  0.70794  Biso   1.000  C
  H68      1.0000 0.52519  0.36872  0.79380  Biso   1.000  H
  C72      1.0000 0.53041  0.46451  0.78465  Biso   1.000  C
  C73      1.0000 0.36019  0.41875  0.29284  Biso   1.000  C
  H69      1.0000 0.27582  0.41900  0.35280  Biso   1.000  H
  C74      1.0000 0.29768  0.51119  0.37522  Biso   1.000  C
  N51      1.0000 0.61069  0.41945  0.69404  Biso   1.000  N
  H70      1.0000 0.60660  0.36410  0.74970  Biso   1.000  H
  H71      1.0000 0.61129  0.35032  0.67908  Biso   1.000  H
  N52      1.0000 0.56852  0.48161  0.74783  Biso   1.000  N
  H72      1.0000 0.51010  0.49141  0.79650  Biso   1.000  H
  H73      1.0000 0.54342  0.45069  0.82257  Biso   1.000  H
  N53      1.0000 0.38117  0.46483  0.28808  Biso   1.000  N
  H74      1.0000 0.33202  0.41741  0.26631  Biso   1.000  H
  H75      1.0000 0.38289  0.39502  0.27770  Biso   1.000  H
  N54      1.0000 0.33956  0.52731  0.34292  Biso   1.000  N
  H76      1.0000 0.27212  0.50580  0.34521  Biso   1.000  H
  H77      1.0000 0.28710  0.53630  0.40358  Biso   1.000  H
  C75      1.0000 0.64193  0.42901  0.64779  Biso   1.000  C
  C76      1.0000 0.61245  0.45552  0.74078  Biso   1.000  C
  C77      1.0000 0.57445  0.52829  0.73415  Biso   1.000  C
  C78      1.0000 0.35300  0.50749  0.28451  Biso   1.000  C
  C79      1.0000 0.42555  0.47171  0.26580  Biso   1.000  C
  C80      1.0000 0.35807  0.57099  0.35216  Biso   1.000  C
  O26      1.0000 0.65166  0.40232  0.60562  Biso   1.000  O
  N55      1.0000 0.66044  0.47269  0.65703  Biso   1.000  N
  C81      1.0000 0.64700  0.49251  0.71549  Biso   1.000  C
  H78      1.0000 0.62359  0.44241  0.78067  Biso   1.000  H
  O27      1.0000 0.54419  0.55879  0.74065  Biso   1.000  O
  N56      1.0000 0.61883  0.53517  0.71187  Biso   1.000  N
  H79      1.0000 0.32511  0.50330  0.25698  Biso   1.000  H
  C82      1.0000 0.38755  0.54451  0.25922  Biso   1.000  C
  O28      1.0000 0.45581  0.44124  0.25935  Biso   1.000  O
  N57      1.0000 0.43148  0.51842  0.25217  Biso   1.000  N
  N58      1.0000 0.38935  0.58055  0.30596  Biso   1.000  N
  O29      1.0000 0.34834  0.59768  0.39438  Biso   1.000  O
  C83      1.0000 0.70232  0.48881  0.62474  Biso   1.000  C
  H80      1.0000 0.67489  0.49670  0.74298  Biso   1.000  H
  C84      1.0000 0.63981  0.58129  0.70712  Biso   1.000  C
  H81      1.0000 0.37641  0.55759  0.21928  Biso   1.000  H
  C85      1.0000 0.46959  0.53549  0.21531  Biso   1.000  C
  C86      1.0000 0.40415  0.62775  0.29201  Biso   1.000  C
  N59      1.0000 0.69481  0.53129  0.59071  Biso   1.000  N
  H82      1.0000 0.72792  0.49420  0.65479  Biso   1.000  H
  H83      1.0000 0.71290  0.46370  0.59638  Biso   1.000  H
  N60      1.0000 0.65335  0.59334  0.64518  Biso   1.000  N
  H84      1.0000 0.66802  0.58259  0.73369  Biso   1.000  H
  H85      1.0000 0.61711  0.60501  0.72230  Biso   1.000  H
  N61      1.0000 0.49843  0.57078  0.24613  Biso   1.000  N
  H86      1.0000 0.48990  0.50862  0.20350  Biso   1.000  H
  H87      1.0000 0.45662  0.54931  0.17739  Biso   1.000  H
  N62      1.0000 0.45482  0.63445  0.29540  Biso   1.000  N
  H88      1.0000 0.39340  0.63590  0.25030  Biso   1.000  H
  H89      1.0000 0.38871  0.64972  0.32088  Biso   1.000  H
  C87      1.0000 0.70144  0.53295  0.52813  Biso   1.000  C
  C88      1.0000 0.69721  0.57811  0.61797  Biso   1.000  C
  C89      1.0000 0.63407  0.63068  0.61440  Biso   1.000  C
  C90      1.0000 0.48637  0.62035  0.24705  Biso   1.000  C
  C91      1.0000 0.54508  0.56320  0.25602  Biso   1.000  C
  C92      1.0000 0.47541  0.66336  0.33638  Biso   1.000  C
  N63      1.0000 0.70458  0.57882  0.51084  Biso   1.000  N
  O30      1.0000 0.70416  0.49875  0.49451  Biso   1.000  O
  C93      1.0000 0.70306  0.61129  0.56203  Biso   1.000  C
  H90      1.0000 0.72422  0.58100  0.64720  Biso   1.000  H
  N64      1.0000 0.66083  0.64013  0.56468  Biso   1.000  N
  O31      1.0000 0.59888  0.65222  0.63004  Biso   1.000  O
  C94      1.0000 0.53351  0.64436  0.26457  Biso   1.000  C
  H91      1.0000 0.47481  0.63132  0.20620  Biso   1.000  H
  N65      1.0000 0.56609  0.60526  0.26955  Biso   1.000  N
  O32      1.0000 0.56528  0.52501  0.25167  Biso   1.000  O
  N66      1.0000 0.52226  0.66721  0.32225  Biso   1.000  N
  O33      1.0000 0.45598  0.68360  0.37879  Biso   1.000  O
  C95      1.0000 0.71949  0.59260  0.45028  Biso   1.000  C
  H92      1.0000 0.73240  0.63072  0.56491  Biso   1.000  H
  C96      1.0000 0.65504  0.68230  0.52841  Biso   1.000  C
  H93      1.0000 0.54381  0.66760  0.23292  Biso   1.000  H
  C97      1.0000 0.61633  0.61076  0.27308  Biso   1.000  C
  C98      1.0000 0.55230  0.70183  0.35093  Biso   1.000  C
  N67      1.0000 0.68149  0.61245  0.41378  Biso   1.000  N
  H94      1.0000 0.73240  0.56471  0.42887  Biso   1.000  H
  H95      1.0000 0.74509  0.61612  0.45389  Biso   1.000  H
  N68      1.0000 0.63703  0.67285  0.46743  Biso   1.000  N
  H96      1.0000 0.68589  0.69841  0.52488  Biso   1.000  H
  H97      1.0000 0.63311  0.70391  0.54968  Biso   1.000  H
  N69      1.0000 0.63354  0.62007  0.33455  Biso   1.000  N
  H98      1.0000 0.62592  0.63710  0.24609  Biso   1.000  H
  H99      1.0000 0.63149  0.58171  0.25748  Biso   1.000  H
  N70      1.0000 0.58992  0.68110  0.38720  Biso   1.000  N
  H100     1.0000 0.53281  0.72221  0.37760  Biso   1.000  H
  H101     1.0000 0.56641  0.72200  0.31891  Biso   1.000  H
  C99      1.0000 0.66414  0.59017  0.36332  Biso   1.000  C
  C100     1.0000 0.66721  0.66125  0.41684  Biso   1.000  C
  C101     1.0000 0.59306  0.68667  0.44845  Biso   1.000  C
  C102     1.0000 0.63428  0.66657  0.36076  Biso   1.000  C
  O34      1.0000 0.67447  0.55008  0.34603  Biso   1.000  O
  H102     1.0000 0.69481  0.68300  0.41428  Biso   1.000  H
  O35      1.0000 0.56140  0.70105  0.48216  Biso   1.000  O
  H103     1.0000 0.64651  0.69051  0.33121  Biso   1.000  H
  O36      1.0000 0.30878  0.20580  0.49067  Biso   1.000  O
  C103     1.0000 0.27832  0.17555  0.48417  Biso   1.000  C
  N71      1.0000 0.23160  0.18150  0.49785  Biso   1.000  N
  N72      1.0000 0.28516  0.13116  0.46190  Biso   1.000  N
  C104     1.0000 0.21450  0.21958  0.53467  Biso   1.000  C
  C105     1.0000 0.20551  0.13754  0.49076  Biso   1.000  C
  C106     1.0000 0.33128  0.11021  0.45714  Biso   1.000  C
  C107     1.0000 0.24250  0.10299  0.46547  Biso   1.000  C
  N73      1.0000 0.17925  0.24842  0.50389  Biso   1.000  N
  H104     1.0000 0.24141  0.23989  0.54647  Biso   1.000  H
  H105     1.0000 0.20072  0.20661  0.57259  Biso   1.000  H
  N74      1.0000 0.16945  0.13934  0.44401  Biso   1.000  N
  H106     1.0000 0.19240  0.12640  0.53069  Biso   1.000  H
  N75      1.0000 0.34333  0.09664  0.39521  Biso   1.000  N
  H107     1.0000 0.33262  0.08201  0.48367  Biso   1.000  H
  H108     1.0000 0.35500  0.13288  0.47228  Biso   1.000  H
  N76      1.0000 0.22268  0.08959  0.40705  Biso   1.000  N
  H109     1.0000 0.24669  0.07510  0.49300  Biso   1.000  H
  C108     1.0000 0.18683  0.29507  0.49396  Biso   1.000  C
  C109     1.0000 0.12964  0.23636  0.50293  Biso   1.000  C
  C110     1.0000 0.12227  0.15414  0.45796  Biso   1.000  C
  C111     1.0000 0.17904  0.10806  0.39781  Biso   1.000  C
  C112     1.0000 0.38067  0.11593  0.36442  Biso   1.000  C
  C113     1.0000 0.32810  0.05278  0.36794  Biso   1.000  C
  C114     1.0000 0.23880  0.04767  0.37476  Biso   1.000  C
  N77      1.0000 0.14473  0.31608  0.48042  Biso   1.000  N
  O37      1.0000 0.22501  0.31531  0.49831  Biso   1.000  O
  C115     1.0000 0.10563  0.28350  0.48541  Biso   1.000  C
  N78      1.0000 0.11557  0.20481  0.45458  Biso   1.000  N
  H110     1.0000 0.11871  0.22480  0.54377  Biso   1.000  H
  H111     1.0000 0.11409  0.14339  0.49968  Biso   1.000  H
  H112     1.0000 0.10031  0.13870  0.42910  Biso   1.000  H
  O38      1.0000 0.15231  0.09837  0.35564  Biso   1.000  O
  N79      1.0000 0.39012  0.08917  0.31466  Biso   1.000  N
  O39      1.0000 0.40221  0.15115  0.38007  Biso   1.000  O
  C116     1.0000 0.36132  0.04696  0.31200  Biso   1.000  C
  N80      1.0000 0.28128  0.05518  0.34068  Biso   1.000  N
  H113     1.0000 0.33099  0.02581  0.39717  Biso   1.000  H
  H114     1.0000 0.24419  0.02211  0.40481  Biso   1.000  H
  H115     1.0000 0.21369  0.03709  0.34640  Biso   1.000  H
  C117     1.0000 0.13923  0.36636  0.47690  Biso   1.000  C
  N81      1.0000 0.08278  0.27226  0.42777  Biso   1.000  N
  H116     1.0000 0.08240  0.29380  0.51711  Biso   1.000  H
  C118     1.0000 0.08663  0.22543  0.41359  Biso   1.000  C
  C119     1.0000 0.43229  0.09498  0.27838  Biso   1.000  C
  N82      1.0000 0.32881  0.04545  0.26086  Biso   1.000  N
  H117     1.0000 0.38071  0.01759  0.31488  Biso   1.000  H
  C120     1.0000 0.28294  0.04858  0.27811  Biso   1.000  C
  N83      1.0000 0.12996  0.38353  0.41547  Biso   1.000  N
  H118     1.0000 0.11289  0.37591  0.50389  Biso   1.000  H
  H119     1.0000 0.16832  0.38152  0.49250  Biso   1.000  H
  C121     1.0000 0.04820  0.30230  0.39905  Biso   1.000  C
  O40      1.0000 0.06639  0.20601  0.37119  Biso   1.000  O
  N84      1.0000 0.42284  0.11300  0.21741  Biso   1.000  N
  H120     1.0000 0.44840  0.06410  0.27491  Biso   1.000  H
  H121     1.0000 0.45390  0.11691  0.29970  Biso   1.000  H
  C122     1.0000 0.34259  0.03050  0.20030  Biso   1.000  C
  O41      1.0000 0.24874  0.04587  0.24453  Biso   1.000  O
  C123     1.0000 0.15986  0.41413  0.38665  Biso   1.000  C
  C124     1.0000 0.08342  0.38427  0.38921  Biso   1.000  C
  N85      1.0000 0.06893  0.33991  0.36278  Biso   1.000  N
  H122     1.0000 0.02778  0.28280  0.37238  Biso   1.000  H
  H123     1.0000 0.02799  0.31640  0.43111  Biso   1.000  H
  C125     1.0000 0.43666  0.15697  0.19847  Biso   1.000  C
  C126     1.0000 0.41124  0.08282  0.16682  Biso   1.000  C
  N86      1.0000 0.36248  0.06850  0.16380  Biso   1.000  N
  H124     1.0000 0.31471  0.01759  0.17889  Biso   1.000  H
  H125     1.0000 0.36611  0.00490  0.20392  Biso   1.000  H
  N87      1.0000 0.13754  0.43148  0.33620  Biso   1.000  N
  O42      1.0000 0.19991  0.42446  0.40394  Biso   1.000  O
  C127     1.0000 0.08878  0.41720  0.33314  Biso   1.000  C
  H126     1.0000 0.05951  0.39650  0.41881  Biso   1.000  H
  C128     1.0000 0.06336  0.34305  0.30153  Biso   1.000  C
  N88      1.0000 0.43109  0.16010  0.13722  Biso   1.000  N
  O43      1.0000 0.45105  0.18859  0.23214  Biso   1.000  O
  C129     1.0000 0.41656  0.11575  0.11079  Biso   1.000  C
  H127     1.0000 0.43299  0.05521  0.16430  Biso   1.000  H
  C130     1.0000 0.34016  0.08589  0.11330  Biso   1.000  C
  C131     1.0000 0.15742  0.46948  0.29970  Biso   1.000  C
  N89      1.0000 0.07718  0.38702  0.28255  Biso   1.000  N
  H128     1.0000 0.06699  0.44480  0.33570  Biso   1.000  H
  O44      1.0000 0.04894  0.31139  0.26786  Biso   1.000  O
  C132     1.0000 0.45182  0.19769  0.10095  Biso   1.000  C
  N90      1.0000 0.37006  0.11645  0.08453  Biso   1.000  N
  H129     1.0000 0.44050  0.10352  0.08119  Biso   1.000  H
  O45      1.0000 0.30011  0.07556  0.09606  Biso   1.000  O
  N91      1.0000 0.17117  0.45457  0.23914  Biso   1.000  N
  H130     1.0000 0.18531  0.48239  0.32111  Biso   1.000  H
  H131     1.0000 0.13391  0.49512  0.29608  Biso   1.000  H
  C133     1.0000 0.06773  0.40503  0.22162  Biso   1.000  C
  N92      1.0000 0.41720  0.22773  0.07223  Biso   1.000  N
  H132     1.0000 0.47220  0.21722  0.12762  Biso   1.000  H
  H133     1.0000 0.47199  0.18362  0.06889  Biso   1.000  H
  C134     1.0000 0.36079  0.13366  0.02310  Biso   1.000  C
  C135     1.0000 0.21708  0.45143  0.22189  Biso   1.000  C
  C136     1.0000 0.13870  0.45306  0.18800  Biso   1.000  C
  N93      1.0000 0.10986  0.41082  0.18530  Biso   1.000  N
  H134     1.0000 0.05162  0.43592  0.22509  Biso   1.000  H
  H135     1.0000 0.04612  0.38310  0.20030  Biso   1.000  H
  C137     1.0000 0.41336  0.27458  0.08641  Biso   1.000  C
  C138     1.0000 0.39435  0.21648  0.01459  Biso   1.000  C
  N94      1.0000 0.35529  0.18394  0.01958  Biso   1.000  N
  H136     1.0000 0.33170  0.11850  0.00750  Biso   1.000  H
  H137     1.0000 0.38709  0.12411  0.99611  Biso   1.000  H
  N95      1.0000 0.21874  0.44484  0.15932  Biso   1.000  N
  O46      1.0000 0.25128  0.45415  0.25547  Biso   1.000  O
  C139     1.0000 0.17188  0.44720  0.13201  Biso   1.000  C
  H138     1.0000 0.11931  0.48239  0.18512  Biso   1.000  H
  C140     1.0000 0.11935  0.38406  0.13558  Biso   1.000  C
  N96      1.0000 0.38444  0.29521  0.04542  Biso   1.000  N
  O47      1.0000 0.43359  0.29401  0.12881  Biso   1.000  O
  C141     1.0000 0.37038  0.26365  0.99707  Biso   1.000  C
  H139     1.0000 0.41762  0.20622  0.98289  Biso   1.000  H
  C142     1.0000 0.31319  0.20495  0.00604  Biso   1.000  C
  C143     1.0000 0.26119  0.45231  0.12524  Biso   1.000  C
  N97      1.0000 0.15668  0.40334  0.10479  Biso   1.000  N
  H140     1.0000 0.16899  0.47421  0.10278  Biso   1.000  H
  O48      1.0000 0.09780  0.34887  0.11993  Biso   1.000  O
  C144     1.0000 0.37775  0.34584  0.04204  Biso   1.000  C
  N98      1.0000 0.32077  0.25160  0.99611  Biso   1.000  N
  H141     1.0000 0.38131  0.27522  0.95618  Biso   1.000  H
  O49      1.0000 0.27501  0.18471  0.00169  Biso   1.000  O
  N99      1.0000 0.27730  0.41043  0.09295  Biso   1.000  N
  H142     1.0000 0.25579  0.47791  0.09519  Biso   1.000  H
  H143     1.0000 0.28629  0.46289  0.15360  Biso   1.000  H
  C145     1.0000 0.16874  0.38980  0.04286  Biso   1.000  C
  N100     1.0000 0.33054  0.36068  0.05599  Biso   1.000  N
  H144     1.0000 0.38589  0.35659  0.00032  Biso   1.000  H
  H145     1.0000 0.39971  0.36132  0.07090  Biso   1.000  H
  C146     1.0000 0.28548  0.28040  0.96533  Biso   1.000  C
  C147     1.0000 0.32098  0.39192  0.10219  Biso   1.000  C
  C148     1.0000 0.25752  0.39703  0.03449  Biso   1.000  C
  N101     1.0000 0.21482  0.36886  0.03810  Biso   1.000  N
  H146     1.0000 0.16740  0.41801  0.01628  Biso   1.000  H
  H147     1.0000 0.14501  0.36710  0.02772  Biso   1.000  H
  C149     1.0000 0.29450  0.36248  0.00924  Biso   1.000  C
  N102     1.0000 0.26841  0.31851  0.00215  Biso   1.000  N
  H148     1.0000 0.25861  0.26009  0.95348  Biso   1.000  H
  H149     1.0000 0.29930  0.29341  0.92741  Biso   1.000  H
  O50      1.0000 0.34767  0.40165  0.14436  Biso   1.000  O
  H150     1.0000 0.25329  0.42492  0.00700  Biso   1.000  H
  C150     1.0000 0.22170  0.32444  0.01583  Biso   1.000  C
  H151     1.0000 0.30762  0.37362  0.96931  Biso   1.000  H
  O51      1.0000 0.19124  0.29419  0.00933  Biso   1.000  O
  C151     1.0000 0.11635  0.11078  0.77308  Biso   1.000  C
  H152     1.0000 0.12590  0.13712  0.74609  Biso   1.000  H
  H153     1.0000 0.13151  0.08173  0.75752  Biso   1.000  H
  H154     1.0000 0.13151  0.08173  0.75748  Biso   1.000  H
  N103     1.0000 0.13355  0.12005  0.83455  Biso   1.000  N
  N104     1.0000 0.06611  0.10528  0.76955  Biso   1.000  N
  N105     1.0000 0.13355  0.12005  0.83451  Biso   1.000  N
  N106     1.0000 0.13355  0.12009  0.83455  Biso   1.000  N
  N107     1.0000 0.13355  0.12009  0.83451  Biso   1.000  N
  C152     1.0000 0.04506  0.06318  0.75602  Biso   1.000  C
  C153     1.0000 0.03349  0.14438  0.76457  Biso   1.000  C
  C154     1.0000 0.03353  0.14438  0.76457  Biso   1.000  C
  C155     1.0000 0.13426  0.16659  0.86076  Biso   1.000  C
  C156     1.0000 0.16416  0.09015  0.86332  Biso   1.000  C
  O52      1.0000 0.06530  0.02500  0.75167  Biso   1.000  O
  N108     1.0000 0.99841  0.07076  0.74613  Biso   1.000  N
  N109     1.0000 0.99841  0.07076  0.74609  Biso   1.000  N
  C157     1.0000 0.98636  0.12037  0.74705  Biso   1.000  C
  H155     1.0000 0.04379  0.16761  0.73292  Biso   1.000  H
  N110     1.0000 0.02225  0.16719  0.82220  Biso   1.000  N
  H156     1.0000 0.04379  0.16761  0.73287  Biso   1.000  H
  N111     1.0000 0.02225  0.16722  0.82220  Biso   1.000  N
  H157     1.0000 0.04382  0.16761  0.73292  Biso   1.000  H
  N112     1.0000 0.02228  0.16719  0.82220  Biso   1.000  N
  H158     1.0000 0.04382  0.16761  0.73287  Biso   1.000  H
  N113     1.0000 0.02228  0.16722  0.82220  Biso   1.000  N
  N114     1.0000 0.08991  0.18112  0.88720  Biso   1.000  N
  C158     1.0000 0.16719  0.16127  0.91684  Biso   1.000  C
  H159     1.0000 0.14653  0.19049  0.83121  Biso   1.000  H
  H160     1.0000 0.14653  0.19049  0.83117  Biso   1.000  H
  H161     1.0000 0.14653  0.19053  0.83121  Biso   1.000  H
  H162     1.0000 0.14653  0.19053  0.83117  Biso   1.000  H
  N115     1.0000 0.18150  0.11247  0.91378  Biso   1.000  N
  O53      1.0000 0.17449  0.05010  0.84608  Biso   1.000  O
  O54      1.0000 0.17449  0.05010  0.84603  Biso   1.000  O
  C159     1.0000 0.96957  0.03550  0.71531  Biso   1.000  C
  C160     1.0000 0.96961  0.03550  0.71531  Biso   1.000  C
  N116     1.0000 0.95480  0.13444  0.79544  Biso   1.000  N
  H163     1.0000 0.97479  0.13130  0.70620  Biso   1.000  H
  N117     1.0000 0.95480  0.13444  0.79540  Biso   1.000  N
  N118     1.0000 0.95484  0.13444  0.79544  Biso   1.000  N
  H164     1.0000 0.97483  0.13130  0.70620  Biso   1.000  H
  N119     1.0000 0.95484  0.13444  0.79540  Biso   1.000  N
  C161     1.0000 0.97543  0.16335  0.83638  Biso   1.000  C
  C162     1.0000 0.97543  0.16338  0.83638  Biso   1.000  C
  C163     1.0000 0.05232  0.20181  0.85093  Biso   1.000  C
  C164     1.0000 0.09304  0.18665  0.94850  Biso   1.000  C
  C165     1.0000 0.09304  0.18665  0.94845  Biso   1.000  C
  C166     1.0000 0.09308  0.18665  0.94850  Biso   1.000  C
  C167     1.0000 0.09308  0.18665  0.94845  Biso   1.000  C
  N120     1.0000 0.13701  0.17283  0.96743  Biso   1.000  N
  H165     1.0000 0.19480  0.18302  0.91428  Biso   1.000  H
  C168     1.0000 0.21948  0.09259  0.95028  Biso   1.000  C
  C169     1.0000 0.21951  0.09259  0.95028  Biso   1.000  C
  H166     1.0000 0.98992  0.00860  0.70350  Biso   1.000  H
  H167     1.0000 0.95660  0.04929  0.67739  Biso   1.000  H
  N121     1.0000 0.93150  0.01840  0.75213  Biso   1.000  N
  H168     1.0000 0.95660  0.04932  0.67739  Biso   1.000  H
  C170     1.0000 0.90417  0.12774  0.79201  Biso   1.000  C
  O55      1.0000 0.95600  0.18362  0.87879  Biso   1.000  O
  H169     1.0000 0.03279  0.22219  0.87760  Biso   1.000  H
  H170     1.0000 0.03279  0.22223  0.87760  Biso   1.000  H
  H171     1.0000 0.03282  0.22219  0.87760  Biso   1.000  H
  H172     1.0000 0.06642  0.22201  0.81886  Biso   1.000  H
  H173     1.0000 0.03282  0.22223  0.87760  Biso   1.000  H
  O56      1.0000 0.06142  0.20104  0.98216  Biso   1.000  O
  O57      1.0000 0.06142  0.20104  0.98212  Biso   1.000  O
  O58      1.0000 0.06142  0.20107  0.98216  Biso   1.000  O
  O59      1.0000 0.06142  0.20107  0.98212  Biso   1.000  O
  C171     1.0000 0.15503  0.18228  0.02841  Biso   1.000  C
  C172     1.0000 0.15503  0.18228  0.02836  Biso   1.000  C
  H174     1.0000 0.24511  0.11610  0.95389  Biso   1.000  H
  H175     1.0000 0.23242  0.06470  0.92892  Biso   1.000  H
  H176     1.0000 0.23242  0.06470  0.92887  Biso   1.000  H
  N122     1.0000 0.20456  0.07884  0.01089  Biso   1.000  N
  N123     1.0000 0.20456  0.07884  0.01084  Biso   1.000  N
  C173     1.0000 0.92557  0.97169  0.76580  Biso   1.000  C
  C174     1.0000 0.92557  0.97172  0.76580  Biso   1.000  C
  C175     1.0000 0.88756  0.04449  0.75922  Biso   1.000  C
  N124     1.0000 0.88933  0.08053  0.80596  Biso   1.000  N
  H177     1.0000 0.88869  0.14970  0.82088  Biso   1.000  H
  N125     1.0000 0.88933  0.08056  0.80596  Biso   1.000  N
  H178     1.0000 0.89342  0.13592  0.75030  Biso   1.000  H
  N126     1.0000 0.16084  0.14015  0.06468  Biso   1.000  N
  H179     1.0000 0.18591  0.19839  0.02488  Biso   1.000  H
  H180     1.0000 0.18591  0.19843  0.02488  Biso   1.000  H
  H181     1.0000 0.13310  0.20393  0.04972  Biso   1.000  H
  H182     1.0000 0.13310  0.20393  0.04968  Biso   1.000  H
  C176     1.0000 0.20305  0.11131  0.06203  Biso   1.000  C
  C177     1.0000 0.20142  0.03293  0.02813  Biso   1.000  C
  C178     1.0000 0.20305  0.11131  0.06198  Biso   1.000  C
  C179     1.0000 0.20142  0.03293  0.02809  Biso   1.000  C
  C180     1.0000 0.20142  0.03297  0.02813  Biso   1.000  C
  C181     1.0000 0.20142  0.03297  0.02809  Biso   1.000  C
  O60      1.0000 0.95582  0.94123  0.75931  Biso   1.000  O
  N127     1.0000 0.88118  0.96481  0.78808  Biso   1.000  N
  N128     1.0000 0.88118  0.96485  0.78808  Biso   1.000  N
  C182     1.0000 0.85298  0.00751  0.78451  Biso   1.000  C
  C183     1.0000 0.85301  0.00751  0.78451  Biso   1.000  C
  H183     1.0000 0.87642  0.05761  0.71928  Biso   1.000  H
  C184     1.0000 0.85809  0.07101  0.85216  Biso   1.000  C
  C185     1.0000 0.13408  0.13066  0.11440  Biso   1.000  C
  C186     1.0000 0.19723  0.07809  0.11797  Biso   1.000  C
  H184     1.0000 0.23242  0.13070  0.06486  Biso   1.000  H
  C187     1.0000 0.19723  0.07813  0.11797  Biso   1.000  C
  O61      1.0000 0.20414  0.99873  0.99451  Biso   1.000  O
  N129     1.0000 0.19483  0.03127  0.09066  Biso   1.000  N
  C188     1.0000 0.86021  0.91873  0.79288  Biso   1.000  C
  C189     1.0000 0.86021  0.91873  0.79284  Biso   1.000  C
  H185     1.0000 0.82509  0.00331  0.75702  Biso   1.000  H
  N130     1.0000 0.83958  0.02732  0.84292  Biso   1.000  N
  H186     1.0000 0.82509  0.00331  0.75698  Biso   1.000  H
  H187     1.0000 0.82512  0.00331  0.75702  Biso   1.000  H
  H188     1.0000 0.82512  0.00331  0.75698  Biso   1.000  H
  O62      1.0000 0.84836  0.09770  0.89438  Biso   1.000  O
  O63      1.0000 0.84836  0.09770  0.89434  Biso   1.000  O
  O64      1.0000 0.09886  0.15221  0.13004  Biso   1.000  O
  N131     1.0000 0.15337  0.09333  0.14518  Biso   1.000  N
  O65      1.0000 0.09890  0.15221  0.13004  Biso   1.000  O
  H189     1.0000 0.22420  0.08102  0.14720  Biso   1.000  H
  C190     1.0000 0.20234  0.98882  0.12478  Biso   1.000  C
  C191     1.0000 0.20234  0.98882  0.12474  Biso   1.000  C
  H190     1.0000 0.83200  0.91739  0.76631  Biso   1.000  H
  H191     1.0000 0.88291  0.89500  0.77770  Biso   1.000  H
  N132     1.0000 0.84667  0.90667  0.85477  Biso   1.000  N
  C192     1.0000 0.79769  0.01118  0.87522  Biso   1.000  C
  C193     1.0000 0.79769  0.01121  0.87522  Biso   1.000  C
  C194     1.0000 0.13979  0.08127  0.20712  Biso   1.000  C
  N133     1.0000 0.16042  0.97268  0.15703  Biso   1.000  N
  H192     1.0000 0.22790  0.99418  0.15479  Biso   1.000  H
  H193     1.0000 0.21292  0.96369  0.09638  Biso   1.000  H
  N134     1.0000 0.16042  0.97271  0.15703  Biso   1.000  N
  H194     1.0000 0.22790  0.99422  0.15479  Biso   1.000  H
  H195     1.0000 0.21292  0.96372  0.09638  Biso   1.000  H
  N135     1.0000 0.16046  0.97268  0.15703  Biso   1.000  N
  N136     1.0000 0.16046  0.97271  0.15703  Biso   1.000  N
  C195     1.0000 0.80277  0.92191  0.88203  Biso   1.000  C
  C196     1.0000 0.86595  0.86934  0.88560  Biso   1.000  C
  C197     1.0000 0.86595  0.86934  0.88555  Biso   1.000  C
  C198     1.0000 0.80281  0.92191  0.88203  Biso   1.000  C
  N137     1.0000 0.80520  0.96873  0.90929  Biso   1.000  N
  H196     1.0000 0.77210  0.00582  0.84521  Biso   1.000  H
  H197     1.0000 0.77210  0.00582  0.84517  Biso   1.000  H
  H198     1.0000 0.78712  0.03631  0.90358  Biso   1.000  H
  N138     1.0000 0.11885  0.03519  0.21192  Biso   1.000  N
  H199     1.0000 0.16800  0.08261  0.23369  Biso   1.000  H
  N139     1.0000 0.11885  0.03519  0.21187  Biso   1.000  N
  H200     1.0000 0.11712  0.10500  0.22230  Biso   1.000  H
  H201     1.0000 0.11712  0.10500  0.22226  Biso   1.000  H
  C199     1.0000 0.14702  0.99249  0.21549  Biso   1.000  C
  C200     1.0000 0.14195  0.92903  0.14784  Biso   1.000  C
  C201     1.0000 0.14195  0.92903  0.14779  Biso   1.000  C
  C202     1.0000 0.14702  0.99253  0.21549  Biso   1.000  C
  C203     1.0000 0.79695  0.88869  0.93797  Biso   1.000  C
  H202     1.0000 0.77580  0.91901  0.85280  Biso   1.000  H
  O66      1.0000 0.90114  0.84779  0.86991  Biso   1.000  O
  N140     1.0000 0.83916  0.85989  0.93532  Biso   1.000  N
  N141     1.0000 0.83919  0.85989  0.93532  Biso   1.000  N
  C204     1.0000 0.79858  0.96707  0.97187  Biso   1.000  C
  C205     1.0000 0.07446  0.02831  0.23415  Biso   1.000  C
  H203     1.0000 0.17491  0.99669  0.24298  Biso   1.000  H
  C206     1.0000 0.11247  0.95551  0.24078  Biso   1.000  C
  C207     1.0000 0.11247  0.95551  0.24074  Biso   1.000  C
  H204     1.0000 0.17491  0.99672  0.24298  Biso   1.000  H
  N142     1.0000 0.11067  0.91947  0.19399  Biso   1.000  N
  O67      1.0000 0.15168  0.90234  0.10562  Biso   1.000  O
  N143     1.0000 0.79544  0.92116  0.98911  Biso   1.000  N
  N144     1.0000 0.79544  0.92120  0.98911  Biso   1.000  N
  H205     1.0000 0.76762  0.86930  0.93509  Biso   1.000  H
  C208     1.0000 0.84497  0.81772  0.97159  Biso   1.000  C
  O68      1.0000 0.79586  0.00127  0.00544  Biso   1.000  O
  N145     1.0000 0.06850  0.98160  0.24783  Biso   1.000  N
  O69      1.0000 0.04418  0.05877  0.24065  Biso   1.000  O
  O70      1.0000 0.04421  0.05877  0.24065  Biso   1.000  O
  H206     1.0000 0.12361  0.94242  0.28067  Biso   1.000  H
  C209     1.0000 0.09586  0.87226  0.20794  Biso   1.000  C
  C210     1.0000 0.78052  0.90741  0.04972  Biso   1.000  C
  C211     1.0000 0.78052  0.90741  0.04968  Biso   1.000  C
  H207     1.0000 0.86690  0.79611  0.95028  Biso   1.000  H
  H208     1.0000 0.81412  0.80161  0.97512  Biso   1.000  H
  H209     1.0000 0.81412  0.80161  0.97507  Biso   1.000  H
  N146     1.0000 0.86299  0.82717  0.03257  Biso   1.000  N
  C212     1.0000 0.03043  0.96453  0.28465  Biso   1.000  C
  N147     1.0000 0.04520  0.86556  0.20456  Biso   1.000  N
  H210     1.0000 0.11131  0.85030  0.17908  Biso   1.000  H
  H211     1.0000 0.10662  0.86412  0.24970  Biso   1.000  H
  H212     1.0000 0.10662  0.86412  0.24966  Biso   1.000  H
  H213     1.0000 0.75489  0.88390  0.04611  Biso   1.000  H
  H214     1.0000 0.75489  0.88390  0.04606  Biso   1.000  H
  H215     1.0000 0.76762  0.93530  0.07108  Biso   1.000  H
  N148     1.0000 0.81853  0.88756  0.08622  Biso   1.000  N
  N149     1.0000 0.81853  0.88756  0.08618  Biso   1.000  N
  C213     1.0000 0.83281  0.83877  0.08316  Biso   1.000  C
  C214     1.0000 0.90696  0.81335  0.05150  Biso   1.000  C
  N150     1.0000 0.00159  0.92924  0.25387  Biso   1.000  N
  H216     1.0000 0.01008  0.99140  0.29650  Biso   1.000  H
  H217     1.0000 0.04340  0.95071  0.32257  Biso   1.000  H
  H218     1.0000 0.01012  0.99140  0.29650  Biso   1.000  H
  C215     1.0000 0.01364  0.87963  0.25290  Biso   1.000  C
  C216     1.0000 0.02457  0.83665  0.16362  Biso   1.000  C
  C217     1.0000 0.02457  0.83665  0.16357  Biso   1.000  C
  C218     1.0000 0.83588  0.90985  0.13668  Biso   1.000  C
  H219     1.0000 0.80520  0.81702  0.08572  Biso   1.000  H
  C219     1.0000 0.86574  0.83344  0.13919  Biso   1.000  C
  H220     1.0000 0.80520  0.81702  0.08567  Biso   1.000  H
  N151     1.0000 0.91009  0.81892  0.11275  Biso   1.000  N
  O71      1.0000 0.93862  0.79896  0.01784  Biso   1.000  O
  C220     1.0000 0.95494  0.93682  0.24398  Biso   1.000  C
  C221     1.0000 0.95494  0.93682  0.24394  Biso   1.000  C
  C222     1.0000 0.96651  0.85566  0.23543  Biso   1.000  C
  C223     1.0000 0.96651  0.85566  0.23539  Biso   1.000  C
  H221     1.0000 0.02521  0.86870  0.29380  Biso   1.000  H
  N152     1.0000 0.97775  0.83281  0.17775  Biso   1.000  N
  O72      1.0000 0.04400  0.81638  0.12121  Biso   1.000  O
  O73      1.0000 0.04400  0.81638  0.12117  Biso   1.000  O
  O74      1.0000 0.04400  0.81642  0.12121  Biso   1.000  O
  O75      1.0000 0.04400  0.81642  0.12117  Biso   1.000  O
  O76      1.0000 0.04404  0.81638  0.12121  Biso   1.000  O
  O77      1.0000 0.04404  0.81638  0.12117  Biso   1.000  O
  O78      1.0000 0.04404  0.81642  0.12121  Biso   1.000  O
  O79      1.0000 0.04404  0.81642  0.12117  Biso   1.000  O
  O80      1.0000 0.82555  0.94990  0.15392  Biso   1.000  O
  N153     1.0000 0.86648  0.87995  0.16545  Biso   1.000  N
  O81      1.0000 0.82555  0.94993  0.15392  Biso   1.000  O
  H222     1.0000 0.85351  0.80951  0.16879  Biso   1.000  H
  C224     1.0000 0.94771  0.79819  0.14903  Biso   1.000  C
  O82      1.0000 0.93470  0.97500  0.24833  Biso   1.000  O
  N154     1.0000 0.93393  0.89472  0.23040  Biso   1.000  N
  O83      1.0000 0.93470  0.97500  0.24828  Biso   1.000  O
  H223     1.0000 0.95621  0.83242  0.26708  Biso   1.000  H
  C225     1.0000 0.88369  0.88922  0.22692  Biso   1.000  C
  C226     1.0000 0.88369  0.88922  0.22688  Biso   1.000  C
  H224     1.0000 0.96721  0.77781  0.12240  Biso   1.000  H
  H225     1.0000 0.96721  0.77781  0.12236  Biso   1.000  H
  H226     1.0000 0.93361  0.77802  0.18109  Biso   1.000  H
  H227     1.0000 0.87410  0.86292  0.25391  Biso   1.000  H
  H228     1.0000 0.87410  0.86292  0.25387  Biso   1.000  H
  H229     1.0000 0.86853  0.91831  0.24248  Biso   1.000  H
  C227     1.0000 0.36132  0.54698  0.68795  Biso   1.000  C
  C228     1.0000 0.32810  0.55280  0.63201  Biso   1.000  C
  N155     1.0000 0.32881  0.54543  0.73914  Biso   1.000  N
  N156     1.0000 0.39012  0.58918  0.68530  Biso   1.000  N
  H230     1.0000 0.38071  0.51761  0.68507  Biso   1.000  H
  N157     1.0000 0.28128  0.55520  0.65927  Biso   1.000  N
  N158     1.0000 0.34333  0.59666  0.60479  Biso   1.000  N
  H231     1.0000 0.33099  0.52579  0.60278  Biso   1.000  H
  C229     1.0000 0.28294  0.54860  0.72185  Biso   1.000  C
  C230     1.0000 0.34259  0.53052  0.79970  Biso   1.000  C
  C231     1.0000 0.38067  0.61594  0.63558  Biso   1.000  C
  C232     1.0000 0.43229  0.59497  0.72157  Biso   1.000  C
  C233     1.0000 0.23880  0.54769  0.62524  Biso   1.000  C
  C234     1.0000 0.33128  0.61020  0.54286  Biso   1.000  C
  O84      1.0000 0.24874  0.54585  0.75547  Biso   1.000  O
  N159     1.0000 0.36248  0.56852  0.83620  Biso   1.000  N
  H232     1.0000 0.31471  0.51761  0.82111  Biso   1.000  H
  H233     1.0000 0.36611  0.50492  0.79608  Biso   1.000  H
  O85      1.0000 0.40221  0.65113  0.61993  Biso   1.000  O
  N160     1.0000 0.42284  0.61298  0.78255  Biso   1.000  N
  H234     1.0000 0.44840  0.56412  0.72509  Biso   1.000  H
  H235     1.0000 0.45390  0.61690  0.70030  Biso   1.000  H
  N161     1.0000 0.22268  0.58957  0.59295  Biso   1.000  N
  H236     1.0000 0.24419  0.52209  0.59519  Biso   1.000  H
  H237     1.0000 0.21369  0.53711  0.65360  Biso   1.000  H
  N162     1.0000 0.28516  0.63117  0.53810  Biso   1.000  N
  H238     1.0000 0.33262  0.58199  0.51628  Biso   1.000  H
  H239     1.0000 0.35500  0.63290  0.52767  Biso   1.000  H
  C235     1.0000 0.34016  0.58587  0.88665  Biso   1.000  C
  C236     1.0000 0.41124  0.58280  0.83314  Biso   1.000  C
  C237     1.0000 0.43666  0.65695  0.80153  Biso   1.000  C
  C238     1.0000 0.24250  0.60300  0.53449  Biso   1.000  C
  C239     1.0000 0.17904  0.60808  0.60219  Biso   1.000  C
  C240     1.0000 0.27832  0.67556  0.51583  Biso   1.000  C
  O86      1.0000 0.30011  0.57554  0.90394  Biso   1.000  O
  N163     1.0000 0.37006  0.61647  0.91542  Biso   1.000  N
  C241     1.0000 0.41656  0.61573  0.88921  Biso   1.000  C
  H240     1.0000 0.43299  0.55520  0.83570  Biso   1.000  H
  N164     1.0000 0.43109  0.66012  0.86278  Biso   1.000  N
  O87      1.0000 0.45105  0.68861  0.76782  Biso   1.000  O
  H241     1.0000 0.24669  0.57512  0.50700  Biso   1.000  H
  C242     1.0000 0.20551  0.63756  0.50919  Biso   1.000  C
  O88      1.0000 0.15231  0.59835  0.64436  Biso   1.000  O
  N165     1.0000 0.16945  0.63935  0.55594  Biso   1.000  N
  N166     1.0000 0.23160  0.68149  0.50215  Biso   1.000  N
  O89      1.0000 0.30878  0.70581  0.50933  Biso   1.000  O
  C243     1.0000 0.36079  0.63368  0.97690  Biso   1.000  C
  H242     1.0000 0.44050  0.60350  0.91876  Biso   1.000  H
  C244     1.0000 0.45182  0.69770  0.89905  Biso   1.000  C
  H243     1.0000 0.19240  0.62641  0.46931  Biso   1.000  H
  C245     1.0000 0.12227  0.65416  0.54204  Biso   1.000  C
  C246     1.0000 0.21450  0.71960  0.46533  Biso   1.000  C
  N167     1.0000 0.35529  0.68392  0.98042  Biso   1.000  N
  H244     1.0000 0.33170  0.61852  0.99250  Biso   1.000  H
  H245     1.0000 0.38709  0.62412  0.00389  Biso   1.000  H
  N168     1.0000 0.41720  0.72774  0.92773  Biso   1.000  N
  H246     1.0000 0.47220  0.71720  0.87238  Biso   1.000  H
  H247     1.0000 0.47199  0.68360  0.93107  Biso   1.000  H
  N169     1.0000 0.11557  0.70483  0.54542  Biso   1.000  N
  H248     1.0000 0.11409  0.64341  0.50027  Biso   1.000  H
  H249     1.0000 0.10031  0.63872  0.57090  Biso   1.000  H
  N170     1.0000 0.17925  0.74844  0.49611  Biso   1.000  N
  H250     1.0000 0.24141  0.73991  0.45348  Biso   1.000  H
  H251     1.0000 0.20072  0.70662  0.42741  Biso   1.000  H
  C247     1.0000 0.31319  0.70493  0.99396  Biso   1.000  C
  C248     1.0000 0.39435  0.71650  0.98541  Biso   1.000  C
  C249     1.0000 0.41336  0.77460  0.91359  Biso   1.000  C
  C250     1.0000 0.12964  0.73638  0.49707  Biso   1.000  C
  C251     1.0000 0.08663  0.72542  0.58641  Biso   1.000  C
  C252     1.0000 0.18683  0.79509  0.50599  Biso   1.000  C
  O90      1.0000 0.27501  0.68473  0.99831  Biso   1.000  O
  N171     1.0000 0.32077  0.75158  0.00384  Biso   1.000  N
  C253     1.0000 0.37038  0.76364  0.00293  Biso   1.000  C
  H252     1.0000 0.41762  0.70620  0.01706  Biso   1.000  H
  N172     1.0000 0.38444  0.79519  0.95458  Biso   1.000  N
  O91      1.0000 0.43359  0.79403  0.87119  Biso   1.000  O
  C254     1.0000 0.10563  0.78352  0.51459  Biso   1.000  C
  H253     1.0000 0.11871  0.72482  0.45618  Biso   1.000  H
  N173     1.0000 0.08278  0.77227  0.57223  Biso   1.000  N
  O92      1.0000 0.06639  0.70599  0.62881  Biso   1.000  O
  N174     1.0000 0.14473  0.81610  0.51958  Biso   1.000  N
  O93      1.0000 0.22501  0.81529  0.50169  Biso   1.000  O
  C255     1.0000 0.28548  0.78042  0.03467  Biso   1.000  C
  H254     1.0000 0.38131  0.77520  0.04377  Biso   1.000  H
  C256     1.0000 0.37775  0.84586  0.95796  Biso   1.000  C
  H255     1.0000 0.08240  0.79382  0.48289  Biso   1.000  H
  C257     1.0000 0.04820  0.80231  0.60095  Biso   1.000  C
  C258     1.0000 0.13923  0.86634  0.52305  Biso   1.000  C
  N175     1.0000 0.26841  0.81853  0.99780  Biso   1.000  N
  H256     1.0000 0.25861  0.76011  0.04647  Biso   1.000  H
  H257     1.0000 0.29930  0.79339  0.07259  Biso   1.000  H
  N176     1.0000 0.33054  0.86066  0.94401  Biso   1.000  N
  H258     1.0000 0.38589  0.85661  0.99968  Biso   1.000  H
  H259     1.0000 0.39971  0.86130  0.92910  Biso   1.000  H
  N177     1.0000 0.06893  0.83990  0.63722  Biso   1.000  N
  H260     1.0000 0.02778  0.78282  0.62757  Biso   1.000  H
  H261     1.0000 0.02799  0.81642  0.56889  Biso   1.000  H
  N178     1.0000 0.12996  0.88355  0.58453  Biso   1.000  N
  H262     1.0000 0.11289  0.87589  0.49611  Biso   1.000  H
  H263     1.0000 0.16832  0.88150  0.50750  Biso   1.000  H
  C259     1.0000 0.29450  0.86246  0.99076  Biso   1.000  C
  C260     1.0000 0.22170  0.82445  0.98417  Biso   1.000  C
  C261     1.0000 0.32098  0.89194  0.89781  Biso   1.000  C
  C262     1.0000 0.08342  0.88429  0.61074  Biso   1.000  C
  C263     1.0000 0.06336  0.84307  0.69847  Biso   1.000  C
  C264     1.0000 0.15986  0.91415  0.61330  Biso   1.000  C
  C265     1.0000 0.25752  0.89701  0.96547  Biso   1.000  C
  H264     1.0000 0.30762  0.87360  0.03069  Biso   1.000  H
  O94      1.0000 0.19124  0.79420  0.99062  Biso   1.000  O
  N179     1.0000 0.21482  0.86884  0.96190  Biso   1.000  N
  N180     1.0000 0.27730  0.91045  0.90705  Biso   1.000  N
  O95      1.0000 0.34767  0.90167  0.85559  Biso   1.000  O
  H265     1.0000 0.05951  0.89652  0.58119  Biso   1.000  H
  C266     1.0000 0.08878  0.91722  0.66682  Biso   1.000  C
  O96      1.0000 0.04894  0.81141  0.73214  Biso   1.000  O
  N181     1.0000 0.07718  0.88704  0.71741  Biso   1.000  N
  O97      1.0000 0.19991  0.92448  0.59606  Biso   1.000  O
  N182     1.0000 0.13754  0.93150  0.66380  Biso   1.000  N
  H266     1.0000 0.25329  0.92490  0.99300  Biso   1.000  H
  C267     1.0000 0.16874  0.88982  0.95714  Biso   1.000  C
  C268     1.0000 0.26119  0.95233  0.87476  Biso   1.000  C
  H267     1.0000 0.06699  0.94482  0.66430  Biso   1.000  H
  C269     1.0000 0.06773  0.90505  0.77838  Biso   1.000  C
  C270     1.0000 0.15742  0.96950  0.70026  Biso   1.000  C
  N183     1.0000 0.15668  0.90336  0.89521  Biso   1.000  N
  H268     1.0000 0.16740  0.91803  0.98367  Biso   1.000  H
  H269     1.0000 0.14501  0.86712  0.97228  Biso   1.000  H
  N184     1.0000 0.21874  0.94482  0.84068  Biso   1.000  N
  H270     1.0000 0.25579  0.97789  0.90477  Biso   1.000  H
  H271     1.0000 0.28629  0.96291  0.84640  Biso   1.000  H
  N185     1.0000 0.10986  0.91083  0.81466  Biso   1.000  N
  H272     1.0000 0.05162  0.93590  0.77491  Biso   1.000  H
  H273     1.0000 0.04612  0.88312  0.79970  Biso   1.000  H
  N186     1.0000 0.17117  0.95455  0.76086  Biso   1.000  N
  H274     1.0000 0.18531  0.98241  0.67889  Biso   1.000  H
  H275     1.0000 0.13391  0.99510  0.70387  Biso   1.000  H
  C271     1.0000 0.11935  0.88407  0.86438  Biso   1.000  C
  C272     1.0000 0.17188  0.94722  0.86794  Biso   1.000  C
  C273     1.0000 0.21708  0.95142  0.77811  Biso   1.000  C
  C274     1.0000 0.13870  0.95304  0.81200  Biso   1.000  C
  O98      1.0000 0.09780  0.84889  0.88007  Biso   1.000  O
  H276     1.0000 0.16899  0.97423  0.89717  Biso   1.000  H
  O99      1.0000 0.25128  0.95417  0.74453  Biso   1.000  O
  H277     1.0000 0.11931  0.98241  0.81488  Biso   1.000  H
  O100     1.0000 0.59782  0.34887  0.38007  Biso   1.000  O
  C275     1.0000 0.61936  0.38406  0.36442  Biso   1.000  C
  N187     1.0000 0.60988  0.41082  0.31466  Biso   1.000  N
  N188     1.0000 0.65670  0.40334  0.39521  Biso   1.000  N
  C276     1.0000 0.56771  0.40503  0.27838  Biso   1.000  C
  C277     1.0000 0.63872  0.45306  0.31200  Biso   1.000  C
  C278     1.0000 0.67190  0.44720  0.36794  Biso   1.000  C
  C279     1.0000 0.66872  0.38980  0.45714  Biso   1.000  C
  N189     1.0000 0.57716  0.38702  0.21741  Biso   1.000  N
  H278     1.0000 0.55160  0.43592  0.27491  Biso   1.000  H
  H279     1.0000 0.54610  0.38310  0.29970  Biso   1.000  H
  N190     1.0000 0.67119  0.45457  0.26086  Biso   1.000  N
  H280     1.0000 0.61929  0.48239  0.31488  Biso   1.000  H
  N191     1.0000 0.71875  0.44484  0.34068  Biso   1.000  N
  H281     1.0000 0.66901  0.47421  0.39717  Biso   1.000  H
  N192     1.0000 0.71484  0.36886  0.46190  Biso   1.000  N
  H282     1.0000 0.66742  0.41801  0.48367  Biso   1.000  H
  H283     1.0000 0.64500  0.36710  0.47228  Biso   1.000  H
  C280     1.0000 0.56334  0.34305  0.19847  Biso   1.000  C
  C281     1.0000 0.58876  0.41720  0.16682  Biso   1.000  C
  C282     1.0000 0.65744  0.46948  0.20030  Biso   1.000  C
  C283     1.0000 0.71706  0.45143  0.27811  Biso   1.000  C
  C284     1.0000 0.76120  0.45231  0.37476  Biso   1.000  C
  C285     1.0000 0.75750  0.39703  0.46547  Biso   1.000  C
  C286     1.0000 0.72171  0.32444  0.48417  Biso   1.000  C
  O101     1.0000 0.54895  0.31139  0.23214  Biso   1.000  O
  N193     1.0000 0.56891  0.33991  0.13722  Biso   1.000  N
  C287     1.0000 0.58344  0.38427  0.11079  Biso   1.000  C
  N194     1.0000 0.63756  0.43148  0.16380  Biso   1.000  N
  H284     1.0000 0.56701  0.44480  0.16430  Biso   1.000  H
  H285     1.0000 0.68529  0.48239  0.17889  Biso   1.000  H
  H286     1.0000 0.63389  0.49512  0.20392  Biso   1.000  H
  O102     1.0000 0.75126  0.45415  0.24453  Biso   1.000  O
  N195     1.0000 0.77732  0.41043  0.40705  Biso   1.000  N
  H287     1.0000 0.75581  0.47791  0.40481  Biso   1.000  H
  H288     1.0000 0.78631  0.46289  0.34640  Biso   1.000  H
  H289     1.0000 0.75331  0.42492  0.49300  Biso   1.000  H
  C288     1.0000 0.79449  0.36248  0.49076  Biso   1.000  C
  O103     1.0000 0.69125  0.29419  0.49067  Biso   1.000  O
  N196     1.0000 0.76840  0.31851  0.49785  Biso   1.000  N
  C289     1.0000 0.54818  0.30230  0.10095  Biso   1.000  C
  N197     1.0000 0.62994  0.38353  0.08453  Biso   1.000  N
  H290     1.0000 0.55950  0.39650  0.08119  Biso   1.000  H
  C290     1.0000 0.65987  0.41413  0.11330  Biso   1.000  C
  C291     1.0000 0.82100  0.39192  0.39781  Biso   1.000  C
  N198     1.0000 0.83055  0.36068  0.44401  Biso   1.000  N
  H291     1.0000 0.80760  0.37362  0.53069  Biso   1.000  H
  C292     1.0000 0.78550  0.28040  0.53467  Biso   1.000  C
  N199     1.0000 0.58280  0.27226  0.07223  Biso   1.000  N
  H292     1.0000 0.52780  0.28280  0.12762  Biso   1.000  H
  H293     1.0000 0.52801  0.31640  0.06889  Biso   1.000  H
  C293     1.0000 0.63925  0.36636  0.02310  Biso   1.000  C
  O104     1.0000 0.69993  0.42446  0.09606  Biso   1.000  O
  O105     1.0000 0.84769  0.40165  0.35564  Biso   1.000  O
  C294     1.0000 0.87776  0.34584  0.45796  Biso   1.000  C
  N200     1.0000 0.82075  0.25160  0.50389  Biso   1.000  N
  H294     1.0000 0.75859  0.26009  0.54647  Biso   1.000  H
  H295     1.0000 0.79932  0.29341  0.57259  Biso   1.000  H
  C295     1.0000 0.60565  0.28350  0.01459  Biso   1.000  C
  C296     1.0000 0.58664  0.22543  0.08641  Biso   1.000  C
  N201     1.0000 0.64475  0.31608  0.01958  Biso   1.000  N
  H296     1.0000 0.66830  0.38152  0.00750  Biso   1.000  H
  H297     1.0000 0.61291  0.37591  0.99611  Biso   1.000  H
  N202     1.0000 0.88446  0.29521  0.45458  Biso   1.000  N
  H298     1.0000 0.88591  0.35659  0.49968  Biso   1.000  H
  H299     1.0000 0.89969  0.36132  0.42910  Biso   1.000  H
  C297     1.0000 0.87036  0.26365  0.50293  Biso   1.000  C
  C298     1.0000 0.81317  0.20495  0.49396  Biso   1.000  C
  H300     1.0000 0.58241  0.29380  0.98289  Biso   1.000  H
  C299     1.0000 0.62966  0.23636  0.99707  Biso   1.000  C
  O106     1.0000 0.56641  0.20601  0.12881  Biso   1.000  O
  N203     1.0000 0.61556  0.20481  0.04542  Biso   1.000  N
  C300     1.0000 0.68681  0.29507  0.00604  Biso   1.000  C
  C301     1.0000 0.91337  0.27458  0.41359  Biso   1.000  C
  H301     1.0000 0.88132  0.27522  0.54377  Biso   1.000  H
  C302     1.0000 0.89437  0.21648  0.48541  Biso   1.000  C
  O107     1.0000 0.77502  0.18471  0.49831  Biso   1.000  O
  N204     1.0000 0.85527  0.18394  0.48042  Biso   1.000  N
  N205     1.0000 0.67923  0.24842  0.99611  Biso   1.000  N
  H302     1.0000 0.61869  0.22480  0.95618  Biso   1.000  H
  C303     1.0000 0.62225  0.15414  0.04204  Biso   1.000  C
  O108     1.0000 0.72499  0.31531  0.00169  Biso   1.000  O
  O109     1.0000 0.93361  0.29401  0.37119  Biso   1.000  O
  N206     1.0000 0.91722  0.22773  0.42777  Biso   1.000  N
  H303     1.0000 0.91760  0.20622  0.51711  Biso   1.000  H
  C304     1.0000 0.86077  0.13366  0.47690  Biso   1.000  C
  C305     1.0000 0.71452  0.21958  0.96533  Biso   1.000  C
  N207     1.0000 0.66946  0.13934  0.05599  Biso   1.000  N
  H304     1.0000 0.61411  0.14339  0.00032  Biso   1.000  H
  H305     1.0000 0.60029  0.13870  0.07090  Biso   1.000  H
  C306     1.0000 0.95180  0.19769  0.39905  Biso   1.000  C
  N208     1.0000 0.87008  0.11645  0.41547  Biso   1.000  N
  H306     1.0000 0.88711  0.12411  0.50389  Biso   1.000  H
  H307     1.0000 0.83172  0.11850  0.49250  Biso   1.000  H
  N209     1.0000 0.73162  0.18150  0.00215  Biso   1.000  N
  H308     1.0000 0.74142  0.23989  0.95348  Biso   1.000  H
  H309     1.0000 0.70070  0.20661  0.92741  Biso   1.000  H
  C307     1.0000 0.67902  0.10806  0.10219  Biso   1.000  C
  C308     1.0000 0.70553  0.13754  0.00924  Biso   1.000  C
  N210     1.0000 0.93111  0.16010  0.36278  Biso   1.000  N
  H310     1.0000 0.97222  0.21722  0.37238  Biso   1.000  H
  H311     1.0000 0.97201  0.18362  0.43111  Biso   1.000  H
  C309     1.0000 0.84014  0.08589  0.38665  Biso   1.000  C
  C310     1.0000 0.91658  0.11575  0.38921  Biso   1.000  C
  C311     1.0000 0.77830  0.17555  0.01583  Biso   1.000  C
  O110     1.0000 0.65233  0.09837  0.14436  Biso   1.000  O
  N211     1.0000 0.72270  0.08959  0.09295  Biso   1.000  N
  C312     1.0000 0.74252  0.10299  0.03449  Biso   1.000  C
  H312     1.0000 0.69242  0.12640  0.96931  Biso   1.000  H
  C313     1.0000 0.93664  0.15697  0.30153  Biso   1.000  C
  N212     1.0000 0.86246  0.06850  0.33620  Biso   1.000  N
  O111     1.0000 0.80009  0.07556  0.40394  Biso   1.000  O
  C314     1.0000 0.91126  0.08282  0.33314  Biso   1.000  C
  H313     1.0000 0.94052  0.10352  0.41881  Biso   1.000  H
  O112     1.0000 0.80876  0.20580  0.00933  Biso   1.000  O
  N213     1.0000 0.78518  0.13116  0.03810  Biso   1.000  N
  C315     1.0000 0.73881  0.04767  0.12524  Biso   1.000  C
  H314     1.0000 0.74671  0.07510  0.00700  Biso   1.000  H
  N214     1.0000 0.92286  0.11300  0.28255  Biso   1.000  N
  O113     1.0000 0.95106  0.18859  0.26786  Biso   1.000  O
  C316     1.0000 0.84258  0.03050  0.29970  Biso   1.000  C
  H315     1.0000 0.93301  0.05521  0.33570  Biso   1.000  H
  C317     1.0000 0.83129  0.11021  0.04286  Biso   1.000  C
  N215     1.0000 0.78126  0.05518  0.15932  Biso   1.000  N
  H316     1.0000 0.74421  0.02211  0.09519  Biso   1.000  H
  H317     1.0000 0.71371  0.03709  0.15360  Biso   1.000  H
  C318     1.0000 0.93231  0.09498  0.22162  Biso   1.000  C
  N216     1.0000 0.82883  0.04545  0.23914  Biso   1.000  N
  H318     1.0000 0.81472  0.01759  0.32111  Biso   1.000  H
  H319     1.0000 0.86609  0.00490  0.29608  Biso   1.000  H
  N217     1.0000 0.84332  0.09664  0.10479  Biso   1.000  N
  H320     1.0000 0.83260  0.08201  0.01628  Biso   1.000  H
  H321     1.0000 0.85502  0.13288  0.02772  Biso   1.000  H
  C319     1.0000 0.78296  0.04858  0.22189  Biso   1.000  C
  C320     1.0000 0.82812  0.05278  0.13201  Biso   1.000  C
  N218     1.0000 0.89014  0.08917  0.18530  Biso   1.000  N
  H322     1.0000 0.94842  0.06410  0.22509  Biso   1.000  H
  H323     1.0000 0.95392  0.11691  0.20030  Biso   1.000  H
  C321     1.0000 0.86130  0.04696  0.18800  Biso   1.000  C
  C322     1.0000 0.88065  0.11593  0.13558  Biso   1.000  C
  O114     1.0000 0.74872  0.04587  0.25547  Biso   1.000  O
  H324     1.0000 0.83101  0.02581  0.10278  Biso   1.000  H
  H325     1.0000 0.88072  0.01759  0.18512  Biso   1.000  H
  O115     1.0000 0.90220  0.15115  0.11993  Biso   1.000  O
  O116     1.0000 0.65233  0.59835  0.85559  Biso   1.000  O
  C323     1.0000 0.67902  0.60808  0.89781  Biso   1.000  C
  N219     1.0000 0.72270  0.58957  0.90705  Biso   1.000  N
  N220     1.0000 0.66946  0.63935  0.94401  Biso   1.000  N
  C324     1.0000 0.73881  0.54769  0.87476  Biso   1.000  C
  C325     1.0000 0.74252  0.60300  0.96547  Biso   1.000  C
  C326     1.0000 0.70553  0.63756  0.99076  Biso   1.000  C
  C327     1.0000 0.62225  0.65416  0.95796  Biso   1.000  C
  N221     1.0000 0.78126  0.55520  0.84068  Biso   1.000  N
  H326     1.0000 0.74421  0.52209  0.90477  Biso   1.000  H
  H327     1.0000 0.71371  0.53711  0.84640  Biso   1.000  H
  N222     1.0000 0.78518  0.63117  0.96190  Biso   1.000  N
  H328     1.0000 0.74671  0.57512  0.99300  Biso   1.000  H
  N223     1.0000 0.73162  0.68149  0.99780  Biso   1.000  N
  H329     1.0000 0.69242  0.62641  0.03069  Biso   1.000  H
  N224     1.0000 0.61556  0.70483  0.95458  Biso   1.000  N
  H330     1.0000 0.61411  0.64341  0.99968  Biso   1.000  H
  H331     1.0000 0.60029  0.63872  0.92910  Biso   1.000  H
  C328     1.0000 0.78296  0.54860  0.77811  Biso   1.000  C
  C329     1.0000 0.82812  0.55280  0.86794  Biso   1.000  C
  C330     1.0000 0.83129  0.61020  0.95714  Biso   1.000  C
  C331     1.0000 0.77830  0.67556  0.98417  Biso   1.000  C
  C332     1.0000 0.71452  0.71960  0.03467  Biso   1.000  C
  C333     1.0000 0.58664  0.72542  0.91359  Biso   1.000  C
  C334     1.0000 0.62966  0.73638  0.00293  Biso   1.000  C
  N225     1.0000 0.82883  0.54543  0.76086  Biso   1.000  N
  O117     1.0000 0.74872  0.54585  0.74453  Biso   1.000  O
  C335     1.0000 0.86130  0.54698  0.81200  Biso   1.000  C
  N226     1.0000 0.84332  0.59666  0.89521  Biso   1.000  N
  H332     1.0000 0.83101  0.52579  0.89717  Biso   1.000  H
  H333     1.0000 0.83260  0.58199  0.98367  Biso   1.000  H
  H334     1.0000 0.85502  0.63290  0.97228  Biso   1.000  H
  O118     1.0000 0.80876  0.70581  0.99062  Biso   1.000  O
  N227     1.0000 0.67923  0.74844  0.00384  Biso   1.000  N
  H335     1.0000 0.74142  0.73991  0.04647  Biso   1.000  H
  H336     1.0000 0.70070  0.70662  0.07259  Biso   1.000  H
  O119     1.0000 0.56641  0.70599  0.87119  Biso   1.000  O
  N228     1.0000 0.58280  0.77227  0.92773  Biso   1.000  N
  C336     1.0000 0.60565  0.78352  0.98541  Biso   1.000  C
  H337     1.0000 0.61869  0.72482  0.04377  Biso   1.000  H
  C337     1.0000 0.84258  0.53052  0.70026  Biso   1.000  C
  N229     1.0000 0.89014  0.58918  0.81466  Biso   1.000  N
  H338     1.0000 0.88072  0.51761  0.81488  Biso   1.000  H
  C338     1.0000 0.88065  0.61594  0.86438  Biso   1.000  C
  C339     1.0000 0.68681  0.79509  0.99396  Biso   1.000  C
  C340     1.0000 0.54818  0.80231  0.89905  Biso   1.000  C
  N230     1.0000 0.64475  0.81610  0.98042  Biso   1.000  N
  H339     1.0000 0.58241  0.79382  0.01706  Biso   1.000  H
  N231     1.0000 0.86246  0.56852  0.66380  Biso   1.000  N
  H340     1.0000 0.81472  0.51761  0.67889  Biso   1.000  H
  H341     1.0000 0.86609  0.50492  0.70387  Biso   1.000  H
  C341     1.0000 0.93231  0.59497  0.77838  Biso   1.000  C
  O120     1.0000 0.90220  0.65113  0.88007  Biso   1.000  O
  O121     1.0000 0.72499  0.81529  0.99831  Biso   1.000  O
  N232     1.0000 0.56891  0.83990  0.86278  Biso   1.000  N
  H342     1.0000 0.52780  0.78282  0.87238  Biso   1.000  H
  H343     1.0000 0.52801  0.81642  0.93107  Biso   1.000  H
  C342     1.0000 0.63925  0.86634  0.97690  Biso   1.000  C
  C343     1.0000 0.84014  0.58587  0.61330  Biso   1.000  C
  C344     1.0000 0.91126  0.58280  0.66682  Biso   1.000  C
  N233     1.0000 0.92286  0.61298  0.71741  Biso   1.000  N
  H344     1.0000 0.94842  0.56412  0.77491  Biso   1.000  H
  H345     1.0000 0.95392  0.61690  0.79970  Biso   1.000  H
  C345     1.0000 0.56334  0.84307  0.80153  Biso   1.000  C
  C346     1.0000 0.58344  0.88429  0.88921  Biso   1.000  C
  N234     1.0000 0.62994  0.88355  0.91542  Biso   1.000  N
  H346     1.0000 0.66830  0.88150  0.99250  Biso   1.000  H
  H347     1.0000 0.61291  0.87589  0.00389  Biso   1.000  H
  O122     1.0000 0.80009  0.57554  0.59606  Biso   1.000  O
  N235     1.0000 0.87008  0.61647  0.58453  Biso   1.000  N
  C347     1.0000 0.91658  0.61573  0.61074  Biso   1.000  C
  H348     1.0000 0.93301  0.55520  0.66430  Biso   1.000  H
  C348     1.0000 0.93664  0.65695  0.69847  Biso   1.000  C
  N236     1.0000 0.57716  0.88704  0.78255  Biso   1.000  N
  O123     1.0000 0.54895  0.81141  0.76782  Biso   1.000  O
  C349     1.0000 0.58876  0.91722  0.83314  Biso   1.000  C
  H349     1.0000 0.55950  0.89652  0.91876  Biso   1.000  H
  C350     1.0000 0.65987  0.91415  0.88665  Biso   1.000  C
  C351     1.0000 0.86077  0.63368  0.52305  Biso   1.000  C
  N237     1.0000 0.93111  0.66012  0.63722  Biso   1.000  N
  H350     1.0000 0.94052  0.60350  0.58119  Biso   1.000  H
  O124     1.0000 0.95106  0.68861  0.73214  Biso   1.000  O
  C352     1.0000 0.56771  0.90505  0.72157  Biso   1.000  C
  N238     1.0000 0.63756  0.93150  0.83620  Biso   1.000  N
  H351     1.0000 0.56701  0.94482  0.83570  Biso   1.000  H
  O125     1.0000 0.69993  0.92448  0.90394  Biso   1.000  O
  N239     1.0000 0.85527  0.68392  0.51958  Biso   1.000  N
  H352     1.0000 0.88711  0.62412  0.49611  Biso   1.000  H
  H353     1.0000 0.83172  0.61852  0.50750  Biso   1.000  H
  C353     1.0000 0.95180  0.69770  0.60095  Biso   1.000  C
  N240     1.0000 0.60988  0.91083  0.68530  Biso   1.000  N
  H354     1.0000 0.55160  0.93590  0.72509  Biso   1.000  H
  H355     1.0000 0.54610  0.88312  0.70030  Biso   1.000  H
  C354     1.0000 0.65744  0.96950  0.79970  Biso   1.000  C
  C355     1.0000 0.89437  0.71650  0.51459  Biso   1.000  C
  C356     1.0000 0.81317  0.70493  0.50599  Biso   1.000  C
  N241     1.0000 0.91722  0.72774  0.57223  Biso   1.000  N
  H356     1.0000 0.97222  0.71720  0.62757  Biso   1.000  H
  H357     1.0000 0.97201  0.68360  0.56889  Biso   1.000  H
  C357     1.0000 0.61936  0.88407  0.63558  Biso   1.000  C
  C358     1.0000 0.63872  0.95304  0.68795  Biso   1.000  C
  N242     1.0000 0.67119  0.95455  0.73914  Biso   1.000  N
  H358     1.0000 0.68529  0.98241  0.82111  Biso   1.000  H
  H359     1.0000 0.63389  0.99510  0.79608  Biso   1.000  H
  H360     1.0000 0.91760  0.70620  0.48289  Biso   1.000  H
  C359     1.0000 0.87036  0.76364  0.49707  Biso   1.000  C
  O126     1.0000 0.77502  0.68473  0.50169  Biso   1.000  O
  N243     1.0000 0.82075  0.75158  0.49611  Biso   1.000  N
  C360     1.0000 0.91337  0.77460  0.58641  Biso   1.000  C
  N244     1.0000 0.65670  0.90336  0.60479  Biso   1.000  N
  O127     1.0000 0.59782  0.84889  0.61993  Biso   1.000  O
  C361     1.0000 0.67190  0.94722  0.63201  Biso   1.000  C
  H361     1.0000 0.61929  0.98241  0.68507  Biso   1.000  H
  C362     1.0000 0.71706  0.95142  0.72185  Biso   1.000  C
  N245     1.0000 0.88446  0.79519  0.54542  Biso   1.000  N
  H362     1.0000 0.88132  0.77520  0.45618  Biso   1.000  H
  C363     1.0000 0.78550  0.78042  0.46533  Biso   1.000  C
  O128     1.0000 0.93361  0.79403  0.62881  Biso   1.000  O
  C364     1.0000 0.66872  0.88982  0.54286  Biso   1.000  C
  N246     1.0000 0.71875  0.94482  0.65927  Biso   1.000  N
  H363     1.0000 0.66901  0.97423  0.60278  Biso   1.000  H
  O129     1.0000 0.75126  0.95417  0.75547  Biso   1.000  O
  C365     1.0000 0.87776  0.84586  0.54204  Biso   1.000  C
  N247     1.0000 0.76840  0.81853  0.50215  Biso   1.000  N
  H364     1.0000 0.75859  0.76011  0.45348  Biso   1.000  H
  H365     1.0000 0.79932  0.79339  0.42741  Biso   1.000  H
  N248     1.0000 0.71484  0.86884  0.53810  Biso   1.000  N
  H366     1.0000 0.66742  0.91803  0.51628  Biso   1.000  H
  H367     1.0000 0.64500  0.86712  0.52767  Biso   1.000  H
  C366     1.0000 0.76120  0.95233  0.62524  Biso   1.000  C
  N249     1.0000 0.83055  0.86066  0.55594  Biso   1.000  N
  H368     1.0000 0.88591  0.85661  0.50027  Biso   1.000  H
  H369     1.0000 0.89969  0.86130  0.57090  Biso   1.000  H
  C367     1.0000 0.79449  0.86246  0.50919  Biso   1.000  C
  C368     1.0000 0.72171  0.82445  0.51583  Biso   1.000  C
  C369     1.0000 0.75750  0.89701  0.53449  Biso   1.000  C
  N250     1.0000 0.77732  0.91045  0.59295  Biso   1.000  N
  H370     1.0000 0.75581  0.97789  0.59519  Biso   1.000  H
  H371     1.0000 0.78631  0.96291  0.65360  Biso   1.000  H
  C370     1.0000 0.82100  0.89194  0.60219  Biso   1.000  C
  H372     1.0000 0.80760  0.87360  0.46931  Biso   1.000  H
  O130     1.0000 0.69125  0.79420  0.50933  Biso   1.000  O
  H373     1.0000 0.75331  0.92490  0.50700  Biso   1.000  H
  O131     1.0000 0.84769  0.90167  0.64436  Biso   1.000  O
  C371     1.0000 0.80277  0.42189  0.11797  Biso   1.000  C
  N251     1.0000 0.84667  0.40669  0.14518  Biso   1.000  N
  H374     1.0000 0.77580  0.41900  0.14720  Biso   1.000  H
  N252     1.0000 0.80517  0.46874  0.09071  Biso   1.000  N
  C372     1.0000 0.79695  0.38871  0.06203  Biso   1.000  C
  N253     1.0000 0.80517  0.46874  0.09066  Biso   1.000  N
  C373     1.0000 0.79695  0.38871  0.06198  Biso   1.000  C
  N254     1.0000 0.80520  0.46874  0.09071  Biso   1.000  N
  N255     1.0000 0.80520  0.46874  0.09066  Biso   1.000  N
  C374     1.0000 0.86021  0.41875  0.20712  Biso   1.000  C
  C375     1.0000 0.86595  0.36935  0.11440  Biso   1.000  C
  C376     1.0000 0.80281  0.42189  0.11797  Biso   1.000  C
  C377     1.0000 0.79858  0.46705  0.02813  Biso   1.000  C
  C378     1.0000 0.79769  0.51119  0.12478  Biso   1.000  C
  C379     1.0000 0.79858  0.46705  0.02809  Biso   1.000  C
  C380     1.0000 0.79769  0.51119  0.12474  Biso   1.000  C
  N256     1.0000 0.83916  0.35987  0.06468  Biso   1.000  N
  N257     1.0000 0.83919  0.35987  0.06468  Biso   1.000  N
  N258     1.0000 0.79544  0.42118  0.01089  Biso   1.000  N
  N259     1.0000 0.79544  0.42118  0.01084  Biso   1.000  N
  H375     1.0000 0.76762  0.36932  0.06491  Biso   1.000  H
  H376     1.0000 0.76762  0.36932  0.06486  Biso   1.000  H
  H377     1.0000 0.83200  0.41741  0.23369  Biso   1.000  H
  H378     1.0000 0.88291  0.39502  0.22230  Biso   1.000  H
  H379     1.0000 0.88291  0.39502  0.22226  Biso   1.000  H
  N260     1.0000 0.88118  0.46483  0.21192  Biso   1.000  N
  N261     1.0000 0.88118  0.46483  0.21187  Biso   1.000  N
  O132     1.0000 0.90114  0.34781  0.13004  Biso   1.000  O
  O133     1.0000 0.79586  0.50129  0.99456  Biso   1.000  O
  O134     1.0000 0.79586  0.50129  0.99451  Biso   1.000  O
  N262     1.0000 0.83958  0.52731  0.15703  Biso   1.000  N
  H380     1.0000 0.77210  0.50580  0.15479  Biso   1.000  H
  H381     1.0000 0.78712  0.53630  0.09638  Biso   1.000  H
  C381     1.0000 0.84497  0.31774  0.02841  Biso   1.000  C
  C382     1.0000 0.84497  0.31774  0.02836  Biso   1.000  C
  C383     1.0000 0.78052  0.40743  0.95028  Biso   1.000  C
  C384     1.0000 0.92557  0.47171  0.23415  Biso   1.000  C
  C385     1.0000 0.85301  0.50749  0.21549  Biso   1.000  C
  C386     1.0000 0.85805  0.57099  0.14784  Biso   1.000  C
  C387     1.0000 0.85805  0.57099  0.14779  Biso   1.000  C
  C388     1.0000 0.85809  0.57099  0.14784  Biso   1.000  C
  C389     1.0000 0.85809  0.57099  0.14779  Biso   1.000  C
  N263     1.0000 0.86299  0.32719  0.96743  Biso   1.000  N
  H382     1.0000 0.81409  0.30159  0.02488  Biso   1.000  H
  H383     1.0000 0.86690  0.29609  0.04968  Biso   1.000  H
  H384     1.0000 0.81412  0.30159  0.02488  Biso   1.000  H
  N264     1.0000 0.81850  0.38755  0.91378  Biso   1.000  N
  H385     1.0000 0.75489  0.38392  0.95389  Biso   1.000  H
  N265     1.0000 0.81853  0.38755  0.91378  Biso   1.000  N
  H386     1.0000 0.76762  0.43532  0.92887  Biso   1.000  H
  O135     1.0000 0.95582  0.44124  0.24065  Biso   1.000  O
  N266     1.0000 0.93150  0.51842  0.24783  Biso   1.000  N
  C390     1.0000 0.88753  0.54451  0.24078  Biso   1.000  C
  C391     1.0000 0.88753  0.54451  0.24074  Biso   1.000  C
  H387     1.0000 0.82512  0.50330  0.24298  Biso   1.000  H
  C392     1.0000 0.88756  0.54451  0.24078  Biso   1.000  C
  C393     1.0000 0.88756  0.54451  0.24074  Biso   1.000  C
  N267     1.0000 0.88933  0.58055  0.19404  Biso   1.000  N
  N268     1.0000 0.88933  0.58055  0.19399  Biso   1.000  N
  O136     1.0000 0.84836  0.59768  0.10562  Biso   1.000  O
  C394     1.0000 0.83281  0.33875  0.91684  Biso   1.000  C
  C395     1.0000 0.90696  0.31337  0.94850  Biso   1.000  C
  C396     1.0000 0.90696  0.31337  0.94845  Biso   1.000  C
  C397     1.0000 0.83588  0.40986  0.86332  Biso   1.000  C
  C398     1.0000 0.96957  0.53549  0.28469  Biso   1.000  C
  C399     1.0000 0.96957  0.53549  0.28465  Biso   1.000  C
  C400     1.0000 0.96961  0.53549  0.28469  Biso   1.000  C
  C401     1.0000 0.96961  0.53549  0.28465  Biso   1.000  C
  H388     1.0000 0.87639  0.55759  0.28067  Biso   1.000  H
  H389     1.0000 0.87642  0.55759  0.28067  Biso   1.000  H
  C402     1.0000 0.90417  0.62775  0.20794  Biso   1.000  C
  C403     1.0000 0.86574  0.33343  0.86076  Biso   1.000  C
  H390     1.0000 0.80520  0.31700  0.91428  Biso   1.000  H
  O137     1.0000 0.93858  0.29895  0.98216  Biso   1.000  O
  N269     1.0000 0.91009  0.31890  0.88720  Biso   1.000  N
  O138     1.0000 0.93858  0.29895  0.98212  Biso   1.000  O
  O139     1.0000 0.93862  0.29895  0.98216  Biso   1.000  O
  O140     1.0000 0.93862  0.29895  0.98212  Biso   1.000  O
  N270     1.0000 0.86648  0.37993  0.83451  Biso   1.000  N
  O141     1.0000 0.82555  0.44992  0.84603  Biso   1.000  O
  N271     1.0000 0.99841  0.57078  0.25387  Biso   1.000  N
  H391     1.0000 0.98992  0.50862  0.29650  Biso   1.000  H
  H392     1.0000 0.95660  0.54931  0.32261  Biso   1.000  H
  H393     1.0000 0.95660  0.54931  0.32257  Biso   1.000  H
  H394     1.0000 0.88869  0.64972  0.17908  Biso   1.000  H
  N272     1.0000 0.95480  0.63445  0.20456  Biso   1.000  N
  H395     1.0000 0.89338  0.63590  0.24966  Biso   1.000  H
  N273     1.0000 0.95484  0.63445  0.20456  Biso   1.000  N
  H396     1.0000 0.89342  0.63590  0.24966  Biso   1.000  H
  H397     1.0000 0.85351  0.30949  0.83117  Biso   1.000  H
  C404     1.0000 0.94771  0.29821  0.85093  Biso   1.000  C
  C405     1.0000 0.88365  0.38924  0.77308  Biso   1.000  C
  C406     1.0000 0.88369  0.38924  0.77308  Biso   1.000  C
  C407     1.0000 0.98636  0.62035  0.25290  Biso   1.000  C
  C408     1.0000 0.04506  0.56320  0.24394  Biso   1.000  C
  C409     1.0000 0.97543  0.66336  0.16357  Biso   1.000  C
  H398     1.0000 0.96721  0.27779  0.87760  Biso   1.000  H
  N274     1.0000 0.97775  0.33279  0.82220  Biso   1.000  N
  H399     1.0000 0.93361  0.27800  0.81886  Biso   1.000  H
  N275     1.0000 0.93393  0.39474  0.76960  Biso   1.000  N
  H400     1.0000 0.87410  0.36290  0.74609  Biso   1.000  H
  N276     1.0000 0.93393  0.39474  0.76955  Biso   1.000  N
  H401     1.0000 0.86849  0.41829  0.75748  Biso   1.000  H
  H402     1.0000 0.86853  0.41829  0.75748  Biso   1.000  H
  H403     1.0000 0.97479  0.63132  0.29380  Biso   1.000  H
  H404     1.0000 0.97483  0.63132  0.29380  Biso   1.000  H
  C410     1.0000 0.03349  0.64436  0.23543  Biso   1.000  C
  C411     1.0000 0.03349  0.64436  0.23539  Biso   1.000  C
  C412     1.0000 0.03353  0.64436  0.23543  Biso   1.000  C
  C413     1.0000 0.03353  0.64436  0.23539  Biso   1.000  C
  O142     1.0000 0.06530  0.52501  0.24833  Biso   1.000  O
  N277     1.0000 0.06607  0.60526  0.23040  Biso   1.000  N
  O143     1.0000 0.06530  0.52501  0.24828  Biso   1.000  O
  N278     1.0000 0.06611  0.60526  0.23040  Biso   1.000  N
  N279     1.0000 0.02225  0.66721  0.17775  Biso   1.000  N
  N280     1.0000 0.02228  0.66721  0.17775  Biso   1.000  N
  O144     1.0000 0.95600  0.68360  0.12117  Biso   1.000  O
  C414     1.0000 0.96651  0.35564  0.76457  Biso   1.000  C
  C415     1.0000 0.02457  0.33664  0.83638  Biso   1.000  C
  C416     1.0000 0.95494  0.43684  0.75602  Biso   1.000  C
  H405     1.0000 0.04379  0.66760  0.26708  Biso   1.000  H
  H406     1.0000 0.04382  0.66760  0.26708  Biso   1.000  H
  C417     1.0000 0.11635  0.61076  0.22692  Biso   1.000  C
  C418     1.0000 0.11635  0.61076  0.22688  Biso   1.000  C
  C419     1.0000 0.05229  0.70183  0.14903  Biso   1.000  C
  C420     1.0000 0.05232  0.70183  0.14903  Biso   1.000  C
  H407     1.0000 0.95621  0.33240  0.73287  Biso   1.000  H
  C421     1.0000 0.01364  0.37965  0.74710  Biso   1.000  C
  C422     1.0000 0.01364  0.37965  0.74705  Biso   1.000  C
  N281     1.0000 0.04520  0.36555  0.79540  Biso   1.000  N
  O145     1.0000 0.04404  0.31640  0.87879  Biso   1.000  O
  O146     1.0000 0.93470  0.47502  0.75167  Biso   1.000  O
  N282     1.0000 0.00159  0.42926  0.74613  Biso   1.000  N
  N283     1.0000 0.00159  0.42926  0.74609  Biso   1.000  N
  N284     1.0000 0.13352  0.62007  0.16545  Biso   1.000  N
  H408     1.0000 0.12590  0.63710  0.25391  Biso   1.000  H
  H409     1.0000 0.13151  0.58171  0.24248  Biso   1.000  H
  H410     1.0000 0.12590  0.63710  0.25387  Biso   1.000  H
  N285     1.0000 0.13355  0.62007  0.16545  Biso   1.000  N
  N286     1.0000 0.08991  0.68110  0.11280  Biso   1.000  N
  H411     1.0000 0.03279  0.72221  0.12240  Biso   1.000  H
  H412     1.0000 0.06639  0.72200  0.18109  Biso   1.000  H
  N287     1.0000 0.08991  0.68110  0.11275  Biso   1.000  N
  H413     1.0000 0.03279  0.72221  0.12236  Biso   1.000  H
  H414     1.0000 0.03282  0.72221  0.12240  Biso   1.000  H
  H415     1.0000 0.06642  0.72200  0.18109  Biso   1.000  H
  H416     1.0000 0.03282  0.72221  0.12236  Biso   1.000  H
  H417     1.0000 0.02521  0.36872  0.70620  Biso   1.000  H
  C423     1.0000 0.09583  0.37228  0.79201  Biso   1.000  C
  C424     1.0000 0.09586  0.37228  0.79201  Biso   1.000  C
  C425     1.0000 0.03043  0.46451  0.71531  Biso   1.000  C
  C426     1.0000 0.13426  0.66657  0.13919  Biso   1.000  C
  C427     1.0000 0.16416  0.59017  0.13668  Biso   1.000  C
  C428     1.0000 0.09304  0.68667  0.05150  Biso   1.000  C
  C429     1.0000 0.09308  0.68667  0.05150  Biso   1.000  C
  N288     1.0000 0.11067  0.41945  0.80596  Biso   1.000  N
  H418     1.0000 0.10662  0.36410  0.75030  Biso   1.000  H
  H419     1.0000 0.11131  0.35032  0.82088  Biso   1.000  H
  H420     1.0000 0.04340  0.45069  0.67739  Biso   1.000  H
  N289     1.0000 0.06850  0.48161  0.75213  Biso   1.000  N
  H421     1.0000 0.01012  0.49141  0.70350  Biso   1.000  H
  C430     1.0000 0.16719  0.66125  0.08316  Biso   1.000  C
  H422     1.0000 0.14653  0.69051  0.16879  Biso   1.000  H
  N290     1.0000 0.18150  0.61245  0.08622  Biso   1.000  N
  N291     1.0000 0.18150  0.61245  0.08618  Biso   1.000  N
  O147     1.0000 0.17449  0.55008  0.15392  Biso   1.000  O
  O148     1.0000 0.06142  0.70105  0.01784  Biso   1.000  O
  N292     1.0000 0.13701  0.67285  0.03257  Biso   1.000  N
  C431     1.0000 0.14195  0.42901  0.85216  Biso   1.000  C
  C432     1.0000 0.11247  0.45552  0.75922  Biso   1.000  C
  C433     1.0000 0.07443  0.52829  0.76585  Biso   1.000  C
  C434     1.0000 0.07443  0.52829  0.76580  Biso   1.000  C
  C435     1.0000 0.07446  0.52829  0.76585  Biso   1.000  C
  C436     1.0000 0.07446  0.52829  0.76580  Biso   1.000  C
  H423     1.0000 0.19480  0.68300  0.08572  Biso   1.000  H
  H424     1.0000 0.19480  0.68300  0.08567  Biso   1.000  H
  C437     1.0000 0.21951  0.59260  0.04968  Biso   1.000  C
  C438     1.0000 0.15503  0.68230  0.97159  Biso   1.000  C
  N293     1.0000 0.16042  0.47269  0.84297  Biso   1.000  N
  N294     1.0000 0.16042  0.47269  0.84292  Biso   1.000  N
  N295     1.0000 0.16046  0.47269  0.84297  Biso   1.000  N
  O149     1.0000 0.15168  0.40232  0.89434  Biso   1.000  O
  N296     1.0000 0.16046  0.47269  0.84292  Biso   1.000  N
  C439     1.0000 0.14702  0.49251  0.78451  Biso   1.000  C
  H425     1.0000 0.12361  0.44241  0.71928  Biso   1.000  H
  N297     1.0000 0.11885  0.53517  0.78808  Biso   1.000  N
  O150     1.0000 0.04418  0.55879  0.75931  Biso   1.000  O
  O151     1.0000 0.04421  0.55879  0.75931  Biso   1.000  O
  N298     1.0000 0.20456  0.57882  0.98911  Biso   1.000  N
  H426     1.0000 0.23242  0.56471  0.07108  Biso   1.000  H
  H427     1.0000 0.24511  0.61612  0.04611  Biso   1.000  H
  H428     1.0000 0.24511  0.61612  0.04606  Biso   1.000  H
  N299     1.0000 0.16084  0.64013  0.93532  Biso   1.000  N
  H429     1.0000 0.18591  0.69841  0.97512  Biso   1.000  H
  H430     1.0000 0.13310  0.70391  0.95028  Biso   1.000  H
  H431     1.0000 0.18591  0.69841  0.97507  Biso   1.000  H
  C440     1.0000 0.20234  0.48881  0.87522  Biso   1.000  C
  H432     1.0000 0.17491  0.49670  0.75698  Biso   1.000  H
  C441     1.0000 0.13979  0.58129  0.79288  Biso   1.000  C
  C442     1.0000 0.13979  0.58129  0.79284  Biso   1.000  C
  C443     1.0000 0.20305  0.61129  0.93797  Biso   1.000  C
  C444     1.0000 0.20142  0.53295  0.97187  Biso   1.000  C
  C445     1.0000 0.13408  0.63068  0.88555  Biso   1.000  C
  N300     1.0000 0.19483  0.53129  0.90929  Biso   1.000  N
  H433     1.0000 0.22790  0.49420  0.84517  Biso   1.000  H
  H434     1.0000 0.21292  0.46370  0.90358  Biso   1.000  H
  N301     1.0000 0.15337  0.59334  0.85477  Biso   1.000  N
  H435     1.0000 0.16800  0.58259  0.76631  Biso   1.000  H
  H436     1.0000 0.11712  0.60501  0.77770  Biso   1.000  H
  H437     1.0000 0.23242  0.63072  0.93509  Biso   1.000  H
  C446     1.0000 0.19723  0.57811  0.88203  Biso   1.000  C
  O152     1.0000 0.20414  0.49875  0.00544  Biso   1.000  O
  O153     1.0000 0.09890  0.65222  0.86991  Biso   1.000  O
  H438     1.0000 0.22420  0.58100  0.85280  Biso   1.000  H
  Ne1      1.0000 0.50000  0.50001  0.49999  Biso   1.000  Ne
  He1      1.0000 0.45179  0.59067  0.56461  Biso   1.000  He
  He2      1.0000 0.55942  0.42874  0.42841  Biso   1.000  He
  Ar1      1.0000 0.50000  0.50001  0.49998  Biso   1.000  Ar
  Ne2      1.0000 0.25000  0.25000  0.25000  Biso   1.000  Ne
  He3      1.0000 0.33761  0.29614  0.31207  Biso   1.000  He
  He4      1.0000 0.15998  0.20221  0.18590  Biso   1.000  He
  Ar2      1.0000 0.25000  0.25000  0.25000  Biso   1.000  Ar
  Ne3      1.0000 0.75001  0.25000  0.25000  Biso   1.000  Ne
  He5      1.0000 0.67517  0.18806  0.32470  Biso   1.000  He
  He6      1.0000 0.82623  0.31293  0.17410  Biso   1.000  He
  Ar3      1.0000 0.75000  0.25000  0.24999  Biso   1.000  Ar
  Ne4      1.0000 0.50073  0.00408  0.50412  Biso   1.000  Ne
  He7      1.0000 0.55978  0.92810  0.57208  Biso   1.000  He
  He8      1.0000 0.43725  0.07592  0.42434  Biso   1.000  He
  Ar4      1.0000 0.50281  0.00310  0.50202  Biso   1.000  Ar
  Ne5      1.0000 0.25000  0.75001  0.74999  Biso   1.000  Ne
  He9      1.0000 0.17519  0.68805  0.82467  Biso   1.000  He
  He10     1.0000 0.32624  0.81295  0.67407  Biso   1.000  He
  Ar5      1.0000 0.25001  0.75001  0.74999  Biso   1.000  Ar
  Ne6      1.0000 0.01067  0.00710  0.99879  Biso   1.000  Ne
  He11     1.0000 0.95319  0.08862  0.06289  Biso   1.000  He
  He12     1.0000 0.04407  0.91538  0.94047  Biso   1.000  He
  Ar6      1.0000 0.00748  0.00900  0.99517  Biso   1.000  Ar
  Ne7      1.0000 0.98745  0.50157  0.01645  Biso   1.000  Ne
  He13     1.0000 0.06674  0.41860  0.08046  Biso   1.000  He
  He14     1.0000 0.92558  0.59199  0.91017  Biso   1.000  He
  Ar7      1.0000 0.99921  0.49645  0.00153  Biso   1.000  Ar
  Ne8      1.0000 0.75001  0.75001  0.74999  Biso   1.000  Ne
  He15     1.0000 0.83766  0.79614  0.81204  Biso   1.000  He
  He16     1.0000 0.65997  0.70221  0.68588  Biso   1.000  He
  Ar8      1.0000 0.75001  0.75001  0.74999  Biso   1.000  Ar
