data_image0
_cell_length_a       28.363
_cell_length_b       28.363
_cell_length_c       21.862
_cell_angle_alpha    90
_cell_angle_beta     90
_cell_angle_gamma    90

_symmetry_space_group_name_H-M    "P 1"
_symmetry_int_tables_number       1

loop_
  _symmetry_equiv_pos_as_xyz
  'x, y, z'

loop_
  _atom_site_label
  _atom_site_occupancy
  _atom_site_fract_x
  _atom_site_fract_y
  _atom_site_fract_z
  _atom_site_thermal_displace_type
  _atom_site_B_iso_or_equiv
  _atom_site_type_symbol
  O1       1.0000 0.45598  0.18362  0.62117  Biso   1.000  O
  C1       1.0000 0.47541  0.16335  0.66357  Biso   1.000  C
  C2       1.0000 0.47541  0.16338  0.66357  Biso   1.000  C
  N1       1.0000 0.45482  0.13444  0.70456  Biso   1.000  N
  N2       1.0000 0.52226  0.16719  0.67775  Biso   1.000  N
  N3       1.0000 0.52226  0.16722  0.67775  Biso   1.000  N
  C3       1.0000 0.40415  0.12774  0.70794  Biso   1.000  C
  C4       1.0000 0.48637  0.12037  0.75290  Biso   1.000  C
  C5       1.0000 0.53351  0.14438  0.73539  Biso   1.000  C
  C6       1.0000 0.55230  0.20181  0.64903  Biso   1.000  C
  N4       1.0000 0.38935  0.08053  0.69404  Biso   1.000  N
  N5       1.0000 0.38935  0.08056  0.69404  Biso   1.000  N
  H1       1.0000 0.39340  0.13592  0.74970  Biso   1.000  H
  H2       1.0000 0.38871  0.14970  0.67908  Biso   1.000  H
  N6       1.0000 0.49843  0.07076  0.75387  Biso   1.000  N
  H3       1.0000 0.47481  0.13130  0.79380  Biso   1.000  H
  N7       1.0000 0.56609  0.10528  0.73040  Biso   1.000  N
  H4       1.0000 0.54381  0.16761  0.76708  Biso   1.000  H
  N8       1.0000 0.58992  0.18108  0.61275  Biso   1.000  N
  H5       1.0000 0.53281  0.22219  0.62240  Biso   1.000  H
  H6       1.0000 0.56641  0.22201  0.68109  Biso   1.000  H
  N9       1.0000 0.58992  0.18112  0.61275  Biso   1.000  N
  H7       1.0000 0.53281  0.22223  0.62240  Biso   1.000  H
  C7       1.0000 0.35807  0.07097  0.64779  Biso   1.000  C
  C8       1.0000 0.35807  0.07101  0.64779  Biso   1.000  C
  C9       1.0000 0.38755  0.04449  0.74078  Biso   1.000  C
  C10      1.0000 0.46959  0.03547  0.78465  Biso   1.000  C
  C11      1.0000 0.46959  0.03550  0.78465  Biso   1.000  C
  C12      1.0000 0.54508  0.06318  0.74398  Biso   1.000  C
  C13      1.0000 0.61633  0.11078  0.72692  Biso   1.000  C
  C14      1.0000 0.63428  0.16656  0.63924  Biso   1.000  C
  C15      1.0000 0.59306  0.18665  0.55150  Biso   1.000  C
  C16      1.0000 0.63428  0.16659  0.63924  Biso   1.000  C
  N10      1.0000 0.33956  0.02732  0.65703  Biso   1.000  N
  O2       1.0000 0.34834  0.09770  0.60562  Biso   1.000  O
  C17      1.0000 0.35300  0.00751  0.71549  Biso   1.000  C
  N11      1.0000 0.43148  0.01840  0.74783  Biso   1.000  N
  H8       1.0000 0.37641  0.05761  0.78067  Biso   1.000  H
  H9       1.0000 0.48990  0.00860  0.79650  Biso   1.000  H
  H10      1.0000 0.45662  0.04929  0.82257  Biso   1.000  H
  H11      1.0000 0.45662  0.04932  0.82257  Biso   1.000  H
  O3       1.0000 0.56528  0.02500  0.74828  Biso   1.000  O
  N12      1.0000 0.63354  0.12005  0.66545  Biso   1.000  N
  H12      1.0000 0.62592  0.13712  0.75387  Biso   1.000  H
  H13      1.0000 0.63149  0.08169  0.74248  Biso   1.000  H
  N13      1.0000 0.63354  0.12009  0.66545  Biso   1.000  N
  H14      1.0000 0.63149  0.08173  0.74248  Biso   1.000  H
  H15      1.0000 0.64651  0.19049  0.66879  Biso   1.000  H
  C18      1.0000 0.66721  0.16123  0.58316  Biso   1.000  C
  H16      1.0000 0.64651  0.19053  0.66879  Biso   1.000  H
  C19      1.0000 0.66721  0.16127  0.58316  Biso   1.000  C
  O4       1.0000 0.56140  0.20104  0.51784  Biso   1.000  O
  N14      1.0000 0.63703  0.17283  0.53257  Biso   1.000  N
  O5       1.0000 0.56140  0.20107  0.51784  Biso   1.000  O
  C20      1.0000 0.29768  0.01118  0.62474  Biso   1.000  C
  C21      1.0000 0.29768  0.01121  0.62474  Biso   1.000  C
  H17      1.0000 0.32511  0.00331  0.74298  Biso   1.000  H
  N15      1.0000 0.38117  0.96481  0.71187  Biso   1.000  N
  N16      1.0000 0.38117  0.96485  0.71187  Biso   1.000  N
  C22      1.0000 0.42555  0.97169  0.73415  Biso   1.000  C
  C23      1.0000 0.42555  0.97172  0.73415  Biso   1.000  C
  C24      1.0000 0.66414  0.09015  0.63668  Biso   1.000  C
  N17      1.0000 0.68149  0.11247  0.58618  Biso   1.000  N
  H18      1.0000 0.69481  0.18298  0.58567  Biso   1.000  H
  H19      1.0000 0.69481  0.18302  0.58567  Biso   1.000  H
  C25      1.0000 0.65504  0.18228  0.47159  Biso   1.000  C
  N18      1.0000 0.30519  0.96873  0.59071  Biso   1.000  N
  H20      1.0000 0.27212  0.00582  0.65479  Biso   1.000  H
  H21      1.0000 0.28710  0.03631  0.59638  Biso   1.000  H
  C26      1.0000 0.36019  0.91873  0.70712  Biso   1.000  C
  O6       1.0000 0.45581  0.94123  0.74065  Biso   1.000  O
  O7       1.0000 0.67447  0.05010  0.65392  Biso   1.000  O
  C27      1.0000 0.71949  0.09259  0.54972  Biso   1.000  C
  N19      1.0000 0.66083  0.14015  0.43532  Biso   1.000  N
  H22      1.0000 0.68589  0.19839  0.47507  Biso   1.000  H
  H23      1.0000 0.63311  0.20389  0.45028  Biso   1.000  H
  H24      1.0000 0.68589  0.19843  0.47507  Biso   1.000  H
  H25      1.0000 0.63311  0.20393  0.45028  Biso   1.000  H
  C28      1.0000 0.29859  0.96707  0.52813  Biso   1.000  C
  C29      1.0000 0.30279  0.92191  0.61797  Biso   1.000  C
  N20      1.0000 0.34665  0.90667  0.64518  Biso   1.000  N
  H26      1.0000 0.33202  0.91739  0.73369  Biso   1.000  H
  H27      1.0000 0.38289  0.89500  0.72230  Biso   1.000  H
  N21      1.0000 0.70458  0.07884  0.48911  Biso   1.000  N
  H28      1.0000 0.73240  0.06470  0.57108  Biso   1.000  H
  H29      1.0000 0.74509  0.11610  0.54611  Biso   1.000  H
  C30      1.0000 0.63407  0.13066  0.38560  Biso   1.000  C
  C31      1.0000 0.70306  0.11131  0.43797  Biso   1.000  C
  O8       1.0000 0.29588  0.00127  0.49451  Biso   1.000  O
  N22      1.0000 0.29546  0.92116  0.51084  Biso   1.000  N
  N23      1.0000 0.29546  0.92120  0.51084  Biso   1.000  N
  C32      1.0000 0.29697  0.88869  0.56203  Biso   1.000  C
  H30      1.0000 0.27582  0.91901  0.64720  Biso   1.000  H
  C33      1.0000 0.36593  0.86934  0.61440  Biso   1.000  C
  C34      1.0000 0.70144  0.03293  0.47187  Biso   1.000  C
  C35      1.0000 0.70144  0.03297  0.47187  Biso   1.000  C
  N24      1.0000 0.65335  0.09333  0.35477  Biso   1.000  N
  O9       1.0000 0.59888  0.15221  0.36991  Biso   1.000  O
  C36      1.0000 0.69721  0.07809  0.38203  Biso   1.000  C
  C37      1.0000 0.69721  0.07813  0.38203  Biso   1.000  C
  H31      1.0000 0.73240  0.13070  0.43509  Biso   1.000  H
  C38      1.0000 0.28051  0.90741  0.45028  Biso   1.000  C
  N25      1.0000 0.33917  0.85985  0.56468  Biso   1.000  N
  H32      1.0000 0.26760  0.86930  0.56491  Biso   1.000  H
  N26      1.0000 0.33917  0.85989  0.56468  Biso   1.000  N
  O10      1.0000 0.40112  0.84779  0.63004  Biso   1.000  O
  N27      1.0000 0.69481  0.03127  0.40929  Biso   1.000  N
  O11      1.0000 0.70416  0.99873  0.50544  Biso   1.000  O
  C39      1.0000 0.63981  0.08127  0.29284  Biso   1.000  C
  H33      1.0000 0.72422  0.08099  0.35280  Biso   1.000  H
  H34      1.0000 0.72422  0.08102  0.35280  Biso   1.000  H
  N28      1.0000 0.31851  0.88753  0.41378  Biso   1.000  N
  H35      1.0000 0.26760  0.93530  0.42887  Biso   1.000  H
  H36      1.0000 0.25491  0.88390  0.45389  Biso   1.000  H
  N29      1.0000 0.31851  0.88756  0.41378  Biso   1.000  N
  C40      1.0000 0.34496  0.81772  0.52841  Biso   1.000  C
  C41      1.0000 0.70232  0.98882  0.37522  Biso   1.000  C
  N30      1.0000 0.61883  0.03519  0.28808  Biso   1.000  N
  H37      1.0000 0.66802  0.08261  0.26631  Biso   1.000  H
  H38      1.0000 0.61711  0.10500  0.27770  Biso   1.000  H
  C42      1.0000 0.33586  0.90985  0.36332  Biso   1.000  C
  C43      1.0000 0.33283  0.83877  0.41684  Biso   1.000  C
  N31      1.0000 0.36301  0.82717  0.46743  Biso   1.000  N
  H39      1.0000 0.31411  0.80161  0.52488  Biso   1.000  H
  H40      1.0000 0.36689  0.79611  0.54968  Biso   1.000  H
  N32      1.0000 0.66044  0.97268  0.34292  Biso   1.000  N
  N33      1.0000 0.66044  0.97271  0.34292  Biso   1.000  N
  H41      1.0000 0.72792  0.99418  0.34521  Biso   1.000  H
  H42      1.0000 0.71290  0.96369  0.40358  Biso   1.000  H
  H43      1.0000 0.72792  0.99422  0.34521  Biso   1.000  H
  H44      1.0000 0.71290  0.96372  0.40358  Biso   1.000  H
  C44      1.0000 0.57445  0.02831  0.26580  Biso   1.000  C
  C45      1.0000 0.64700  0.99249  0.28451  Biso   1.000  C
  C46      1.0000 0.64700  0.99253  0.28451  Biso   1.000  C
  O12      1.0000 0.32553  0.94990  0.34603  Biso   1.000  O
  N34      1.0000 0.36646  0.87995  0.33455  Biso   1.000  N
  O13      1.0000 0.32553  0.94993  0.34603  Biso   1.000  O
  C47      1.0000 0.36576  0.83344  0.36076  Biso   1.000  C
  H45      1.0000 0.30519  0.81702  0.41428  Biso   1.000  H
  C48      1.0000 0.40694  0.81335  0.44845  Biso   1.000  C
  C49      1.0000 0.64193  0.92903  0.35216  Biso   1.000  C
  N35      1.0000 0.56852  0.98160  0.25217  Biso   1.000  N
  O14      1.0000 0.54419  0.05877  0.25935  Biso   1.000  O
  C50      1.0000 0.61245  0.95551  0.25922  Biso   1.000  C
  H46      1.0000 0.67489  0.99669  0.25698  Biso   1.000  H
  H47      1.0000 0.67489  0.99672  0.25698  Biso   1.000  H
  C51      1.0000 0.38367  0.88922  0.27308  Biso   1.000  C
  N36      1.0000 0.41011  0.81892  0.38720  Biso   1.000  N
  H48      1.0000 0.35349  0.80951  0.33121  Biso   1.000  H
  O15      1.0000 0.43860  0.79896  0.48216  Biso   1.000  O
  N37      1.0000 0.61069  0.91947  0.30596  Biso   1.000  N
  O16      1.0000 0.65166  0.90230  0.39438  Biso   1.000  O
  O17      1.0000 0.65166  0.90234  0.39438  Biso   1.000  O
  C52      1.0000 0.53041  0.96453  0.21531  Biso   1.000  C
  H49      1.0000 0.62359  0.94239  0.21928  Biso   1.000  H
  H50      1.0000 0.62359  0.94242  0.21928  Biso   1.000  H
  N38      1.0000 0.43391  0.89472  0.26955  Biso   1.000  N
  H51      1.0000 0.37411  0.86288  0.24609  Biso   1.000  H
  H52      1.0000 0.36851  0.91831  0.25748  Biso   1.000  H
  H53      1.0000 0.37411  0.86292  0.24609  Biso   1.000  H
  C53      1.0000 0.44770  0.79819  0.35093  Biso   1.000  C
  C54      1.0000 0.59585  0.87226  0.29201  Biso   1.000  C
  N39      1.0000 0.50157  0.92924  0.24613  Biso   1.000  N
  H54      1.0000 0.51010  0.99140  0.20350  Biso   1.000  H
  H55      1.0000 0.54342  0.95071  0.17739  Biso   1.000  H
  C55      1.0000 0.46649  0.85562  0.26457  Biso   1.000  C
  C56      1.0000 0.45496  0.93682  0.25602  Biso   1.000  C
  C57      1.0000 0.46649  0.85566  0.26457  Biso   1.000  C
  N40      1.0000 0.47774  0.83281  0.32225  Biso   1.000  N
  H56      1.0000 0.46719  0.77781  0.37760  Biso   1.000  H
  H57      1.0000 0.43359  0.77799  0.31891  Biso   1.000  H
  H58      1.0000 0.43359  0.77802  0.31891  Biso   1.000  H
  N41      1.0000 0.54518  0.86556  0.29540  Biso   1.000  N
  H59      1.0000 0.60660  0.86408  0.25030  Biso   1.000  H
  H60      1.0000 0.61129  0.85030  0.32088  Biso   1.000  H
  H61      1.0000 0.60660  0.86412  0.25030  Biso   1.000  H
  C58      1.0000 0.51366  0.87963  0.24705  Biso   1.000  C
  H62      1.0000 0.45619  0.83239  0.23292  Biso   1.000  H
  H63      1.0000 0.45619  0.83242  0.23292  Biso   1.000  H
  O18      1.0000 0.43472  0.97500  0.25167  Biso   1.000  O
  C59      1.0000 0.52459  0.83665  0.33638  Biso   1.000  C
  H64      1.0000 0.52519  0.86870  0.20620  Biso   1.000  H
  O19      1.0000 0.54402  0.81638  0.37879  Biso   1.000  O
  O20      1.0000 0.54402  0.81642  0.37879  Biso   1.000  O
  O21      1.0000 0.45598  0.18362  0.62117  Biso   1.000  O
  C60      1.0000 0.47541  0.16335  0.66357  Biso   1.000  C
  C61      1.0000 0.47541  0.16338  0.66357  Biso   1.000  C
  N42      1.0000 0.45482  0.13444  0.70456  Biso   1.000  N
  N43      1.0000 0.52226  0.16719  0.67775  Biso   1.000  N
  N44      1.0000 0.52226  0.16722  0.67775  Biso   1.000  N
  C62      1.0000 0.40415  0.12774  0.70794  Biso   1.000  C
  C63      1.0000 0.48637  0.12037  0.75290  Biso   1.000  C
  C64      1.0000 0.53351  0.14438  0.73539  Biso   1.000  C
  C65      1.0000 0.55230  0.20181  0.64903  Biso   1.000  C
  N45      1.0000 0.38935  0.08053  0.69404  Biso   1.000  N
  N46      1.0000 0.38935  0.08056  0.69404  Biso   1.000  N
  H65      1.0000 0.39340  0.13592  0.74970  Biso   1.000  H
  H66      1.0000 0.38871  0.14970  0.67908  Biso   1.000  H
  N47      1.0000 0.49843  0.07076  0.75387  Biso   1.000  N
  H67      1.0000 0.47481  0.13130  0.79380  Biso   1.000  H
  N48      1.0000 0.56609  0.10528  0.73040  Biso   1.000  N
  H68      1.0000 0.54381  0.16761  0.76708  Biso   1.000  H
  H69      1.0000 0.56641  0.22201  0.68109  Biso   1.000  H
  N49      1.0000 0.58992  0.18108  0.61275  Biso   1.000  N
  H70      1.0000 0.53281  0.22219  0.62240  Biso   1.000  H
  N50      1.0000 0.58992  0.18112  0.61275  Biso   1.000  N
  H71      1.0000 0.53281  0.22223  0.62240  Biso   1.000  H
  C66      1.0000 0.35807  0.07097  0.64779  Biso   1.000  C
  C67      1.0000 0.35807  0.07101  0.64779  Biso   1.000  C
  C68      1.0000 0.38755  0.04449  0.74078  Biso   1.000  C
  C69      1.0000 0.46959  0.03547  0.78465  Biso   1.000  C
  C70      1.0000 0.46959  0.03550  0.78465  Biso   1.000  C
  C71      1.0000 0.54508  0.06318  0.74398  Biso   1.000  C
  C72      1.0000 0.61633  0.11078  0.72692  Biso   1.000  C
  C73      1.0000 0.59306  0.18665  0.55150  Biso   1.000  C
  C74      1.0000 0.63428  0.16656  0.63924  Biso   1.000  C
  C75      1.0000 0.63428  0.16659  0.63924  Biso   1.000  C
  N51      1.0000 0.33956  0.02732  0.65703  Biso   1.000  N
  O22      1.0000 0.34834  0.09770  0.60562  Biso   1.000  O
  C76      1.0000 0.35300  0.00751  0.71549  Biso   1.000  C
  N52      1.0000 0.43148  0.01840  0.74783  Biso   1.000  N
  H72      1.0000 0.37641  0.05761  0.78067  Biso   1.000  H
  H73      1.0000 0.48990  0.00860  0.79650  Biso   1.000  H
  H74      1.0000 0.45662  0.04929  0.82257  Biso   1.000  H
  H75      1.0000 0.45662  0.04932  0.82257  Biso   1.000  H
  O23      1.0000 0.56528  0.02500  0.74828  Biso   1.000  O
  H76      1.0000 0.62592  0.13712  0.75387  Biso   1.000  H
  N53      1.0000 0.63354  0.12005  0.66545  Biso   1.000  N
  H77      1.0000 0.63149  0.08169  0.74248  Biso   1.000  H
  N54      1.0000 0.63354  0.12009  0.66545  Biso   1.000  N
  H78      1.0000 0.63149  0.08173  0.74248  Biso   1.000  H
  N55      1.0000 0.63703  0.17283  0.53257  Biso   1.000  N
  O24      1.0000 0.56140  0.20104  0.51784  Biso   1.000  O
  O25      1.0000 0.56140  0.20107  0.51784  Biso   1.000  O
  H79      1.0000 0.64651  0.19049  0.66879  Biso   1.000  H
  C77      1.0000 0.66721  0.16123  0.58316  Biso   1.000  C
  H80      1.0000 0.64651  0.19053  0.66879  Biso   1.000  H
  C78      1.0000 0.66721  0.16127  0.58316  Biso   1.000  C
  C79      1.0000 0.29768  0.01118  0.62474  Biso   1.000  C
  C80      1.0000 0.29768  0.01121  0.62474  Biso   1.000  C
  N56      1.0000 0.38117  0.96481  0.71187  Biso   1.000  N
  N57      1.0000 0.38117  0.96485  0.71187  Biso   1.000  N
  H81      1.0000 0.32511  0.00331  0.74298  Biso   1.000  H
  C81      1.0000 0.42555  0.97169  0.73415  Biso   1.000  C
  C82      1.0000 0.42555  0.97172  0.73415  Biso   1.000  C
  C83      1.0000 0.66414  0.09015  0.63668  Biso   1.000  C
  C84      1.0000 0.65504  0.18228  0.47159  Biso   1.000  C
  N58      1.0000 0.68149  0.11247  0.58618  Biso   1.000  N
  H82      1.0000 0.69481  0.18298  0.58567  Biso   1.000  H
  H83      1.0000 0.69481  0.18302  0.58567  Biso   1.000  H
  N59      1.0000 0.30519  0.96873  0.59071  Biso   1.000  N
  H84      1.0000 0.27212  0.00582  0.65479  Biso   1.000  H
  H85      1.0000 0.28710  0.03631  0.59638  Biso   1.000  H
  C85      1.0000 0.36019  0.91873  0.70712  Biso   1.000  C
  O26      1.0000 0.45581  0.94123  0.74065  Biso   1.000  O
  O27      1.0000 0.67447  0.05010  0.65392  Biso   1.000  O
  N60      1.0000 0.66083  0.14015  0.43532  Biso   1.000  N
  H86      1.0000 0.68589  0.19839  0.47507  Biso   1.000  H
  H87      1.0000 0.63311  0.20389  0.45028  Biso   1.000  H
  H88      1.0000 0.68589  0.19843  0.47507  Biso   1.000  H
  H89      1.0000 0.63311  0.20393  0.45028  Biso   1.000  H
  C86      1.0000 0.71949  0.09259  0.54972  Biso   1.000  C
  C87      1.0000 0.29859  0.96707  0.52813  Biso   1.000  C
  C88      1.0000 0.30279  0.92191  0.61797  Biso   1.000  C
  N61      1.0000 0.34665  0.90667  0.64518  Biso   1.000  N
  H90      1.0000 0.33202  0.91739  0.73369  Biso   1.000  H
  H91      1.0000 0.38289  0.89500  0.72230  Biso   1.000  H
  C89      1.0000 0.63407  0.13066  0.38560  Biso   1.000  C
  C90      1.0000 0.70306  0.11131  0.43797  Biso   1.000  C
  N62      1.0000 0.70458  0.07884  0.48911  Biso   1.000  N
  H92      1.0000 0.73240  0.06470  0.57108  Biso   1.000  H
  H93      1.0000 0.74509  0.11610  0.54611  Biso   1.000  H
  O28      1.0000 0.29588  0.00127  0.49451  Biso   1.000  O
  N63      1.0000 0.29546  0.92116  0.51084  Biso   1.000  N
  N64      1.0000 0.29546  0.92120  0.51084  Biso   1.000  N
  C91      1.0000 0.29697  0.88869  0.56203  Biso   1.000  C
  H94      1.0000 0.27582  0.91901  0.64720  Biso   1.000  H
  C92      1.0000 0.36593  0.86934  0.61440  Biso   1.000  C
  N65      1.0000 0.65335  0.09333  0.35477  Biso   1.000  N
  O29      1.0000 0.59888  0.15221  0.36991  Biso   1.000  O
  C93      1.0000 0.69721  0.07809  0.38203  Biso   1.000  C
  C94      1.0000 0.69721  0.07813  0.38203  Biso   1.000  C
  H95      1.0000 0.73240  0.13070  0.43509  Biso   1.000  H
  C95      1.0000 0.70144  0.03293  0.47187  Biso   1.000  C
  C96      1.0000 0.70144  0.03297  0.47187  Biso   1.000  C
  C97      1.0000 0.28051  0.90741  0.45028  Biso   1.000  C
  N66      1.0000 0.33917  0.85985  0.56468  Biso   1.000  N
  H96      1.0000 0.26760  0.86930  0.56491  Biso   1.000  H
  N67      1.0000 0.33917  0.85989  0.56468  Biso   1.000  N
  O30      1.0000 0.40112  0.84779  0.63004  Biso   1.000  O
  C98      1.0000 0.63981  0.08127  0.29284  Biso   1.000  C
  N68      1.0000 0.69481  0.03127  0.40929  Biso   1.000  N
  H97      1.0000 0.72422  0.08099  0.35280  Biso   1.000  H
  H98      1.0000 0.72422  0.08102  0.35280  Biso   1.000  H
  O31      1.0000 0.70416  0.99873  0.50544  Biso   1.000  O
  N69      1.0000 0.31851  0.88753  0.41378  Biso   1.000  N
  H99      1.0000 0.26760  0.93530  0.42887  Biso   1.000  H
  H100     1.0000 0.25491  0.88390  0.45389  Biso   1.000  H
  N70      1.0000 0.31851  0.88756  0.41378  Biso   1.000  N
  C99      1.0000 0.34496  0.81772  0.52841  Biso   1.000  C
  N71      1.0000 0.61883  0.03519  0.28808  Biso   1.000  N
  H101     1.0000 0.66802  0.08261  0.26631  Biso   1.000  H
  H102     1.0000 0.61711  0.10500  0.27770  Biso   1.000  H
  C100     1.0000 0.70232  0.98882  0.37522  Biso   1.000  C
  C101     1.0000 0.33586  0.90985  0.36332  Biso   1.000  C
  C102     1.0000 0.33283  0.83877  0.41684  Biso   1.000  C
  N72      1.0000 0.36301  0.82717  0.46743  Biso   1.000  N
  H103     1.0000 0.31411  0.80161  0.52488  Biso   1.000  H
  H104     1.0000 0.36689  0.79611  0.54968  Biso   1.000  H
  C103     1.0000 0.57445  0.02831  0.26580  Biso   1.000  C
  C104     1.0000 0.64700  0.99249  0.28451  Biso   1.000  C
  C105     1.0000 0.64700  0.99253  0.28451  Biso   1.000  C
  N73      1.0000 0.66044  0.97268  0.34292  Biso   1.000  N
  N74      1.0000 0.66044  0.97271  0.34292  Biso   1.000  N
  H105     1.0000 0.72792  0.99418  0.34521  Biso   1.000  H
  H106     1.0000 0.71290  0.96369  0.40358  Biso   1.000  H
  H107     1.0000 0.72792  0.99422  0.34521  Biso   1.000  H
  H108     1.0000 0.71290  0.96372  0.40358  Biso   1.000  H
  O32      1.0000 0.32553  0.94990  0.34603  Biso   1.000  O
  N75      1.0000 0.36646  0.87995  0.33455  Biso   1.000  N
  O33      1.0000 0.32553  0.94993  0.34603  Biso   1.000  O
  C106     1.0000 0.36576  0.83344  0.36076  Biso   1.000  C
  H109     1.0000 0.30519  0.81702  0.41428  Biso   1.000  H
  C107     1.0000 0.40694  0.81335  0.44845  Biso   1.000  C
  N76      1.0000 0.56852  0.98160  0.25217  Biso   1.000  N
  O34      1.0000 0.54419  0.05877  0.25935  Biso   1.000  O
  C108     1.0000 0.61245  0.95551  0.25922  Biso   1.000  C
  H110     1.0000 0.67489  0.99669  0.25698  Biso   1.000  H
  H111     1.0000 0.67489  0.99672  0.25698  Biso   1.000  H
  C109     1.0000 0.64193  0.92903  0.35216  Biso   1.000  C
  C110     1.0000 0.38367  0.88922  0.27308  Biso   1.000  C
  N77      1.0000 0.41011  0.81892  0.38720  Biso   1.000  N
  H112     1.0000 0.35349  0.80951  0.33121  Biso   1.000  H
  O35      1.0000 0.43860  0.79896  0.48216  Biso   1.000  O
  C111     1.0000 0.53041  0.96453  0.21531  Biso   1.000  C
  N78      1.0000 0.61069  0.91947  0.30596  Biso   1.000  N
  H113     1.0000 0.62359  0.94239  0.21928  Biso   1.000  H
  H114     1.0000 0.62359  0.94242  0.21928  Biso   1.000  H
  O36      1.0000 0.65166  0.90230  0.39438  Biso   1.000  O
  O37      1.0000 0.65166  0.90234  0.39438  Biso   1.000  O
  N79      1.0000 0.43391  0.89472  0.26955  Biso   1.000  N
  H115     1.0000 0.37411  0.86288  0.24609  Biso   1.000  H
  H116     1.0000 0.36851  0.91831  0.25748  Biso   1.000  H
  H117     1.0000 0.37411  0.86292  0.24609  Biso   1.000  H
  C112     1.0000 0.44770  0.79819  0.35093  Biso   1.000  C
  N80      1.0000 0.50157  0.92924  0.24613  Biso   1.000  N
  H118     1.0000 0.51010  0.99140  0.20350  Biso   1.000  H
  H119     1.0000 0.54342  0.95071  0.17739  Biso   1.000  H
  C113     1.0000 0.59585  0.87226  0.29201  Biso   1.000  C
  C114     1.0000 0.46649  0.85562  0.26457  Biso   1.000  C
  C115     1.0000 0.45496  0.93682  0.25602  Biso   1.000  C
  C116     1.0000 0.46649  0.85566  0.26457  Biso   1.000  C
  N81      1.0000 0.47774  0.83281  0.32225  Biso   1.000  N
  H120     1.0000 0.46719  0.77781  0.37760  Biso   1.000  H
  H121     1.0000 0.43359  0.77799  0.31891  Biso   1.000  H
  H122     1.0000 0.43359  0.77802  0.31891  Biso   1.000  H
  C117     1.0000 0.51366  0.87963  0.24705  Biso   1.000  C
  N82      1.0000 0.54518  0.86556  0.29540  Biso   1.000  N
  H123     1.0000 0.60660  0.86408  0.25030  Biso   1.000  H
  H124     1.0000 0.61129  0.85030  0.32088  Biso   1.000  H
  H125     1.0000 0.60660  0.86412  0.25030  Biso   1.000  H
  H126     1.0000 0.45619  0.83239  0.23292  Biso   1.000  H
  H127     1.0000 0.45619  0.83242  0.23292  Biso   1.000  H
  O38      1.0000 0.43472  0.97500  0.25167  Biso   1.000  O
  C118     1.0000 0.52459  0.83665  0.33638  Biso   1.000  C
  H128     1.0000 0.52519  0.86870  0.20620  Biso   1.000  H
  O39      1.0000 0.54402  0.81638  0.37879  Biso   1.000  O
  O40      1.0000 0.54402  0.81642  0.37879  Biso   1.000  O
  C119     1.0000 0.36576  0.33343  0.63924  Biso   1.000  C
  C120     1.0000 0.33283  0.33875  0.58316  Biso   1.000  C
  N83      1.0000 0.41011  0.31890  0.61275  Biso   1.000  N
  N84      1.0000 0.36646  0.37993  0.66545  Biso   1.000  N
  H129     1.0000 0.35349  0.30949  0.66879  Biso   1.000  H
  N85      1.0000 0.36301  0.32719  0.53257  Biso   1.000  N
  N86      1.0000 0.31851  0.38755  0.58618  Biso   1.000  N
  H130     1.0000 0.30519  0.31700  0.58567  Biso   1.000  H
  C121     1.0000 0.40694  0.31337  0.55150  Biso   1.000  C
  C122     1.0000 0.44770  0.29821  0.64903  Biso   1.000  C
  C123     1.0000 0.33586  0.40986  0.63668  Biso   1.000  C
  C124     1.0000 0.38367  0.38924  0.72692  Biso   1.000  C
  C125     1.0000 0.34496  0.31774  0.47159  Biso   1.000  C
  C126     1.0000 0.28051  0.40743  0.54972  Biso   1.000  C
  O41      1.0000 0.43860  0.29895  0.51784  Biso   1.000  O
  N87      1.0000 0.47774  0.33279  0.67775  Biso   1.000  N
  H131     1.0000 0.46719  0.27779  0.62240  Biso   1.000  H
  H132     1.0000 0.43359  0.27800  0.68109  Biso   1.000  H
  O42      1.0000 0.32553  0.44992  0.65392  Biso   1.000  O
  N88      1.0000 0.43391  0.39474  0.73040  Biso   1.000  N
  H133     1.0000 0.37411  0.36290  0.75387  Biso   1.000  H
  H134     1.0000 0.36851  0.41829  0.74248  Biso   1.000  H
  N89      1.0000 0.33917  0.35987  0.43532  Biso   1.000  N
  H135     1.0000 0.31411  0.30159  0.47507  Biso   1.000  H
  H136     1.0000 0.36689  0.29609  0.45028  Biso   1.000  H
  N90      1.0000 0.29546  0.42118  0.48911  Biso   1.000  N
  H137     1.0000 0.26760  0.43532  0.57108  Biso   1.000  H
  H138     1.0000 0.25491  0.38392  0.54611  Biso   1.000  H
  C127     1.0000 0.52459  0.33664  0.66357  Biso   1.000  C
  C128     1.0000 0.46649  0.35564  0.73539  Biso   1.000  C
  C129     1.0000 0.45496  0.43684  0.74398  Biso   1.000  C
  C130     1.0000 0.36593  0.36935  0.38560  Biso   1.000  C
  C131     1.0000 0.29697  0.38871  0.43797  Biso   1.000  C
  C132     1.0000 0.29859  0.46705  0.47187  Biso   1.000  C
  O43      1.0000 0.54402  0.31640  0.62117  Biso   1.000  O
  N91      1.0000 0.54518  0.36555  0.70456  Biso   1.000  N
  C133     1.0000 0.51366  0.37965  0.75290  Biso   1.000  C
  H139     1.0000 0.45619  0.33240  0.76708  Biso   1.000  H
  O44      1.0000 0.43472  0.47502  0.74828  Biso   1.000  O
  N92      1.0000 0.50157  0.42926  0.75387  Biso   1.000  N
  O45      1.0000 0.40112  0.34781  0.36991  Biso   1.000  O
  N93      1.0000 0.34665  0.40669  0.35477  Biso   1.000  N
  C134     1.0000 0.30279  0.42189  0.38203  Biso   1.000  C
  H140     1.0000 0.26760  0.36932  0.43509  Biso   1.000  H
  N94      1.0000 0.30519  0.46874  0.40929  Biso   1.000  N
  O46      1.0000 0.29588  0.50129  0.50544  Biso   1.000  O
  C135     1.0000 0.59585  0.37228  0.70794  Biso   1.000  C
  H141     1.0000 0.52519  0.36872  0.79380  Biso   1.000  H
  C136     1.0000 0.53041  0.46451  0.78465  Biso   1.000  C
  C137     1.0000 0.36019  0.41875  0.29284  Biso   1.000  C
  H142     1.0000 0.27582  0.41900  0.35280  Biso   1.000  H
  C138     1.0000 0.29768  0.51119  0.37522  Biso   1.000  C
  N95      1.0000 0.61069  0.41945  0.69404  Biso   1.000  N
  H143     1.0000 0.60660  0.36410  0.74970  Biso   1.000  H
  H144     1.0000 0.61129  0.35032  0.67908  Biso   1.000  H
  N96      1.0000 0.56852  0.48161  0.74783  Biso   1.000  N
  H145     1.0000 0.51010  0.49141  0.79650  Biso   1.000  H
  H146     1.0000 0.54342  0.45069  0.82257  Biso   1.000  H
  N97      1.0000 0.38117  0.46483  0.28808  Biso   1.000  N
  H147     1.0000 0.33202  0.41741  0.26631  Biso   1.000  H
  H148     1.0000 0.38289  0.39502  0.27770  Biso   1.000  H
  N98      1.0000 0.33956  0.52731  0.34292  Biso   1.000  N
  H149     1.0000 0.27212  0.50580  0.34521  Biso   1.000  H
  H150     1.0000 0.28710  0.53630  0.40358  Biso   1.000  H
  C139     1.0000 0.64193  0.42901  0.64779  Biso   1.000  C
  C140     1.0000 0.61245  0.45552  0.74078  Biso   1.000  C
  C141     1.0000 0.57445  0.52829  0.73415  Biso   1.000  C
  C142     1.0000 0.35300  0.50749  0.28451  Biso   1.000  C
  C143     1.0000 0.42555  0.47171  0.26580  Biso   1.000  C
  C144     1.0000 0.35807  0.57099  0.35216  Biso   1.000  C
  O47      1.0000 0.65166  0.40232  0.60562  Biso   1.000  O
  N99      1.0000 0.66044  0.47269  0.65703  Biso   1.000  N
  C145     1.0000 0.64700  0.49251  0.71549  Biso   1.000  C
  H151     1.0000 0.62359  0.44241  0.78067  Biso   1.000  H
  O48      1.0000 0.54419  0.55879  0.74065  Biso   1.000  O
  N100     1.0000 0.61883  0.53517  0.71187  Biso   1.000  N
  H152     1.0000 0.32511  0.50330  0.25698  Biso   1.000  H
  C146     1.0000 0.38755  0.54451  0.25922  Biso   1.000  C
  O49      1.0000 0.45581  0.44124  0.25935  Biso   1.000  O
  N101     1.0000 0.43148  0.51842  0.25217  Biso   1.000  N
  N102     1.0000 0.38935  0.58055  0.30596  Biso   1.000  N
  O50      1.0000 0.34834  0.59768  0.39438  Biso   1.000  O
  C147     1.0000 0.70232  0.48881  0.62474  Biso   1.000  C
  H153     1.0000 0.67489  0.49670  0.74298  Biso   1.000  H
  C148     1.0000 0.63981  0.58129  0.70712  Biso   1.000  C
  H154     1.0000 0.37641  0.55759  0.21928  Biso   1.000  H
  C149     1.0000 0.46959  0.53549  0.21531  Biso   1.000  C
  C150     1.0000 0.40415  0.62775  0.29201  Biso   1.000  C
  N103     1.0000 0.69481  0.53129  0.59071  Biso   1.000  N
  H155     1.0000 0.72792  0.49420  0.65479  Biso   1.000  H
  H156     1.0000 0.71290  0.46370  0.59638  Biso   1.000  H
  N104     1.0000 0.65335  0.59334  0.64518  Biso   1.000  N
  H157     1.0000 0.66802  0.58259  0.73369  Biso   1.000  H
  H158     1.0000 0.61711  0.60501  0.72230  Biso   1.000  H
  N105     1.0000 0.49843  0.57078  0.24613  Biso   1.000  N
  H159     1.0000 0.48990  0.50862  0.20350  Biso   1.000  H
  H160     1.0000 0.45662  0.54931  0.17739  Biso   1.000  H
  N106     1.0000 0.45482  0.63445  0.29540  Biso   1.000  N
  H161     1.0000 0.39340  0.63590  0.25030  Biso   1.000  H
  H162     1.0000 0.38871  0.64972  0.32088  Biso   1.000  H
  C151     1.0000 0.70144  0.53295  0.52813  Biso   1.000  C
  C152     1.0000 0.69721  0.57811  0.61797  Biso   1.000  C
  C153     1.0000 0.63407  0.63068  0.61440  Biso   1.000  C
  C154     1.0000 0.48637  0.62035  0.24705  Biso   1.000  C
  C155     1.0000 0.54508  0.56320  0.25602  Biso   1.000  C
  C156     1.0000 0.47541  0.66336  0.33638  Biso   1.000  C
  N107     1.0000 0.70458  0.57882  0.51084  Biso   1.000  N
  O51      1.0000 0.70416  0.49875  0.49451  Biso   1.000  O
  C157     1.0000 0.70306  0.61129  0.56203  Biso   1.000  C
  H163     1.0000 0.72422  0.58100  0.64720  Biso   1.000  H
  N108     1.0000 0.66083  0.64013  0.56468  Biso   1.000  N
  O52      1.0000 0.59888  0.65222  0.63004  Biso   1.000  O
  C158     1.0000 0.53351  0.64436  0.26457  Biso   1.000  C
  H164     1.0000 0.47481  0.63132  0.20620  Biso   1.000  H
  N109     1.0000 0.56609  0.60526  0.26955  Biso   1.000  N
  O53      1.0000 0.56528  0.52501  0.25167  Biso   1.000  O
  N110     1.0000 0.52226  0.66721  0.32225  Biso   1.000  N
  O54      1.0000 0.45598  0.68360  0.37879  Biso   1.000  O
  C159     1.0000 0.71949  0.59260  0.45028  Biso   1.000  C
  H165     1.0000 0.73240  0.63072  0.56491  Biso   1.000  H
  C160     1.0000 0.65504  0.68230  0.52841  Biso   1.000  C
  H166     1.0000 0.54381  0.66760  0.23292  Biso   1.000  H
  C161     1.0000 0.61633  0.61076  0.27308  Biso   1.000  C
  C162     1.0000 0.55230  0.70183  0.35093  Biso   1.000  C
  N111     1.0000 0.68149  0.61245  0.41378  Biso   1.000  N
  H167     1.0000 0.73240  0.56471  0.42887  Biso   1.000  H
  H168     1.0000 0.74509  0.61612  0.45389  Biso   1.000  H
  N112     1.0000 0.63703  0.67285  0.46743  Biso   1.000  N
  H169     1.0000 0.68589  0.69841  0.52488  Biso   1.000  H
  H170     1.0000 0.63311  0.70391  0.54968  Biso   1.000  H
  N113     1.0000 0.63354  0.62007  0.33455  Biso   1.000  N
  H171     1.0000 0.62592  0.63710  0.24609  Biso   1.000  H
  H172     1.0000 0.63149  0.58171  0.25748  Biso   1.000  H
  N114     1.0000 0.58992  0.68110  0.38720  Biso   1.000  N
  H173     1.0000 0.53281  0.72221  0.37760  Biso   1.000  H
  H174     1.0000 0.56641  0.72200  0.31891  Biso   1.000  H
  C163     1.0000 0.66414  0.59017  0.36332  Biso   1.000  C
  C164     1.0000 0.66721  0.66125  0.41684  Biso   1.000  C
  C165     1.0000 0.59306  0.68667  0.44845  Biso   1.000  C
  C166     1.0000 0.63428  0.66657  0.36076  Biso   1.000  C
  O55      1.0000 0.67447  0.55008  0.34603  Biso   1.000  O
  H175     1.0000 0.69481  0.68300  0.41428  Biso   1.000  H
  O56      1.0000 0.56140  0.70105  0.48216  Biso   1.000  O
  H176     1.0000 0.64651  0.69051  0.33121  Biso   1.000  H
  O57      1.0000 0.30878  0.20580  0.49067  Biso   1.000  O
  C167     1.0000 0.27832  0.17555  0.48417  Biso   1.000  C
  N115     1.0000 0.23160  0.18150  0.49785  Biso   1.000  N
  N116     1.0000 0.28516  0.13116  0.46190  Biso   1.000  N
  C168     1.0000 0.21450  0.21958  0.53467  Biso   1.000  C
  C169     1.0000 0.20551  0.13754  0.49076  Biso   1.000  C
  C170     1.0000 0.33128  0.11021  0.45714  Biso   1.000  C
  C171     1.0000 0.24250  0.10299  0.46547  Biso   1.000  C
  N117     1.0000 0.17925  0.24842  0.50389  Biso   1.000  N
  H177     1.0000 0.24141  0.23989  0.54647  Biso   1.000  H
  H178     1.0000 0.20072  0.20661  0.57259  Biso   1.000  H
  N118     1.0000 0.16945  0.13934  0.44401  Biso   1.000  N
  H179     1.0000 0.19240  0.12640  0.53069  Biso   1.000  H
  N119     1.0000 0.34333  0.09664  0.39521  Biso   1.000  N
  H180     1.0000 0.33262  0.08201  0.48367  Biso   1.000  H
  H181     1.0000 0.35500  0.13288  0.47228  Biso   1.000  H
  N120     1.0000 0.22268  0.08959  0.40705  Biso   1.000  N
  H182     1.0000 0.24669  0.07510  0.49300  Biso   1.000  H
  C172     1.0000 0.18683  0.29507  0.49396  Biso   1.000  C
  C173     1.0000 0.12964  0.23636  0.50293  Biso   1.000  C
  C174     1.0000 0.12227  0.15414  0.45796  Biso   1.000  C
  C175     1.0000 0.17904  0.10806  0.39781  Biso   1.000  C
  C176     1.0000 0.38067  0.11593  0.36442  Biso   1.000  C
  C177     1.0000 0.32810  0.05278  0.36794  Biso   1.000  C
  C178     1.0000 0.23880  0.04767  0.37476  Biso   1.000  C
  N121     1.0000 0.14473  0.31608  0.48042  Biso   1.000  N
  O58      1.0000 0.22501  0.31531  0.49831  Biso   1.000  O
  C179     1.0000 0.10563  0.28350  0.48541  Biso   1.000  C
  N122     1.0000 0.11557  0.20481  0.45458  Biso   1.000  N
  H183     1.0000 0.11871  0.22480  0.54377  Biso   1.000  H
  H184     1.0000 0.11409  0.14339  0.49968  Biso   1.000  H
  H185     1.0000 0.10031  0.13870  0.42910  Biso   1.000  H
  O59      1.0000 0.15231  0.09837  0.35564  Biso   1.000  O
  N123     1.0000 0.39012  0.08917  0.31466  Biso   1.000  N
  O60      1.0000 0.40221  0.15115  0.38007  Biso   1.000  O
  C180     1.0000 0.36132  0.04696  0.31200  Biso   1.000  C
  N124     1.0000 0.28128  0.05518  0.34068  Biso   1.000  N
  H186     1.0000 0.33099  0.02581  0.39717  Biso   1.000  H
  H187     1.0000 0.24419  0.02211  0.40481  Biso   1.000  H
  H188     1.0000 0.21369  0.03709  0.34640  Biso   1.000  H
  C181     1.0000 0.13923  0.36636  0.47690  Biso   1.000  C
  N125     1.0000 0.08278  0.27226  0.42777  Biso   1.000  N
  H189     1.0000 0.08240  0.29380  0.51711  Biso   1.000  H
  C182     1.0000 0.08663  0.22543  0.41359  Biso   1.000  C
  C183     1.0000 0.43229  0.09498  0.27838  Biso   1.000  C
  N126     1.0000 0.32881  0.04545  0.26086  Biso   1.000  N
  H190     1.0000 0.38071  0.01759  0.31488  Biso   1.000  H
  C184     1.0000 0.28294  0.04858  0.27811  Biso   1.000  C
  N127     1.0000 0.12996  0.38353  0.41547  Biso   1.000  N
  H191     1.0000 0.11289  0.37591  0.50389  Biso   1.000  H
  H192     1.0000 0.16832  0.38152  0.49250  Biso   1.000  H
  C185     1.0000 0.04820  0.30230  0.39905  Biso   1.000  C
  O61      1.0000 0.06639  0.20601  0.37119  Biso   1.000  O
  N128     1.0000 0.42284  0.11300  0.21741  Biso   1.000  N
  H193     1.0000 0.44840  0.06410  0.27491  Biso   1.000  H
  H194     1.0000 0.45390  0.11691  0.29970  Biso   1.000  H
  C186     1.0000 0.34259  0.03050  0.20030  Biso   1.000  C
  O62      1.0000 0.24874  0.04587  0.24453  Biso   1.000  O
  C187     1.0000 0.15986  0.41413  0.38665  Biso   1.000  C
  C188     1.0000 0.08342  0.38427  0.38921  Biso   1.000  C
  N129     1.0000 0.06893  0.33991  0.36278  Biso   1.000  N
  H195     1.0000 0.02778  0.28280  0.37238  Biso   1.000  H
  H196     1.0000 0.02799  0.31640  0.43111  Biso   1.000  H
  C189     1.0000 0.43666  0.15697  0.19847  Biso   1.000  C
  C190     1.0000 0.41124  0.08282  0.16682  Biso   1.000  C
  N130     1.0000 0.36248  0.06850  0.16380  Biso   1.000  N
  H197     1.0000 0.31471  0.01759  0.17889  Biso   1.000  H
  H198     1.0000 0.36611  0.00490  0.20392  Biso   1.000  H
  N131     1.0000 0.13754  0.43148  0.33620  Biso   1.000  N
  O63      1.0000 0.19991  0.42446  0.40394  Biso   1.000  O
  C191     1.0000 0.08878  0.41720  0.33314  Biso   1.000  C
  H199     1.0000 0.05951  0.39650  0.41881  Biso   1.000  H
  C192     1.0000 0.06336  0.34305  0.30153  Biso   1.000  C
  N132     1.0000 0.43109  0.16010  0.13722  Biso   1.000  N
  O64      1.0000 0.45105  0.18859  0.23214  Biso   1.000  O
  C193     1.0000 0.41656  0.11575  0.11079  Biso   1.000  C
  H200     1.0000 0.43299  0.05521  0.16430  Biso   1.000  H
  C194     1.0000 0.34016  0.08589  0.11330  Biso   1.000  C
  C195     1.0000 0.15742  0.46948  0.29970  Biso   1.000  C
  N133     1.0000 0.07718  0.38702  0.28255  Biso   1.000  N
  H201     1.0000 0.06699  0.44480  0.33570  Biso   1.000  H
  O65      1.0000 0.04894  0.31139  0.26786  Biso   1.000  O
  C196     1.0000 0.45182  0.19769  0.10095  Biso   1.000  C
  N134     1.0000 0.37006  0.11645  0.08453  Biso   1.000  N
  H202     1.0000 0.44050  0.10352  0.08119  Biso   1.000  H
  O66      1.0000 0.30011  0.07556  0.09606  Biso   1.000  O
  N135     1.0000 0.17117  0.45457  0.23914  Biso   1.000  N
  H203     1.0000 0.18531  0.48239  0.32111  Biso   1.000  H
  H204     1.0000 0.13391  0.49512  0.29608  Biso   1.000  H
  C197     1.0000 0.06773  0.40503  0.22162  Biso   1.000  C
  N136     1.0000 0.41720  0.22773  0.07223  Biso   1.000  N
  H205     1.0000 0.47220  0.21722  0.12762  Biso   1.000  H
  H206     1.0000 0.47199  0.18362  0.06889  Biso   1.000  H
  C198     1.0000 0.36079  0.13366  0.02310  Biso   1.000  C
  C199     1.0000 0.21708  0.45143  0.22189  Biso   1.000  C
  C200     1.0000 0.13870  0.45306  0.18800  Biso   1.000  C
  N137     1.0000 0.10986  0.41082  0.18530  Biso   1.000  N
  H207     1.0000 0.05162  0.43592  0.22509  Biso   1.000  H
  H208     1.0000 0.04612  0.38310  0.20030  Biso   1.000  H
  C201     1.0000 0.41336  0.27458  0.08641  Biso   1.000  C
  C202     1.0000 0.39435  0.21648  0.01459  Biso   1.000  C
  N138     1.0000 0.35529  0.18394  0.01958  Biso   1.000  N
  H209     1.0000 0.33170  0.11850  0.00750  Biso   1.000  H
  H210     1.0000 0.38709  0.12411  0.99611  Biso   1.000  H
  N139     1.0000 0.21874  0.44484  0.15932  Biso   1.000  N
  O67      1.0000 0.25128  0.45415  0.25547  Biso   1.000  O
  C203     1.0000 0.17188  0.44720  0.13201  Biso   1.000  C
  H211     1.0000 0.11931  0.48239  0.18512  Biso   1.000  H
  C204     1.0000 0.11935  0.38406  0.13558  Biso   1.000  C
  N140     1.0000 0.38444  0.29521  0.04542  Biso   1.000  N
  O68      1.0000 0.43359  0.29401  0.12881  Biso   1.000  O
  C205     1.0000 0.37038  0.26365  0.99707  Biso   1.000  C
  H212     1.0000 0.41762  0.20622  0.98289  Biso   1.000  H
  C206     1.0000 0.31319  0.20495  0.00604  Biso   1.000  C
  C207     1.0000 0.26119  0.45231  0.12524  Biso   1.000  C
  N141     1.0000 0.15668  0.40334  0.10479  Biso   1.000  N
  H213     1.0000 0.16899  0.47421  0.10278  Biso   1.000  H
  O69      1.0000 0.09780  0.34887  0.11993  Biso   1.000  O
  C208     1.0000 0.37775  0.34584  0.04204  Biso   1.000  C
  N142     1.0000 0.32077  0.25160  0.99611  Biso   1.000  N
  H214     1.0000 0.38131  0.27522  0.95618  Biso   1.000  H
  O70      1.0000 0.27501  0.18471  0.00169  Biso   1.000  O
  N143     1.0000 0.27730  0.41043  0.09295  Biso   1.000  N
  H215     1.0000 0.25579  0.47791  0.09519  Biso   1.000  H
  H216     1.0000 0.28629  0.46289  0.15360  Biso   1.000  H
  C209     1.0000 0.16874  0.38980  0.04286  Biso   1.000  C
  N144     1.0000 0.33054  0.36068  0.05599  Biso   1.000  N
  H217     1.0000 0.38589  0.35659  0.00032  Biso   1.000  H
  H218     1.0000 0.39971  0.36132  0.07090  Biso   1.000  H
  C210     1.0000 0.28548  0.28040  0.96533  Biso   1.000  C
  C211     1.0000 0.32098  0.39192  0.10219  Biso   1.000  C
  C212     1.0000 0.25752  0.39703  0.03449  Biso   1.000  C
  N145     1.0000 0.21482  0.36886  0.03810  Biso   1.000  N
  H219     1.0000 0.16740  0.41801  0.01628  Biso   1.000  H
  H220     1.0000 0.14501  0.36710  0.02772  Biso   1.000  H
  C213     1.0000 0.29450  0.36248  0.00924  Biso   1.000  C
  N146     1.0000 0.26841  0.31851  0.00215  Biso   1.000  N
  H221     1.0000 0.25861  0.26009  0.95348  Biso   1.000  H
  H222     1.0000 0.29930  0.29341  0.92741  Biso   1.000  H
  O71      1.0000 0.34767  0.40165  0.14436  Biso   1.000  O
  H223     1.0000 0.25329  0.42492  0.00700  Biso   1.000  H
  C214     1.0000 0.22170  0.32444  0.01583  Biso   1.000  C
  H224     1.0000 0.30762  0.37362  0.96931  Biso   1.000  H
  O72      1.0000 0.19124  0.29419  0.00933  Biso   1.000  O
  C215     1.0000 0.11635  0.11078  0.77308  Biso   1.000  C
  N147     1.0000 0.06607  0.10528  0.76960  Biso   1.000  N
  N148     1.0000 0.13352  0.12005  0.83455  Biso   1.000  N
  H225     1.0000 0.12590  0.13712  0.74609  Biso   1.000  H
  H226     1.0000 0.13151  0.08169  0.75752  Biso   1.000  H
  N149     1.0000 0.06607  0.10528  0.76955  Biso   1.000  N
  N150     1.0000 0.13352  0.12005  0.83451  Biso   1.000  N
  H227     1.0000 0.13151  0.08169  0.75748  Biso   1.000  H
  N151     1.0000 0.13352  0.12009  0.83455  Biso   1.000  N
  H228     1.0000 0.13151  0.08173  0.75752  Biso   1.000  H
  N152     1.0000 0.13352  0.12009  0.83451  Biso   1.000  N
  H229     1.0000 0.13151  0.08173  0.75748  Biso   1.000  H
  N153     1.0000 0.06611  0.10528  0.76960  Biso   1.000  N
  N154     1.0000 0.13355  0.12005  0.83455  Biso   1.000  N
  N155     1.0000 0.06611  0.10528  0.76955  Biso   1.000  N
  N156     1.0000 0.13355  0.12005  0.83451  Biso   1.000  N
  N157     1.0000 0.13355  0.12009  0.83455  Biso   1.000  N
  N158     1.0000 0.13355  0.12009  0.83451  Biso   1.000  N
  C216     1.0000 0.03349  0.14438  0.76457  Biso   1.000  C
  C217     1.0000 0.04506  0.06318  0.75602  Biso   1.000  C
  C218     1.0000 0.03353  0.14438  0.76457  Biso   1.000  C
  C219     1.0000 0.13426  0.16656  0.86076  Biso   1.000  C
  C220     1.0000 0.16412  0.09015  0.86332  Biso   1.000  C
  C221     1.0000 0.13426  0.16659  0.86076  Biso   1.000  C
  C222     1.0000 0.16416  0.09015  0.86332  Biso   1.000  C
  N159     1.0000 0.02225  0.16719  0.82225  Biso   1.000  N
  H230     1.0000 0.04379  0.16761  0.73292  Biso   1.000  H
  N160     1.0000 0.02225  0.16719  0.82220  Biso   1.000  N
  H231     1.0000 0.04379  0.16761  0.73287  Biso   1.000  H
  N161     1.0000 0.02225  0.16722  0.82225  Biso   1.000  N
  N162     1.0000 0.02225  0.16722  0.82220  Biso   1.000  N
  N163     1.0000 0.02228  0.16719  0.82225  Biso   1.000  N
  H232     1.0000 0.04382  0.16761  0.73292  Biso   1.000  H
  N164     1.0000 0.02228  0.16719  0.82220  Biso   1.000  N
  H233     1.0000 0.04382  0.16761  0.73287  Biso   1.000  H
  N165     1.0000 0.02228  0.16722  0.82225  Biso   1.000  N
  N166     1.0000 0.02228  0.16722  0.82220  Biso   1.000  N
  C223     1.0000 0.98636  0.12037  0.74710  Biso   1.000  C
  C224     1.0000 0.98636  0.12037  0.74705  Biso   1.000  C
  O73      1.0000 0.06530  0.02500  0.75167  Biso   1.000  O
  N167     1.0000 0.99841  0.07076  0.74613  Biso   1.000  N
  N168     1.0000 0.99841  0.07076  0.74609  Biso   1.000  N
  N169     1.0000 0.08991  0.18108  0.88720  Biso   1.000  N
  H234     1.0000 0.14649  0.19049  0.83121  Biso   1.000  H
  C225     1.0000 0.16719  0.16123  0.91684  Biso   1.000  C
  H235     1.0000 0.14649  0.19049  0.83117  Biso   1.000  H
  N170     1.0000 0.08991  0.18112  0.88720  Biso   1.000  N
  H236     1.0000 0.14649  0.19053  0.83121  Biso   1.000  H
  C226     1.0000 0.16719  0.16127  0.91684  Biso   1.000  C
  H237     1.0000 0.14649  0.19053  0.83117  Biso   1.000  H
  H238     1.0000 0.14653  0.19049  0.83121  Biso   1.000  H
  H239     1.0000 0.14653  0.19049  0.83117  Biso   1.000  H
  H240     1.0000 0.14653  0.19053  0.83121  Biso   1.000  H
  H241     1.0000 0.14653  0.19053  0.83117  Biso   1.000  H
  O74      1.0000 0.17445  0.05010  0.84608  Biso   1.000  O
  N171     1.0000 0.18150  0.11247  0.91378  Biso   1.000  N
  O75      1.0000 0.17445  0.05010  0.84603  Biso   1.000  O
  O76      1.0000 0.17449  0.05010  0.84608  Biso   1.000  O
  O77      1.0000 0.17449  0.05010  0.84603  Biso   1.000  O
  C227     1.0000 0.05229  0.20181  0.85093  Biso   1.000  C
  C228     1.0000 0.05232  0.20181  0.85093  Biso   1.000  C
  C229     1.0000 0.97543  0.16335  0.83638  Biso   1.000  C
  C230     1.0000 0.97543  0.16338  0.83638  Biso   1.000  C
  N172     1.0000 0.95480  0.13444  0.79544  Biso   1.000  N
  H242     1.0000 0.97479  0.13130  0.70620  Biso   1.000  H
  N173     1.0000 0.95480  0.13444  0.79540  Biso   1.000  N
  N174     1.0000 0.95484  0.13444  0.79544  Biso   1.000  N
  H243     1.0000 0.97483  0.13130  0.70620  Biso   1.000  H
  N175     1.0000 0.95484  0.13444  0.79540  Biso   1.000  N
  C231     1.0000 0.96957  0.03547  0.71531  Biso   1.000  C
  C232     1.0000 0.96957  0.03550  0.71531  Biso   1.000  C
  C233     1.0000 0.96961  0.03547  0.71531  Biso   1.000  C
  C234     1.0000 0.96961  0.03550  0.71531  Biso   1.000  C
  C235     1.0000 0.09304  0.18665  0.94850  Biso   1.000  C
  C236     1.0000 0.09304  0.18665  0.94845  Biso   1.000  C
  C237     1.0000 0.09308  0.18665  0.94850  Biso   1.000  C
  C238     1.0000 0.09308  0.18665  0.94845  Biso   1.000  C
  N176     1.0000 0.13701  0.17283  0.96743  Biso   1.000  N
  H244     1.0000 0.19480  0.18298  0.91428  Biso   1.000  H
  H245     1.0000 0.19480  0.18302  0.91428  Biso   1.000  H
  C239     1.0000 0.21948  0.09259  0.95028  Biso   1.000  C
  C240     1.0000 0.21951  0.09259  0.95028  Biso   1.000  C
  H246     1.0000 0.03279  0.22219  0.87760  Biso   1.000  H
  H247     1.0000 0.06639  0.22201  0.81891  Biso   1.000  H
  H248     1.0000 0.06639  0.22201  0.81886  Biso   1.000  H
  H249     1.0000 0.03279  0.22223  0.87760  Biso   1.000  H
  H250     1.0000 0.03282  0.22219  0.87760  Biso   1.000  H
  H251     1.0000 0.06642  0.22201  0.81891  Biso   1.000  H
  H252     1.0000 0.06642  0.22201  0.81886  Biso   1.000  H
  H253     1.0000 0.03282  0.22223  0.87760  Biso   1.000  H
  O78      1.0000 0.95600  0.18362  0.87879  Biso   1.000  O
  C241     1.0000 0.90417  0.12774  0.79201  Biso   1.000  C
  N177     1.0000 0.93150  0.01840  0.75217  Biso   1.000  N
  H254     1.0000 0.98992  0.00860  0.70350  Biso   1.000  H
  H255     1.0000 0.95660  0.04929  0.67739  Biso   1.000  H
  N178     1.0000 0.93150  0.01840  0.75213  Biso   1.000  N
  H256     1.0000 0.95660  0.04932  0.67739  Biso   1.000  H
  O79      1.0000 0.06142  0.20104  0.98216  Biso   1.000  O
  O80      1.0000 0.06142  0.20104  0.98212  Biso   1.000  O
  O81      1.0000 0.06142  0.20107  0.98216  Biso   1.000  O
  O82      1.0000 0.06142  0.20107  0.98212  Biso   1.000  O
  C242     1.0000 0.15503  0.18228  0.02841  Biso   1.000  C
  C243     1.0000 0.15503  0.18228  0.02836  Biso   1.000  C
  H257     1.0000 0.23242  0.06470  0.92892  Biso   1.000  H
  H258     1.0000 0.24511  0.11610  0.95389  Biso   1.000  H
  H259     1.0000 0.23242  0.06470  0.92887  Biso   1.000  H
  N179     1.0000 0.20456  0.07884  0.01089  Biso   1.000  N
  N180     1.0000 0.20456  0.07884  0.01084  Biso   1.000  N
  N181     1.0000 0.88933  0.08053  0.80596  Biso   1.000  N
  H260     1.0000 0.89338  0.13592  0.75030  Biso   1.000  H
  H261     1.0000 0.88869  0.14970  0.82092  Biso   1.000  H
  H262     1.0000 0.88869  0.14970  0.82088  Biso   1.000  H
  N182     1.0000 0.88933  0.08056  0.80596  Biso   1.000  N
  H263     1.0000 0.89342  0.13592  0.75030  Biso   1.000  H
  C244     1.0000 0.92557  0.97169  0.76585  Biso   1.000  C
  C245     1.0000 0.92557  0.97169  0.76580  Biso   1.000  C
  C246     1.0000 0.92557  0.97172  0.76585  Biso   1.000  C
  C247     1.0000 0.92557  0.97172  0.76580  Biso   1.000  C
  C248     1.0000 0.88753  0.04449  0.75922  Biso   1.000  C
  C249     1.0000 0.88756  0.04449  0.75922  Biso   1.000  C
  N183     1.0000 0.16084  0.14015  0.06468  Biso   1.000  N
  H264     1.0000 0.18591  0.19839  0.02488  Biso   1.000  H
  H265     1.0000 0.13310  0.20389  0.04972  Biso   1.000  H
  H266     1.0000 0.13310  0.20389  0.04968  Biso   1.000  H
  H267     1.0000 0.18591  0.19843  0.02488  Biso   1.000  H
  H268     1.0000 0.13310  0.20393  0.04972  Biso   1.000  H
  H269     1.0000 0.13310  0.20393  0.04968  Biso   1.000  H
  C250     1.0000 0.20305  0.11131  0.06203  Biso   1.000  C
  C251     1.0000 0.20142  0.03293  0.02813  Biso   1.000  C
  C252     1.0000 0.20305  0.11131  0.06198  Biso   1.000  C
  C253     1.0000 0.20142  0.03293  0.02809  Biso   1.000  C
  C254     1.0000 0.20142  0.03297  0.02813  Biso   1.000  C
  C255     1.0000 0.20142  0.03297  0.02809  Biso   1.000  C
  C256     1.0000 0.85805  0.07097  0.85216  Biso   1.000  C
  C257     1.0000 0.85805  0.07101  0.85216  Biso   1.000  C
  C258     1.0000 0.85809  0.07097  0.85216  Biso   1.000  C
  C259     1.0000 0.85809  0.07101  0.85216  Biso   1.000  C
  O83      1.0000 0.95582  0.94123  0.75935  Biso   1.000  O
  N184     1.0000 0.88115  0.96481  0.78808  Biso   1.000  N
  O84      1.0000 0.95582  0.94123  0.75931  Biso   1.000  O
  N185     1.0000 0.88115  0.96485  0.78808  Biso   1.000  N
  N186     1.0000 0.88118  0.96481  0.78808  Biso   1.000  N
  N187     1.0000 0.88118  0.96485  0.78808  Biso   1.000  N
  C260     1.0000 0.85298  0.00751  0.78451  Biso   1.000  C
  H270     1.0000 0.87639  0.05761  0.71928  Biso   1.000  H
  C261     1.0000 0.85301  0.00751  0.78451  Biso   1.000  C
  H271     1.0000 0.87642  0.05761  0.71928  Biso   1.000  H
  C262     1.0000 0.13405  0.13066  0.11440  Biso   1.000  C
  C263     1.0000 0.13408  0.13066  0.11440  Biso   1.000  C
  H272     1.0000 0.23242  0.13070  0.06491  Biso   1.000  H
  C264     1.0000 0.19723  0.07809  0.11797  Biso   1.000  C
  H273     1.0000 0.23242  0.13070  0.06486  Biso   1.000  H
  C265     1.0000 0.19723  0.07813  0.11797  Biso   1.000  C
  O85      1.0000 0.20414  0.99873  0.99456  Biso   1.000  O
  O86      1.0000 0.20414  0.99873  0.99451  Biso   1.000  O
  N188     1.0000 0.19483  0.03127  0.09071  Biso   1.000  N
  N189     1.0000 0.19483  0.03127  0.09066  Biso   1.000  N
  O87      1.0000 0.84836  0.09770  0.89438  Biso   1.000  O
  N190     1.0000 0.83958  0.02732  0.84297  Biso   1.000  N
  O88      1.0000 0.84836  0.09770  0.89434  Biso   1.000  O
  N191     1.0000 0.83958  0.02732  0.84292  Biso   1.000  N
  C266     1.0000 0.86021  0.91873  0.79288  Biso   1.000  C
  C267     1.0000 0.86021  0.91873  0.79284  Biso   1.000  C
  H274     1.0000 0.82509  0.00331  0.75702  Biso   1.000  H
  H275     1.0000 0.82509  0.00331  0.75698  Biso   1.000  H
  H276     1.0000 0.82512  0.00331  0.75702  Biso   1.000  H
  H277     1.0000 0.82512  0.00331  0.75698  Biso   1.000  H
  O89      1.0000 0.09886  0.15221  0.13004  Biso   1.000  O
  N192     1.0000 0.15337  0.09333  0.14518  Biso   1.000  N
  O90      1.0000 0.09890  0.15221  0.13004  Biso   1.000  O
  H278     1.0000 0.22420  0.08099  0.14720  Biso   1.000  H
  H279     1.0000 0.22420  0.08102  0.14720  Biso   1.000  H
  C268     1.0000 0.20231  0.98882  0.12478  Biso   1.000  C
  C269     1.0000 0.20231  0.98882  0.12474  Biso   1.000  C
  C270     1.0000 0.20234  0.98882  0.12478  Biso   1.000  C
  C271     1.0000 0.20234  0.98882  0.12474  Biso   1.000  C
  C272     1.0000 0.79769  0.01118  0.87522  Biso   1.000  C
  C273     1.0000 0.79769  0.01121  0.87522  Biso   1.000  C
  N193     1.0000 0.84663  0.90667  0.85482  Biso   1.000  N
  H280     1.0000 0.83200  0.91739  0.76631  Biso   1.000  H
  H281     1.0000 0.88291  0.89500  0.77770  Biso   1.000  H
  N194     1.0000 0.84663  0.90667  0.85477  Biso   1.000  N
  N195     1.0000 0.84667  0.90667  0.85482  Biso   1.000  N
  N196     1.0000 0.84667  0.90667  0.85477  Biso   1.000  N
  C274     1.0000 0.13979  0.08127  0.20712  Biso   1.000  C
  N197     1.0000 0.16042  0.97268  0.15703  Biso   1.000  N
  H282     1.0000 0.22790  0.99418  0.15479  Biso   1.000  H
  H283     1.0000 0.21292  0.96369  0.09638  Biso   1.000  H
  N198     1.0000 0.16042  0.97271  0.15703  Biso   1.000  N
  H284     1.0000 0.22790  0.99422  0.15479  Biso   1.000  H
  H285     1.0000 0.21292  0.96372  0.09638  Biso   1.000  H
  N199     1.0000 0.16046  0.97268  0.15703  Biso   1.000  N
  N200     1.0000 0.16046  0.97271  0.15703  Biso   1.000  N
  N201     1.0000 0.80517  0.96873  0.90929  Biso   1.000  N
  N202     1.0000 0.80520  0.96873  0.90929  Biso   1.000  N
  H286     1.0000 0.77210  0.00582  0.84521  Biso   1.000  H
  H287     1.0000 0.78708  0.03631  0.90362  Biso   1.000  H
  H288     1.0000 0.77210  0.00582  0.84517  Biso   1.000  H
  H289     1.0000 0.78708  0.03631  0.90358  Biso   1.000  H
  H290     1.0000 0.78712  0.03631  0.90362  Biso   1.000  H
  H291     1.0000 0.78712  0.03631  0.90358  Biso   1.000  H
  C275     1.0000 0.80277  0.92191  0.88203  Biso   1.000  C
  C276     1.0000 0.86595  0.86934  0.88560  Biso   1.000  C
  C277     1.0000 0.86595  0.86934  0.88555  Biso   1.000  C
  C278     1.0000 0.80281  0.92191  0.88203  Biso   1.000  C
  N203     1.0000 0.11885  0.03519  0.21192  Biso   1.000  N
  H292     1.0000 0.16800  0.08261  0.23369  Biso   1.000  H
  H293     1.0000 0.11709  0.10500  0.22230  Biso   1.000  H
  N204     1.0000 0.11885  0.03519  0.21187  Biso   1.000  N
  H294     1.0000 0.11709  0.10500  0.22226  Biso   1.000  H
  H295     1.0000 0.11712  0.10500  0.22230  Biso   1.000  H
  H296     1.0000 0.11712  0.10500  0.22226  Biso   1.000  H
  C279     1.0000 0.14702  0.99249  0.21549  Biso   1.000  C
  C280     1.0000 0.14195  0.92903  0.14784  Biso   1.000  C
  C281     1.0000 0.14195  0.92903  0.14779  Biso   1.000  C
  C282     1.0000 0.14702  0.99253  0.21549  Biso   1.000  C
  C283     1.0000 0.79858  0.96707  0.97187  Biso   1.000  C
  C284     1.0000 0.79695  0.88869  0.93797  Biso   1.000  C
  H297     1.0000 0.77580  0.91901  0.85280  Biso   1.000  H
  O91      1.0000 0.90114  0.84779  0.86996  Biso   1.000  O
  N205     1.0000 0.83916  0.85985  0.93532  Biso   1.000  N
  O92      1.0000 0.90114  0.84779  0.86991  Biso   1.000  O
  N206     1.0000 0.83916  0.85989  0.93532  Biso   1.000  N
  N207     1.0000 0.83919  0.85985  0.93532  Biso   1.000  N
  N208     1.0000 0.83919  0.85989  0.93532  Biso   1.000  N
  C285     1.0000 0.07443  0.02831  0.23415  Biso   1.000  C
  C286     1.0000 0.07446  0.02831  0.23415  Biso   1.000  C
  H298     1.0000 0.17491  0.99669  0.24298  Biso   1.000  H
  C287     1.0000 0.11247  0.95551  0.24078  Biso   1.000  C
  C288     1.0000 0.11247  0.95551  0.24074  Biso   1.000  C
  H299     1.0000 0.17491  0.99672  0.24298  Biso   1.000  H
  O93      1.0000 0.15164  0.90230  0.10562  Biso   1.000  O
  N209     1.0000 0.11067  0.91947  0.19404  Biso   1.000  N
  N210     1.0000 0.11067  0.91947  0.19399  Biso   1.000  N
  O94      1.0000 0.15164  0.90234  0.10562  Biso   1.000  O
  O95      1.0000 0.15168  0.90230  0.10562  Biso   1.000  O
  O96      1.0000 0.15168  0.90234  0.10562  Biso   1.000  O
  N211     1.0000 0.79544  0.92116  0.98911  Biso   1.000  N
  N212     1.0000 0.79544  0.92120  0.98911  Biso   1.000  N
  O97      1.0000 0.79586  0.00127  0.00544  Biso   1.000  O
  H300     1.0000 0.76758  0.86930  0.93509  Biso   1.000  H
  H301     1.0000 0.76762  0.86930  0.93509  Biso   1.000  H
  C289     1.0000 0.84497  0.81772  0.97159  Biso   1.000  C
  N213     1.0000 0.06850  0.98160  0.24783  Biso   1.000  N
  O98      1.0000 0.04418  0.05877  0.24065  Biso   1.000  O
  O99      1.0000 0.04421  0.05877  0.24065  Biso   1.000  O
  H302     1.0000 0.12361  0.94239  0.28072  Biso   1.000  H
  H303     1.0000 0.12361  0.94239  0.28067  Biso   1.000  H
  H304     1.0000 0.12361  0.94242  0.28072  Biso   1.000  H
  H305     1.0000 0.12361  0.94242  0.28067  Biso   1.000  H
  C290     1.0000 0.09583  0.87226  0.20799  Biso   1.000  C
  C291     1.0000 0.09583  0.87226  0.20794  Biso   1.000  C
  C292     1.0000 0.09586  0.87226  0.20799  Biso   1.000  C
  C293     1.0000 0.09586  0.87226  0.20794  Biso   1.000  C
  C294     1.0000 0.78052  0.90741  0.04972  Biso   1.000  C
  C295     1.0000 0.78052  0.90741  0.04968  Biso   1.000  C
  H306     1.0000 0.81409  0.80161  0.97512  Biso   1.000  H
  H307     1.0000 0.86690  0.79611  0.95028  Biso   1.000  H
  H308     1.0000 0.81409  0.80161  0.97507  Biso   1.000  H
  H309     1.0000 0.81412  0.80161  0.97512  Biso   1.000  H
  H310     1.0000 0.81412  0.80161  0.97507  Biso   1.000  H
  N214     1.0000 0.86299  0.82717  0.03257  Biso   1.000  N
  C296     1.0000 0.03043  0.96453  0.28469  Biso   1.000  C
  C297     1.0000 0.03043  0.96453  0.28465  Biso   1.000  C
  N215     1.0000 0.04520  0.86556  0.20456  Biso   1.000  N
  H311     1.0000 0.10662  0.86408  0.24970  Biso   1.000  H
  H312     1.0000 0.11131  0.85030  0.17908  Biso   1.000  H
  H313     1.0000 0.10662  0.86408  0.24966  Biso   1.000  H
  H314     1.0000 0.10662  0.86412  0.24970  Biso   1.000  H
  H315     1.0000 0.10662  0.86412  0.24966  Biso   1.000  H
  N216     1.0000 0.81850  0.88753  0.08622  Biso   1.000  N
  H316     1.0000 0.76758  0.93530  0.07108  Biso   1.000  H
  H317     1.0000 0.75489  0.88390  0.04611  Biso   1.000  H
  N217     1.0000 0.81850  0.88753  0.08618  Biso   1.000  N
  H318     1.0000 0.75489  0.88390  0.04606  Biso   1.000  H
  N218     1.0000 0.81850  0.88756  0.08622  Biso   1.000  N
  N219     1.0000 0.81850  0.88756  0.08618  Biso   1.000  N
  N220     1.0000 0.81853  0.88753  0.08622  Biso   1.000  N
  H319     1.0000 0.76762  0.93530  0.07108  Biso   1.000  H
  N221     1.0000 0.81853  0.88753  0.08618  Biso   1.000  N
  N222     1.0000 0.81853  0.88756  0.08622  Biso   1.000  N
  N223     1.0000 0.81853  0.88756  0.08618  Biso   1.000  N
  C298     1.0000 0.83281  0.83877  0.08316  Biso   1.000  C
  C299     1.0000 0.90696  0.81335  0.05150  Biso   1.000  C
  N224     1.0000 0.00159  0.92924  0.25387  Biso   1.000  N
  H320     1.0000 0.01008  0.99140  0.29650  Biso   1.000  H
  H321     1.0000 0.04340  0.95071  0.32261  Biso   1.000  H
  H322     1.0000 0.04340  0.95071  0.32257  Biso   1.000  H
  H323     1.0000 0.01012  0.99140  0.29650  Biso   1.000  H
  C300     1.0000 0.01364  0.87963  0.25290  Biso   1.000  C
  C301     1.0000 0.02457  0.83665  0.16362  Biso   1.000  C
  C302     1.0000 0.02457  0.83665  0.16357  Biso   1.000  C
  C303     1.0000 0.83588  0.90985  0.13668  Biso   1.000  C
  C304     1.0000 0.86574  0.83344  0.13924  Biso   1.000  C
  H324     1.0000 0.80520  0.81702  0.08572  Biso   1.000  H
  C305     1.0000 0.86574  0.83344  0.13919  Biso   1.000  C
  H325     1.0000 0.80520  0.81702  0.08567  Biso   1.000  H
  O100     1.0000 0.93858  0.79896  0.01784  Biso   1.000  O
  N225     1.0000 0.91009  0.81892  0.11280  Biso   1.000  N
  N226     1.0000 0.91009  0.81892  0.11275  Biso   1.000  N
  O101     1.0000 0.93862  0.79896  0.01784  Biso   1.000  O
  C306     1.0000 0.95494  0.93682  0.24398  Biso   1.000  C
  C307     1.0000 0.95494  0.93682  0.24394  Biso   1.000  C
  C308     1.0000 0.96651  0.85562  0.23543  Biso   1.000  C
  C309     1.0000 0.96651  0.85562  0.23539  Biso   1.000  C
  C310     1.0000 0.96651  0.85566  0.23543  Biso   1.000  C
  C311     1.0000 0.96651  0.85566  0.23539  Biso   1.000  C
  H326     1.0000 0.02521  0.86870  0.29380  Biso   1.000  H
  N227     1.0000 0.97775  0.83281  0.17775  Biso   1.000  N
  O102     1.0000 0.04400  0.81638  0.12121  Biso   1.000  O
  O103     1.0000 0.04400  0.81638  0.12117  Biso   1.000  O
  O104     1.0000 0.04400  0.81642  0.12121  Biso   1.000  O
  O105     1.0000 0.04400  0.81642  0.12117  Biso   1.000  O
  O106     1.0000 0.04404  0.81638  0.12121  Biso   1.000  O
  O107     1.0000 0.04404  0.81638  0.12117  Biso   1.000  O
  O108     1.0000 0.04404  0.81642  0.12121  Biso   1.000  O
  O109     1.0000 0.04404  0.81642  0.12117  Biso   1.000  O
  O110     1.0000 0.82555  0.94990  0.15392  Biso   1.000  O
  N228     1.0000 0.86648  0.87995  0.16545  Biso   1.000  N
  O111     1.0000 0.82555  0.94993  0.15392  Biso   1.000  O
  H327     1.0000 0.85351  0.80951  0.16879  Biso   1.000  H
  C312     1.0000 0.94771  0.79819  0.14907  Biso   1.000  C
  C313     1.0000 0.94771  0.79819  0.14903  Biso   1.000  C
  O112     1.0000 0.93470  0.97500  0.24833  Biso   1.000  O
  N229     1.0000 0.93393  0.89472  0.23040  Biso   1.000  N
  O113     1.0000 0.93470  0.97500  0.24828  Biso   1.000  O
  H328     1.0000 0.95621  0.83239  0.26708  Biso   1.000  H
  H329     1.0000 0.95621  0.83242  0.26708  Biso   1.000  H
  C314     1.0000 0.88365  0.88922  0.22692  Biso   1.000  C
  C315     1.0000 0.88365  0.88922  0.22688  Biso   1.000  C
  C316     1.0000 0.88369  0.88922  0.22692  Biso   1.000  C
  C317     1.0000 0.88369  0.88922  0.22688  Biso   1.000  C
  H330     1.0000 0.96721  0.77781  0.12240  Biso   1.000  H
  H331     1.0000 0.93361  0.77799  0.18109  Biso   1.000  H
  H332     1.0000 0.96721  0.77781  0.12236  Biso   1.000  H
  H333     1.0000 0.93361  0.77802  0.18109  Biso   1.000  H
  H334     1.0000 0.87410  0.86288  0.25391  Biso   1.000  H
  H335     1.0000 0.86849  0.91831  0.24248  Biso   1.000  H
  H336     1.0000 0.87410  0.86288  0.25387  Biso   1.000  H
  H337     1.0000 0.87410  0.86292  0.25391  Biso   1.000  H
  H338     1.0000 0.87410  0.86292  0.25387  Biso   1.000  H
  H339     1.0000 0.86853  0.91831  0.24248  Biso   1.000  H
  C318     1.0000 0.11635  0.11078  0.77308  Biso   1.000  C
  H340     1.0000 0.12590  0.13712  0.74609  Biso   1.000  H
  N230     1.0000 0.06607  0.10528  0.76960  Biso   1.000  N
  N231     1.0000 0.06607  0.10528  0.76955  Biso   1.000  N
  H341     1.0000 0.13151  0.08169  0.75752  Biso   1.000  H
  H342     1.0000 0.13151  0.08169  0.75748  Biso   1.000  H
  N232     1.0000 0.06611  0.10528  0.76960  Biso   1.000  N
  H343     1.0000 0.13151  0.08173  0.75752  Biso   1.000  H
  N233     1.0000 0.06611  0.10528  0.76955  Biso   1.000  N
  H344     1.0000 0.13151  0.08173  0.75748  Biso   1.000  H
  N234     1.0000 0.13352  0.12005  0.83455  Biso   1.000  N
  N235     1.0000 0.13352  0.12005  0.83451  Biso   1.000  N
  N236     1.0000 0.13352  0.12009  0.83455  Biso   1.000  N
  N237     1.0000 0.13352  0.12009  0.83451  Biso   1.000  N
  N238     1.0000 0.13355  0.12005  0.83455  Biso   1.000  N
  N239     1.0000 0.13355  0.12005  0.83451  Biso   1.000  N
  N240     1.0000 0.13355  0.12009  0.83455  Biso   1.000  N
  N241     1.0000 0.13355  0.12009  0.83451  Biso   1.000  N
  C319     1.0000 0.03349  0.14438  0.76457  Biso   1.000  C
  C320     1.0000 0.04506  0.06318  0.75602  Biso   1.000  C
  C321     1.0000 0.03353  0.14438  0.76457  Biso   1.000  C
  C322     1.0000 0.13426  0.16656  0.86076  Biso   1.000  C
  C323     1.0000 0.16412  0.09015  0.86332  Biso   1.000  C
  C324     1.0000 0.13426  0.16659  0.86076  Biso   1.000  C
  C325     1.0000 0.16416  0.09015  0.86332  Biso   1.000  C
  H345     1.0000 0.04379  0.16761  0.73292  Biso   1.000  H
  H346     1.0000 0.04379  0.16761  0.73287  Biso   1.000  H
  H347     1.0000 0.04382  0.16761  0.73292  Biso   1.000  H
  H348     1.0000 0.04382  0.16761  0.73287  Biso   1.000  H
  C326     1.0000 0.98636  0.12037  0.74710  Biso   1.000  C
  C327     1.0000 0.98636  0.12037  0.74705  Biso   1.000  C
  N242     1.0000 0.02225  0.16719  0.82225  Biso   1.000  N
  N243     1.0000 0.02225  0.16719  0.82220  Biso   1.000  N
  N244     1.0000 0.02225  0.16722  0.82225  Biso   1.000  N
  N245     1.0000 0.02225  0.16722  0.82220  Biso   1.000  N
  N246     1.0000 0.02228  0.16719  0.82225  Biso   1.000  N
  N247     1.0000 0.02228  0.16719  0.82220  Biso   1.000  N
  N248     1.0000 0.02228  0.16722  0.82225  Biso   1.000  N
  N249     1.0000 0.02228  0.16722  0.82220  Biso   1.000  N
  O114     1.0000 0.06530  0.02500  0.75167  Biso   1.000  O
  N250     1.0000 0.99841  0.07076  0.74613  Biso   1.000  N
  N251     1.0000 0.99841  0.07076  0.74609  Biso   1.000  N
  N252     1.0000 0.08991  0.18108  0.88720  Biso   1.000  N
  C328     1.0000 0.16719  0.16123  0.91684  Biso   1.000  C
  N253     1.0000 0.08991  0.18112  0.88720  Biso   1.000  N
  C329     1.0000 0.16719  0.16127  0.91684  Biso   1.000  C
  H349     1.0000 0.14649  0.19049  0.83121  Biso   1.000  H
  H350     1.0000 0.14649  0.19049  0.83117  Biso   1.000  H
  H351     1.0000 0.14649  0.19053  0.83121  Biso   1.000  H
  H352     1.0000 0.14649  0.19053  0.83117  Biso   1.000  H
  H353     1.0000 0.14653  0.19049  0.83121  Biso   1.000  H
  H354     1.0000 0.14653  0.19049  0.83117  Biso   1.000  H
  H355     1.0000 0.14653  0.19053  0.83121  Biso   1.000  H
  H356     1.0000 0.14653  0.19053  0.83117  Biso   1.000  H
  N254     1.0000 0.18150  0.11247  0.91378  Biso   1.000  N
  O115     1.0000 0.17445  0.05010  0.84608  Biso   1.000  O
  O116     1.0000 0.17445  0.05010  0.84603  Biso   1.000  O
  O117     1.0000 0.17449  0.05010  0.84608  Biso   1.000  O
  O118     1.0000 0.17449  0.05010  0.84603  Biso   1.000  O
  N255     1.0000 0.95480  0.13444  0.79544  Biso   1.000  N
  H357     1.0000 0.97479  0.13130  0.70620  Biso   1.000  H
  N256     1.0000 0.95480  0.13444  0.79540  Biso   1.000  N
  N257     1.0000 0.95484  0.13444  0.79544  Biso   1.000  N
  H358     1.0000 0.97483  0.13130  0.70620  Biso   1.000  H
  N258     1.0000 0.95484  0.13444  0.79540  Biso   1.000  N
  C330     1.0000 0.05229  0.20181  0.85093  Biso   1.000  C
  C331     1.0000 0.05232  0.20181  0.85093  Biso   1.000  C
  C332     1.0000 0.97543  0.16335  0.83638  Biso   1.000  C
  C333     1.0000 0.97543  0.16338  0.83638  Biso   1.000  C
  C334     1.0000 0.96957  0.03547  0.71531  Biso   1.000  C
  C335     1.0000 0.96957  0.03550  0.71531  Biso   1.000  C
  C336     1.0000 0.96961  0.03547  0.71531  Biso   1.000  C
  C337     1.0000 0.96961  0.03550  0.71531  Biso   1.000  C
  C338     1.0000 0.09304  0.18665  0.94850  Biso   1.000  C
  C339     1.0000 0.09304  0.18665  0.94845  Biso   1.000  C
  C340     1.0000 0.09308  0.18665  0.94850  Biso   1.000  C
  C341     1.0000 0.09308  0.18665  0.94845  Biso   1.000  C
  N259     1.0000 0.13701  0.17283  0.96743  Biso   1.000  N
  H359     1.0000 0.19480  0.18298  0.91428  Biso   1.000  H
  H360     1.0000 0.19480  0.18302  0.91428  Biso   1.000  H
  C342     1.0000 0.21948  0.09259  0.95028  Biso   1.000  C
  C343     1.0000 0.21951  0.09259  0.95028  Biso   1.000  C
  C344     1.0000 0.90417  0.12774  0.79201  Biso   1.000  C
  H361     1.0000 0.03279  0.22219  0.87760  Biso   1.000  H
  H362     1.0000 0.06639  0.22201  0.81891  Biso   1.000  H
  H363     1.0000 0.03279  0.22223  0.87760  Biso   1.000  H
  H364     1.0000 0.06639  0.22201  0.81886  Biso   1.000  H
  H365     1.0000 0.03282  0.22219  0.87760  Biso   1.000  H
  H366     1.0000 0.06642  0.22201  0.81891  Biso   1.000  H
  H367     1.0000 0.03282  0.22223  0.87760  Biso   1.000  H
  H368     1.0000 0.06642  0.22201  0.81886  Biso   1.000  H
  O119     1.0000 0.95600  0.18362  0.87879  Biso   1.000  O
  N260     1.0000 0.93150  0.01840  0.75217  Biso   1.000  N
  H369     1.0000 0.98992  0.00860  0.70350  Biso   1.000  H
  H370     1.0000 0.95660  0.04929  0.67739  Biso   1.000  H
  N261     1.0000 0.93150  0.01840  0.75213  Biso   1.000  N
  H371     1.0000 0.95660  0.04932  0.67739  Biso   1.000  H
  O120     1.0000 0.06142  0.20104  0.98216  Biso   1.000  O
  O121     1.0000 0.06142  0.20104  0.98212  Biso   1.000  O
  O122     1.0000 0.06142  0.20107  0.98216  Biso   1.000  O
  O123     1.0000 0.06142  0.20107  0.98212  Biso   1.000  O
  C345     1.0000 0.15503  0.18228  0.02841  Biso   1.000  C
  C346     1.0000 0.15503  0.18228  0.02836  Biso   1.000  C
  H372     1.0000 0.24511  0.11610  0.95389  Biso   1.000  H
  H373     1.0000 0.23242  0.06470  0.92892  Biso   1.000  H
  H374     1.0000 0.23242  0.06470  0.92887  Biso   1.000  H
  N262     1.0000 0.20456  0.07884  0.01089  Biso   1.000  N
  N263     1.0000 0.20456  0.07884  0.01084  Biso   1.000  N
  N264     1.0000 0.88933  0.08053  0.80596  Biso   1.000  N
  H375     1.0000 0.89338  0.13592  0.75030  Biso   1.000  H
  H376     1.0000 0.88869  0.14970  0.82092  Biso   1.000  H
  H377     1.0000 0.88869  0.14970  0.82088  Biso   1.000  H
  N265     1.0000 0.88933  0.08056  0.80596  Biso   1.000  N
  H378     1.0000 0.89342  0.13592  0.75030  Biso   1.000  H
  C347     1.0000 0.92557  0.97169  0.76585  Biso   1.000  C
  C348     1.0000 0.92557  0.97169  0.76580  Biso   1.000  C
  C349     1.0000 0.92557  0.97172  0.76585  Biso   1.000  C
  C350     1.0000 0.92557  0.97172  0.76580  Biso   1.000  C
  C351     1.0000 0.88753  0.04449  0.75922  Biso   1.000  C
  C352     1.0000 0.88756  0.04449  0.75922  Biso   1.000  C
  N266     1.0000 0.16084  0.14015  0.06468  Biso   1.000  N
  H379     1.0000 0.18591  0.19839  0.02488  Biso   1.000  H
  H380     1.0000 0.13310  0.20389  0.04972  Biso   1.000  H
  H381     1.0000 0.13310  0.20389  0.04968  Biso   1.000  H
  H382     1.0000 0.18591  0.19843  0.02488  Biso   1.000  H
  H383     1.0000 0.13310  0.20393  0.04972  Biso   1.000  H
  H384     1.0000 0.13310  0.20393  0.04968  Biso   1.000  H
  C353     1.0000 0.20305  0.11131  0.06203  Biso   1.000  C
  C354     1.0000 0.20142  0.03293  0.02813  Biso   1.000  C
  C355     1.0000 0.20305  0.11131  0.06198  Biso   1.000  C
  C356     1.0000 0.20142  0.03293  0.02809  Biso   1.000  C
  C357     1.0000 0.20142  0.03297  0.02813  Biso   1.000  C
  C358     1.0000 0.20142  0.03297  0.02809  Biso   1.000  C
  C359     1.0000 0.85805  0.07097  0.85216  Biso   1.000  C
  C360     1.0000 0.85805  0.07101  0.85216  Biso   1.000  C
  C361     1.0000 0.85809  0.07097  0.85216  Biso   1.000  C
  C362     1.0000 0.85809  0.07101  0.85216  Biso   1.000  C
  O124     1.0000 0.95582  0.94123  0.75935  Biso   1.000  O
  N267     1.0000 0.88115  0.96481  0.78808  Biso   1.000  N
  O125     1.0000 0.95582  0.94123  0.75931  Biso   1.000  O
  N268     1.0000 0.88115  0.96485  0.78808  Biso   1.000  N
  N269     1.0000 0.88118  0.96481  0.78808  Biso   1.000  N
  N270     1.0000 0.88118  0.96485  0.78808  Biso   1.000  N
  C363     1.0000 0.85298  0.00751  0.78451  Biso   1.000  C
  H385     1.0000 0.87639  0.05761  0.71928  Biso   1.000  H
  C364     1.0000 0.85301  0.00751  0.78451  Biso   1.000  C
  H386     1.0000 0.87642  0.05761  0.71928  Biso   1.000  H
  C365     1.0000 0.13405  0.13066  0.11440  Biso   1.000  C
  C366     1.0000 0.13408  0.13066  0.11440  Biso   1.000  C
  H387     1.0000 0.23242  0.13070  0.06491  Biso   1.000  H
  C367     1.0000 0.19723  0.07809  0.11797  Biso   1.000  C
  H388     1.0000 0.23242  0.13070  0.06486  Biso   1.000  H
  C368     1.0000 0.19723  0.07813  0.11797  Biso   1.000  C
  O126     1.0000 0.20414  0.99873  0.99456  Biso   1.000  O
  O127     1.0000 0.20414  0.99873  0.99451  Biso   1.000  O
  N271     1.0000 0.19483  0.03127  0.09071  Biso   1.000  N
  N272     1.0000 0.19483  0.03127  0.09066  Biso   1.000  N
  O128     1.0000 0.84836  0.09770  0.89438  Biso   1.000  O
  N273     1.0000 0.83958  0.02732  0.84297  Biso   1.000  N
  O129     1.0000 0.84836  0.09770  0.89434  Biso   1.000  O
  N274     1.0000 0.83958  0.02732  0.84292  Biso   1.000  N
  C369     1.0000 0.86021  0.91873  0.79288  Biso   1.000  C
  C370     1.0000 0.86021  0.91873  0.79284  Biso   1.000  C
  H389     1.0000 0.82509  0.00331  0.75702  Biso   1.000  H
  H390     1.0000 0.82509  0.00331  0.75698  Biso   1.000  H
  H391     1.0000 0.82512  0.00331  0.75702  Biso   1.000  H
  H392     1.0000 0.82512  0.00331  0.75698  Biso   1.000  H
  O130     1.0000 0.09886  0.15221  0.13004  Biso   1.000  O
  N275     1.0000 0.15337  0.09333  0.14518  Biso   1.000  N
  O131     1.0000 0.09890  0.15221  0.13004  Biso   1.000  O
  H393     1.0000 0.22420  0.08099  0.14720  Biso   1.000  H
  H394     1.0000 0.22420  0.08102  0.14720  Biso   1.000  H
  C371     1.0000 0.20231  0.98882  0.12478  Biso   1.000  C
  C372     1.0000 0.20231  0.98882  0.12474  Biso   1.000  C
  C373     1.0000 0.20234  0.98882  0.12478  Biso   1.000  C
  C374     1.0000 0.20234  0.98882  0.12474  Biso   1.000  C
  C375     1.0000 0.79769  0.01118  0.87522  Biso   1.000  C
  C376     1.0000 0.79769  0.01121  0.87522  Biso   1.000  C
  N276     1.0000 0.84663  0.90667  0.85482  Biso   1.000  N
  H395     1.0000 0.83200  0.91739  0.76631  Biso   1.000  H
  H396     1.0000 0.88291  0.89500  0.77770  Biso   1.000  H
  N277     1.0000 0.84663  0.90667  0.85477  Biso   1.000  N
  N278     1.0000 0.84667  0.90667  0.85482  Biso   1.000  N
  N279     1.0000 0.84667  0.90667  0.85477  Biso   1.000  N
  C377     1.0000 0.13979  0.08127  0.20712  Biso   1.000  C
  N280     1.0000 0.16042  0.97268  0.15703  Biso   1.000  N
  H397     1.0000 0.22790  0.99418  0.15479  Biso   1.000  H
  H398     1.0000 0.21292  0.96369  0.09638  Biso   1.000  H
  N281     1.0000 0.16042  0.97271  0.15703  Biso   1.000  N
  H399     1.0000 0.22790  0.99422  0.15479  Biso   1.000  H
  H400     1.0000 0.21292  0.96372  0.09638  Biso   1.000  H
  N282     1.0000 0.16046  0.97268  0.15703  Biso   1.000  N
  N283     1.0000 0.16046  0.97271  0.15703  Biso   1.000  N
  N284     1.0000 0.80517  0.96873  0.90929  Biso   1.000  N
  N285     1.0000 0.80520  0.96873  0.90929  Biso   1.000  N
  H401     1.0000 0.77210  0.00582  0.84521  Biso   1.000  H
  H402     1.0000 0.78708  0.03631  0.90362  Biso   1.000  H
  H403     1.0000 0.77210  0.00582  0.84517  Biso   1.000  H
  H404     1.0000 0.78708  0.03631  0.90358  Biso   1.000  H
  H405     1.0000 0.78712  0.03631  0.90362  Biso   1.000  H
  H406     1.0000 0.78712  0.03631  0.90358  Biso   1.000  H
  C378     1.0000 0.80277  0.92191  0.88203  Biso   1.000  C
  C379     1.0000 0.86595  0.86934  0.88560  Biso   1.000  C
  C380     1.0000 0.86595  0.86934  0.88555  Biso   1.000  C
  C381     1.0000 0.80281  0.92191  0.88203  Biso   1.000  C
  N286     1.0000 0.11885  0.03519  0.21192  Biso   1.000  N
  H407     1.0000 0.16800  0.08261  0.23369  Biso   1.000  H
  H408     1.0000 0.11709  0.10500  0.22230  Biso   1.000  H
  N287     1.0000 0.11885  0.03519  0.21187  Biso   1.000  N
  H409     1.0000 0.11709  0.10500  0.22226  Biso   1.000  H
  H410     1.0000 0.11712  0.10500  0.22230  Biso   1.000  H
  H411     1.0000 0.11712  0.10500  0.22226  Biso   1.000  H
  C382     1.0000 0.14702  0.99249  0.21549  Biso   1.000  C
  C383     1.0000 0.14195  0.92903  0.14784  Biso   1.000  C
  C384     1.0000 0.14195  0.92903  0.14779  Biso   1.000  C
  C385     1.0000 0.14702  0.99253  0.21549  Biso   1.000  C
  C386     1.0000 0.79858  0.96707  0.97187  Biso   1.000  C
  C387     1.0000 0.79695  0.88869  0.93797  Biso   1.000  C
  H412     1.0000 0.77580  0.91901  0.85280  Biso   1.000  H
  O132     1.0000 0.90114  0.84779  0.86996  Biso   1.000  O
  N288     1.0000 0.83916  0.85985  0.93532  Biso   1.000  N
  O133     1.0000 0.90114  0.84779  0.86991  Biso   1.000  O
  N289     1.0000 0.83916  0.85989  0.93532  Biso   1.000  N
  N290     1.0000 0.83919  0.85985  0.93532  Biso   1.000  N
  N291     1.0000 0.83919  0.85989  0.93532  Biso   1.000  N
  C388     1.0000 0.07443  0.02831  0.23415  Biso   1.000  C
  C389     1.0000 0.07446  0.02831  0.23415  Biso   1.000  C
  H413     1.0000 0.17491  0.99669  0.24298  Biso   1.000  H
  C390     1.0000 0.11247  0.95551  0.24078  Biso   1.000  C
  C391     1.0000 0.11247  0.95551  0.24074  Biso   1.000  C
  H414     1.0000 0.17491  0.99672  0.24298  Biso   1.000  H
  O134     1.0000 0.15164  0.90230  0.10562  Biso   1.000  O
  N292     1.0000 0.11067  0.91947  0.19404  Biso   1.000  N
  N293     1.0000 0.11067  0.91947  0.19399  Biso   1.000  N
  O135     1.0000 0.15164  0.90234  0.10562  Biso   1.000  O
  O136     1.0000 0.15168  0.90230  0.10562  Biso   1.000  O
  O137     1.0000 0.15168  0.90234  0.10562  Biso   1.000  O
  N294     1.0000 0.79544  0.92116  0.98911  Biso   1.000  N
  N295     1.0000 0.79544  0.92120  0.98911  Biso   1.000  N
  O138     1.0000 0.79586  0.00127  0.00544  Biso   1.000  O
  H415     1.0000 0.76758  0.86930  0.93509  Biso   1.000  H
  H416     1.0000 0.76762  0.86930  0.93509  Biso   1.000  H
  C392     1.0000 0.84497  0.81772  0.97159  Biso   1.000  C
  N296     1.0000 0.06850  0.98160  0.24783  Biso   1.000  N
  O139     1.0000 0.04418  0.05877  0.24065  Biso   1.000  O
  O140     1.0000 0.04421  0.05877  0.24065  Biso   1.000  O
  H417     1.0000 0.12361  0.94239  0.28072  Biso   1.000  H
  H418     1.0000 0.12361  0.94239  0.28067  Biso   1.000  H
  H419     1.0000 0.12361  0.94242  0.28072  Biso   1.000  H
  H420     1.0000 0.12361  0.94242  0.28067  Biso   1.000  H
  C393     1.0000 0.09583  0.87226  0.20799  Biso   1.000  C
  C394     1.0000 0.09583  0.87226  0.20794  Biso   1.000  C
  C395     1.0000 0.09586  0.87226  0.20799  Biso   1.000  C
  C396     1.0000 0.09586  0.87226  0.20794  Biso   1.000  C
  C397     1.0000 0.78052  0.90741  0.04972  Biso   1.000  C
  C398     1.0000 0.78052  0.90741  0.04968  Biso   1.000  C
  H421     1.0000 0.81409  0.80161  0.97512  Biso   1.000  H
  H422     1.0000 0.86690  0.79611  0.95028  Biso   1.000  H
  H423     1.0000 0.81409  0.80161  0.97507  Biso   1.000  H
  H424     1.0000 0.81412  0.80161  0.97512  Biso   1.000  H
  H425     1.0000 0.81412  0.80161  0.97507  Biso   1.000  H
  N297     1.0000 0.86299  0.82717  0.03257  Biso   1.000  N
  C399     1.0000 0.03043  0.96453  0.28469  Biso   1.000  C
  C400     1.0000 0.03043  0.96453  0.28465  Biso   1.000  C
  N298     1.0000 0.04520  0.86556  0.20456  Biso   1.000  N
  H426     1.0000 0.10662  0.86408  0.24970  Biso   1.000  H
  H427     1.0000 0.11131  0.85030  0.17908  Biso   1.000  H
  H428     1.0000 0.10662  0.86408  0.24966  Biso   1.000  H
  H429     1.0000 0.10662  0.86412  0.24970  Biso   1.000  H
  H430     1.0000 0.10662  0.86412  0.24966  Biso   1.000  H
  N299     1.0000 0.81850  0.88753  0.08622  Biso   1.000  N
  H431     1.0000 0.76758  0.93530  0.07108  Biso   1.000  H
  H432     1.0000 0.75489  0.88390  0.04611  Biso   1.000  H
  N300     1.0000 0.81850  0.88753  0.08618  Biso   1.000  N
  H433     1.0000 0.75489  0.88390  0.04606  Biso   1.000  H
  N301     1.0000 0.81850  0.88756  0.08622  Biso   1.000  N
  N302     1.0000 0.81850  0.88756  0.08618  Biso   1.000  N
  N303     1.0000 0.81853  0.88753  0.08622  Biso   1.000  N
  H434     1.0000 0.76762  0.93530  0.07108  Biso   1.000  H
  N304     1.0000 0.81853  0.88753  0.08618  Biso   1.000  N
  N305     1.0000 0.81853  0.88756  0.08622  Biso   1.000  N
  N306     1.0000 0.81853  0.88756  0.08618  Biso   1.000  N
  C401     1.0000 0.83281  0.83877  0.08316  Biso   1.000  C
  C402     1.0000 0.90696  0.81335  0.05150  Biso   1.000  C
  N307     1.0000 0.00159  0.92924  0.25387  Biso   1.000  N
  H435     1.0000 0.01008  0.99140  0.29650  Biso   1.000  H
  H436     1.0000 0.04340  0.95071  0.32261  Biso   1.000  H
  H437     1.0000 0.04340  0.95071  0.32257  Biso   1.000  H
  H438     1.0000 0.01012  0.99140  0.29650  Biso   1.000  H
  C403     1.0000 0.01364  0.87963  0.25290  Biso   1.000  C
  C404     1.0000 0.02457  0.83665  0.16362  Biso   1.000  C
  C405     1.0000 0.02457  0.83665  0.16357  Biso   1.000  C
  C406     1.0000 0.83588  0.90985  0.13668  Biso   1.000  C
  C407     1.0000 0.86574  0.83344  0.13924  Biso   1.000  C
  H439     1.0000 0.80520  0.81702  0.08572  Biso   1.000  H
  C408     1.0000 0.86574  0.83344  0.13919  Biso   1.000  C
  H440     1.0000 0.80520  0.81702  0.08567  Biso   1.000  H
  O141     1.0000 0.93858  0.79896  0.01784  Biso   1.000  O
  N308     1.0000 0.91009  0.81892  0.11280  Biso   1.000  N
  N309     1.0000 0.91009  0.81892  0.11275  Biso   1.000  N
  O142     1.0000 0.93862  0.79896  0.01784  Biso   1.000  O
  C409     1.0000 0.95494  0.93682  0.24398  Biso   1.000  C
  C410     1.0000 0.95494  0.93682  0.24394  Biso   1.000  C
  C411     1.0000 0.96651  0.85562  0.23543  Biso   1.000  C
  C412     1.0000 0.96651  0.85562  0.23539  Biso   1.000  C
  C413     1.0000 0.96651  0.85566  0.23543  Biso   1.000  C
  C414     1.0000 0.96651  0.85566  0.23539  Biso   1.000  C
  H441     1.0000 0.02521  0.86870  0.29380  Biso   1.000  H
  N310     1.0000 0.97775  0.83281  0.17775  Biso   1.000  N
  O143     1.0000 0.04400  0.81638  0.12121  Biso   1.000  O
  O144     1.0000 0.04400  0.81638  0.12117  Biso   1.000  O
  O145     1.0000 0.04400  0.81642  0.12121  Biso   1.000  O
  O146     1.0000 0.04400  0.81642  0.12117  Biso   1.000  O
  O147     1.0000 0.04404  0.81638  0.12121  Biso   1.000  O
  O148     1.0000 0.04404  0.81638  0.12117  Biso   1.000  O
  O149     1.0000 0.04404  0.81642  0.12121  Biso   1.000  O
  O150     1.0000 0.04404  0.81642  0.12117  Biso   1.000  O
  O151     1.0000 0.82555  0.94990  0.15392  Biso   1.000  O
  N311     1.0000 0.86648  0.87995  0.16545  Biso   1.000  N
  O152     1.0000 0.82555  0.94993  0.15392  Biso   1.000  O
  H442     1.0000 0.85351  0.80951  0.16879  Biso   1.000  H
  C415     1.0000 0.94771  0.79819  0.14907  Biso   1.000  C
  C416     1.0000 0.94771  0.79819  0.14903  Biso   1.000  C
  O153     1.0000 0.93470  0.97500  0.24833  Biso   1.000  O
  N312     1.0000 0.93393  0.89472  0.23040  Biso   1.000  N
  O154     1.0000 0.93470  0.97500  0.24828  Biso   1.000  O
  H443     1.0000 0.95621  0.83239  0.26708  Biso   1.000  H
  H444     1.0000 0.95621  0.83242  0.26708  Biso   1.000  H
  C417     1.0000 0.88365  0.88922  0.22692  Biso   1.000  C
  C418     1.0000 0.88365  0.88922  0.22688  Biso   1.000  C
  C419     1.0000 0.88369  0.88922  0.22692  Biso   1.000  C
  C420     1.0000 0.88369  0.88922  0.22688  Biso   1.000  C
  H445     1.0000 0.96721  0.77781  0.12240  Biso   1.000  H
  H446     1.0000 0.93361  0.77799  0.18109  Biso   1.000  H
  H447     1.0000 0.96721  0.77781  0.12236  Biso   1.000  H
  H448     1.0000 0.93361  0.77802  0.18109  Biso   1.000  H
  H449     1.0000 0.87410  0.86288  0.25391  Biso   1.000  H
  H450     1.0000 0.86849  0.91831  0.24248  Biso   1.000  H
  H451     1.0000 0.87410  0.86288  0.25387  Biso   1.000  H
  H452     1.0000 0.87410  0.86292  0.25391  Biso   1.000  H
  H453     1.0000 0.87410  0.86292  0.25387  Biso   1.000  H
  H454     1.0000 0.86853  0.91831  0.24248  Biso   1.000  H
  C421     1.0000 0.11635  0.11078  0.77308  Biso   1.000  C
  H455     1.0000 0.12590  0.13712  0.74609  Biso   1.000  H
  N313     1.0000 0.06607  0.10528  0.76960  Biso   1.000  N
  N314     1.0000 0.13352  0.12005  0.83455  Biso   1.000  N
  H456     1.0000 0.13151  0.08169  0.75752  Biso   1.000  H
  N315     1.0000 0.06607  0.10528  0.76955  Biso   1.000  N
  N316     1.0000 0.13352  0.12005  0.83451  Biso   1.000  N
  H457     1.0000 0.13151  0.08169  0.75748  Biso   1.000  H
  N317     1.0000 0.13352  0.12009  0.83455  Biso   1.000  N
  H458     1.0000 0.13151  0.08173  0.75752  Biso   1.000  H
  N318     1.0000 0.13352  0.12009  0.83451  Biso   1.000  N
  H459     1.0000 0.13151  0.08173  0.75748  Biso   1.000  H
  N319     1.0000 0.06611  0.10528  0.76960  Biso   1.000  N
  N320     1.0000 0.13355  0.12005  0.83455  Biso   1.000  N
  N321     1.0000 0.06611  0.10528  0.76955  Biso   1.000  N
  N322     1.0000 0.13355  0.12005  0.83451  Biso   1.000  N
  N323     1.0000 0.13355  0.12009  0.83455  Biso   1.000  N
  N324     1.0000 0.13355  0.12009  0.83451  Biso   1.000  N
  C422     1.0000 0.03349  0.14438  0.76457  Biso   1.000  C
  C423     1.0000 0.04506  0.06318  0.75602  Biso   1.000  C
  C424     1.0000 0.03353  0.14438  0.76457  Biso   1.000  C
  C425     1.0000 0.16412  0.09015  0.86332  Biso   1.000  C
  C426     1.0000 0.13426  0.16656  0.86076  Biso   1.000  C
  C427     1.0000 0.13426  0.16659  0.86076  Biso   1.000  C
  C428     1.0000 0.16416  0.09015  0.86332  Biso   1.000  C
  C429     1.0000 0.98636  0.12037  0.74710  Biso   1.000  C
  C430     1.0000 0.98636  0.12037  0.74705  Biso   1.000  C
  N325     1.0000 0.02225  0.16719  0.82225  Biso   1.000  N
  H460     1.0000 0.04379  0.16761  0.73292  Biso   1.000  H
  N326     1.0000 0.02225  0.16719  0.82220  Biso   1.000  N
  H461     1.0000 0.04379  0.16761  0.73287  Biso   1.000  H
  N327     1.0000 0.02225  0.16722  0.82225  Biso   1.000  N
  N328     1.0000 0.02225  0.16722  0.82220  Biso   1.000  N
  N329     1.0000 0.02228  0.16719  0.82225  Biso   1.000  N
  H462     1.0000 0.04382  0.16761  0.73292  Biso   1.000  H
  N330     1.0000 0.02228  0.16719  0.82220  Biso   1.000  N
  H463     1.0000 0.04382  0.16761  0.73287  Biso   1.000  H
  N331     1.0000 0.02228  0.16722  0.82225  Biso   1.000  N
  N332     1.0000 0.02228  0.16722  0.82220  Biso   1.000  N
  O155     1.0000 0.06530  0.02500  0.75167  Biso   1.000  O
  N333     1.0000 0.99841  0.07076  0.74613  Biso   1.000  N
  N334     1.0000 0.99841  0.07076  0.74609  Biso   1.000  N
  N335     1.0000 0.18150  0.11247  0.91378  Biso   1.000  N
  O156     1.0000 0.17445  0.05010  0.84608  Biso   1.000  O
  O157     1.0000 0.17445  0.05010  0.84603  Biso   1.000  O
  O158     1.0000 0.17449  0.05010  0.84608  Biso   1.000  O
  O159     1.0000 0.17449  0.05010  0.84603  Biso   1.000  O
  N336     1.0000 0.08991  0.18108  0.88720  Biso   1.000  N
  C431     1.0000 0.16719  0.16123  0.91684  Biso   1.000  C
  N337     1.0000 0.08991  0.18112  0.88720  Biso   1.000  N
  C432     1.0000 0.16719  0.16127  0.91684  Biso   1.000  C
  H464     1.0000 0.14649  0.19049  0.83121  Biso   1.000  H
  H465     1.0000 0.14649  0.19049  0.83117  Biso   1.000  H
  H466     1.0000 0.14649  0.19053  0.83121  Biso   1.000  H
  H467     1.0000 0.14649  0.19053  0.83117  Biso   1.000  H
  H468     1.0000 0.14653  0.19049  0.83121  Biso   1.000  H
  H469     1.0000 0.14653  0.19049  0.83117  Biso   1.000  H
  H470     1.0000 0.14653  0.19053  0.83121  Biso   1.000  H
  H471     1.0000 0.14653  0.19053  0.83117  Biso   1.000  H
  N338     1.0000 0.95480  0.13444  0.79544  Biso   1.000  N
  H472     1.0000 0.97479  0.13130  0.70620  Biso   1.000  H
  N339     1.0000 0.95480  0.13444  0.79540  Biso   1.000  N
  N340     1.0000 0.95484  0.13444  0.79544  Biso   1.000  N
  H473     1.0000 0.97483  0.13130  0.70620  Biso   1.000  H
  N341     1.0000 0.95484  0.13444  0.79540  Biso   1.000  N
  C433     1.0000 0.05229  0.20181  0.85093  Biso   1.000  C
  C434     1.0000 0.05232  0.20181  0.85093  Biso   1.000  C
  C435     1.0000 0.97543  0.16335  0.83638  Biso   1.000  C
  C436     1.0000 0.97543  0.16338  0.83638  Biso   1.000  C
  C437     1.0000 0.96957  0.03547  0.71531  Biso   1.000  C
  C438     1.0000 0.96957  0.03550  0.71531  Biso   1.000  C
  C439     1.0000 0.96961  0.03547  0.71531  Biso   1.000  C
  C440     1.0000 0.96961  0.03550  0.71531  Biso   1.000  C
  C441     1.0000 0.21948  0.09259  0.95028  Biso   1.000  C
  C442     1.0000 0.21951  0.09259  0.95028  Biso   1.000  C
  C443     1.0000 0.09304  0.18665  0.94850  Biso   1.000  C
  C444     1.0000 0.09304  0.18665  0.94845  Biso   1.000  C
  C445     1.0000 0.09308  0.18665  0.94850  Biso   1.000  C
  C446     1.0000 0.09308  0.18665  0.94845  Biso   1.000  C
  N342     1.0000 0.13701  0.17283  0.96743  Biso   1.000  N
  H474     1.0000 0.19480  0.18298  0.91428  Biso   1.000  H
  H475     1.0000 0.19480  0.18302  0.91428  Biso   1.000  H
  C447     1.0000 0.90417  0.12774  0.79201  Biso   1.000  C
  H476     1.0000 0.03279  0.22219  0.87760  Biso   1.000  H
  H477     1.0000 0.06639  0.22201  0.81891  Biso   1.000  H
  H478     1.0000 0.06639  0.22201  0.81886  Biso   1.000  H
  H479     1.0000 0.03279  0.22223  0.87760  Biso   1.000  H
  H480     1.0000 0.03282  0.22219  0.87760  Biso   1.000  H
  H481     1.0000 0.06642  0.22201  0.81891  Biso   1.000  H
  H482     1.0000 0.06642  0.22201  0.81886  Biso   1.000  H
  H483     1.0000 0.03282  0.22223  0.87760  Biso   1.000  H
  O160     1.0000 0.95600  0.18362  0.87879  Biso   1.000  O
  N343     1.0000 0.93150  0.01840  0.75217  Biso   1.000  N
  H484     1.0000 0.98992  0.00860  0.70350  Biso   1.000  H
  H485     1.0000 0.95660  0.04929  0.67739  Biso   1.000  H
  N344     1.0000 0.93150  0.01840  0.75213  Biso   1.000  N
  H486     1.0000 0.95660  0.04932  0.67739  Biso   1.000  H
  H487     1.0000 0.24511  0.11610  0.95389  Biso   1.000  H
  H488     1.0000 0.23242  0.06470  0.92892  Biso   1.000  H
  H489     1.0000 0.23242  0.06470  0.92887  Biso   1.000  H
  N345     1.0000 0.20456  0.07884  0.01089  Biso   1.000  N
  N346     1.0000 0.20456  0.07884  0.01084  Biso   1.000  N
  O161     1.0000 0.06142  0.20104  0.98216  Biso   1.000  O
  O162     1.0000 0.06142  0.20104  0.98212  Biso   1.000  O
  O163     1.0000 0.06142  0.20107  0.98216  Biso   1.000  O
  O164     1.0000 0.06142  0.20107  0.98212  Biso   1.000  O
  C448     1.0000 0.15503  0.18228  0.02841  Biso   1.000  C
  C449     1.0000 0.15503  0.18228  0.02836  Biso   1.000  C
  N347     1.0000 0.88933  0.08053  0.80596  Biso   1.000  N
  H490     1.0000 0.89338  0.13592  0.75030  Biso   1.000  H
  H491     1.0000 0.88869  0.14970  0.82092  Biso   1.000  H
  H492     1.0000 0.88869  0.14970  0.82088  Biso   1.000  H
  N348     1.0000 0.88933  0.08056  0.80596  Biso   1.000  N
  H493     1.0000 0.89342  0.13592  0.75030  Biso   1.000  H
  C450     1.0000 0.92557  0.97169  0.76585  Biso   1.000  C
  C451     1.0000 0.92557  0.97169  0.76580  Biso   1.000  C
  C452     1.0000 0.92557  0.97172  0.76585  Biso   1.000  C
  C453     1.0000 0.92557  0.97172  0.76580  Biso   1.000  C
  C454     1.0000 0.88753  0.04449  0.75922  Biso   1.000  C
  C455     1.0000 0.88756  0.04449  0.75922  Biso   1.000  C
  C456     1.0000 0.20305  0.11131  0.06203  Biso   1.000  C
  C457     1.0000 0.20142  0.03293  0.02813  Biso   1.000  C
  C458     1.0000 0.20305  0.11131  0.06198  Biso   1.000  C
  C459     1.0000 0.20142  0.03293  0.02809  Biso   1.000  C
  C460     1.0000 0.20142  0.03297  0.02813  Biso   1.000  C
  C461     1.0000 0.20142  0.03297  0.02809  Biso   1.000  C
  N349     1.0000 0.16084  0.14015  0.06468  Biso   1.000  N
  H494     1.0000 0.18591  0.19839  0.02488  Biso   1.000  H
  H495     1.0000 0.13310  0.20389  0.04972  Biso   1.000  H
  H496     1.0000 0.13310  0.20389  0.04968  Biso   1.000  H
  H497     1.0000 0.18591  0.19843  0.02488  Biso   1.000  H
  H498     1.0000 0.13310  0.20393  0.04972  Biso   1.000  H
  H499     1.0000 0.13310  0.20393  0.04968  Biso   1.000  H
  C462     1.0000 0.85805  0.07097  0.85216  Biso   1.000  C
  C463     1.0000 0.85805  0.07101  0.85216  Biso   1.000  C
  C464     1.0000 0.85809  0.07097  0.85216  Biso   1.000  C
  C465     1.0000 0.85809  0.07101  0.85216  Biso   1.000  C
  O165     1.0000 0.95582  0.94123  0.75935  Biso   1.000  O
  N350     1.0000 0.88115  0.96481  0.78808  Biso   1.000  N
  O166     1.0000 0.95582  0.94123  0.75931  Biso   1.000  O
  N351     1.0000 0.88115  0.96485  0.78808  Biso   1.000  N
  N352     1.0000 0.88118  0.96481  0.78808  Biso   1.000  N
  N353     1.0000 0.88118  0.96485  0.78808  Biso   1.000  N
  C466     1.0000 0.85298  0.00751  0.78451  Biso   1.000  C
  H500     1.0000 0.87639  0.05761  0.71928  Biso   1.000  H
  C467     1.0000 0.85301  0.00751  0.78451  Biso   1.000  C
  H501     1.0000 0.87642  0.05761  0.71928  Biso   1.000  H
  H502     1.0000 0.23242  0.13070  0.06491  Biso   1.000  H
  C468     1.0000 0.19723  0.07809  0.11797  Biso   1.000  C
  H503     1.0000 0.23242  0.13070  0.06486  Biso   1.000  H
  C469     1.0000 0.19723  0.07813  0.11797  Biso   1.000  C
  O167     1.0000 0.20414  0.99873  0.99456  Biso   1.000  O
  O168     1.0000 0.20414  0.99873  0.99451  Biso   1.000  O
  N354     1.0000 0.19483  0.03127  0.09071  Biso   1.000  N
  N355     1.0000 0.19483  0.03127  0.09066  Biso   1.000  N
  C470     1.0000 0.13405  0.13066  0.11440  Biso   1.000  C
  C471     1.0000 0.13408  0.13066  0.11440  Biso   1.000  C
  O169     1.0000 0.84836  0.09770  0.89438  Biso   1.000  O
  N356     1.0000 0.83958  0.02732  0.84297  Biso   1.000  N
  O170     1.0000 0.84836  0.09770  0.89434  Biso   1.000  O
  N357     1.0000 0.83958  0.02732  0.84292  Biso   1.000  N
  C472     1.0000 0.86021  0.91873  0.79288  Biso   1.000  C
  C473     1.0000 0.86021  0.91873  0.79284  Biso   1.000  C
  H504     1.0000 0.82509  0.00331  0.75702  Biso   1.000  H
  H505     1.0000 0.82509  0.00331  0.75698  Biso   1.000  H
  H506     1.0000 0.82512  0.00331  0.75702  Biso   1.000  H
  H507     1.0000 0.82512  0.00331  0.75698  Biso   1.000  H
  N358     1.0000 0.15337  0.09333  0.14518  Biso   1.000  N
  H508     1.0000 0.22420  0.08099  0.14720  Biso   1.000  H
  H509     1.0000 0.22420  0.08102  0.14720  Biso   1.000  H
  C474     1.0000 0.20231  0.98882  0.12478  Biso   1.000  C
  C475     1.0000 0.20231  0.98882  0.12474  Biso   1.000  C
  C476     1.0000 0.20234  0.98882  0.12478  Biso   1.000  C
  C477     1.0000 0.20234  0.98882  0.12474  Biso   1.000  C
  O171     1.0000 0.09886  0.15221  0.13004  Biso   1.000  O
  O172     1.0000 0.09890  0.15221  0.13004  Biso   1.000  O
  C478     1.0000 0.79769  0.01118  0.87522  Biso   1.000  C
  C479     1.0000 0.79769  0.01121  0.87522  Biso   1.000  C
  N359     1.0000 0.84663  0.90667  0.85482  Biso   1.000  N
  H510     1.0000 0.83200  0.91739  0.76631  Biso   1.000  H
  H511     1.0000 0.88291  0.89500  0.77770  Biso   1.000  H
  N360     1.0000 0.84663  0.90667  0.85477  Biso   1.000  N
  N361     1.0000 0.84667  0.90667  0.85482  Biso   1.000  N
  N362     1.0000 0.84667  0.90667  0.85477  Biso   1.000  N
  C480     1.0000 0.13979  0.08127  0.20712  Biso   1.000  C
  N363     1.0000 0.16042  0.97268  0.15703  Biso   1.000  N
  H512     1.0000 0.22790  0.99418  0.15479  Biso   1.000  H
  H513     1.0000 0.21292  0.96369  0.09638  Biso   1.000  H
  N364     1.0000 0.16042  0.97271  0.15703  Biso   1.000  N
  H514     1.0000 0.22790  0.99422  0.15479  Biso   1.000  H
  H515     1.0000 0.21292  0.96372  0.09638  Biso   1.000  H
  N365     1.0000 0.16046  0.97268  0.15703  Biso   1.000  N
  N366     1.0000 0.16046  0.97271  0.15703  Biso   1.000  N
  N367     1.0000 0.80517  0.96873  0.90929  Biso   1.000  N
  N368     1.0000 0.80520  0.96873  0.90929  Biso   1.000  N
  H516     1.0000 0.77210  0.00582  0.84521  Biso   1.000  H
  H517     1.0000 0.78708  0.03631  0.90362  Biso   1.000  H
  H518     1.0000 0.77210  0.00582  0.84517  Biso   1.000  H
  H519     1.0000 0.78708  0.03631  0.90358  Biso   1.000  H
  H520     1.0000 0.78712  0.03631  0.90362  Biso   1.000  H
  H521     1.0000 0.78712  0.03631  0.90358  Biso   1.000  H
  C481     1.0000 0.80277  0.92191  0.88203  Biso   1.000  C
  C482     1.0000 0.86595  0.86934  0.88560  Biso   1.000  C
  C483     1.0000 0.86595  0.86934  0.88555  Biso   1.000  C
  C484     1.0000 0.80281  0.92191  0.88203  Biso   1.000  C
  N369     1.0000 0.11885  0.03519  0.21192  Biso   1.000  N
  H522     1.0000 0.16800  0.08261  0.23369  Biso   1.000  H
  H523     1.0000 0.11709  0.10500  0.22230  Biso   1.000  H
  N370     1.0000 0.11885  0.03519  0.21187  Biso   1.000  N
  H524     1.0000 0.11709  0.10500  0.22226  Biso   1.000  H
  H525     1.0000 0.11712  0.10500  0.22230  Biso   1.000  H
  H526     1.0000 0.11712  0.10500  0.22226  Biso   1.000  H
  C485     1.0000 0.14702  0.99249  0.21549  Biso   1.000  C
  C486     1.0000 0.14195  0.92903  0.14784  Biso   1.000  C
  C487     1.0000 0.14195  0.92903  0.14779  Biso   1.000  C
  C488     1.0000 0.14702  0.99253  0.21549  Biso   1.000  C
  C489     1.0000 0.79858  0.96707  0.97187  Biso   1.000  C
  C490     1.0000 0.79695  0.88869  0.93797  Biso   1.000  C
  H527     1.0000 0.77580  0.91901  0.85280  Biso   1.000  H
  O173     1.0000 0.90114  0.84779  0.86996  Biso   1.000  O
  N371     1.0000 0.83916  0.85985  0.93532  Biso   1.000  N
  O174     1.0000 0.90114  0.84779  0.86991  Biso   1.000  O
  N372     1.0000 0.83916  0.85989  0.93532  Biso   1.000  N
  N373     1.0000 0.83919  0.85985  0.93532  Biso   1.000  N
  N374     1.0000 0.83919  0.85989  0.93532  Biso   1.000  N
  C491     1.0000 0.07443  0.02831  0.23415  Biso   1.000  C
  C492     1.0000 0.07446  0.02831  0.23415  Biso   1.000  C
  H528     1.0000 0.17491  0.99669  0.24298  Biso   1.000  H
  C493     1.0000 0.11247  0.95551  0.24078  Biso   1.000  C
  C494     1.0000 0.11247  0.95551  0.24074  Biso   1.000  C
  H529     1.0000 0.17491  0.99672  0.24298  Biso   1.000  H
  O175     1.0000 0.15164  0.90230  0.10562  Biso   1.000  O
  N375     1.0000 0.11067  0.91947  0.19404  Biso   1.000  N
  N376     1.0000 0.11067  0.91947  0.19399  Biso   1.000  N
  O176     1.0000 0.15164  0.90234  0.10562  Biso   1.000  O
  O177     1.0000 0.15168  0.90230  0.10562  Biso   1.000  O
  O178     1.0000 0.15168  0.90234  0.10562  Biso   1.000  O
  N377     1.0000 0.79544  0.92116  0.98911  Biso   1.000  N
  N378     1.0000 0.79544  0.92120  0.98911  Biso   1.000  N
  O179     1.0000 0.79586  0.00127  0.00544  Biso   1.000  O
  H530     1.0000 0.76758  0.86930  0.93509  Biso   1.000  H
  H531     1.0000 0.76762  0.86930  0.93509  Biso   1.000  H
  C495     1.0000 0.84497  0.81772  0.97159  Biso   1.000  C
  N379     1.0000 0.06850  0.98160  0.24783  Biso   1.000  N
  O180     1.0000 0.04418  0.05877  0.24065  Biso   1.000  O
  O181     1.0000 0.04421  0.05877  0.24065  Biso   1.000  O
  H532     1.0000 0.12361  0.94239  0.28072  Biso   1.000  H
  H533     1.0000 0.12361  0.94239  0.28067  Biso   1.000  H
  H534     1.0000 0.12361  0.94242  0.28072  Biso   1.000  H
  H535     1.0000 0.12361  0.94242  0.28067  Biso   1.000  H
  C496     1.0000 0.09583  0.87226  0.20799  Biso   1.000  C
  C497     1.0000 0.09583  0.87226  0.20794  Biso   1.000  C
  C498     1.0000 0.09586  0.87226  0.20799  Biso   1.000  C
  C499     1.0000 0.09586  0.87226  0.20794  Biso   1.000  C
  C500     1.0000 0.78052  0.90741  0.04972  Biso   1.000  C
  C501     1.0000 0.78052  0.90741  0.04968  Biso   1.000  C
  H536     1.0000 0.81409  0.80161  0.97512  Biso   1.000  H
  H537     1.0000 0.86690  0.79611  0.95028  Biso   1.000  H
  H538     1.0000 0.81409  0.80161  0.97507  Biso   1.000  H
  H539     1.0000 0.81412  0.80161  0.97512  Biso   1.000  H
  H540     1.0000 0.81412  0.80161  0.97507  Biso   1.000  H
  N380     1.0000 0.86299  0.82717  0.03257  Biso   1.000  N
  C502     1.0000 0.03043  0.96453  0.28469  Biso   1.000  C
  C503     1.0000 0.03043  0.96453  0.28465  Biso   1.000  C
  N381     1.0000 0.04520  0.86556  0.20456  Biso   1.000  N
  H541     1.0000 0.10662  0.86408  0.24970  Biso   1.000  H
  H542     1.0000 0.11131  0.85030  0.17908  Biso   1.000  H
  H543     1.0000 0.10662  0.86408  0.24966  Biso   1.000  H
  H544     1.0000 0.10662  0.86412  0.24970  Biso   1.000  H
  H545     1.0000 0.10662  0.86412  0.24966  Biso   1.000  H
  N382     1.0000 0.81850  0.88753  0.08622  Biso   1.000  N
  H546     1.0000 0.76758  0.93530  0.07108  Biso   1.000  H
  H547     1.0000 0.75489  0.88390  0.04611  Biso   1.000  H
  N383     1.0000 0.81850  0.88753  0.08618  Biso   1.000  N
  H548     1.0000 0.75489  0.88390  0.04606  Biso   1.000  H
  N384     1.0000 0.81850  0.88756  0.08622  Biso   1.000  N
  N385     1.0000 0.81850  0.88756  0.08618  Biso   1.000  N
  N386     1.0000 0.81853  0.88753  0.08622  Biso   1.000  N
  H549     1.0000 0.76762  0.93530  0.07108  Biso   1.000  H
  N387     1.0000 0.81853  0.88753  0.08618  Biso   1.000  N
  N388     1.0000 0.81853  0.88756  0.08622  Biso   1.000  N
  N389     1.0000 0.81853  0.88756  0.08618  Biso   1.000  N
  C504     1.0000 0.83281  0.83877  0.08316  Biso   1.000  C
  C505     1.0000 0.90696  0.81335  0.05150  Biso   1.000  C
  N390     1.0000 0.00159  0.92924  0.25387  Biso   1.000  N
  H550     1.0000 0.01008  0.99140  0.29650  Biso   1.000  H
  H551     1.0000 0.04340  0.95071  0.32261  Biso   1.000  H
  H552     1.0000 0.04340  0.95071  0.32257  Biso   1.000  H
  H553     1.0000 0.01012  0.99140  0.29650  Biso   1.000  H
  C506     1.0000 0.01364  0.87963  0.25290  Biso   1.000  C
  C507     1.0000 0.02457  0.83665  0.16362  Biso   1.000  C
  C508     1.0000 0.02457  0.83665  0.16357  Biso   1.000  C
  C509     1.0000 0.83588  0.90985  0.13668  Biso   1.000  C
  C510     1.0000 0.86574  0.83344  0.13924  Biso   1.000  C
  H554     1.0000 0.80520  0.81702  0.08572  Biso   1.000  H
  C511     1.0000 0.86574  0.83344  0.13919  Biso   1.000  C
  H555     1.0000 0.80520  0.81702  0.08567  Biso   1.000  H
  O182     1.0000 0.93858  0.79896  0.01784  Biso   1.000  O
  N391     1.0000 0.91009  0.81892  0.11280  Biso   1.000  N
  N392     1.0000 0.91009  0.81892  0.11275  Biso   1.000  N
  O183     1.0000 0.93862  0.79896  0.01784  Biso   1.000  O
  C512     1.0000 0.95494  0.93682  0.24398  Biso   1.000  C
  C513     1.0000 0.95494  0.93682  0.24394  Biso   1.000  C
  C514     1.0000 0.96651  0.85562  0.23543  Biso   1.000  C
  C515     1.0000 0.96651  0.85562  0.23539  Biso   1.000  C
  C516     1.0000 0.96651  0.85566  0.23543  Biso   1.000  C
  C517     1.0000 0.96651  0.85566  0.23539  Biso   1.000  C
  H556     1.0000 0.02521  0.86870  0.29380  Biso   1.000  H
  N393     1.0000 0.97775  0.83281  0.17775  Biso   1.000  N
  O184     1.0000 0.04400  0.81638  0.12121  Biso   1.000  O
  O185     1.0000 0.04400  0.81638  0.12117  Biso   1.000  O
  O186     1.0000 0.04400  0.81642  0.12121  Biso   1.000  O
  O187     1.0000 0.04400  0.81642  0.12117  Biso   1.000  O
  O188     1.0000 0.04404  0.81638  0.12121  Biso   1.000  O
  O189     1.0000 0.04404  0.81638  0.12117  Biso   1.000  O
  O190     1.0000 0.04404  0.81642  0.12121  Biso   1.000  O
  O191     1.0000 0.04404  0.81642  0.12117  Biso   1.000  O
  O192     1.0000 0.82555  0.94990  0.15392  Biso   1.000  O
  N394     1.0000 0.86648  0.87995  0.16545  Biso   1.000  N
  O193     1.0000 0.82555  0.94993  0.15392  Biso   1.000  O
  H557     1.0000 0.85351  0.80951  0.16879  Biso   1.000  H
  C518     1.0000 0.94771  0.79819  0.14907  Biso   1.000  C
  C519     1.0000 0.94771  0.79819  0.14903  Biso   1.000  C
  O194     1.0000 0.93470  0.97500  0.24833  Biso   1.000  O
  N395     1.0000 0.93393  0.89472  0.23040  Biso   1.000  N
  O195     1.0000 0.93470  0.97500  0.24828  Biso   1.000  O
  H558     1.0000 0.95621  0.83239  0.26708  Biso   1.000  H
  H559     1.0000 0.95621  0.83242  0.26708  Biso   1.000  H
  C520     1.0000 0.88365  0.88922  0.22692  Biso   1.000  C
  C521     1.0000 0.88365  0.88922  0.22688  Biso   1.000  C
  C522     1.0000 0.88369  0.88922  0.22692  Biso   1.000  C
  C523     1.0000 0.88369  0.88922  0.22688  Biso   1.000  C
  H560     1.0000 0.96721  0.77781  0.12240  Biso   1.000  H
  H561     1.0000 0.93361  0.77799  0.18109  Biso   1.000  H
  H562     1.0000 0.96721  0.77781  0.12236  Biso   1.000  H
  H563     1.0000 0.93361  0.77802  0.18109  Biso   1.000  H
  H564     1.0000 0.87410  0.86288  0.25391  Biso   1.000  H
  H565     1.0000 0.86849  0.91831  0.24248  Biso   1.000  H
  H566     1.0000 0.87410  0.86288  0.25387  Biso   1.000  H
  H567     1.0000 0.87410  0.86292  0.25391  Biso   1.000  H
  H568     1.0000 0.87410  0.86292  0.25387  Biso   1.000  H
  H569     1.0000 0.86853  0.91831  0.24248  Biso   1.000  H
  C524     1.0000 0.11635  0.11078  0.77308  Biso   1.000  C
  H570     1.0000 0.12590  0.13712  0.74609  Biso   1.000  H
  N396     1.0000 0.06607  0.10528  0.76960  Biso   1.000  N
  N397     1.0000 0.13352  0.12005  0.83455  Biso   1.000  N
  H571     1.0000 0.13151  0.08169  0.75752  Biso   1.000  H
  N398     1.0000 0.06607  0.10528  0.76955  Biso   1.000  N
  N399     1.0000 0.13352  0.12005  0.83451  Biso   1.000  N
  H572     1.0000 0.13151  0.08169  0.75748  Biso   1.000  H
  N400     1.0000 0.13352  0.12009  0.83455  Biso   1.000  N
  H573     1.0000 0.13151  0.08173  0.75752  Biso   1.000  H
  N401     1.0000 0.13352  0.12009  0.83451  Biso   1.000  N
  H574     1.0000 0.13151  0.08173  0.75748  Biso   1.000  H
  N402     1.0000 0.06611  0.10528  0.76960  Biso   1.000  N
  N403     1.0000 0.13355  0.12005  0.83455  Biso   1.000  N
  N404     1.0000 0.06611  0.10528  0.76955  Biso   1.000  N
  N405     1.0000 0.13355  0.12005  0.83451  Biso   1.000  N
  N406     1.0000 0.13355  0.12009  0.83455  Biso   1.000  N
  N407     1.0000 0.13355  0.12009  0.83451  Biso   1.000  N
  C525     1.0000 0.03349  0.14438  0.76457  Biso   1.000  C
  C526     1.0000 0.04506  0.06318  0.75602  Biso   1.000  C
  C527     1.0000 0.03353  0.14438  0.76457  Biso   1.000  C
  C528     1.0000 0.16412  0.09015  0.86332  Biso   1.000  C
  C529     1.0000 0.13426  0.16656  0.86076  Biso   1.000  C
  C530     1.0000 0.13426  0.16659  0.86076  Biso   1.000  C
  C531     1.0000 0.16416  0.09015  0.86332  Biso   1.000  C
  C532     1.0000 0.98636  0.12037  0.74710  Biso   1.000  C
  C533     1.0000 0.98636  0.12037  0.74705  Biso   1.000  C
  N408     1.0000 0.02225  0.16719  0.82225  Biso   1.000  N
  H575     1.0000 0.04379  0.16761  0.73292  Biso   1.000  H
  N409     1.0000 0.02225  0.16719  0.82220  Biso   1.000  N
  H576     1.0000 0.04379  0.16761  0.73287  Biso   1.000  H
  N410     1.0000 0.02225  0.16722  0.82225  Biso   1.000  N
  N411     1.0000 0.02225  0.16722  0.82220  Biso   1.000  N
  N412     1.0000 0.02228  0.16719  0.82225  Biso   1.000  N
  H577     1.0000 0.04382  0.16761  0.73292  Biso   1.000  H
  N413     1.0000 0.02228  0.16719  0.82220  Biso   1.000  N
  H578     1.0000 0.04382  0.16761  0.73287  Biso   1.000  H
  N414     1.0000 0.02228  0.16722  0.82225  Biso   1.000  N
  N415     1.0000 0.02228  0.16722  0.82220  Biso   1.000  N
  O196     1.0000 0.06530  0.02500  0.75167  Biso   1.000  O
  N416     1.0000 0.99841  0.07076  0.74613  Biso   1.000  N
  N417     1.0000 0.99841  0.07076  0.74609  Biso   1.000  N
  N418     1.0000 0.18150  0.11247  0.91378  Biso   1.000  N
  O197     1.0000 0.17445  0.05010  0.84608  Biso   1.000  O
  O198     1.0000 0.17445  0.05010  0.84603  Biso   1.000  O
  O199     1.0000 0.17449  0.05010  0.84608  Biso   1.000  O
  O200     1.0000 0.17449  0.05010  0.84603  Biso   1.000  O
  N419     1.0000 0.08991  0.18108  0.88720  Biso   1.000  N
  C534     1.0000 0.16719  0.16123  0.91684  Biso   1.000  C
  N420     1.0000 0.08991  0.18112  0.88720  Biso   1.000  N
  C535     1.0000 0.16719  0.16127  0.91684  Biso   1.000  C
  H579     1.0000 0.14649  0.19049  0.83121  Biso   1.000  H
  H580     1.0000 0.14649  0.19049  0.83117  Biso   1.000  H
  H581     1.0000 0.14649  0.19053  0.83121  Biso   1.000  H
  H582     1.0000 0.14649  0.19053  0.83117  Biso   1.000  H
  H583     1.0000 0.14653  0.19049  0.83121  Biso   1.000  H
  H584     1.0000 0.14653  0.19049  0.83117  Biso   1.000  H
  H585     1.0000 0.14653  0.19053  0.83121  Biso   1.000  H
  H586     1.0000 0.14653  0.19053  0.83117  Biso   1.000  H
  N421     1.0000 0.95480  0.13444  0.79544  Biso   1.000  N
  H587     1.0000 0.97479  0.13130  0.70620  Biso   1.000  H
  N422     1.0000 0.95480  0.13444  0.79540  Biso   1.000  N
  N423     1.0000 0.95484  0.13444  0.79544  Biso   1.000  N
  H588     1.0000 0.97483  0.13130  0.70620  Biso   1.000  H
  N424     1.0000 0.95484  0.13444  0.79540  Biso   1.000  N
  C536     1.0000 0.05229  0.20181  0.85093  Biso   1.000  C
  C537     1.0000 0.05232  0.20181  0.85093  Biso   1.000  C
  C538     1.0000 0.97543  0.16335  0.83638  Biso   1.000  C
  C539     1.0000 0.97543  0.16338  0.83638  Biso   1.000  C
  C540     1.0000 0.96957  0.03547  0.71531  Biso   1.000  C
  C541     1.0000 0.96957  0.03550  0.71531  Biso   1.000  C
  C542     1.0000 0.96961  0.03547  0.71531  Biso   1.000  C
  C543     1.0000 0.96961  0.03550  0.71531  Biso   1.000  C
  C544     1.0000 0.21948  0.09259  0.95028  Biso   1.000  C
  C545     1.0000 0.21951  0.09259  0.95028  Biso   1.000  C
  C546     1.0000 0.09304  0.18665  0.94850  Biso   1.000  C
  C547     1.0000 0.09304  0.18665  0.94845  Biso   1.000  C
  C548     1.0000 0.09308  0.18665  0.94850  Biso   1.000  C
  C549     1.0000 0.09308  0.18665  0.94845  Biso   1.000  C
  N425     1.0000 0.13701  0.17283  0.96743  Biso   1.000  N
  H589     1.0000 0.19480  0.18298  0.91428  Biso   1.000  H
  H590     1.0000 0.19480  0.18302  0.91428  Biso   1.000  H
  C550     1.0000 0.90417  0.12774  0.79201  Biso   1.000  C
  H591     1.0000 0.03279  0.22219  0.87760  Biso   1.000  H
  H592     1.0000 0.06639  0.22201  0.81891  Biso   1.000  H
  H593     1.0000 0.06639  0.22201  0.81886  Biso   1.000  H
  H594     1.0000 0.03279  0.22223  0.87760  Biso   1.000  H
  H595     1.0000 0.03282  0.22219  0.87760  Biso   1.000  H
  H596     1.0000 0.06642  0.22201  0.81891  Biso   1.000  H
  H597     1.0000 0.06642  0.22201  0.81886  Biso   1.000  H
  H598     1.0000 0.03282  0.22223  0.87760  Biso   1.000  H
  O201     1.0000 0.95600  0.18362  0.87879  Biso   1.000  O
  N426     1.0000 0.93150  0.01840  0.75217  Biso   1.000  N
  H599     1.0000 0.98992  0.00860  0.70350  Biso   1.000  H
  H600     1.0000 0.95660  0.04929  0.67739  Biso   1.000  H
  N427     1.0000 0.93150  0.01840  0.75213  Biso   1.000  N
  H601     1.0000 0.95660  0.04932  0.67739  Biso   1.000  H
  H602     1.0000 0.24511  0.11610  0.95389  Biso   1.000  H
  H603     1.0000 0.23242  0.06470  0.92892  Biso   1.000  H
  H604     1.0000 0.23242  0.06470  0.92887  Biso   1.000  H
  N428     1.0000 0.20456  0.07884  0.01089  Biso   1.000  N
  N429     1.0000 0.20456  0.07884  0.01084  Biso   1.000  N
  O202     1.0000 0.06142  0.20104  0.98216  Biso   1.000  O
  O203     1.0000 0.06142  0.20104  0.98212  Biso   1.000  O
  O204     1.0000 0.06142  0.20107  0.98216  Biso   1.000  O
  O205     1.0000 0.06142  0.20107  0.98212  Biso   1.000  O
  C551     1.0000 0.15503  0.18228  0.02841  Biso   1.000  C
  C552     1.0000 0.15503  0.18228  0.02836  Biso   1.000  C
  N430     1.0000 0.88933  0.08053  0.80596  Biso   1.000  N
  H605     1.0000 0.89338  0.13592  0.75030  Biso   1.000  H
  H606     1.0000 0.88869  0.14970  0.82092  Biso   1.000  H
  H607     1.0000 0.88869  0.14970  0.82088  Biso   1.000  H
  N431     1.0000 0.88933  0.08056  0.80596  Biso   1.000  N
  H608     1.0000 0.89342  0.13592  0.75030  Biso   1.000  H
  C553     1.0000 0.92557  0.97169  0.76585  Biso   1.000  C
  C554     1.0000 0.92557  0.97169  0.76580  Biso   1.000  C
  C555     1.0000 0.92557  0.97172  0.76585  Biso   1.000  C
  C556     1.0000 0.92557  0.97172  0.76580  Biso   1.000  C
  C557     1.0000 0.88753  0.04449  0.75922  Biso   1.000  C
  C558     1.0000 0.88756  0.04449  0.75922  Biso   1.000  C
  C559     1.0000 0.20305  0.11131  0.06203  Biso   1.000  C
  C560     1.0000 0.20142  0.03293  0.02813  Biso   1.000  C
  C561     1.0000 0.20305  0.11131  0.06198  Biso   1.000  C
  C562     1.0000 0.20142  0.03293  0.02809  Biso   1.000  C
  C563     1.0000 0.20142  0.03297  0.02813  Biso   1.000  C
  C564     1.0000 0.20142  0.03297  0.02809  Biso   1.000  C
  N432     1.0000 0.16084  0.14015  0.06468  Biso   1.000  N
  H609     1.0000 0.18591  0.19839  0.02488  Biso   1.000  H
  H610     1.0000 0.13310  0.20389  0.04972  Biso   1.000  H
  H611     1.0000 0.13310  0.20389  0.04968  Biso   1.000  H
  H612     1.0000 0.18591  0.19843  0.02488  Biso   1.000  H
  H613     1.0000 0.13310  0.20393  0.04972  Biso   1.000  H
  H614     1.0000 0.13310  0.20393  0.04968  Biso   1.000  H
  C565     1.0000 0.85805  0.07097  0.85216  Biso   1.000  C
  C566     1.0000 0.85805  0.07101  0.85216  Biso   1.000  C
  C567     1.0000 0.85809  0.07097  0.85216  Biso   1.000  C
  C568     1.0000 0.85809  0.07101  0.85216  Biso   1.000  C
  O206     1.0000 0.95582  0.94123  0.75935  Biso   1.000  O
  N433     1.0000 0.88115  0.96481  0.78808  Biso   1.000  N
  O207     1.0000 0.95582  0.94123  0.75931  Biso   1.000  O
  N434     1.0000 0.88115  0.96485  0.78808  Biso   1.000  N
  N435     1.0000 0.88118  0.96481  0.78808  Biso   1.000  N
  N436     1.0000 0.88118  0.96485  0.78808  Biso   1.000  N
  C569     1.0000 0.85298  0.00751  0.78451  Biso   1.000  C
  H615     1.0000 0.87639  0.05761  0.71928  Biso   1.000  H
  C570     1.0000 0.85301  0.00751  0.78451  Biso   1.000  C
  H616     1.0000 0.87642  0.05761  0.71928  Biso   1.000  H
  H617     1.0000 0.23242  0.13070  0.06491  Biso   1.000  H
  C571     1.0000 0.19723  0.07809  0.11797  Biso   1.000  C
  H618     1.0000 0.23242  0.13070  0.06486  Biso   1.000  H
  C572     1.0000 0.19723  0.07813  0.11797  Biso   1.000  C
  O208     1.0000 0.20414  0.99873  0.99456  Biso   1.000  O
  O209     1.0000 0.20414  0.99873  0.99451  Biso   1.000  O
  N437     1.0000 0.19483  0.03127  0.09071  Biso   1.000  N
  N438     1.0000 0.19483  0.03127  0.09066  Biso   1.000  N
  C573     1.0000 0.13405  0.13066  0.11440  Biso   1.000  C
  C574     1.0000 0.13408  0.13066  0.11440  Biso   1.000  C
  O210     1.0000 0.84836  0.09770  0.89438  Biso   1.000  O
  N439     1.0000 0.83958  0.02732  0.84297  Biso   1.000  N
  O211     1.0000 0.84836  0.09770  0.89434  Biso   1.000  O
  N440     1.0000 0.83958  0.02732  0.84292  Biso   1.000  N
  C575     1.0000 0.86021  0.91873  0.79288  Biso   1.000  C
  C576     1.0000 0.86021  0.91873  0.79284  Biso   1.000  C
  H619     1.0000 0.82509  0.00331  0.75702  Biso   1.000  H
  H620     1.0000 0.82509  0.00331  0.75698  Biso   1.000  H
  H621     1.0000 0.82512  0.00331  0.75702  Biso   1.000  H
  H622     1.0000 0.82512  0.00331  0.75698  Biso   1.000  H
  N441     1.0000 0.15337  0.09333  0.14518  Biso   1.000  N
  H623     1.0000 0.22420  0.08099  0.14720  Biso   1.000  H
  H624     1.0000 0.22420  0.08102  0.14720  Biso   1.000  H
  C577     1.0000 0.20231  0.98882  0.12478  Biso   1.000  C
  C578     1.0000 0.20231  0.98882  0.12474  Biso   1.000  C
  C579     1.0000 0.20234  0.98882  0.12478  Biso   1.000  C
  C580     1.0000 0.20234  0.98882  0.12474  Biso   1.000  C
  O212     1.0000 0.09886  0.15221  0.13004  Biso   1.000  O
  O213     1.0000 0.09890  0.15221  0.13004  Biso   1.000  O
  C581     1.0000 0.79769  0.01118  0.87522  Biso   1.000  C
  C582     1.0000 0.79769  0.01121  0.87522  Biso   1.000  C
  N442     1.0000 0.84663  0.90667  0.85482  Biso   1.000  N
  H625     1.0000 0.83200  0.91739  0.76631  Biso   1.000  H
  H626     1.0000 0.88291  0.89500  0.77770  Biso   1.000  H
  N443     1.0000 0.84663  0.90667  0.85477  Biso   1.000  N
  N444     1.0000 0.84667  0.90667  0.85482  Biso   1.000  N
  N445     1.0000 0.84667  0.90667  0.85477  Biso   1.000  N
  C583     1.0000 0.13979  0.08127  0.20712  Biso   1.000  C
  N446     1.0000 0.16042  0.97268  0.15703  Biso   1.000  N
  H627     1.0000 0.22790  0.99418  0.15479  Biso   1.000  H
  H628     1.0000 0.21292  0.96369  0.09638  Biso   1.000  H
  N447     1.0000 0.16042  0.97271  0.15703  Biso   1.000  N
  H629     1.0000 0.22790  0.99422  0.15479  Biso   1.000  H
  H630     1.0000 0.21292  0.96372  0.09638  Biso   1.000  H
  N448     1.0000 0.16046  0.97268  0.15703  Biso   1.000  N
  N449     1.0000 0.16046  0.97271  0.15703  Biso   1.000  N
  N450     1.0000 0.80517  0.96873  0.90929  Biso   1.000  N
  N451     1.0000 0.80520  0.96873  0.90929  Biso   1.000  N
  H631     1.0000 0.77210  0.00582  0.84521  Biso   1.000  H
  H632     1.0000 0.78708  0.03631  0.90362  Biso   1.000  H
  H633     1.0000 0.77210  0.00582  0.84517  Biso   1.000  H
  H634     1.0000 0.78708  0.03631  0.90358  Biso   1.000  H
  H635     1.0000 0.78712  0.03631  0.90362  Biso   1.000  H
  H636     1.0000 0.78712  0.03631  0.90358  Biso   1.000  H
  C584     1.0000 0.80277  0.92191  0.88203  Biso   1.000  C
  C585     1.0000 0.86595  0.86934  0.88560  Biso   1.000  C
  C586     1.0000 0.86595  0.86934  0.88555  Biso   1.000  C
  C587     1.0000 0.80281  0.92191  0.88203  Biso   1.000  C
  N452     1.0000 0.11885  0.03519  0.21192  Biso   1.000  N
  H637     1.0000 0.16800  0.08261  0.23369  Biso   1.000  H
  H638     1.0000 0.11709  0.10500  0.22230  Biso   1.000  H
  N453     1.0000 0.11885  0.03519  0.21187  Biso   1.000  N
  H639     1.0000 0.11709  0.10500  0.22226  Biso   1.000  H
  H640     1.0000 0.11712  0.10500  0.22230  Biso   1.000  H
  H641     1.0000 0.11712  0.10500  0.22226  Biso   1.000  H
  C588     1.0000 0.14702  0.99249  0.21549  Biso   1.000  C
  C589     1.0000 0.14195  0.92903  0.14784  Biso   1.000  C
  C590     1.0000 0.14195  0.92903  0.14779  Biso   1.000  C
  C591     1.0000 0.14702  0.99253  0.21549  Biso   1.000  C
  C592     1.0000 0.79858  0.96707  0.97187  Biso   1.000  C
  C593     1.0000 0.79695  0.88869  0.93797  Biso   1.000  C
  H642     1.0000 0.77580  0.91901  0.85280  Biso   1.000  H
  O214     1.0000 0.90114  0.84779  0.86996  Biso   1.000  O
  N454     1.0000 0.83916  0.85985  0.93532  Biso   1.000  N
  O215     1.0000 0.90114  0.84779  0.86991  Biso   1.000  O
  N455     1.0000 0.83916  0.85989  0.93532  Biso   1.000  N
  N456     1.0000 0.83919  0.85985  0.93532  Biso   1.000  N
  N457     1.0000 0.83919  0.85989  0.93532  Biso   1.000  N
  C594     1.0000 0.07443  0.02831  0.23415  Biso   1.000  C
  C595     1.0000 0.07446  0.02831  0.23415  Biso   1.000  C
  H643     1.0000 0.17491  0.99669  0.24298  Biso   1.000  H
  C596     1.0000 0.11247  0.95551  0.24078  Biso   1.000  C
  C597     1.0000 0.11247  0.95551  0.24074  Biso   1.000  C
  H644     1.0000 0.17491  0.99672  0.24298  Biso   1.000  H
  O216     1.0000 0.15164  0.90230  0.10562  Biso   1.000  O
  N458     1.0000 0.11067  0.91947  0.19404  Biso   1.000  N
  N459     1.0000 0.11067  0.91947  0.19399  Biso   1.000  N
  O217     1.0000 0.15164  0.90234  0.10562  Biso   1.000  O
  O218     1.0000 0.15168  0.90230  0.10562  Biso   1.000  O
  O219     1.0000 0.15168  0.90234  0.10562  Biso   1.000  O
  N460     1.0000 0.79544  0.92116  0.98911  Biso   1.000  N
  N461     1.0000 0.79544  0.92120  0.98911  Biso   1.000  N
  O220     1.0000 0.79586  0.00127  0.00544  Biso   1.000  O
  H645     1.0000 0.76758  0.86930  0.93509  Biso   1.000  H
  H646     1.0000 0.76762  0.86930  0.93509  Biso   1.000  H
  C598     1.0000 0.84497  0.81772  0.97159  Biso   1.000  C
  N462     1.0000 0.06850  0.98160  0.24783  Biso   1.000  N
  O221     1.0000 0.04418  0.05877  0.24065  Biso   1.000  O
  O222     1.0000 0.04421  0.05877  0.24065  Biso   1.000  O
  H647     1.0000 0.12361  0.94239  0.28072  Biso   1.000  H
  H648     1.0000 0.12361  0.94239  0.28067  Biso   1.000  H
  H649     1.0000 0.12361  0.94242  0.28072  Biso   1.000  H
  H650     1.0000 0.12361  0.94242  0.28067  Biso   1.000  H
  C599     1.0000 0.09583  0.87226  0.20799  Biso   1.000  C
  C600     1.0000 0.09583  0.87226  0.20794  Biso   1.000  C
  C601     1.0000 0.09586  0.87226  0.20799  Biso   1.000  C
  C602     1.0000 0.09586  0.87226  0.20794  Biso   1.000  C
  C603     1.0000 0.78052  0.90741  0.04972  Biso   1.000  C
  C604     1.0000 0.78052  0.90741  0.04968  Biso   1.000  C
  H651     1.0000 0.81409  0.80161  0.97512  Biso   1.000  H
  H652     1.0000 0.86690  0.79611  0.95028  Biso   1.000  H
  H653     1.0000 0.81409  0.80161  0.97507  Biso   1.000  H
  H654     1.0000 0.81412  0.80161  0.97512  Biso   1.000  H
  H655     1.0000 0.81412  0.80161  0.97507  Biso   1.000  H
  N463     1.0000 0.86299  0.82717  0.03257  Biso   1.000  N
  C605     1.0000 0.03043  0.96453  0.28469  Biso   1.000  C
  C606     1.0000 0.03043  0.96453  0.28465  Biso   1.000  C
  N464     1.0000 0.04520  0.86556  0.20456  Biso   1.000  N
  H656     1.0000 0.10662  0.86408  0.24970  Biso   1.000  H
  H657     1.0000 0.11131  0.85030  0.17908  Biso   1.000  H
  H658     1.0000 0.10662  0.86408  0.24966  Biso   1.000  H
  H659     1.0000 0.10662  0.86412  0.24970  Biso   1.000  H
  H660     1.0000 0.10662  0.86412  0.24966  Biso   1.000  H
  N465     1.0000 0.81850  0.88753  0.08622  Biso   1.000  N
  H661     1.0000 0.76758  0.93530  0.07108  Biso   1.000  H
  H662     1.0000 0.75489  0.88390  0.04611  Biso   1.000  H
  N466     1.0000 0.81850  0.88753  0.08618  Biso   1.000  N
  H663     1.0000 0.75489  0.88390  0.04606  Biso   1.000  H
  N467     1.0000 0.81850  0.88756  0.08622  Biso   1.000  N
  N468     1.0000 0.81850  0.88756  0.08618  Biso   1.000  N
  N469     1.0000 0.81853  0.88753  0.08622  Biso   1.000  N
  H664     1.0000 0.76762  0.93530  0.07108  Biso   1.000  H
  N470     1.0000 0.81853  0.88753  0.08618  Biso   1.000  N
  N471     1.0000 0.81853  0.88756  0.08622  Biso   1.000  N
  N472     1.0000 0.81853  0.88756  0.08618  Biso   1.000  N
  C607     1.0000 0.83281  0.83877  0.08316  Biso   1.000  C
  C608     1.0000 0.90696  0.81335  0.05150  Biso   1.000  C
  N473     1.0000 0.00159  0.92924  0.25387  Biso   1.000  N
  H665     1.0000 0.01008  0.99140  0.29650  Biso   1.000  H
  H666     1.0000 0.04340  0.95071  0.32261  Biso   1.000  H
  H667     1.0000 0.04340  0.95071  0.32257  Biso   1.000  H
  H668     1.0000 0.01012  0.99140  0.29650  Biso   1.000  H
  C609     1.0000 0.01364  0.87963  0.25290  Biso   1.000  C
  C610     1.0000 0.02457  0.83665  0.16362  Biso   1.000  C
  C611     1.0000 0.02457  0.83665  0.16357  Biso   1.000  C
  C612     1.0000 0.83588  0.90985  0.13668  Biso   1.000  C
  C613     1.0000 0.86574  0.83344  0.13924  Biso   1.000  C
  H669     1.0000 0.80520  0.81702  0.08572  Biso   1.000  H
  C614     1.0000 0.86574  0.83344  0.13919  Biso   1.000  C
  H670     1.0000 0.80520  0.81702  0.08567  Biso   1.000  H
  O223     1.0000 0.93858  0.79896  0.01784  Biso   1.000  O
  N474     1.0000 0.91009  0.81892  0.11280  Biso   1.000  N
  N475     1.0000 0.91009  0.81892  0.11275  Biso   1.000  N
  O224     1.0000 0.93862  0.79896  0.01784  Biso   1.000  O
  C615     1.0000 0.95494  0.93682  0.24398  Biso   1.000  C
  C616     1.0000 0.95494  0.93682  0.24394  Biso   1.000  C
  C617     1.0000 0.96651  0.85562  0.23543  Biso   1.000  C
  C618     1.0000 0.96651  0.85562  0.23539  Biso   1.000  C
  C619     1.0000 0.96651  0.85566  0.23543  Biso   1.000  C
  C620     1.0000 0.96651  0.85566  0.23539  Biso   1.000  C
  H671     1.0000 0.02521  0.86870  0.29380  Biso   1.000  H
  N476     1.0000 0.97775  0.83281  0.17775  Biso   1.000  N
  O225     1.0000 0.04400  0.81638  0.12121  Biso   1.000  O
  O226     1.0000 0.04400  0.81638  0.12117  Biso   1.000  O
  O227     1.0000 0.04400  0.81642  0.12121  Biso   1.000  O
  O228     1.0000 0.04400  0.81642  0.12117  Biso   1.000  O
  O229     1.0000 0.04404  0.81638  0.12121  Biso   1.000  O
  O230     1.0000 0.04404  0.81638  0.12117  Biso   1.000  O
  O231     1.0000 0.04404  0.81642  0.12121  Biso   1.000  O
  O232     1.0000 0.04404  0.81642  0.12117  Biso   1.000  O
  O233     1.0000 0.82555  0.94990  0.15392  Biso   1.000  O
  N477     1.0000 0.86648  0.87995  0.16545  Biso   1.000  N
  O234     1.0000 0.82555  0.94993  0.15392  Biso   1.000  O
  H672     1.0000 0.85351  0.80951  0.16879  Biso   1.000  H
  C621     1.0000 0.94771  0.79819  0.14907  Biso   1.000  C
  C622     1.0000 0.94771  0.79819  0.14903  Biso   1.000  C
  O235     1.0000 0.93470  0.97500  0.24833  Biso   1.000  O
  N478     1.0000 0.93393  0.89472  0.23040  Biso   1.000  N
  O236     1.0000 0.93470  0.97500  0.24828  Biso   1.000  O
  H673     1.0000 0.95621  0.83239  0.26708  Biso   1.000  H
  H674     1.0000 0.95621  0.83242  0.26708  Biso   1.000  H
  C623     1.0000 0.88365  0.88922  0.22692  Biso   1.000  C
  C624     1.0000 0.88365  0.88922  0.22688  Biso   1.000  C
  C625     1.0000 0.88369  0.88922  0.22692  Biso   1.000  C
  C626     1.0000 0.88369  0.88922  0.22688  Biso   1.000  C
  H675     1.0000 0.96721  0.77781  0.12240  Biso   1.000  H
  H676     1.0000 0.93361  0.77799  0.18109  Biso   1.000  H
  H677     1.0000 0.96721  0.77781  0.12236  Biso   1.000  H
  H678     1.0000 0.93361  0.77802  0.18109  Biso   1.000  H
  H679     1.0000 0.87410  0.86288  0.25391  Biso   1.000  H
  H680     1.0000 0.86849  0.91831  0.24248  Biso   1.000  H
  H681     1.0000 0.87410  0.86288  0.25387  Biso   1.000  H
  H682     1.0000 0.87410  0.86292  0.25391  Biso   1.000  H
  H683     1.0000 0.87410  0.86292  0.25387  Biso   1.000  H
  H684     1.0000 0.86853  0.91831  0.24248  Biso   1.000  H
  C627     1.0000 0.11635  0.11078  0.77308  Biso   1.000  C
  H685     1.0000 0.12590  0.13712  0.74609  Biso   1.000  H
  N479     1.0000 0.06607  0.10528  0.76960  Biso   1.000  N
  N480     1.0000 0.13352  0.12005  0.83455  Biso   1.000  N
  H686     1.0000 0.13151  0.08169  0.75752  Biso   1.000  H
  N481     1.0000 0.06607  0.10528  0.76955  Biso   1.000  N
  N482     1.0000 0.13352  0.12005  0.83451  Biso   1.000  N
  H687     1.0000 0.13151  0.08169  0.75748  Biso   1.000  H
  N483     1.0000 0.13352  0.12009  0.83455  Biso   1.000  N
  H688     1.0000 0.13151  0.08173  0.75752  Biso   1.000  H
  N484     1.0000 0.13352  0.12009  0.83451  Biso   1.000  N
  H689     1.0000 0.13151  0.08173  0.75748  Biso   1.000  H
  N485     1.0000 0.06611  0.10528  0.76960  Biso   1.000  N
  N486     1.0000 0.13355  0.12005  0.83455  Biso   1.000  N
  N487     1.0000 0.06611  0.10528  0.76955  Biso   1.000  N
  N488     1.0000 0.13355  0.12005  0.83451  Biso   1.000  N
  N489     1.0000 0.13355  0.12009  0.83455  Biso   1.000  N
  N490     1.0000 0.13355  0.12009  0.83451  Biso   1.000  N
  C628     1.0000 0.04506  0.06318  0.75602  Biso   1.000  C
  C629     1.0000 0.03349  0.14438  0.76457  Biso   1.000  C
  C630     1.0000 0.03353  0.14438  0.76457  Biso   1.000  C
  C631     1.0000 0.13426  0.16656  0.86076  Biso   1.000  C
  C632     1.0000 0.16412  0.09015  0.86332  Biso   1.000  C
  C633     1.0000 0.13426  0.16659  0.86076  Biso   1.000  C
  C634     1.0000 0.16416  0.09015  0.86332  Biso   1.000  C
  O237     1.0000 0.06530  0.02500  0.75167  Biso   1.000  O
  N491     1.0000 0.99841  0.07076  0.74613  Biso   1.000  N
  N492     1.0000 0.99841  0.07076  0.74609  Biso   1.000  N
  C635     1.0000 0.98636  0.12037  0.74710  Biso   1.000  C
  C636     1.0000 0.98636  0.12037  0.74705  Biso   1.000  C
  N493     1.0000 0.02225  0.16719  0.82225  Biso   1.000  N
  H690     1.0000 0.04379  0.16761  0.73292  Biso   1.000  H
  N494     1.0000 0.02225  0.16719  0.82220  Biso   1.000  N
  H691     1.0000 0.04379  0.16761  0.73287  Biso   1.000  H
  N495     1.0000 0.02225  0.16722  0.82225  Biso   1.000  N
  N496     1.0000 0.02225  0.16722  0.82220  Biso   1.000  N
  N497     1.0000 0.02228  0.16719  0.82225  Biso   1.000  N
  H692     1.0000 0.04382  0.16761  0.73292  Biso   1.000  H
  N498     1.0000 0.02228  0.16719  0.82220  Biso   1.000  N
  H693     1.0000 0.04382  0.16761  0.73287  Biso   1.000  H
  N499     1.0000 0.02228  0.16722  0.82225  Biso   1.000  N
  N500     1.0000 0.02228  0.16722  0.82220  Biso   1.000  N
  N501     1.0000 0.08991  0.18108  0.88720  Biso   1.000  N
  H694     1.0000 0.14649  0.19049  0.83121  Biso   1.000  H
  C637     1.0000 0.16719  0.16123  0.91684  Biso   1.000  C
  H695     1.0000 0.14649  0.19049  0.83117  Biso   1.000  H
  N502     1.0000 0.08991  0.18112  0.88720  Biso   1.000  N
  H696     1.0000 0.14649  0.19053  0.83121  Biso   1.000  H
  C638     1.0000 0.16719  0.16127  0.91684  Biso   1.000  C
  H697     1.0000 0.14649  0.19053  0.83117  Biso   1.000  H
  H698     1.0000 0.14653  0.19049  0.83121  Biso   1.000  H
  H699     1.0000 0.14653  0.19049  0.83117  Biso   1.000  H
  H700     1.0000 0.14653  0.19053  0.83121  Biso   1.000  H
  H701     1.0000 0.14653  0.19053  0.83117  Biso   1.000  H
  N503     1.0000 0.18150  0.11247  0.91378  Biso   1.000  N
  O238     1.0000 0.17445  0.05010  0.84608  Biso   1.000  O
  O239     1.0000 0.17445  0.05010  0.84603  Biso   1.000  O
  O240     1.0000 0.17449  0.05010  0.84608  Biso   1.000  O
  O241     1.0000 0.17449  0.05010  0.84603  Biso   1.000  O
  C639     1.0000 0.96957  0.03547  0.71531  Biso   1.000  C
  C640     1.0000 0.96957  0.03550  0.71531  Biso   1.000  C
  C641     1.0000 0.96961  0.03547  0.71531  Biso   1.000  C
  C642     1.0000 0.96961  0.03550  0.71531  Biso   1.000  C
  N504     1.0000 0.95480  0.13444  0.79544  Biso   1.000  N
  H702     1.0000 0.97479  0.13130  0.70620  Biso   1.000  H
  N505     1.0000 0.95480  0.13444  0.79540  Biso   1.000  N
  N506     1.0000 0.95484  0.13444  0.79544  Biso   1.000  N
  H703     1.0000 0.97483  0.13130  0.70620  Biso   1.000  H
  N507     1.0000 0.95484  0.13444  0.79540  Biso   1.000  N
  C643     1.0000 0.97543  0.16335  0.83638  Biso   1.000  C
  C644     1.0000 0.97543  0.16338  0.83638  Biso   1.000  C
  C645     1.0000 0.05229  0.20181  0.85093  Biso   1.000  C
  C646     1.0000 0.05232  0.20181  0.85093  Biso   1.000  C
  C647     1.0000 0.09304  0.18665  0.94850  Biso   1.000  C
  C648     1.0000 0.09304  0.18665  0.94845  Biso   1.000  C
  C649     1.0000 0.09308  0.18665  0.94850  Biso   1.000  C
  C650     1.0000 0.09308  0.18665  0.94845  Biso   1.000  C
  N508     1.0000 0.13701  0.17283  0.96743  Biso   1.000  N
  H704     1.0000 0.19480  0.18298  0.91428  Biso   1.000  H
  H705     1.0000 0.19480  0.18302  0.91428  Biso   1.000  H
  C651     1.0000 0.21948  0.09259  0.95028  Biso   1.000  C
  C652     1.0000 0.21951  0.09259  0.95028  Biso   1.000  C
  N509     1.0000 0.93150  0.01840  0.75217  Biso   1.000  N
  H706     1.0000 0.98992  0.00860  0.70350  Biso   1.000  H
  H707     1.0000 0.95660  0.04929  0.67739  Biso   1.000  H
  N510     1.0000 0.93150  0.01840  0.75213  Biso   1.000  N
  H708     1.0000 0.95660  0.04932  0.67739  Biso   1.000  H
  C653     1.0000 0.90417  0.12774  0.79201  Biso   1.000  C
  O242     1.0000 0.95600  0.18362  0.87879  Biso   1.000  O
  H709     1.0000 0.03279  0.22219  0.87760  Biso   1.000  H
  H710     1.0000 0.06639  0.22201  0.81891  Biso   1.000  H
  H711     1.0000 0.06639  0.22201  0.81886  Biso   1.000  H
  H712     1.0000 0.03279  0.22223  0.87760  Biso   1.000  H
  H713     1.0000 0.03282  0.22219  0.87760  Biso   1.000  H
  H714     1.0000 0.06642  0.22201  0.81891  Biso   1.000  H
  H715     1.0000 0.06642  0.22201  0.81886  Biso   1.000  H
  H716     1.0000 0.03282  0.22223  0.87760  Biso   1.000  H
  O243     1.0000 0.06142  0.20104  0.98216  Biso   1.000  O
  O244     1.0000 0.06142  0.20104  0.98212  Biso   1.000  O
  O245     1.0000 0.06142  0.20107  0.98216  Biso   1.000  O
  O246     1.0000 0.06142  0.20107  0.98212  Biso   1.000  O
  C654     1.0000 0.15503  0.18228  0.02841  Biso   1.000  C
  C655     1.0000 0.15503  0.18228  0.02836  Biso   1.000  C
  H717     1.0000 0.24511  0.11610  0.95389  Biso   1.000  H
  H718     1.0000 0.23242  0.06470  0.92892  Biso   1.000  H
  H719     1.0000 0.23242  0.06470  0.92887  Biso   1.000  H
  N511     1.0000 0.20456  0.07884  0.01089  Biso   1.000  N
  N512     1.0000 0.20456  0.07884  0.01084  Biso   1.000  N
  C656     1.0000 0.92557  0.97169  0.76585  Biso   1.000  C
  C657     1.0000 0.92557  0.97169  0.76580  Biso   1.000  C
  C658     1.0000 0.92557  0.97172  0.76585  Biso   1.000  C
  C659     1.0000 0.92557  0.97172  0.76580  Biso   1.000  C
  C660     1.0000 0.88753  0.04449  0.75922  Biso   1.000  C
  C661     1.0000 0.88756  0.04449  0.75922  Biso   1.000  C
  N513     1.0000 0.88933  0.08053  0.80596  Biso   1.000  N
  H720     1.0000 0.89338  0.13592  0.75030  Biso   1.000  H
  H721     1.0000 0.88869  0.14970  0.82092  Biso   1.000  H
  H722     1.0000 0.88869  0.14970  0.82088  Biso   1.000  H
  N514     1.0000 0.88933  0.08056  0.80596  Biso   1.000  N
  H723     1.0000 0.89342  0.13592  0.75030  Biso   1.000  H
  N515     1.0000 0.16084  0.14015  0.06468  Biso   1.000  N
  H724     1.0000 0.18591  0.19839  0.02488  Biso   1.000  H
  H725     1.0000 0.13310  0.20389  0.04972  Biso   1.000  H
  H726     1.0000 0.13310  0.20389  0.04968  Biso   1.000  H
  H727     1.0000 0.18591  0.19843  0.02488  Biso   1.000  H
  H728     1.0000 0.13310  0.20393  0.04972  Biso   1.000  H
  H729     1.0000 0.13310  0.20393  0.04968  Biso   1.000  H
  C662     1.0000 0.20305  0.11131  0.06203  Biso   1.000  C
  C663     1.0000 0.20142  0.03293  0.02813  Biso   1.000  C
  C664     1.0000 0.20305  0.11131  0.06198  Biso   1.000  C
  C665     1.0000 0.20142  0.03293  0.02809  Biso   1.000  C
  C666     1.0000 0.20142  0.03297  0.02813  Biso   1.000  C
  C667     1.0000 0.20142  0.03297  0.02809  Biso   1.000  C
  O247     1.0000 0.95582  0.94123  0.75935  Biso   1.000  O
  N516     1.0000 0.88115  0.96481  0.78808  Biso   1.000  N
  O248     1.0000 0.95582  0.94123  0.75931  Biso   1.000  O
  N517     1.0000 0.88115  0.96485  0.78808  Biso   1.000  N
  N518     1.0000 0.88118  0.96481  0.78808  Biso   1.000  N
  N519     1.0000 0.88118  0.96485  0.78808  Biso   1.000  N
  C668     1.0000 0.85298  0.00751  0.78451  Biso   1.000  C
  H730     1.0000 0.87639  0.05761  0.71928  Biso   1.000  H
  C669     1.0000 0.85301  0.00751  0.78451  Biso   1.000  C
  H731     1.0000 0.87642  0.05761  0.71928  Biso   1.000  H
  C670     1.0000 0.85805  0.07097  0.85216  Biso   1.000  C
  C671     1.0000 0.85805  0.07101  0.85216  Biso   1.000  C
  C672     1.0000 0.85809  0.07097  0.85216  Biso   1.000  C
  C673     1.0000 0.85809  0.07101  0.85216  Biso   1.000  C
  C674     1.0000 0.13405  0.13066  0.11440  Biso   1.000  C
  C675     1.0000 0.13408  0.13066  0.11440  Biso   1.000  C
  H732     1.0000 0.23242  0.13070  0.06491  Biso   1.000  H
  C676     1.0000 0.19723  0.07809  0.11797  Biso   1.000  C
  H733     1.0000 0.23242  0.13070  0.06486  Biso   1.000  H
  C677     1.0000 0.19723  0.07813  0.11797  Biso   1.000  C
  O249     1.0000 0.20414  0.99873  0.99456  Biso   1.000  O
  O250     1.0000 0.20414  0.99873  0.99451  Biso   1.000  O
  N520     1.0000 0.19483  0.03127  0.09071  Biso   1.000  N
  N521     1.0000 0.19483  0.03127  0.09066  Biso   1.000  N
  C678     1.0000 0.86021  0.91873  0.79288  Biso   1.000  C
  C679     1.0000 0.86021  0.91873  0.79284  Biso   1.000  C
  N522     1.0000 0.83958  0.02732  0.84297  Biso   1.000  N
  H734     1.0000 0.82509  0.00331  0.75702  Biso   1.000  H
  N523     1.0000 0.83958  0.02732  0.84292  Biso   1.000  N
  H735     1.0000 0.82509  0.00331  0.75698  Biso   1.000  H
  H736     1.0000 0.82512  0.00331  0.75702  Biso   1.000  H
  H737     1.0000 0.82512  0.00331  0.75698  Biso   1.000  H
  O251     1.0000 0.84836  0.09770  0.89438  Biso   1.000  O
  O252     1.0000 0.84836  0.09770  0.89434  Biso   1.000  O
  O253     1.0000 0.09886  0.15221  0.13004  Biso   1.000  O
  N524     1.0000 0.15337  0.09333  0.14518  Biso   1.000  N
  O254     1.0000 0.09890  0.15221  0.13004  Biso   1.000  O
  H738     1.0000 0.22420  0.08099  0.14720  Biso   1.000  H
  H739     1.0000 0.22420  0.08102  0.14720  Biso   1.000  H
  C680     1.0000 0.20231  0.98882  0.12478  Biso   1.000  C
  C681     1.0000 0.20231  0.98882  0.12474  Biso   1.000  C
  C682     1.0000 0.20234  0.98882  0.12478  Biso   1.000  C
  C683     1.0000 0.20234  0.98882  0.12474  Biso   1.000  C
  N525     1.0000 0.84663  0.90667  0.85482  Biso   1.000  N
  H740     1.0000 0.83200  0.91739  0.76631  Biso   1.000  H
  H741     1.0000 0.88291  0.89500  0.77770  Biso   1.000  H
  N526     1.0000 0.84663  0.90667  0.85477  Biso   1.000  N
  N527     1.0000 0.84667  0.90667  0.85482  Biso   1.000  N
  N528     1.0000 0.84667  0.90667  0.85477  Biso   1.000  N
  C684     1.0000 0.79769  0.01118  0.87522  Biso   1.000  C
  C685     1.0000 0.79769  0.01121  0.87522  Biso   1.000  C
  C686     1.0000 0.13979  0.08127  0.20712  Biso   1.000  C
  N529     1.0000 0.16042  0.97268  0.15703  Biso   1.000  N
  H742     1.0000 0.22790  0.99418  0.15479  Biso   1.000  H
  H743     1.0000 0.21292  0.96369  0.09638  Biso   1.000  H
  N530     1.0000 0.16042  0.97271  0.15703  Biso   1.000  N
  H744     1.0000 0.22790  0.99422  0.15479  Biso   1.000  H
  H745     1.0000 0.21292  0.96372  0.09638  Biso   1.000  H
  N531     1.0000 0.16046  0.97268  0.15703  Biso   1.000  N
  N532     1.0000 0.16046  0.97271  0.15703  Biso   1.000  N
  C687     1.0000 0.80277  0.92191  0.88203  Biso   1.000  C
  C688     1.0000 0.86595  0.86934  0.88560  Biso   1.000  C
  C689     1.0000 0.86595  0.86934  0.88555  Biso   1.000  C
  C690     1.0000 0.80281  0.92191  0.88203  Biso   1.000  C
  N533     1.0000 0.80517  0.96873  0.90929  Biso   1.000  N
  N534     1.0000 0.80520  0.96873  0.90929  Biso   1.000  N
  H746     1.0000 0.77210  0.00582  0.84521  Biso   1.000  H
  H747     1.0000 0.78708  0.03631  0.90362  Biso   1.000  H
  H748     1.0000 0.77210  0.00582  0.84517  Biso   1.000  H
  H749     1.0000 0.78708  0.03631  0.90358  Biso   1.000  H
  H750     1.0000 0.78712  0.03631  0.90362  Biso   1.000  H
  H751     1.0000 0.78712  0.03631  0.90358  Biso   1.000  H
  N535     1.0000 0.11885  0.03519  0.21192  Biso   1.000  N
  H752     1.0000 0.16800  0.08261  0.23369  Biso   1.000  H
  H753     1.0000 0.11709  0.10500  0.22230  Biso   1.000  H
  N536     1.0000 0.11885  0.03519  0.21187  Biso   1.000  N
  H754     1.0000 0.11709  0.10500  0.22226  Biso   1.000  H
  H755     1.0000 0.11712  0.10500  0.22230  Biso   1.000  H
  H756     1.0000 0.11712  0.10500  0.22226  Biso   1.000  H
  C691     1.0000 0.14702  0.99249  0.21549  Biso   1.000  C
  C692     1.0000 0.14195  0.92903  0.14784  Biso   1.000  C
  C693     1.0000 0.14195  0.92903  0.14779  Biso   1.000  C
  C694     1.0000 0.14702  0.99253  0.21549  Biso   1.000  C
  C695     1.0000 0.79695  0.88869  0.93797  Biso   1.000  C
  H757     1.0000 0.77580  0.91901  0.85280  Biso   1.000  H
  O255     1.0000 0.90114  0.84779  0.86996  Biso   1.000  O
  N537     1.0000 0.83916  0.85985  0.93532  Biso   1.000  N
  O256     1.0000 0.90114  0.84779  0.86991  Biso   1.000  O
  N538     1.0000 0.83916  0.85989  0.93532  Biso   1.000  N
  N539     1.0000 0.83919  0.85985  0.93532  Biso   1.000  N
  N540     1.0000 0.83919  0.85989  0.93532  Biso   1.000  N
  C696     1.0000 0.79858  0.96707  0.97187  Biso   1.000  C
  C697     1.0000 0.07443  0.02831  0.23415  Biso   1.000  C
  C698     1.0000 0.07446  0.02831  0.23415  Biso   1.000  C
  H758     1.0000 0.17491  0.99669  0.24298  Biso   1.000  H
  C699     1.0000 0.11247  0.95551  0.24078  Biso   1.000  C
  C700     1.0000 0.11247  0.95551  0.24074  Biso   1.000  C
  H759     1.0000 0.17491  0.99672  0.24298  Biso   1.000  H
  O257     1.0000 0.15164  0.90230  0.10562  Biso   1.000  O
  N541     1.0000 0.11067  0.91947  0.19404  Biso   1.000  N
  N542     1.0000 0.11067  0.91947  0.19399  Biso   1.000  N
  O258     1.0000 0.15164  0.90234  0.10562  Biso   1.000  O
  O259     1.0000 0.15168  0.90230  0.10562  Biso   1.000  O
  O260     1.0000 0.15168  0.90234  0.10562  Biso   1.000  O
  N543     1.0000 0.79544  0.92116  0.98911  Biso   1.000  N
  H760     1.0000 0.76758  0.86930  0.93509  Biso   1.000  H
  N544     1.0000 0.79544  0.92120  0.98911  Biso   1.000  N
  H761     1.0000 0.76762  0.86930  0.93509  Biso   1.000  H
  C701     1.0000 0.84497  0.81772  0.97159  Biso   1.000  C
  O261     1.0000 0.79586  0.00127  0.00544  Biso   1.000  O
  N545     1.0000 0.06850  0.98160  0.24783  Biso   1.000  N
  O262     1.0000 0.04418  0.05877  0.24065  Biso   1.000  O
  O263     1.0000 0.04421  0.05877  0.24065  Biso   1.000  O
  H762     1.0000 0.12361  0.94239  0.28072  Biso   1.000  H
  H763     1.0000 0.12361  0.94239  0.28067  Biso   1.000  H
  H764     1.0000 0.12361  0.94242  0.28072  Biso   1.000  H
  H765     1.0000 0.12361  0.94242  0.28067  Biso   1.000  H
  C702     1.0000 0.09583  0.87226  0.20799  Biso   1.000  C
  C703     1.0000 0.09583  0.87226  0.20794  Biso   1.000  C
  C704     1.0000 0.09586  0.87226  0.20799  Biso   1.000  C
  C705     1.0000 0.09586  0.87226  0.20794  Biso   1.000  C
  C706     1.0000 0.78052  0.90741  0.04972  Biso   1.000  C
  C707     1.0000 0.78052  0.90741  0.04968  Biso   1.000  C
  H766     1.0000 0.81409  0.80161  0.97512  Biso   1.000  H
  H767     1.0000 0.86690  0.79611  0.95028  Biso   1.000  H
  H768     1.0000 0.81409  0.80161  0.97507  Biso   1.000  H
  H769     1.0000 0.81412  0.80161  0.97512  Biso   1.000  H
  H770     1.0000 0.81412  0.80161  0.97507  Biso   1.000  H
  N546     1.0000 0.86299  0.82717  0.03257  Biso   1.000  N
  C708     1.0000 0.03043  0.96453  0.28469  Biso   1.000  C
  C709     1.0000 0.03043  0.96453  0.28465  Biso   1.000  C
  N547     1.0000 0.04520  0.86556  0.20456  Biso   1.000  N
  H771     1.0000 0.10662  0.86408  0.24970  Biso   1.000  H
  H772     1.0000 0.11131  0.85030  0.17908  Biso   1.000  H
  H773     1.0000 0.10662  0.86408  0.24966  Biso   1.000  H
  H774     1.0000 0.10662  0.86412  0.24970  Biso   1.000  H
  H775     1.0000 0.10662  0.86412  0.24966  Biso   1.000  H
  N548     1.0000 0.81850  0.88753  0.08622  Biso   1.000  N
  H776     1.0000 0.76758  0.93530  0.07108  Biso   1.000  H
  H777     1.0000 0.75489  0.88390  0.04611  Biso   1.000  H
  N549     1.0000 0.81850  0.88753  0.08618  Biso   1.000  N
  H778     1.0000 0.75489  0.88390  0.04606  Biso   1.000  H
  N550     1.0000 0.81850  0.88756  0.08622  Biso   1.000  N
  N551     1.0000 0.81850  0.88756  0.08618  Biso   1.000  N
  N552     1.0000 0.81853  0.88753  0.08622  Biso   1.000  N
  H779     1.0000 0.76762  0.93530  0.07108  Biso   1.000  H
  N553     1.0000 0.81853  0.88753  0.08618  Biso   1.000  N
  N554     1.0000 0.81853  0.88756  0.08622  Biso   1.000  N
  N555     1.0000 0.81853  0.88756  0.08618  Biso   1.000  N
  C710     1.0000 0.83281  0.83877  0.08316  Biso   1.000  C
  C711     1.0000 0.90696  0.81335  0.05150  Biso   1.000  C
  N556     1.0000 0.00159  0.92924  0.25387  Biso   1.000  N
  H780     1.0000 0.01008  0.99140  0.29650  Biso   1.000  H
  H781     1.0000 0.04340  0.95071  0.32261  Biso   1.000  H
  H782     1.0000 0.04340  0.95071  0.32257  Biso   1.000  H
  H783     1.0000 0.01012  0.99140  0.29650  Biso   1.000  H
  C712     1.0000 0.01364  0.87963  0.25290  Biso   1.000  C
  C713     1.0000 0.02457  0.83665  0.16362  Biso   1.000  C
  C714     1.0000 0.02457  0.83665  0.16357  Biso   1.000  C
  C715     1.0000 0.83588  0.90985  0.13668  Biso   1.000  C
  C716     1.0000 0.86574  0.83344  0.13924  Biso   1.000  C
  H784     1.0000 0.80520  0.81702  0.08572  Biso   1.000  H
  C717     1.0000 0.86574  0.83344  0.13919  Biso   1.000  C
  H785     1.0000 0.80520  0.81702  0.08567  Biso   1.000  H
  O264     1.0000 0.93858  0.79896  0.01784  Biso   1.000  O
  N557     1.0000 0.91009  0.81892  0.11280  Biso   1.000  N
  N558     1.0000 0.91009  0.81892  0.11275  Biso   1.000  N
  O265     1.0000 0.93862  0.79896  0.01784  Biso   1.000  O
  C718     1.0000 0.95494  0.93682  0.24398  Biso   1.000  C
  C719     1.0000 0.95494  0.93682  0.24394  Biso   1.000  C
  C720     1.0000 0.96651  0.85562  0.23543  Biso   1.000  C
  C721     1.0000 0.96651  0.85562  0.23539  Biso   1.000  C
  C722     1.0000 0.96651  0.85566  0.23543  Biso   1.000  C
  C723     1.0000 0.96651  0.85566  0.23539  Biso   1.000  C
  H786     1.0000 0.02521  0.86870  0.29380  Biso   1.000  H
  N559     1.0000 0.97775  0.83281  0.17775  Biso   1.000  N
  O266     1.0000 0.04400  0.81638  0.12121  Biso   1.000  O
  O267     1.0000 0.04400  0.81638  0.12117  Biso   1.000  O
  O268     1.0000 0.04400  0.81642  0.12121  Biso   1.000  O
  O269     1.0000 0.04400  0.81642  0.12117  Biso   1.000  O
  O270     1.0000 0.04404  0.81638  0.12121  Biso   1.000  O
  O271     1.0000 0.04404  0.81638  0.12117  Biso   1.000  O
  O272     1.0000 0.04404  0.81642  0.12121  Biso   1.000  O
  O273     1.0000 0.04404  0.81642  0.12117  Biso   1.000  O
  O274     1.0000 0.82555  0.94990  0.15392  Biso   1.000  O
  N560     1.0000 0.86648  0.87995  0.16545  Biso   1.000  N
  O275     1.0000 0.82555  0.94993  0.15392  Biso   1.000  O
  H787     1.0000 0.85351  0.80951  0.16879  Biso   1.000  H
  C724     1.0000 0.94771  0.79819  0.14907  Biso   1.000  C
  C725     1.0000 0.94771  0.79819  0.14903  Biso   1.000  C
  O276     1.0000 0.93470  0.97500  0.24833  Biso   1.000  O
  N561     1.0000 0.93393  0.89472  0.23040  Biso   1.000  N
  O277     1.0000 0.93470  0.97500  0.24828  Biso   1.000  O
  H788     1.0000 0.95621  0.83239  0.26708  Biso   1.000  H
  H789     1.0000 0.95621  0.83242  0.26708  Biso   1.000  H
  C726     1.0000 0.88365  0.88922  0.22692  Biso   1.000  C
  C727     1.0000 0.88365  0.88922  0.22688  Biso   1.000  C
  C728     1.0000 0.88369  0.88922  0.22692  Biso   1.000  C
  C729     1.0000 0.88369  0.88922  0.22688  Biso   1.000  C
  H790     1.0000 0.96721  0.77781  0.12240  Biso   1.000  H
  H791     1.0000 0.93361  0.77799  0.18109  Biso   1.000  H
  H792     1.0000 0.96721  0.77781  0.12236  Biso   1.000  H
  H793     1.0000 0.93361  0.77802  0.18109  Biso   1.000  H
  H794     1.0000 0.87410  0.86288  0.25391  Biso   1.000  H
  H795     1.0000 0.86849  0.91831  0.24248  Biso   1.000  H
  H796     1.0000 0.87410  0.86288  0.25387  Biso   1.000  H
  H797     1.0000 0.87410  0.86292  0.25391  Biso   1.000  H
  H798     1.0000 0.87410  0.86292  0.25387  Biso   1.000  H
  H799     1.0000 0.86853  0.91831  0.24248  Biso   1.000  H
  C730     1.0000 0.11635  0.11078  0.77308  Biso   1.000  C
  H800     1.0000 0.12590  0.13712  0.74609  Biso   1.000  H
  N562     1.0000 0.06607  0.10528  0.76960  Biso   1.000  N
  N563     1.0000 0.13352  0.12005  0.83455  Biso   1.000  N
  H801     1.0000 0.13151  0.08169  0.75752  Biso   1.000  H
  N564     1.0000 0.06607  0.10528  0.76955  Biso   1.000  N
  N565     1.0000 0.13352  0.12005  0.83451  Biso   1.000  N
  H802     1.0000 0.13151  0.08169  0.75748  Biso   1.000  H
  N566     1.0000 0.13352  0.12009  0.83455  Biso   1.000  N
  H803     1.0000 0.13151  0.08173  0.75752  Biso   1.000  H
  N567     1.0000 0.13352  0.12009  0.83451  Biso   1.000  N
  H804     1.0000 0.13151  0.08173  0.75748  Biso   1.000  H
  N568     1.0000 0.06611  0.10528  0.76960  Biso   1.000  N
  N569     1.0000 0.13355  0.12005  0.83455  Biso   1.000  N
  N570     1.0000 0.06611  0.10528  0.76955  Biso   1.000  N
  N571     1.0000 0.13355  0.12005  0.83451  Biso   1.000  N
  N572     1.0000 0.13355  0.12009  0.83455  Biso   1.000  N
  N573     1.0000 0.13355  0.12009  0.83451  Biso   1.000  N
  C731     1.0000 0.04506  0.06318  0.75602  Biso   1.000  C
  C732     1.0000 0.03349  0.14438  0.76457  Biso   1.000  C
  C733     1.0000 0.03353  0.14438  0.76457  Biso   1.000  C
  C734     1.0000 0.13426  0.16656  0.86076  Biso   1.000  C
  C735     1.0000 0.16412  0.09015  0.86332  Biso   1.000  C
  C736     1.0000 0.13426  0.16659  0.86076  Biso   1.000  C
  C737     1.0000 0.16416  0.09015  0.86332  Biso   1.000  C
  O278     1.0000 0.06530  0.02500  0.75167  Biso   1.000  O
  N574     1.0000 0.99841  0.07076  0.74613  Biso   1.000  N
  N575     1.0000 0.99841  0.07076  0.74609  Biso   1.000  N
  C738     1.0000 0.98636  0.12037  0.74710  Biso   1.000  C
  C739     1.0000 0.98636  0.12037  0.74705  Biso   1.000  C
  N576     1.0000 0.02225  0.16719  0.82225  Biso   1.000  N
  H805     1.0000 0.04379  0.16761  0.73292  Biso   1.000  H
  N577     1.0000 0.02225  0.16719  0.82220  Biso   1.000  N
  H806     1.0000 0.04379  0.16761  0.73287  Biso   1.000  H
  N578     1.0000 0.02225  0.16722  0.82225  Biso   1.000  N
  N579     1.0000 0.02225  0.16722  0.82220  Biso   1.000  N
  N580     1.0000 0.02228  0.16719  0.82225  Biso   1.000  N
  H807     1.0000 0.04382  0.16761  0.73292  Biso   1.000  H
  N581     1.0000 0.02228  0.16719  0.82220  Biso   1.000  N
  H808     1.0000 0.04382  0.16761  0.73287  Biso   1.000  H
  N582     1.0000 0.02228  0.16722  0.82225  Biso   1.000  N
  N583     1.0000 0.02228  0.16722  0.82220  Biso   1.000  N
  N584     1.0000 0.08991  0.18108  0.88720  Biso   1.000  N
  H809     1.0000 0.14649  0.19049  0.83121  Biso   1.000  H
  C740     1.0000 0.16719  0.16123  0.91684  Biso   1.000  C
  H810     1.0000 0.14649  0.19049  0.83117  Biso   1.000  H
  N585     1.0000 0.08991  0.18112  0.88720  Biso   1.000  N
  H811     1.0000 0.14649  0.19053  0.83121  Biso   1.000  H
  C741     1.0000 0.16719  0.16127  0.91684  Biso   1.000  C
  H812     1.0000 0.14649  0.19053  0.83117  Biso   1.000  H
  H813     1.0000 0.14653  0.19049  0.83121  Biso   1.000  H
  H814     1.0000 0.14653  0.19049  0.83117  Biso   1.000  H
  H815     1.0000 0.14653  0.19053  0.83121  Biso   1.000  H
  H816     1.0000 0.14653  0.19053  0.83117  Biso   1.000  H
  N586     1.0000 0.18150  0.11247  0.91378  Biso   1.000  N
  O279     1.0000 0.17445  0.05010  0.84608  Biso   1.000  O
  O280     1.0000 0.17445  0.05010  0.84603  Biso   1.000  O
  O281     1.0000 0.17449  0.05010  0.84608  Biso   1.000  O
  O282     1.0000 0.17449  0.05010  0.84603  Biso   1.000  O
  C742     1.0000 0.96957  0.03547  0.71531  Biso   1.000  C
  C743     1.0000 0.96957  0.03550  0.71531  Biso   1.000  C
  C744     1.0000 0.96961  0.03547  0.71531  Biso   1.000  C
  C745     1.0000 0.96961  0.03550  0.71531  Biso   1.000  C
  N587     1.0000 0.95480  0.13444  0.79544  Biso   1.000  N
  H817     1.0000 0.97479  0.13130  0.70620  Biso   1.000  H
  N588     1.0000 0.95480  0.13444  0.79540  Biso   1.000  N
  N589     1.0000 0.95484  0.13444  0.79544  Biso   1.000  N
  H818     1.0000 0.97483  0.13130  0.70620  Biso   1.000  H
  N590     1.0000 0.95484  0.13444  0.79540  Biso   1.000  N
  C746     1.0000 0.97543  0.16335  0.83638  Biso   1.000  C
  C747     1.0000 0.97543  0.16338  0.83638  Biso   1.000  C
  C748     1.0000 0.05229  0.20181  0.85093  Biso   1.000  C
  C749     1.0000 0.05232  0.20181  0.85093  Biso   1.000  C
  C750     1.0000 0.09304  0.18665  0.94850  Biso   1.000  C
  C751     1.0000 0.09304  0.18665  0.94845  Biso   1.000  C
  C752     1.0000 0.09308  0.18665  0.94850  Biso   1.000  C
  C753     1.0000 0.09308  0.18665  0.94845  Biso   1.000  C
  N591     1.0000 0.13701  0.17283  0.96743  Biso   1.000  N
  H819     1.0000 0.19480  0.18298  0.91428  Biso   1.000  H
  H820     1.0000 0.19480  0.18302  0.91428  Biso   1.000  H
  C754     1.0000 0.21948  0.09259  0.95028  Biso   1.000  C
  C755     1.0000 0.21951  0.09259  0.95028  Biso   1.000  C
  N592     1.0000 0.93150  0.01840  0.75217  Biso   1.000  N
  H821     1.0000 0.98992  0.00860  0.70350  Biso   1.000  H
  H822     1.0000 0.95660  0.04929  0.67739  Biso   1.000  H
  N593     1.0000 0.93150  0.01840  0.75213  Biso   1.000  N
  H823     1.0000 0.95660  0.04932  0.67739  Biso   1.000  H
  C756     1.0000 0.90417  0.12774  0.79201  Biso   1.000  C
  O283     1.0000 0.95600  0.18362  0.87879  Biso   1.000  O
  H824     1.0000 0.03279  0.22219  0.87760  Biso   1.000  H
  H825     1.0000 0.06639  0.22201  0.81891  Biso   1.000  H
  H826     1.0000 0.06639  0.22201  0.81886  Biso   1.000  H
  H827     1.0000 0.03279  0.22223  0.87760  Biso   1.000  H
  H828     1.0000 0.03282  0.22219  0.87760  Biso   1.000  H
  H829     1.0000 0.06642  0.22201  0.81891  Biso   1.000  H
  H830     1.0000 0.06642  0.22201  0.81886  Biso   1.000  H
  H831     1.0000 0.03282  0.22223  0.87760  Biso   1.000  H
  O284     1.0000 0.06142  0.20104  0.98216  Biso   1.000  O
  O285     1.0000 0.06142  0.20104  0.98212  Biso   1.000  O
  O286     1.0000 0.06142  0.20107  0.98216  Biso   1.000  O
  O287     1.0000 0.06142  0.20107  0.98212  Biso   1.000  O
  C757     1.0000 0.15503  0.18228  0.02841  Biso   1.000  C
  C758     1.0000 0.15503  0.18228  0.02836  Biso   1.000  C
  H832     1.0000 0.24511  0.11610  0.95389  Biso   1.000  H
  H833     1.0000 0.23242  0.06470  0.92892  Biso   1.000  H
  H834     1.0000 0.23242  0.06470  0.92887  Biso   1.000  H
  N594     1.0000 0.20456  0.07884  0.01089  Biso   1.000  N
  N595     1.0000 0.20456  0.07884  0.01084  Biso   1.000  N
  C759     1.0000 0.92557  0.97169  0.76585  Biso   1.000  C
  C760     1.0000 0.92557  0.97169  0.76580  Biso   1.000  C
  C761     1.0000 0.92557  0.97172  0.76585  Biso   1.000  C
  C762     1.0000 0.92557  0.97172  0.76580  Biso   1.000  C
  C763     1.0000 0.88753  0.04449  0.75922  Biso   1.000  C
  C764     1.0000 0.88756  0.04449  0.75922  Biso   1.000  C
  N596     1.0000 0.88933  0.08053  0.80596  Biso   1.000  N
  H835     1.0000 0.89338  0.13592  0.75030  Biso   1.000  H
  H836     1.0000 0.88869  0.14970  0.82092  Biso   1.000  H
  H837     1.0000 0.88869  0.14970  0.82088  Biso   1.000  H
  N597     1.0000 0.88933  0.08056  0.80596  Biso   1.000  N
  H838     1.0000 0.89342  0.13592  0.75030  Biso   1.000  H
  N598     1.0000 0.16084  0.14015  0.06468  Biso   1.000  N
  H839     1.0000 0.18591  0.19839  0.02488  Biso   1.000  H
  H840     1.0000 0.13310  0.20389  0.04972  Biso   1.000  H
  H841     1.0000 0.13310  0.20389  0.04968  Biso   1.000  H
  H842     1.0000 0.18591  0.19843  0.02488  Biso   1.000  H
  H843     1.0000 0.13310  0.20393  0.04972  Biso   1.000  H
  H844     1.0000 0.13310  0.20393  0.04968  Biso   1.000  H
  C765     1.0000 0.20305  0.11131  0.06203  Biso   1.000  C
  C766     1.0000 0.20142  0.03293  0.02813  Biso   1.000  C
  C767     1.0000 0.20305  0.11131  0.06198  Biso   1.000  C
  C768     1.0000 0.20142  0.03293  0.02809  Biso   1.000  C
  C769     1.0000 0.20142  0.03297  0.02813  Biso   1.000  C
  C770     1.0000 0.20142  0.03297  0.02809  Biso   1.000  C
  O288     1.0000 0.95582  0.94123  0.75935  Biso   1.000  O
  N599     1.0000 0.88115  0.96481  0.78808  Biso   1.000  N
  O289     1.0000 0.95582  0.94123  0.75931  Biso   1.000  O
  N600     1.0000 0.88115  0.96485  0.78808  Biso   1.000  N
  N601     1.0000 0.88118  0.96481  0.78808  Biso   1.000  N
  N602     1.0000 0.88118  0.96485  0.78808  Biso   1.000  N
  C771     1.0000 0.85298  0.00751  0.78451  Biso   1.000  C
  H845     1.0000 0.87639  0.05761  0.71928  Biso   1.000  H
  C772     1.0000 0.85301  0.00751  0.78451  Biso   1.000  C
  H846     1.0000 0.87642  0.05761  0.71928  Biso   1.000  H
  C773     1.0000 0.85805  0.07097  0.85216  Biso   1.000  C
  C774     1.0000 0.85805  0.07101  0.85216  Biso   1.000  C
  C775     1.0000 0.85809  0.07097  0.85216  Biso   1.000  C
  C776     1.0000 0.85809  0.07101  0.85216  Biso   1.000  C
  C777     1.0000 0.13405  0.13066  0.11440  Biso   1.000  C
  C778     1.0000 0.13408  0.13066  0.11440  Biso   1.000  C
  H847     1.0000 0.23242  0.13070  0.06491  Biso   1.000  H
  C779     1.0000 0.19723  0.07809  0.11797  Biso   1.000  C
  H848     1.0000 0.23242  0.13070  0.06486  Biso   1.000  H
  C780     1.0000 0.19723  0.07813  0.11797  Biso   1.000  C
  O290     1.0000 0.20414  0.99873  0.99456  Biso   1.000  O
  O291     1.0000 0.20414  0.99873  0.99451  Biso   1.000  O
  N603     1.0000 0.19483  0.03127  0.09071  Biso   1.000  N
  N604     1.0000 0.19483  0.03127  0.09066  Biso   1.000  N
  C781     1.0000 0.86021  0.91873  0.79288  Biso   1.000  C
  C782     1.0000 0.86021  0.91873  0.79284  Biso   1.000  C
  N605     1.0000 0.83958  0.02732  0.84297  Biso   1.000  N
  H849     1.0000 0.82509  0.00331  0.75702  Biso   1.000  H
  N606     1.0000 0.83958  0.02732  0.84292  Biso   1.000  N
  H850     1.0000 0.82509  0.00331  0.75698  Biso   1.000  H
  H851     1.0000 0.82512  0.00331  0.75702  Biso   1.000  H
  H852     1.0000 0.82512  0.00331  0.75698  Biso   1.000  H
  O292     1.0000 0.84836  0.09770  0.89438  Biso   1.000  O
  O293     1.0000 0.84836  0.09770  0.89434  Biso   1.000  O
  O294     1.0000 0.09886  0.15221  0.13004  Biso   1.000  O
  N607     1.0000 0.15337  0.09333  0.14518  Biso   1.000  N
  O295     1.0000 0.09890  0.15221  0.13004  Biso   1.000  O
  H853     1.0000 0.22420  0.08099  0.14720  Biso   1.000  H
  H854     1.0000 0.22420  0.08102  0.14720  Biso   1.000  H
  C783     1.0000 0.20231  0.98882  0.12478  Biso   1.000  C
  C784     1.0000 0.20231  0.98882  0.12474  Biso   1.000  C
  C785     1.0000 0.20234  0.98882  0.12478  Biso   1.000  C
  C786     1.0000 0.20234  0.98882  0.12474  Biso   1.000  C
  N608     1.0000 0.84663  0.90667  0.85482  Biso   1.000  N
  H855     1.0000 0.83200  0.91739  0.76631  Biso   1.000  H
  H856     1.0000 0.88291  0.89500  0.77770  Biso   1.000  H
  N609     1.0000 0.84663  0.90667  0.85477  Biso   1.000  N
  N610     1.0000 0.84667  0.90667  0.85482  Biso   1.000  N
  N611     1.0000 0.84667  0.90667  0.85477  Biso   1.000  N
  C787     1.0000 0.79769  0.01118  0.87522  Biso   1.000  C
  C788     1.0000 0.79769  0.01121  0.87522  Biso   1.000  C
  C789     1.0000 0.13979  0.08127  0.20712  Biso   1.000  C
  N612     1.0000 0.16042  0.97268  0.15703  Biso   1.000  N
  H857     1.0000 0.22790  0.99418  0.15479  Biso   1.000  H
  H858     1.0000 0.21292  0.96369  0.09638  Biso   1.000  H
  N613     1.0000 0.16042  0.97271  0.15703  Biso   1.000  N
  H859     1.0000 0.22790  0.99422  0.15479  Biso   1.000  H
  H860     1.0000 0.21292  0.96372  0.09638  Biso   1.000  H
  N614     1.0000 0.16046  0.97268  0.15703  Biso   1.000  N
  N615     1.0000 0.16046  0.97271  0.15703  Biso   1.000  N
  C790     1.0000 0.80277  0.92191  0.88203  Biso   1.000  C
  C791     1.0000 0.86595  0.86934  0.88560  Biso   1.000  C
  C792     1.0000 0.86595  0.86934  0.88555  Biso   1.000  C
  C793     1.0000 0.80281  0.92191  0.88203  Biso   1.000  C
  N616     1.0000 0.80517  0.96873  0.90929  Biso   1.000  N
  N617     1.0000 0.80520  0.96873  0.90929  Biso   1.000  N
  H861     1.0000 0.77210  0.00582  0.84521  Biso   1.000  H
  H862     1.0000 0.78708  0.03631  0.90362  Biso   1.000  H
  H863     1.0000 0.77210  0.00582  0.84517  Biso   1.000  H
  H864     1.0000 0.78708  0.03631  0.90358  Biso   1.000  H
  H865     1.0000 0.78712  0.03631  0.90362  Biso   1.000  H
  H866     1.0000 0.78712  0.03631  0.90358  Biso   1.000  H
  N618     1.0000 0.11885  0.03519  0.21192  Biso   1.000  N
  H867     1.0000 0.16800  0.08261  0.23369  Biso   1.000  H
  H868     1.0000 0.11709  0.10500  0.22230  Biso   1.000  H
  N619     1.0000 0.11885  0.03519  0.21187  Biso   1.000  N
  H869     1.0000 0.11709  0.10500  0.22226  Biso   1.000  H
  H870     1.0000 0.11712  0.10500  0.22230  Biso   1.000  H
  H871     1.0000 0.11712  0.10500  0.22226  Biso   1.000  H
  C794     1.0000 0.14702  0.99249  0.21549  Biso   1.000  C
  C795     1.0000 0.14195  0.92903  0.14784  Biso   1.000  C
  C796     1.0000 0.14195  0.92903  0.14779  Biso   1.000  C
  C797     1.0000 0.14702  0.99253  0.21549  Biso   1.000  C
  C798     1.0000 0.79695  0.88869  0.93797  Biso   1.000  C
  H872     1.0000 0.77580  0.91901  0.85280  Biso   1.000  H
  O296     1.0000 0.90114  0.84779  0.86996  Biso   1.000  O
  N620     1.0000 0.83916  0.85985  0.93532  Biso   1.000  N
  O297     1.0000 0.90114  0.84779  0.86991  Biso   1.000  O
  N621     1.0000 0.83916  0.85989  0.93532  Biso   1.000  N
  N622     1.0000 0.83919  0.85985  0.93532  Biso   1.000  N
  N623     1.0000 0.83919  0.85989  0.93532  Biso   1.000  N
  C799     1.0000 0.79858  0.96707  0.97187  Biso   1.000  C
  C800     1.0000 0.07443  0.02831  0.23415  Biso   1.000  C
  C801     1.0000 0.07446  0.02831  0.23415  Biso   1.000  C
  H873     1.0000 0.17491  0.99669  0.24298  Biso   1.000  H
  C802     1.0000 0.11247  0.95551  0.24078  Biso   1.000  C
  C803     1.0000 0.11247  0.95551  0.24074  Biso   1.000  C
  H874     1.0000 0.17491  0.99672  0.24298  Biso   1.000  H
  O298     1.0000 0.15164  0.90230  0.10562  Biso   1.000  O
  N624     1.0000 0.11067  0.91947  0.19404  Biso   1.000  N
  N625     1.0000 0.11067  0.91947  0.19399  Biso   1.000  N
  O299     1.0000 0.15164  0.90234  0.10562  Biso   1.000  O
  O300     1.0000 0.15168  0.90230  0.10562  Biso   1.000  O
  O301     1.0000 0.15168  0.90234  0.10562  Biso   1.000  O
  N626     1.0000 0.79544  0.92116  0.98911  Biso   1.000  N
  H875     1.0000 0.76758  0.86930  0.93509  Biso   1.000  H
  N627     1.0000 0.79544  0.92120  0.98911  Biso   1.000  N
  H876     1.0000 0.76762  0.86930  0.93509  Biso   1.000  H
  C804     1.0000 0.84497  0.81772  0.97159  Biso   1.000  C
  O302     1.0000 0.79586  0.00127  0.00544  Biso   1.000  O
  N628     1.0000 0.06850  0.98160  0.24783  Biso   1.000  N
  O303     1.0000 0.04418  0.05877  0.24065  Biso   1.000  O
  O304     1.0000 0.04421  0.05877  0.24065  Biso   1.000  O
  H877     1.0000 0.12361  0.94239  0.28072  Biso   1.000  H
  H878     1.0000 0.12361  0.94239  0.28067  Biso   1.000  H
  H879     1.0000 0.12361  0.94242  0.28072  Biso   1.000  H
  H880     1.0000 0.12361  0.94242  0.28067  Biso   1.000  H
  C805     1.0000 0.09583  0.87226  0.20799  Biso   1.000  C
  C806     1.0000 0.09583  0.87226  0.20794  Biso   1.000  C
  C807     1.0000 0.09586  0.87226  0.20799  Biso   1.000  C
  C808     1.0000 0.09586  0.87226  0.20794  Biso   1.000  C
  C809     1.0000 0.78052  0.90741  0.04972  Biso   1.000  C
  C810     1.0000 0.78052  0.90741  0.04968  Biso   1.000  C
  H881     1.0000 0.81409  0.80161  0.97512  Biso   1.000  H
  H882     1.0000 0.86690  0.79611  0.95028  Biso   1.000  H
  H883     1.0000 0.81409  0.80161  0.97507  Biso   1.000  H
  H884     1.0000 0.81412  0.80161  0.97512  Biso   1.000  H
  H885     1.0000 0.81412  0.80161  0.97507  Biso   1.000  H
  N629     1.0000 0.86299  0.82717  0.03257  Biso   1.000  N
  C811     1.0000 0.03043  0.96453  0.28469  Biso   1.000  C
  C812     1.0000 0.03043  0.96453  0.28465  Biso   1.000  C
  N630     1.0000 0.04520  0.86556  0.20456  Biso   1.000  N
  H886     1.0000 0.10662  0.86408  0.24970  Biso   1.000  H
  H887     1.0000 0.11131  0.85030  0.17908  Biso   1.000  H
  H888     1.0000 0.10662  0.86408  0.24966  Biso   1.000  H
  H889     1.0000 0.10662  0.86412  0.24970  Biso   1.000  H
  H890     1.0000 0.10662  0.86412  0.24966  Biso   1.000  H
  N631     1.0000 0.81850  0.88753  0.08622  Biso   1.000  N
  H891     1.0000 0.76758  0.93530  0.07108  Biso   1.000  H
  H892     1.0000 0.75489  0.88390  0.04611  Biso   1.000  H
  N632     1.0000 0.81850  0.88753  0.08618  Biso   1.000  N
  H893     1.0000 0.75489  0.88390  0.04606  Biso   1.000  H
  N633     1.0000 0.81850  0.88756  0.08622  Biso   1.000  N
  N634     1.0000 0.81850  0.88756  0.08618  Biso   1.000  N
  N635     1.0000 0.81853  0.88753  0.08622  Biso   1.000  N
  H894     1.0000 0.76762  0.93530  0.07108  Biso   1.000  H
  N636     1.0000 0.81853  0.88753  0.08618  Biso   1.000  N
  N637     1.0000 0.81853  0.88756  0.08622  Biso   1.000  N
  N638     1.0000 0.81853  0.88756  0.08618  Biso   1.000  N
  C813     1.0000 0.83281  0.83877  0.08316  Biso   1.000  C
  C814     1.0000 0.90696  0.81335  0.05150  Biso   1.000  C
  N639     1.0000 0.00159  0.92924  0.25387  Biso   1.000  N
  H895     1.0000 0.01008  0.99140  0.29650  Biso   1.000  H
  H896     1.0000 0.04340  0.95071  0.32261  Biso   1.000  H
  H897     1.0000 0.04340  0.95071  0.32257  Biso   1.000  H
  H898     1.0000 0.01012  0.99140  0.29650  Biso   1.000  H
  C815     1.0000 0.01364  0.87963  0.25290  Biso   1.000  C
  C816     1.0000 0.02457  0.83665  0.16362  Biso   1.000  C
  C817     1.0000 0.02457  0.83665  0.16357  Biso   1.000  C
  C818     1.0000 0.83588  0.90985  0.13668  Biso   1.000  C
  C819     1.0000 0.86574  0.83344  0.13924  Biso   1.000  C
  H899     1.0000 0.80520  0.81702  0.08572  Biso   1.000  H
  C820     1.0000 0.86574  0.83344  0.13919  Biso   1.000  C
  H900     1.0000 0.80520  0.81702  0.08567  Biso   1.000  H
  O305     1.0000 0.93858  0.79896  0.01784  Biso   1.000  O
  N640     1.0000 0.91009  0.81892  0.11280  Biso   1.000  N
  N641     1.0000 0.91009  0.81892  0.11275  Biso   1.000  N
  O306     1.0000 0.93862  0.79896  0.01784  Biso   1.000  O
  C821     1.0000 0.95494  0.93682  0.24398  Biso   1.000  C
  C822     1.0000 0.95494  0.93682  0.24394  Biso   1.000  C
  C823     1.0000 0.96651  0.85562  0.23543  Biso   1.000  C
  C824     1.0000 0.96651  0.85562  0.23539  Biso   1.000  C
  C825     1.0000 0.96651  0.85566  0.23543  Biso   1.000  C
  C826     1.0000 0.96651  0.85566  0.23539  Biso   1.000  C
  H901     1.0000 0.02521  0.86870  0.29380  Biso   1.000  H
  N642     1.0000 0.97775  0.83281  0.17775  Biso   1.000  N
  O307     1.0000 0.04400  0.81638  0.12121  Biso   1.000  O
  O308     1.0000 0.04400  0.81638  0.12117  Biso   1.000  O
  O309     1.0000 0.04400  0.81642  0.12121  Biso   1.000  O
  O310     1.0000 0.04400  0.81642  0.12117  Biso   1.000  O
  O311     1.0000 0.04404  0.81638  0.12121  Biso   1.000  O
  O312     1.0000 0.04404  0.81638  0.12117  Biso   1.000  O
  O313     1.0000 0.04404  0.81642  0.12121  Biso   1.000  O
  O314     1.0000 0.04404  0.81642  0.12117  Biso   1.000  O
  O315     1.0000 0.82555  0.94990  0.15392  Biso   1.000  O
  N643     1.0000 0.86648  0.87995  0.16545  Biso   1.000  N
  O316     1.0000 0.82555  0.94993  0.15392  Biso   1.000  O
  H902     1.0000 0.85351  0.80951  0.16879  Biso   1.000  H
  C827     1.0000 0.94771  0.79819  0.14907  Biso   1.000  C
  C828     1.0000 0.94771  0.79819  0.14903  Biso   1.000  C
  O317     1.0000 0.93470  0.97500  0.24833  Biso   1.000  O
  N644     1.0000 0.93393  0.89472  0.23040  Biso   1.000  N
  O318     1.0000 0.93470  0.97500  0.24828  Biso   1.000  O
  H903     1.0000 0.95621  0.83239  0.26708  Biso   1.000  H
  H904     1.0000 0.95621  0.83242  0.26708  Biso   1.000  H
  C829     1.0000 0.88365  0.88922  0.22692  Biso   1.000  C
  C830     1.0000 0.88365  0.88922  0.22688  Biso   1.000  C
  C831     1.0000 0.88369  0.88922  0.22692  Biso   1.000  C
  C832     1.0000 0.88369  0.88922  0.22688  Biso   1.000  C
  H905     1.0000 0.96721  0.77781  0.12240  Biso   1.000  H
  H906     1.0000 0.93361  0.77799  0.18109  Biso   1.000  H
  H907     1.0000 0.96721  0.77781  0.12236  Biso   1.000  H
  H908     1.0000 0.93361  0.77802  0.18109  Biso   1.000  H
  H909     1.0000 0.87410  0.86288  0.25391  Biso   1.000  H
  H910     1.0000 0.86849  0.91831  0.24248  Biso   1.000  H
  H911     1.0000 0.87410  0.86288  0.25387  Biso   1.000  H
  H912     1.0000 0.87410  0.86292  0.25391  Biso   1.000  H
  H913     1.0000 0.87410  0.86292  0.25387  Biso   1.000  H
  H914     1.0000 0.86853  0.91831  0.24248  Biso   1.000  H
  C833     1.0000 0.11635  0.11078  0.77308  Biso   1.000  C
  H915     1.0000 0.12590  0.13712  0.74609  Biso   1.000  H
  N645     1.0000 0.06607  0.10528  0.76960  Biso   1.000  N
  N646     1.0000 0.13352  0.12005  0.83455  Biso   1.000  N
  H916     1.0000 0.13151  0.08169  0.75752  Biso   1.000  H
  N647     1.0000 0.06607  0.10528  0.76955  Biso   1.000  N
  N648     1.0000 0.13352  0.12005  0.83451  Biso   1.000  N
  H917     1.0000 0.13151  0.08169  0.75748  Biso   1.000  H
  N649     1.0000 0.13352  0.12009  0.83455  Biso   1.000  N
  H918     1.0000 0.13151  0.08173  0.75752  Biso   1.000  H
  N650     1.0000 0.13352  0.12009  0.83451  Biso   1.000  N
  H919     1.0000 0.13151  0.08173  0.75748  Biso   1.000  H
  N651     1.0000 0.06611  0.10528  0.76960  Biso   1.000  N
  N652     1.0000 0.13355  0.12005  0.83455  Biso   1.000  N
  N653     1.0000 0.06611  0.10528  0.76955  Biso   1.000  N
  N654     1.0000 0.13355  0.12005  0.83451  Biso   1.000  N
  N655     1.0000 0.13355  0.12009  0.83455  Biso   1.000  N
  N656     1.0000 0.13355  0.12009  0.83451  Biso   1.000  N
  C834     1.0000 0.04506  0.06318  0.75602  Biso   1.000  C
  C835     1.0000 0.03349  0.14438  0.76457  Biso   1.000  C
  C836     1.0000 0.03353  0.14438  0.76457  Biso   1.000  C
  C837     1.0000 0.13426  0.16656  0.86076  Biso   1.000  C
  C838     1.0000 0.16412  0.09015  0.86332  Biso   1.000  C
  C839     1.0000 0.13426  0.16659  0.86076  Biso   1.000  C
  C840     1.0000 0.16416  0.09015  0.86332  Biso   1.000  C
  O319     1.0000 0.06530  0.02500  0.75167  Biso   1.000  O
  N657     1.0000 0.99841  0.07076  0.74613  Biso   1.000  N
  N658     1.0000 0.99841  0.07076  0.74609  Biso   1.000  N
  C841     1.0000 0.98636  0.12037  0.74710  Biso   1.000  C
  C842     1.0000 0.98636  0.12037  0.74705  Biso   1.000  C
  N659     1.0000 0.02225  0.16719  0.82225  Biso   1.000  N
  H920     1.0000 0.04379  0.16761  0.73292  Biso   1.000  H
  N660     1.0000 0.02225  0.16719  0.82220  Biso   1.000  N
  H921     1.0000 0.04379  0.16761  0.73287  Biso   1.000  H
  N661     1.0000 0.02225  0.16722  0.82225  Biso   1.000  N
  N662     1.0000 0.02225  0.16722  0.82220  Biso   1.000  N
  N663     1.0000 0.02228  0.16719  0.82225  Biso   1.000  N
  H922     1.0000 0.04382  0.16761  0.73292  Biso   1.000  H
  N664     1.0000 0.02228  0.16719  0.82220  Biso   1.000  N
  H923     1.0000 0.04382  0.16761  0.73287  Biso   1.000  H
  N665     1.0000 0.02228  0.16722  0.82225  Biso   1.000  N
  N666     1.0000 0.02228  0.16722  0.82220  Biso   1.000  N
  N667     1.0000 0.08991  0.18108  0.88720  Biso   1.000  N
  H924     1.0000 0.14649  0.19049  0.83121  Biso   1.000  H
  C843     1.0000 0.16719  0.16123  0.91684  Biso   1.000  C
  H925     1.0000 0.14649  0.19049  0.83117  Biso   1.000  H
  N668     1.0000 0.08991  0.18112  0.88720  Biso   1.000  N
  H926     1.0000 0.14649  0.19053  0.83121  Biso   1.000  H
  C844     1.0000 0.16719  0.16127  0.91684  Biso   1.000  C
  H927     1.0000 0.14649  0.19053  0.83117  Biso   1.000  H
  H928     1.0000 0.14653  0.19049  0.83121  Biso   1.000  H
  H929     1.0000 0.14653  0.19049  0.83117  Biso   1.000  H
  H930     1.0000 0.14653  0.19053  0.83121  Biso   1.000  H
  H931     1.0000 0.14653  0.19053  0.83117  Biso   1.000  H
  N669     1.0000 0.18150  0.11247  0.91378  Biso   1.000  N
  O320     1.0000 0.17445  0.05010  0.84608  Biso   1.000  O
  O321     1.0000 0.17445  0.05010  0.84603  Biso   1.000  O
  O322     1.0000 0.17449  0.05010  0.84608  Biso   1.000  O
  O323     1.0000 0.17449  0.05010  0.84603  Biso   1.000  O
  C845     1.0000 0.96957  0.03547  0.71531  Biso   1.000  C
  C846     1.0000 0.96957  0.03550  0.71531  Biso   1.000  C
  C847     1.0000 0.96961  0.03547  0.71531  Biso   1.000  C
  C848     1.0000 0.96961  0.03550  0.71531  Biso   1.000  C
  N670     1.0000 0.95480  0.13444  0.79544  Biso   1.000  N
  H932     1.0000 0.97479  0.13130  0.70620  Biso   1.000  H
  N671     1.0000 0.95480  0.13444  0.79540  Biso   1.000  N
  N672     1.0000 0.95484  0.13444  0.79544  Biso   1.000  N
  H933     1.0000 0.97483  0.13130  0.70620  Biso   1.000  H
  N673     1.0000 0.95484  0.13444  0.79540  Biso   1.000  N
  C849     1.0000 0.97543  0.16335  0.83638  Biso   1.000  C
  C850     1.0000 0.97543  0.16338  0.83638  Biso   1.000  C
  C851     1.0000 0.05229  0.20181  0.85093  Biso   1.000  C
  C852     1.0000 0.05232  0.20181  0.85093  Biso   1.000  C
  C853     1.0000 0.09304  0.18665  0.94850  Biso   1.000  C
  C854     1.0000 0.09304  0.18665  0.94845  Biso   1.000  C
  C855     1.0000 0.09308  0.18665  0.94850  Biso   1.000  C
  C856     1.0000 0.09308  0.18665  0.94845  Biso   1.000  C
  N674     1.0000 0.13701  0.17283  0.96743  Biso   1.000  N
  H934     1.0000 0.19480  0.18298  0.91428  Biso   1.000  H
  H935     1.0000 0.19480  0.18302  0.91428  Biso   1.000  H
  C857     1.0000 0.21948  0.09259  0.95028  Biso   1.000  C
  C858     1.0000 0.21951  0.09259  0.95028  Biso   1.000  C
  N675     1.0000 0.93150  0.01840  0.75217  Biso   1.000  N
  H936     1.0000 0.98992  0.00860  0.70350  Biso   1.000  H
  H937     1.0000 0.95660  0.04929  0.67739  Biso   1.000  H
  N676     1.0000 0.93150  0.01840  0.75213  Biso   1.000  N
  H938     1.0000 0.95660  0.04932  0.67739  Biso   1.000  H
  C859     1.0000 0.90417  0.12774  0.79201  Biso   1.000  C
  O324     1.0000 0.95600  0.18362  0.87879  Biso   1.000  O
  H939     1.0000 0.03279  0.22219  0.87760  Biso   1.000  H
  H940     1.0000 0.06639  0.22201  0.81891  Biso   1.000  H
  H941     1.0000 0.06639  0.22201  0.81886  Biso   1.000  H
  H942     1.0000 0.03279  0.22223  0.87760  Biso   1.000  H
  H943     1.0000 0.03282  0.22219  0.87760  Biso   1.000  H
  H944     1.0000 0.06642  0.22201  0.81891  Biso   1.000  H
  H945     1.0000 0.06642  0.22201  0.81886  Biso   1.000  H
  H946     1.0000 0.03282  0.22223  0.87760  Biso   1.000  H
  O325     1.0000 0.06142  0.20104  0.98216  Biso   1.000  O
  O326     1.0000 0.06142  0.20104  0.98212  Biso   1.000  O
  O327     1.0000 0.06142  0.20107  0.98216  Biso   1.000  O
  O328     1.0000 0.06142  0.20107  0.98212  Biso   1.000  O
  C860     1.0000 0.15503  0.18228  0.02841  Biso   1.000  C
  C861     1.0000 0.15503  0.18228  0.02836  Biso   1.000  C
  H947     1.0000 0.24511  0.11610  0.95389  Biso   1.000  H
  H948     1.0000 0.23242  0.06470  0.92892  Biso   1.000  H
  H949     1.0000 0.23242  0.06470  0.92887  Biso   1.000  H
  N677     1.0000 0.20456  0.07884  0.01089  Biso   1.000  N
  N678     1.0000 0.20456  0.07884  0.01084  Biso   1.000  N
  C862     1.0000 0.92557  0.97169  0.76585  Biso   1.000  C
  C863     1.0000 0.92557  0.97169  0.76580  Biso   1.000  C
  C864     1.0000 0.92557  0.97172  0.76585  Biso   1.000  C
  C865     1.0000 0.92557  0.97172  0.76580  Biso   1.000  C
  C866     1.0000 0.88753  0.04449  0.75922  Biso   1.000  C
  C867     1.0000 0.88756  0.04449  0.75922  Biso   1.000  C
  N679     1.0000 0.88933  0.08053  0.80596  Biso   1.000  N
  H950     1.0000 0.89338  0.13592  0.75030  Biso   1.000  H
  H951     1.0000 0.88869  0.14970  0.82092  Biso   1.000  H
  H952     1.0000 0.88869  0.14970  0.82088  Biso   1.000  H
  N680     1.0000 0.88933  0.08056  0.80596  Biso   1.000  N
  H953     1.0000 0.89342  0.13592  0.75030  Biso   1.000  H
  N681     1.0000 0.16084  0.14015  0.06468  Biso   1.000  N
  H954     1.0000 0.18591  0.19839  0.02488  Biso   1.000  H
  H955     1.0000 0.13310  0.20389  0.04972  Biso   1.000  H
  H956     1.0000 0.13310  0.20389  0.04968  Biso   1.000  H
  H957     1.0000 0.18591  0.19843  0.02488  Biso   1.000  H
  H958     1.0000 0.13310  0.20393  0.04972  Biso   1.000  H
  H959     1.0000 0.13310  0.20393  0.04968  Biso   1.000  H
  C868     1.0000 0.20305  0.11131  0.06203  Biso   1.000  C
  C869     1.0000 0.20142  0.03293  0.02813  Biso   1.000  C
  C870     1.0000 0.20305  0.11131  0.06198  Biso   1.000  C
  C871     1.0000 0.20142  0.03293  0.02809  Biso   1.000  C
  C872     1.0000 0.20142  0.03297  0.02813  Biso   1.000  C
  C873     1.0000 0.20142  0.03297  0.02809  Biso   1.000  C
  O329     1.0000 0.95582  0.94123  0.75935  Biso   1.000  O
  N682     1.0000 0.88115  0.96481  0.78808  Biso   1.000  N
  O330     1.0000 0.95582  0.94123  0.75931  Biso   1.000  O
  N683     1.0000 0.88115  0.96485  0.78808  Biso   1.000  N
  N684     1.0000 0.88118  0.96481  0.78808  Biso   1.000  N
  N685     1.0000 0.88118  0.96485  0.78808  Biso   1.000  N
  C874     1.0000 0.85298  0.00751  0.78451  Biso   1.000  C
  H960     1.0000 0.87639  0.05761  0.71928  Biso   1.000  H
  C875     1.0000 0.85301  0.00751  0.78451  Biso   1.000  C
  H961     1.0000 0.87642  0.05761  0.71928  Biso   1.000  H
  C876     1.0000 0.85805  0.07097  0.85216  Biso   1.000  C
  C877     1.0000 0.85805  0.07101  0.85216  Biso   1.000  C
  C878     1.0000 0.85809  0.07097  0.85216  Biso   1.000  C
  C879     1.0000 0.85809  0.07101  0.85216  Biso   1.000  C
  C880     1.0000 0.13405  0.13066  0.11440  Biso   1.000  C
  C881     1.0000 0.13408  0.13066  0.11440  Biso   1.000  C
  H962     1.0000 0.23242  0.13070  0.06491  Biso   1.000  H
  C882     1.0000 0.19723  0.07809  0.11797  Biso   1.000  C
  H963     1.0000 0.23242  0.13070  0.06486  Biso   1.000  H
  C883     1.0000 0.19723  0.07813  0.11797  Biso   1.000  C
  O331     1.0000 0.20414  0.99873  0.99456  Biso   1.000  O
  O332     1.0000 0.20414  0.99873  0.99451  Biso   1.000  O
  N686     1.0000 0.19483  0.03127  0.09071  Biso   1.000  N
  N687     1.0000 0.19483  0.03127  0.09066  Biso   1.000  N
  C884     1.0000 0.86021  0.91873  0.79288  Biso   1.000  C
  C885     1.0000 0.86021  0.91873  0.79284  Biso   1.000  C
  N688     1.0000 0.83958  0.02732  0.84297  Biso   1.000  N
  H964     1.0000 0.82509  0.00331  0.75702  Biso   1.000  H
  N689     1.0000 0.83958  0.02732  0.84292  Biso   1.000  N
  H965     1.0000 0.82509  0.00331  0.75698  Biso   1.000  H
  H966     1.0000 0.82512  0.00331  0.75702  Biso   1.000  H
  H967     1.0000 0.82512  0.00331  0.75698  Biso   1.000  H
  O333     1.0000 0.84836  0.09770  0.89438  Biso   1.000  O
  O334     1.0000 0.84836  0.09770  0.89434  Biso   1.000  O
  O335     1.0000 0.09886  0.15221  0.13004  Biso   1.000  O
  N690     1.0000 0.15337  0.09333  0.14518  Biso   1.000  N
  O336     1.0000 0.09890  0.15221  0.13004  Biso   1.000  O
  H968     1.0000 0.22420  0.08099  0.14720  Biso   1.000  H
  H969     1.0000 0.22420  0.08102  0.14720  Biso   1.000  H
  C886     1.0000 0.20231  0.98882  0.12478  Biso   1.000  C
  C887     1.0000 0.20231  0.98882  0.12474  Biso   1.000  C
  C888     1.0000 0.20234  0.98882  0.12478  Biso   1.000  C
  C889     1.0000 0.20234  0.98882  0.12474  Biso   1.000  C
  N691     1.0000 0.84663  0.90667  0.85482  Biso   1.000  N
  H970     1.0000 0.83200  0.91739  0.76631  Biso   1.000  H
  H971     1.0000 0.88291  0.89500  0.77770  Biso   1.000  H
  N692     1.0000 0.84663  0.90667  0.85477  Biso   1.000  N
  N693     1.0000 0.84667  0.90667  0.85482  Biso   1.000  N
  N694     1.0000 0.84667  0.90667  0.85477  Biso   1.000  N
  C890     1.0000 0.79769  0.01118  0.87522  Biso   1.000  C
  C891     1.0000 0.79769  0.01121  0.87522  Biso   1.000  C
  C892     1.0000 0.13979  0.08127  0.20712  Biso   1.000  C
  N695     1.0000 0.16042  0.97268  0.15703  Biso   1.000  N
  H972     1.0000 0.22790  0.99418  0.15479  Biso   1.000  H
  H973     1.0000 0.21292  0.96369  0.09638  Biso   1.000  H
  N696     1.0000 0.16042  0.97271  0.15703  Biso   1.000  N
  H974     1.0000 0.22790  0.99422  0.15479  Biso   1.000  H
  H975     1.0000 0.21292  0.96372  0.09638  Biso   1.000  H
  N697     1.0000 0.16046  0.97268  0.15703  Biso   1.000  N
  N698     1.0000 0.16046  0.97271  0.15703  Biso   1.000  N
  C893     1.0000 0.80277  0.92191  0.88203  Biso   1.000  C
  C894     1.0000 0.86595  0.86934  0.88560  Biso   1.000  C
  C895     1.0000 0.86595  0.86934  0.88555  Biso   1.000  C
  C896     1.0000 0.80281  0.92191  0.88203  Biso   1.000  C
  N699     1.0000 0.80517  0.96873  0.90929  Biso   1.000  N
  N700     1.0000 0.80520  0.96873  0.90929  Biso   1.000  N
  H976     1.0000 0.77210  0.00582  0.84521  Biso   1.000  H
  H977     1.0000 0.78708  0.03631  0.90362  Biso   1.000  H
  H978     1.0000 0.77210  0.00582  0.84517  Biso   1.000  H
  H979     1.0000 0.78708  0.03631  0.90358  Biso   1.000  H
  H980     1.0000 0.78712  0.03631  0.90362  Biso   1.000  H
  H981     1.0000 0.78712  0.03631  0.90358  Biso   1.000  H
  N701     1.0000 0.11885  0.03519  0.21192  Biso   1.000  N
  H982     1.0000 0.16800  0.08261  0.23369  Biso   1.000  H
  H983     1.0000 0.11709  0.10500  0.22230  Biso   1.000  H
  N702     1.0000 0.11885  0.03519  0.21187  Biso   1.000  N
  H984     1.0000 0.11709  0.10500  0.22226  Biso   1.000  H
  H985     1.0000 0.11712  0.10500  0.22230  Biso   1.000  H
  H986     1.0000 0.11712  0.10500  0.22226  Biso   1.000  H
  C897     1.0000 0.14702  0.99249  0.21549  Biso   1.000  C
  C898     1.0000 0.14195  0.92903  0.14784  Biso   1.000  C
  C899     1.0000 0.14195  0.92903  0.14779  Biso   1.000  C
  C900     1.0000 0.14702  0.99253  0.21549  Biso   1.000  C
  C901     1.0000 0.79695  0.88869  0.93797  Biso   1.000  C
  H987     1.0000 0.77580  0.91901  0.85280  Biso   1.000  H
  O337     1.0000 0.90114  0.84779  0.86996  Biso   1.000  O
  N703     1.0000 0.83916  0.85985  0.93532  Biso   1.000  N
  O338     1.0000 0.90114  0.84779  0.86991  Biso   1.000  O
  N704     1.0000 0.83916  0.85989  0.93532  Biso   1.000  N
  N705     1.0000 0.83919  0.85985  0.93532  Biso   1.000  N
  N706     1.0000 0.83919  0.85989  0.93532  Biso   1.000  N
  C902     1.0000 0.79858  0.96707  0.97187  Biso   1.000  C
  C903     1.0000 0.07443  0.02831  0.23415  Biso   1.000  C
  C904     1.0000 0.07446  0.02831  0.23415  Biso   1.000  C
  H988     1.0000 0.17491  0.99669  0.24298  Biso   1.000  H
  C905     1.0000 0.11247  0.95551  0.24078  Biso   1.000  C
  C906     1.0000 0.11247  0.95551  0.24074  Biso   1.000  C
  H989     1.0000 0.17491  0.99672  0.24298  Biso   1.000  H
  O339     1.0000 0.15164  0.90230  0.10562  Biso   1.000  O
  N707     1.0000 0.11067  0.91947  0.19404  Biso   1.000  N
  N708     1.0000 0.11067  0.91947  0.19399  Biso   1.000  N
  O340     1.0000 0.15164  0.90234  0.10562  Biso   1.000  O
  O341     1.0000 0.15168  0.90230  0.10562  Biso   1.000  O
  O342     1.0000 0.15168  0.90234  0.10562  Biso   1.000  O
  N709     1.0000 0.79544  0.92116  0.98911  Biso   1.000  N
  H990     1.0000 0.76758  0.86930  0.93509  Biso   1.000  H
  N710     1.0000 0.79544  0.92120  0.98911  Biso   1.000  N
  H991     1.0000 0.76762  0.86930  0.93509  Biso   1.000  H
  C907     1.0000 0.84497  0.81772  0.97159  Biso   1.000  C
  O343     1.0000 0.79586  0.00127  0.00544  Biso   1.000  O
  N711     1.0000 0.06850  0.98160  0.24783  Biso   1.000  N
  O344     1.0000 0.04418  0.05877  0.24065  Biso   1.000  O
  O345     1.0000 0.04421  0.05877  0.24065  Biso   1.000  O
  H992     1.0000 0.12361  0.94239  0.28072  Biso   1.000  H
  H993     1.0000 0.12361  0.94239  0.28067  Biso   1.000  H
  H994     1.0000 0.12361  0.94242  0.28072  Biso   1.000  H
  H995     1.0000 0.12361  0.94242  0.28067  Biso   1.000  H
  C908     1.0000 0.09583  0.87226  0.20799  Biso   1.000  C
  C909     1.0000 0.09583  0.87226  0.20794  Biso   1.000  C
  C910     1.0000 0.09586  0.87226  0.20799  Biso   1.000  C
  C911     1.0000 0.09586  0.87226  0.20794  Biso   1.000  C
  C912     1.0000 0.78052  0.90741  0.04972  Biso   1.000  C
  C913     1.0000 0.78052  0.90741  0.04968  Biso   1.000  C
  H996     1.0000 0.81409  0.80161  0.97512  Biso   1.000  H
  H997     1.0000 0.86690  0.79611  0.95028  Biso   1.000  H
  H998     1.0000 0.81409  0.80161  0.97507  Biso   1.000  H
  H999     1.0000 0.81412  0.80161  0.97512  Biso   1.000  H
  H1000    1.0000 0.81412  0.80161  0.97507  Biso   1.000  H
  N712     1.0000 0.86299  0.82717  0.03257  Biso   1.000  N
  C914     1.0000 0.03043  0.96453  0.28469  Biso   1.000  C
  C915     1.0000 0.03043  0.96453  0.28465  Biso   1.000  C
  N713     1.0000 0.04520  0.86556  0.20456  Biso   1.000  N
  H1001    1.0000 0.10662  0.86408  0.24970  Biso   1.000  H
  H1002    1.0000 0.11131  0.85030  0.17908  Biso   1.000  H
  H1003    1.0000 0.10662  0.86408  0.24966  Biso   1.000  H
  H1004    1.0000 0.10662  0.86412  0.24970  Biso   1.000  H
  H1005    1.0000 0.10662  0.86412  0.24966  Biso   1.000  H
  N714     1.0000 0.81850  0.88753  0.08622  Biso   1.000  N
  H1006    1.0000 0.76758  0.93530  0.07108  Biso   1.000  H
  H1007    1.0000 0.75489  0.88390  0.04611  Biso   1.000  H
  N715     1.0000 0.81850  0.88753  0.08618  Biso   1.000  N
  H1008    1.0000 0.75489  0.88390  0.04606  Biso   1.000  H
  N716     1.0000 0.81850  0.88756  0.08622  Biso   1.000  N
  N717     1.0000 0.81850  0.88756  0.08618  Biso   1.000  N
  N718     1.0000 0.81853  0.88753  0.08622  Biso   1.000  N
  H1009    1.0000 0.76762  0.93530  0.07108  Biso   1.000  H
  N719     1.0000 0.81853  0.88753  0.08618  Biso   1.000  N
  N720     1.0000 0.81853  0.88756  0.08622  Biso   1.000  N
  N721     1.0000 0.81853  0.88756  0.08618  Biso   1.000  N
  C916     1.0000 0.83281  0.83877  0.08316  Biso   1.000  C
  C917     1.0000 0.90696  0.81335  0.05150  Biso   1.000  C
  N722     1.0000 0.00159  0.92924  0.25387  Biso   1.000  N
  H1010    1.0000 0.01008  0.99140  0.29650  Biso   1.000  H
  H1011    1.0000 0.04340  0.95071  0.32261  Biso   1.000  H
  H1012    1.0000 0.04340  0.95071  0.32257  Biso   1.000  H
  H1013    1.0000 0.01012  0.99140  0.29650  Biso   1.000  H
  C918     1.0000 0.01364  0.87963  0.25290  Biso   1.000  C
  C919     1.0000 0.02457  0.83665  0.16362  Biso   1.000  C
  C920     1.0000 0.02457  0.83665  0.16357  Biso   1.000  C
  C921     1.0000 0.83588  0.90985  0.13668  Biso   1.000  C
  C922     1.0000 0.86574  0.83344  0.13924  Biso   1.000  C
  H1014    1.0000 0.80520  0.81702  0.08572  Biso   1.000  H
  C923     1.0000 0.86574  0.83344  0.13919  Biso   1.000  C
  H1015    1.0000 0.80520  0.81702  0.08567  Biso   1.000  H
  O346     1.0000 0.93858  0.79896  0.01784  Biso   1.000  O
  N723     1.0000 0.91009  0.81892  0.11280  Biso   1.000  N
  N724     1.0000 0.91009  0.81892  0.11275  Biso   1.000  N
  O347     1.0000 0.93862  0.79896  0.01784  Biso   1.000  O
  C924     1.0000 0.95494  0.93682  0.24398  Biso   1.000  C
  C925     1.0000 0.95494  0.93682  0.24394  Biso   1.000  C
  C926     1.0000 0.96651  0.85562  0.23543  Biso   1.000  C
  C927     1.0000 0.96651  0.85562  0.23539  Biso   1.000  C
  C928     1.0000 0.96651  0.85566  0.23543  Biso   1.000  C
  C929     1.0000 0.96651  0.85566  0.23539  Biso   1.000  C
  H1016    1.0000 0.02521  0.86870  0.29380  Biso   1.000  H
  N725     1.0000 0.97775  0.83281  0.17775  Biso   1.000  N
  O348     1.0000 0.04400  0.81638  0.12121  Biso   1.000  O
  O349     1.0000 0.04400  0.81638  0.12117  Biso   1.000  O
  O350     1.0000 0.04400  0.81642  0.12121  Biso   1.000  O
  O351     1.0000 0.04400  0.81642  0.12117  Biso   1.000  O
  O352     1.0000 0.04404  0.81638  0.12121  Biso   1.000  O
  O353     1.0000 0.04404  0.81638  0.12117  Biso   1.000  O
  O354     1.0000 0.04404  0.81642  0.12121  Biso   1.000  O
  O355     1.0000 0.04404  0.81642  0.12117  Biso   1.000  O
  O356     1.0000 0.82555  0.94990  0.15392  Biso   1.000  O
  N726     1.0000 0.86648  0.87995  0.16545  Biso   1.000  N
  O357     1.0000 0.82555  0.94993  0.15392  Biso   1.000  O
  H1017    1.0000 0.85351  0.80951  0.16879  Biso   1.000  H
  C930     1.0000 0.94771  0.79819  0.14907  Biso   1.000  C
  C931     1.0000 0.94771  0.79819  0.14903  Biso   1.000  C
  O358     1.0000 0.93470  0.97500  0.24833  Biso   1.000  O
  N727     1.0000 0.93393  0.89472  0.23040  Biso   1.000  N
  O359     1.0000 0.93470  0.97500  0.24828  Biso   1.000  O
  H1018    1.0000 0.95621  0.83239  0.26708  Biso   1.000  H
  H1019    1.0000 0.95621  0.83242  0.26708  Biso   1.000  H
  C932     1.0000 0.88365  0.88922  0.22692  Biso   1.000  C
  C933     1.0000 0.88365  0.88922  0.22688  Biso   1.000  C
  C934     1.0000 0.88369  0.88922  0.22692  Biso   1.000  C
  C935     1.0000 0.88369  0.88922  0.22688  Biso   1.000  C
  H1020    1.0000 0.96721  0.77781  0.12240  Biso   1.000  H
  H1021    1.0000 0.93361  0.77799  0.18109  Biso   1.000  H
  H1022    1.0000 0.96721  0.77781  0.12236  Biso   1.000  H
  H1023    1.0000 0.93361  0.77802  0.18109  Biso   1.000  H
  H1024    1.0000 0.87410  0.86288  0.25391  Biso   1.000  H
  H1025    1.0000 0.86849  0.91831  0.24248  Biso   1.000  H
  H1026    1.0000 0.87410  0.86288  0.25387  Biso   1.000  H
  H1027    1.0000 0.87410  0.86292  0.25391  Biso   1.000  H
  H1028    1.0000 0.87410  0.86292  0.25387  Biso   1.000  H
  H1029    1.0000 0.86853  0.91831  0.24248  Biso   1.000  H
  C936     1.0000 0.11635  0.11078  0.77308  Biso   1.000  C
  H1030    1.0000 0.12590  0.13712  0.74609  Biso   1.000  H
  N728     1.0000 0.06607  0.10528  0.76960  Biso   1.000  N
  N729     1.0000 0.13352  0.12005  0.83455  Biso   1.000  N
  H1031    1.0000 0.13151  0.08169  0.75752  Biso   1.000  H
  N730     1.0000 0.06607  0.10528  0.76955  Biso   1.000  N
  N731     1.0000 0.13352  0.12005  0.83451  Biso   1.000  N
  H1032    1.0000 0.13151  0.08169  0.75748  Biso   1.000  H
  N732     1.0000 0.13352  0.12009  0.83455  Biso   1.000  N
  H1033    1.0000 0.13151  0.08173  0.75752  Biso   1.000  H
  N733     1.0000 0.13352  0.12009  0.83451  Biso   1.000  N
  H1034    1.0000 0.13151  0.08173  0.75748  Biso   1.000  H
  N734     1.0000 0.06611  0.10528  0.76960  Biso   1.000  N
  N735     1.0000 0.13355  0.12005  0.83455  Biso   1.000  N
  N736     1.0000 0.06611  0.10528  0.76955  Biso   1.000  N
  N737     1.0000 0.13355  0.12005  0.83451  Biso   1.000  N
  N738     1.0000 0.13355  0.12009  0.83455  Biso   1.000  N
  N739     1.0000 0.13355  0.12009  0.83451  Biso   1.000  N
  C937     1.0000 0.04506  0.06318  0.75602  Biso   1.000  C
  C938     1.0000 0.03349  0.14438  0.76457  Biso   1.000  C
  C939     1.0000 0.03353  0.14438  0.76457  Biso   1.000  C
  C940     1.0000 0.13426  0.16656  0.86076  Biso   1.000  C
  C941     1.0000 0.16412  0.09015  0.86332  Biso   1.000  C
  C942     1.0000 0.13426  0.16659  0.86076  Biso   1.000  C
  C943     1.0000 0.16416  0.09015  0.86332  Biso   1.000  C
  O360     1.0000 0.06530  0.02500  0.75167  Biso   1.000  O
  N740     1.0000 0.99841  0.07076  0.74613  Biso   1.000  N
  N741     1.0000 0.99841  0.07076  0.74609  Biso   1.000  N
  C944     1.0000 0.98636  0.12037  0.74710  Biso   1.000  C
  C945     1.0000 0.98636  0.12037  0.74705  Biso   1.000  C
  N742     1.0000 0.02225  0.16719  0.82225  Biso   1.000  N
  H1035    1.0000 0.04379  0.16761  0.73292  Biso   1.000  H
  N743     1.0000 0.02225  0.16719  0.82220  Biso   1.000  N
  H1036    1.0000 0.04379  0.16761  0.73287  Biso   1.000  H
  N744     1.0000 0.02225  0.16722  0.82225  Biso   1.000  N
  N745     1.0000 0.02225  0.16722  0.82220  Biso   1.000  N
  N746     1.0000 0.02228  0.16719  0.82225  Biso   1.000  N
  H1037    1.0000 0.04382  0.16761  0.73292  Biso   1.000  H
  N747     1.0000 0.02228  0.16719  0.82220  Biso   1.000  N
  H1038    1.0000 0.04382  0.16761  0.73287  Biso   1.000  H
  N748     1.0000 0.02228  0.16722  0.82225  Biso   1.000  N
  N749     1.0000 0.02228  0.16722  0.82220  Biso   1.000  N
  N750     1.0000 0.08991  0.18108  0.88720  Biso   1.000  N
  H1039    1.0000 0.14649  0.19049  0.83121  Biso   1.000  H
  C946     1.0000 0.16719  0.16123  0.91684  Biso   1.000  C
  H1040    1.0000 0.14649  0.19049  0.83117  Biso   1.000  H
  N751     1.0000 0.08991  0.18112  0.88720  Biso   1.000  N
  H1041    1.0000 0.14649  0.19053  0.83121  Biso   1.000  H
  C947     1.0000 0.16719  0.16127  0.91684  Biso   1.000  C
  H1042    1.0000 0.14649  0.19053  0.83117  Biso   1.000  H
  H1043    1.0000 0.14653  0.19049  0.83121  Biso   1.000  H
  H1044    1.0000 0.14653  0.19049  0.83117  Biso   1.000  H
  H1045    1.0000 0.14653  0.19053  0.83121  Biso   1.000  H
  H1046    1.0000 0.14653  0.19053  0.83117  Biso   1.000  H
  N752     1.0000 0.18150  0.11247  0.91378  Biso   1.000  N
  O361     1.0000 0.17445  0.05010  0.84608  Biso   1.000  O
  O362     1.0000 0.17445  0.05010  0.84603  Biso   1.000  O
  O363     1.0000 0.17449  0.05010  0.84608  Biso   1.000  O
  O364     1.0000 0.17449  0.05010  0.84603  Biso   1.000  O
  C948     1.0000 0.96957  0.03547  0.71531  Biso   1.000  C
  C949     1.0000 0.96957  0.03550  0.71531  Biso   1.000  C
  C950     1.0000 0.96961  0.03547  0.71531  Biso   1.000  C
  C951     1.0000 0.96961  0.03550  0.71531  Biso   1.000  C
  N753     1.0000 0.95480  0.13444  0.79544  Biso   1.000  N
  H1047    1.0000 0.97479  0.13130  0.70620  Biso   1.000  H
  N754     1.0000 0.95480  0.13444  0.79540  Biso   1.000  N
  N755     1.0000 0.95484  0.13444  0.79544  Biso   1.000  N
  H1048    1.0000 0.97483  0.13130  0.70620  Biso   1.000  H
  N756     1.0000 0.95484  0.13444  0.79540  Biso   1.000  N
  C952     1.0000 0.97543  0.16335  0.83638  Biso   1.000  C
  C953     1.0000 0.97543  0.16338  0.83638  Biso   1.000  C
  C954     1.0000 0.05229  0.20181  0.85093  Biso   1.000  C
  C955     1.0000 0.05232  0.20181  0.85093  Biso   1.000  C
  C956     1.0000 0.09304  0.18665  0.94850  Biso   1.000  C
  C957     1.0000 0.09304  0.18665  0.94845  Biso   1.000  C
  C958     1.0000 0.09308  0.18665  0.94850  Biso   1.000  C
  C959     1.0000 0.09308  0.18665  0.94845  Biso   1.000  C
  N757     1.0000 0.13701  0.17283  0.96743  Biso   1.000  N
  H1049    1.0000 0.19480  0.18298  0.91428  Biso   1.000  H
  H1050    1.0000 0.19480  0.18302  0.91428  Biso   1.000  H
  C960     1.0000 0.21948  0.09259  0.95028  Biso   1.000  C
  C961     1.0000 0.21951  0.09259  0.95028  Biso   1.000  C
  N758     1.0000 0.93150  0.01840  0.75217  Biso   1.000  N
  H1051    1.0000 0.98992  0.00860  0.70350  Biso   1.000  H
  H1052    1.0000 0.95660  0.04929  0.67739  Biso   1.000  H
  N759     1.0000 0.93150  0.01840  0.75213  Biso   1.000  N
  H1053    1.0000 0.95660  0.04932  0.67739  Biso   1.000  H
  C962     1.0000 0.90417  0.12774  0.79201  Biso   1.000  C
  O365     1.0000 0.95600  0.18362  0.87879  Biso   1.000  O
  H1054    1.0000 0.03279  0.22219  0.87760  Biso   1.000  H
  H1055    1.0000 0.06639  0.22201  0.81891  Biso   1.000  H
  H1056    1.0000 0.06639  0.22201  0.81886  Biso   1.000  H
  H1057    1.0000 0.03279  0.22223  0.87760  Biso   1.000  H
  H1058    1.0000 0.03282  0.22219  0.87760  Biso   1.000  H
  H1059    1.0000 0.06642  0.22201  0.81891  Biso   1.000  H
  H1060    1.0000 0.06642  0.22201  0.81886  Biso   1.000  H
  H1061    1.0000 0.03282  0.22223  0.87760  Biso   1.000  H
  O366     1.0000 0.06142  0.20104  0.98216  Biso   1.000  O
  O367     1.0000 0.06142  0.20104  0.98212  Biso   1.000  O
  O368     1.0000 0.06142  0.20107  0.98216  Biso   1.000  O
  O369     1.0000 0.06142  0.20107  0.98212  Biso   1.000  O
  C963     1.0000 0.15503  0.18228  0.02841  Biso   1.000  C
  C964     1.0000 0.15503  0.18228  0.02836  Biso   1.000  C
  H1062    1.0000 0.24511  0.11610  0.95389  Biso   1.000  H
  H1063    1.0000 0.23242  0.06470  0.92892  Biso   1.000  H
  H1064    1.0000 0.23242  0.06470  0.92887  Biso   1.000  H
  N760     1.0000 0.20456  0.07884  0.01089  Biso   1.000  N
  N761     1.0000 0.20456  0.07884  0.01084  Biso   1.000  N
  C965     1.0000 0.92557  0.97169  0.76585  Biso   1.000  C
  C966     1.0000 0.92557  0.97169  0.76580  Biso   1.000  C
  C967     1.0000 0.92557  0.97172  0.76585  Biso   1.000  C
  C968     1.0000 0.92557  0.97172  0.76580  Biso   1.000  C
  C969     1.0000 0.88753  0.04449  0.75922  Biso   1.000  C
  C970     1.0000 0.88756  0.04449  0.75922  Biso   1.000  C
  N762     1.0000 0.88933  0.08053  0.80596  Biso   1.000  N
  H1065    1.0000 0.89338  0.13592  0.75030  Biso   1.000  H
  H1066    1.0000 0.88869  0.14970  0.82092  Biso   1.000  H
  H1067    1.0000 0.88869  0.14970  0.82088  Biso   1.000  H
  N763     1.0000 0.88933  0.08056  0.80596  Biso   1.000  N
  H1068    1.0000 0.89342  0.13592  0.75030  Biso   1.000  H
  N764     1.0000 0.16084  0.14015  0.06468  Biso   1.000  N
  H1069    1.0000 0.18591  0.19839  0.02488  Biso   1.000  H
  H1070    1.0000 0.13310  0.20389  0.04972  Biso   1.000  H
  H1071    1.0000 0.13310  0.20389  0.04968  Biso   1.000  H
  H1072    1.0000 0.18591  0.19843  0.02488  Biso   1.000  H
  H1073    1.0000 0.13310  0.20393  0.04972  Biso   1.000  H
  H1074    1.0000 0.13310  0.20393  0.04968  Biso   1.000  H
  C971     1.0000 0.20305  0.11131  0.06203  Biso   1.000  C
  C972     1.0000 0.20142  0.03293  0.02813  Biso   1.000  C
  C973     1.0000 0.20305  0.11131  0.06198  Biso   1.000  C
  C974     1.0000 0.20142  0.03293  0.02809  Biso   1.000  C
  C975     1.0000 0.20142  0.03297  0.02813  Biso   1.000  C
  C976     1.0000 0.20142  0.03297  0.02809  Biso   1.000  C
  O370     1.0000 0.95582  0.94123  0.75935  Biso   1.000  O
  N765     1.0000 0.88115  0.96481  0.78808  Biso   1.000  N
  O371     1.0000 0.95582  0.94123  0.75931  Biso   1.000  O
  N766     1.0000 0.88115  0.96485  0.78808  Biso   1.000  N
  N767     1.0000 0.88118  0.96481  0.78808  Biso   1.000  N
  N768     1.0000 0.88118  0.96485  0.78808  Biso   1.000  N
  C977     1.0000 0.85298  0.00751  0.78451  Biso   1.000  C
  H1075    1.0000 0.87639  0.05761  0.71928  Biso   1.000  H
  C978     1.0000 0.85301  0.00751  0.78451  Biso   1.000  C
  H1076    1.0000 0.87642  0.05761  0.71928  Biso   1.000  H
  C979     1.0000 0.85805  0.07097  0.85216  Biso   1.000  C
  C980     1.0000 0.85805  0.07101  0.85216  Biso   1.000  C
  C981     1.0000 0.85809  0.07097  0.85216  Biso   1.000  C
  C982     1.0000 0.85809  0.07101  0.85216  Biso   1.000  C
  C983     1.0000 0.13405  0.13066  0.11440  Biso   1.000  C
  C984     1.0000 0.13408  0.13066  0.11440  Biso   1.000  C
  H1077    1.0000 0.23242  0.13070  0.06491  Biso   1.000  H
  C985     1.0000 0.19723  0.07809  0.11797  Biso   1.000  C
  H1078    1.0000 0.23242  0.13070  0.06486  Biso   1.000  H
  C986     1.0000 0.19723  0.07813  0.11797  Biso   1.000  C
  O372     1.0000 0.20414  0.99873  0.99456  Biso   1.000  O
  O373     1.0000 0.20414  0.99873  0.99451  Biso   1.000  O
  N769     1.0000 0.19483  0.03127  0.09071  Biso   1.000  N
  N770     1.0000 0.19483  0.03127  0.09066  Biso   1.000  N
  C987     1.0000 0.86021  0.91873  0.79288  Biso   1.000  C
  C988     1.0000 0.86021  0.91873  0.79284  Biso   1.000  C
  N771     1.0000 0.83958  0.02732  0.84297  Biso   1.000  N
  H1079    1.0000 0.82509  0.00331  0.75702  Biso   1.000  H
  N772     1.0000 0.83958  0.02732  0.84292  Biso   1.000  N
  H1080    1.0000 0.82509  0.00331  0.75698  Biso   1.000  H
  H1081    1.0000 0.82512  0.00331  0.75702  Biso   1.000  H
  H1082    1.0000 0.82512  0.00331  0.75698  Biso   1.000  H
  O374     1.0000 0.84836  0.09770  0.89438  Biso   1.000  O
  O375     1.0000 0.84836  0.09770  0.89434  Biso   1.000  O
  O376     1.0000 0.09886  0.15221  0.13004  Biso   1.000  O
  N773     1.0000 0.15337  0.09333  0.14518  Biso   1.000  N
  O377     1.0000 0.09890  0.15221  0.13004  Biso   1.000  O
  H1083    1.0000 0.22420  0.08099  0.14720  Biso   1.000  H
  H1084    1.0000 0.22420  0.08102  0.14720  Biso   1.000  H
  C989     1.0000 0.20231  0.98882  0.12478  Biso   1.000  C
  C990     1.0000 0.20231  0.98882  0.12474  Biso   1.000  C
  C991     1.0000 0.20234  0.98882  0.12478  Biso   1.000  C
  C992     1.0000 0.20234  0.98882  0.12474  Biso   1.000  C
  N774     1.0000 0.84663  0.90667  0.85482  Biso   1.000  N
  H1085    1.0000 0.83200  0.91739  0.76631  Biso   1.000  H
  H1086    1.0000 0.88291  0.89500  0.77770  Biso   1.000  H
  N775     1.0000 0.84663  0.90667  0.85477  Biso   1.000  N
  N776     1.0000 0.84667  0.90667  0.85482  Biso   1.000  N
  N777     1.0000 0.84667  0.90667  0.85477  Biso   1.000  N
  C993     1.0000 0.79769  0.01118  0.87522  Biso   1.000  C
  C994     1.0000 0.79769  0.01121  0.87522  Biso   1.000  C
  C995     1.0000 0.13979  0.08127  0.20712  Biso   1.000  C
  N778     1.0000 0.16042  0.97268  0.15703  Biso   1.000  N
  H1087    1.0000 0.22790  0.99418  0.15479  Biso   1.000  H
  H1088    1.0000 0.21292  0.96369  0.09638  Biso   1.000  H
  N779     1.0000 0.16042  0.97271  0.15703  Biso   1.000  N
  H1089    1.0000 0.22790  0.99422  0.15479  Biso   1.000  H
  H1090    1.0000 0.21292  0.96372  0.09638  Biso   1.000  H
  N780     1.0000 0.16046  0.97268  0.15703  Biso   1.000  N
  N781     1.0000 0.16046  0.97271  0.15703  Biso   1.000  N
  C996     1.0000 0.80277  0.92191  0.88203  Biso   1.000  C
  C997     1.0000 0.86595  0.86934  0.88560  Biso   1.000  C
  C998     1.0000 0.86595  0.86934  0.88555  Biso   1.000  C
  C999     1.0000 0.80281  0.92191  0.88203  Biso   1.000  C
  N782     1.0000 0.80517  0.96873  0.90929  Biso   1.000  N
  N783     1.0000 0.80520  0.96873  0.90929  Biso   1.000  N
  H1091    1.0000 0.77210  0.00582  0.84521  Biso   1.000  H
  H1092    1.0000 0.78708  0.03631  0.90362  Biso   1.000  H
  H1093    1.0000 0.77210  0.00582  0.84517  Biso   1.000  H
  H1094    1.0000 0.78708  0.03631  0.90358  Biso   1.000  H
  H1095    1.0000 0.78712  0.03631  0.90362  Biso   1.000  H
  H1096    1.0000 0.78712  0.03631  0.90358  Biso   1.000  H
  N784     1.0000 0.11885  0.03519  0.21192  Biso   1.000  N
  H1097    1.0000 0.16800  0.08261  0.23369  Biso   1.000  H
  H1098    1.0000 0.11709  0.10500  0.22230  Biso   1.000  H
  N785     1.0000 0.11885  0.03519  0.21187  Biso   1.000  N
  H1099    1.0000 0.11709  0.10500  0.22226  Biso   1.000  H
  H1100    1.0000 0.11712  0.10500  0.22230  Biso   1.000  H
  H1101    1.0000 0.11712  0.10500  0.22226  Biso   1.000  H
  C1000    1.0000 0.14702  0.99249  0.21549  Biso   1.000  C
  C1001    1.0000 0.14195  0.92903  0.14784  Biso   1.000  C
  C1002    1.0000 0.14195  0.92903  0.14779  Biso   1.000  C
  C1003    1.0000 0.14702  0.99253  0.21549  Biso   1.000  C
  C1004    1.0000 0.79695  0.88869  0.93797  Biso   1.000  C
  H1102    1.0000 0.77580  0.91901  0.85280  Biso   1.000  H
  O378     1.0000 0.90114  0.84779  0.86996  Biso   1.000  O
  N786     1.0000 0.83916  0.85985  0.93532  Biso   1.000  N
  O379     1.0000 0.90114  0.84779  0.86991  Biso   1.000  O
  N787     1.0000 0.83916  0.85989  0.93532  Biso   1.000  N
  N788     1.0000 0.83919  0.85985  0.93532  Biso   1.000  N
  N789     1.0000 0.83919  0.85989  0.93532  Biso   1.000  N
  C1005    1.0000 0.79858  0.96707  0.97187  Biso   1.000  C
  C1006    1.0000 0.07443  0.02831  0.23415  Biso   1.000  C
  C1007    1.0000 0.07446  0.02831  0.23415  Biso   1.000  C
  H1103    1.0000 0.17491  0.99669  0.24298  Biso   1.000  H
  C1008    1.0000 0.11247  0.95551  0.24078  Biso   1.000  C
  C1009    1.0000 0.11247  0.95551  0.24074  Biso   1.000  C
  H1104    1.0000 0.17491  0.99672  0.24298  Biso   1.000  H
  O380     1.0000 0.15164  0.90230  0.10562  Biso   1.000  O
  N790     1.0000 0.11067  0.91947  0.19404  Biso   1.000  N
  N791     1.0000 0.11067  0.91947  0.19399  Biso   1.000  N
  O381     1.0000 0.15164  0.90234  0.10562  Biso   1.000  O
  O382     1.0000 0.15168  0.90230  0.10562  Biso   1.000  O
  O383     1.0000 0.15168  0.90234  0.10562  Biso   1.000  O
  N792     1.0000 0.79544  0.92116  0.98911  Biso   1.000  N
  H1105    1.0000 0.76758  0.86930  0.93509  Biso   1.000  H
  N793     1.0000 0.79544  0.92120  0.98911  Biso   1.000  N
  H1106    1.0000 0.76762  0.86930  0.93509  Biso   1.000  H
  C1010    1.0000 0.84497  0.81772  0.97159  Biso   1.000  C
  O384     1.0000 0.79586  0.00127  0.00544  Biso   1.000  O
  N794     1.0000 0.06850  0.98160  0.24783  Biso   1.000  N
  O385     1.0000 0.04418  0.05877  0.24065  Biso   1.000  O
  O386     1.0000 0.04421  0.05877  0.24065  Biso   1.000  O
  H1107    1.0000 0.12361  0.94239  0.28072  Biso   1.000  H
  H1108    1.0000 0.12361  0.94239  0.28067  Biso   1.000  H
  H1109    1.0000 0.12361  0.94242  0.28072  Biso   1.000  H
  H1110    1.0000 0.12361  0.94242  0.28067  Biso   1.000  H
  C1011    1.0000 0.09583  0.87226  0.20799  Biso   1.000  C
  C1012    1.0000 0.09583  0.87226  0.20794  Biso   1.000  C
  C1013    1.0000 0.09586  0.87226  0.20799  Biso   1.000  C
  C1014    1.0000 0.09586  0.87226  0.20794  Biso   1.000  C
  C1015    1.0000 0.78052  0.90741  0.04972  Biso   1.000  C
  C1016    1.0000 0.78052  0.90741  0.04968  Biso   1.000  C
  H1111    1.0000 0.81409  0.80161  0.97512  Biso   1.000  H
  H1112    1.0000 0.86690  0.79611  0.95028  Biso   1.000  H
  H1113    1.0000 0.81409  0.80161  0.97507  Biso   1.000  H
  H1114    1.0000 0.81412  0.80161  0.97512  Biso   1.000  H
  H1115    1.0000 0.81412  0.80161  0.97507  Biso   1.000  H
  N795     1.0000 0.86299  0.82717  0.03257  Biso   1.000  N
  C1017    1.0000 0.03043  0.96453  0.28469  Biso   1.000  C
  C1018    1.0000 0.03043  0.96453  0.28465  Biso   1.000  C
  N796     1.0000 0.04520  0.86556  0.20456  Biso   1.000  N
  H1116    1.0000 0.10662  0.86408  0.24970  Biso   1.000  H
  H1117    1.0000 0.11131  0.85030  0.17908  Biso   1.000  H
  H1118    1.0000 0.10662  0.86408  0.24966  Biso   1.000  H
  H1119    1.0000 0.10662  0.86412  0.24970  Biso   1.000  H
  H1120    1.0000 0.10662  0.86412  0.24966  Biso   1.000  H
  N797     1.0000 0.81850  0.88753  0.08622  Biso   1.000  N
  H1121    1.0000 0.76758  0.93530  0.07108  Biso   1.000  H
  H1122    1.0000 0.75489  0.88390  0.04611  Biso   1.000  H
  N798     1.0000 0.81850  0.88753  0.08618  Biso   1.000  N
  H1123    1.0000 0.75489  0.88390  0.04606  Biso   1.000  H
  N799     1.0000 0.81850  0.88756  0.08622  Biso   1.000  N
  N800     1.0000 0.81850  0.88756  0.08618  Biso   1.000  N
  N801     1.0000 0.81853  0.88753  0.08622  Biso   1.000  N
  H1124    1.0000 0.76762  0.93530  0.07108  Biso   1.000  H
  N802     1.0000 0.81853  0.88753  0.08618  Biso   1.000  N
  N803     1.0000 0.81853  0.88756  0.08622  Biso   1.000  N
  N804     1.0000 0.81853  0.88756  0.08618  Biso   1.000  N
  C1019    1.0000 0.83281  0.83877  0.08316  Biso   1.000  C
  C1020    1.0000 0.90696  0.81335  0.05150  Biso   1.000  C
  N805     1.0000 0.00159  0.92924  0.25387  Biso   1.000  N
  H1125    1.0000 0.01008  0.99140  0.29650  Biso   1.000  H
  H1126    1.0000 0.04340  0.95071  0.32261  Biso   1.000  H
  H1127    1.0000 0.04340  0.95071  0.32257  Biso   1.000  H
  H1128    1.0000 0.01012  0.99140  0.29650  Biso   1.000  H
  C1021    1.0000 0.01364  0.87963  0.25290  Biso   1.000  C
  C1022    1.0000 0.02457  0.83665  0.16362  Biso   1.000  C
  C1023    1.0000 0.02457  0.83665  0.16357  Biso   1.000  C
  C1024    1.0000 0.83588  0.90985  0.13668  Biso   1.000  C
  C1025    1.0000 0.86574  0.83344  0.13924  Biso   1.000  C
  H1129    1.0000 0.80520  0.81702  0.08572  Biso   1.000  H
  C1026    1.0000 0.86574  0.83344  0.13919  Biso   1.000  C
  H1130    1.0000 0.80520  0.81702  0.08567  Biso   1.000  H
  O387     1.0000 0.93858  0.79896  0.01784  Biso   1.000  O
  N806     1.0000 0.91009  0.81892  0.11280  Biso   1.000  N
  N807     1.0000 0.91009  0.81892  0.11275  Biso   1.000  N
  O388     1.0000 0.93862  0.79896  0.01784  Biso   1.000  O
  C1027    1.0000 0.95494  0.93682  0.24398  Biso   1.000  C
  C1028    1.0000 0.95494  0.93682  0.24394  Biso   1.000  C
  C1029    1.0000 0.96651  0.85562  0.23543  Biso   1.000  C
  C1030    1.0000 0.96651  0.85562  0.23539  Biso   1.000  C
  C1031    1.0000 0.96651  0.85566  0.23543  Biso   1.000  C
  C1032    1.0000 0.96651  0.85566  0.23539  Biso   1.000  C
  H1131    1.0000 0.02521  0.86870  0.29380  Biso   1.000  H
  N808     1.0000 0.97775  0.83281  0.17775  Biso   1.000  N
  O389     1.0000 0.04400  0.81638  0.12121  Biso   1.000  O
  O390     1.0000 0.04400  0.81638  0.12117  Biso   1.000  O
  O391     1.0000 0.04400  0.81642  0.12121  Biso   1.000  O
  O392     1.0000 0.04400  0.81642  0.12117  Biso   1.000  O
  O393     1.0000 0.04404  0.81638  0.12121  Biso   1.000  O
  O394     1.0000 0.04404  0.81638  0.12117  Biso   1.000  O
  O395     1.0000 0.04404  0.81642  0.12121  Biso   1.000  O
  O396     1.0000 0.04404  0.81642  0.12117  Biso   1.000  O
  O397     1.0000 0.82555  0.94990  0.15392  Biso   1.000  O
  N809     1.0000 0.86648  0.87995  0.16545  Biso   1.000  N
  O398     1.0000 0.82555  0.94993  0.15392  Biso   1.000  O
  H1132    1.0000 0.85351  0.80951  0.16879  Biso   1.000  H
  C1033    1.0000 0.94771  0.79819  0.14907  Biso   1.000  C
  C1034    1.0000 0.94771  0.79819  0.14903  Biso   1.000  C
  O399     1.0000 0.93470  0.97500  0.24833  Biso   1.000  O
  N810     1.0000 0.93393  0.89472  0.23040  Biso   1.000  N
  O400     1.0000 0.93470  0.97500  0.24828  Biso   1.000  O
  H1133    1.0000 0.95621  0.83239  0.26708  Biso   1.000  H
  H1134    1.0000 0.95621  0.83242  0.26708  Biso   1.000  H
  C1035    1.0000 0.88365  0.88922  0.22692  Biso   1.000  C
  C1036    1.0000 0.88365  0.88922  0.22688  Biso   1.000  C
  C1037    1.0000 0.88369  0.88922  0.22692  Biso   1.000  C
  C1038    1.0000 0.88369  0.88922  0.22688  Biso   1.000  C
  H1135    1.0000 0.96721  0.77781  0.12240  Biso   1.000  H
  H1136    1.0000 0.93361  0.77799  0.18109  Biso   1.000  H
  H1137    1.0000 0.96721  0.77781  0.12236  Biso   1.000  H
  H1138    1.0000 0.93361  0.77802  0.18109  Biso   1.000  H
  H1139    1.0000 0.87410  0.86288  0.25391  Biso   1.000  H
  H1140    1.0000 0.86849  0.91831  0.24248  Biso   1.000  H
  H1141    1.0000 0.87410  0.86288  0.25387  Biso   1.000  H
  H1142    1.0000 0.87410  0.86292  0.25391  Biso   1.000  H
  H1143    1.0000 0.87410  0.86292  0.25387  Biso   1.000  H
  H1144    1.0000 0.86853  0.91831  0.24248  Biso   1.000  H
  C1039    1.0000 0.36132  0.54698  0.68795  Biso   1.000  C
  C1040    1.0000 0.32810  0.55280  0.63201  Biso   1.000  C
  N811     1.0000 0.32881  0.54543  0.73914  Biso   1.000  N
  N812     1.0000 0.39012  0.58918  0.68530  Biso   1.000  N
  H1145    1.0000 0.38071  0.51761  0.68507  Biso   1.000  H
  N813     1.0000 0.28128  0.55520  0.65927  Biso   1.000  N
  N814     1.0000 0.34333  0.59666  0.60479  Biso   1.000  N
  H1146    1.0000 0.33099  0.52579  0.60278  Biso   1.000  H
  C1041    1.0000 0.28294  0.54860  0.72185  Biso   1.000  C
  C1042    1.0000 0.34259  0.53052  0.79970  Biso   1.000  C
  C1043    1.0000 0.38067  0.61594  0.63558  Biso   1.000  C
  C1044    1.0000 0.43229  0.59497  0.72157  Biso   1.000  C
  C1045    1.0000 0.23880  0.54769  0.62524  Biso   1.000  C
  C1046    1.0000 0.33128  0.61020  0.54286  Biso   1.000  C
  O401     1.0000 0.24874  0.54585  0.75547  Biso   1.000  O
  N815     1.0000 0.36248  0.56852  0.83620  Biso   1.000  N
  H1147    1.0000 0.31471  0.51761  0.82111  Biso   1.000  H
  H1148    1.0000 0.36611  0.50492  0.79608  Biso   1.000  H
  O402     1.0000 0.40221  0.65113  0.61993  Biso   1.000  O
  N816     1.0000 0.42284  0.61298  0.78255  Biso   1.000  N
  H1149    1.0000 0.44840  0.56412  0.72509  Biso   1.000  H
  H1150    1.0000 0.45390  0.61690  0.70030  Biso   1.000  H
  N817     1.0000 0.22268  0.58957  0.59295  Biso   1.000  N
  H1151    1.0000 0.24419  0.52209  0.59519  Biso   1.000  H
  H1152    1.0000 0.21369  0.53711  0.65360  Biso   1.000  H
  N818     1.0000 0.28516  0.63117  0.53810  Biso   1.000  N
  H1153    1.0000 0.33262  0.58199  0.51628  Biso   1.000  H
  H1154    1.0000 0.35500  0.63290  0.52767  Biso   1.000  H
  C1047    1.0000 0.34016  0.58587  0.88665  Biso   1.000  C
  C1048    1.0000 0.41124  0.58280  0.83314  Biso   1.000  C
  C1049    1.0000 0.43666  0.65695  0.80153  Biso   1.000  C
  C1050    1.0000 0.24250  0.60300  0.53449  Biso   1.000  C
  C1051    1.0000 0.17904  0.60808  0.60219  Biso   1.000  C
  C1052    1.0000 0.27832  0.67556  0.51583  Biso   1.000  C
  O403     1.0000 0.30011  0.57554  0.90394  Biso   1.000  O
  N819     1.0000 0.37006  0.61647  0.91542  Biso   1.000  N
  C1053    1.0000 0.41656  0.61573  0.88921  Biso   1.000  C
  H1155    1.0000 0.43299  0.55520  0.83570  Biso   1.000  H
  N820     1.0000 0.43109  0.66012  0.86278  Biso   1.000  N
  O404     1.0000 0.45105  0.68861  0.76782  Biso   1.000  O
  H1156    1.0000 0.24669  0.57512  0.50700  Biso   1.000  H
  C1054    1.0000 0.20551  0.63756  0.50919  Biso   1.000  C
  O405     1.0000 0.15231  0.59835  0.64436  Biso   1.000  O
  N821     1.0000 0.16945  0.63935  0.55594  Biso   1.000  N
  N822     1.0000 0.23160  0.68149  0.50215  Biso   1.000  N
  O406     1.0000 0.30878  0.70581  0.50933  Biso   1.000  O
  C1055    1.0000 0.36079  0.63368  0.97690  Biso   1.000  C
  H1157    1.0000 0.44050  0.60350  0.91876  Biso   1.000  H
  C1056    1.0000 0.45182  0.69770  0.89905  Biso   1.000  C
  H1158    1.0000 0.19240  0.62641  0.46931  Biso   1.000  H
  C1057    1.0000 0.12227  0.65416  0.54204  Biso   1.000  C
  C1058    1.0000 0.21450  0.71960  0.46533  Biso   1.000  C
  N823     1.0000 0.35529  0.68392  0.98042  Biso   1.000  N
  H1159    1.0000 0.33170  0.61852  0.99250  Biso   1.000  H
  H1160    1.0000 0.38709  0.62412  0.00389  Biso   1.000  H
  N824     1.0000 0.41720  0.72774  0.92773  Biso   1.000  N
  H1161    1.0000 0.47220  0.71720  0.87238  Biso   1.000  H
  H1162    1.0000 0.47199  0.68360  0.93107  Biso   1.000  H
  N825     1.0000 0.11557  0.70483  0.54542  Biso   1.000  N
  H1163    1.0000 0.11409  0.64341  0.50027  Biso   1.000  H
  H1164    1.0000 0.10031  0.63872  0.57090  Biso   1.000  H
  N826     1.0000 0.17925  0.74844  0.49611  Biso   1.000  N
  H1165    1.0000 0.24141  0.73991  0.45348  Biso   1.000  H
  H1166    1.0000 0.20072  0.70662  0.42741  Biso   1.000  H
  C1059    1.0000 0.31319  0.70493  0.99396  Biso   1.000  C
  C1060    1.0000 0.39435  0.71650  0.98541  Biso   1.000  C
  C1061    1.0000 0.41336  0.77460  0.91359  Biso   1.000  C
  C1062    1.0000 0.12964  0.73638  0.49707  Biso   1.000  C
  C1063    1.0000 0.08663  0.72542  0.58641  Biso   1.000  C
  C1064    1.0000 0.18683  0.79509  0.50599  Biso   1.000  C
  O407     1.0000 0.27501  0.68473  0.99831  Biso   1.000  O
  N827     1.0000 0.32077  0.75158  0.00384  Biso   1.000  N
  C1065    1.0000 0.37038  0.76364  0.00293  Biso   1.000  C
  H1167    1.0000 0.41762  0.70620  0.01706  Biso   1.000  H
  N828     1.0000 0.38444  0.79519  0.95458  Biso   1.000  N
  O408     1.0000 0.43359  0.79403  0.87119  Biso   1.000  O
  C1066    1.0000 0.10563  0.78352  0.51459  Biso   1.000  C
  H1168    1.0000 0.11871  0.72482  0.45618  Biso   1.000  H
  N829     1.0000 0.08278  0.77227  0.57223  Biso   1.000  N
  O409     1.0000 0.06639  0.70599  0.62881  Biso   1.000  O
  N830     1.0000 0.14473  0.81610  0.51958  Biso   1.000  N
  O410     1.0000 0.22501  0.81529  0.50169  Biso   1.000  O
  C1067    1.0000 0.28548  0.78042  0.03467  Biso   1.000  C
  H1169    1.0000 0.38131  0.77520  0.04377  Biso   1.000  H
  C1068    1.0000 0.37775  0.84586  0.95796  Biso   1.000  C
  H1170    1.0000 0.08240  0.79382  0.48289  Biso   1.000  H
  C1069    1.0000 0.04820  0.80231  0.60095  Biso   1.000  C
  C1070    1.0000 0.13923  0.86634  0.52305  Biso   1.000  C
  N831     1.0000 0.26841  0.81853  0.99780  Biso   1.000  N
  H1171    1.0000 0.25861  0.76011  0.04647  Biso   1.000  H
  H1172    1.0000 0.29930  0.79339  0.07259  Biso   1.000  H
  N832     1.0000 0.33054  0.86066  0.94401  Biso   1.000  N
  H1173    1.0000 0.38589  0.85661  0.99968  Biso   1.000  H
  H1174    1.0000 0.39971  0.86130  0.92910  Biso   1.000  H
  N833     1.0000 0.06893  0.83990  0.63722  Biso   1.000  N
  H1175    1.0000 0.02778  0.78282  0.62757  Biso   1.000  H
  H1176    1.0000 0.02799  0.81642  0.56889  Biso   1.000  H
  N834     1.0000 0.12996  0.88355  0.58453  Biso   1.000  N
  H1177    1.0000 0.11289  0.87589  0.49611  Biso   1.000  H
  H1178    1.0000 0.16832  0.88150  0.50750  Biso   1.000  H
  C1071    1.0000 0.29450  0.86246  0.99076  Biso   1.000  C
  C1072    1.0000 0.22170  0.82445  0.98417  Biso   1.000  C
  C1073    1.0000 0.32098  0.89194  0.89781  Biso   1.000  C
  C1074    1.0000 0.08342  0.88429  0.61074  Biso   1.000  C
  C1075    1.0000 0.06336  0.84307  0.69847  Biso   1.000  C
  C1076    1.0000 0.15986  0.91415  0.61330  Biso   1.000  C
  C1077    1.0000 0.25752  0.89701  0.96547  Biso   1.000  C
  H1179    1.0000 0.30762  0.87360  0.03069  Biso   1.000  H
  O411     1.0000 0.19124  0.79420  0.99062  Biso   1.000  O
  N835     1.0000 0.21482  0.86884  0.96190  Biso   1.000  N
  N836     1.0000 0.27730  0.91045  0.90705  Biso   1.000  N
  O412     1.0000 0.34767  0.90167  0.85559  Biso   1.000  O
  H1180    1.0000 0.05951  0.89652  0.58119  Biso   1.000  H
  C1078    1.0000 0.08878  0.91722  0.66682  Biso   1.000  C
  O413     1.0000 0.04894  0.81141  0.73214  Biso   1.000  O
  N837     1.0000 0.07718  0.88704  0.71741  Biso   1.000  N
  O414     1.0000 0.19991  0.92448  0.59606  Biso   1.000  O
  N838     1.0000 0.13754  0.93150  0.66380  Biso   1.000  N
  H1181    1.0000 0.25329  0.92490  0.99300  Biso   1.000  H
  C1079    1.0000 0.16874  0.88982  0.95714  Biso   1.000  C
  C1080    1.0000 0.26119  0.95233  0.87476  Biso   1.000  C
  H1182    1.0000 0.06699  0.94482  0.66430  Biso   1.000  H
  C1081    1.0000 0.06773  0.90505  0.77838  Biso   1.000  C
  C1082    1.0000 0.15742  0.96950  0.70026  Biso   1.000  C
  N839     1.0000 0.15668  0.90336  0.89521  Biso   1.000  N
  H1183    1.0000 0.16740  0.91803  0.98367  Biso   1.000  H
  H1184    1.0000 0.14501  0.86712  0.97228  Biso   1.000  H
  N840     1.0000 0.21874  0.94482  0.84068  Biso   1.000  N
  H1185    1.0000 0.25579  0.97789  0.90477  Biso   1.000  H
  H1186    1.0000 0.28629  0.96291  0.84640  Biso   1.000  H
  N841     1.0000 0.10986  0.91083  0.81466  Biso   1.000  N
  H1187    1.0000 0.05162  0.93590  0.77491  Biso   1.000  H
  H1188    1.0000 0.04612  0.88312  0.79970  Biso   1.000  H
  N842     1.0000 0.17117  0.95455  0.76086  Biso   1.000  N
  H1189    1.0000 0.18531  0.98241  0.67889  Biso   1.000  H
  H1190    1.0000 0.13391  0.99510  0.70387  Biso   1.000  H
  C1083    1.0000 0.11935  0.88407  0.86438  Biso   1.000  C
  C1084    1.0000 0.17188  0.94722  0.86794  Biso   1.000  C
  C1085    1.0000 0.21708  0.95142  0.77811  Biso   1.000  C
  C1086    1.0000 0.13870  0.95304  0.81200  Biso   1.000  C
  O415     1.0000 0.09780  0.84889  0.88007  Biso   1.000  O
  H1191    1.0000 0.16899  0.97423  0.89717  Biso   1.000  H
  O416     1.0000 0.25128  0.95417  0.74453  Biso   1.000  O
  H1192    1.0000 0.11931  0.98241  0.81488  Biso   1.000  H
  O417     1.0000 0.59782  0.34887  0.38007  Biso   1.000  O
  C1087    1.0000 0.61936  0.38406  0.36442  Biso   1.000  C
  N843     1.0000 0.60988  0.41082  0.31466  Biso   1.000  N
  N844     1.0000 0.65670  0.40334  0.39521  Biso   1.000  N
  C1088    1.0000 0.56771  0.40503  0.27838  Biso   1.000  C
  C1089    1.0000 0.63872  0.45306  0.31200  Biso   1.000  C
  C1090    1.0000 0.67190  0.44720  0.36794  Biso   1.000  C
  C1091    1.0000 0.66872  0.38980  0.45714  Biso   1.000  C
  N845     1.0000 0.57716  0.38702  0.21741  Biso   1.000  N
  H1193    1.0000 0.55160  0.43592  0.27491  Biso   1.000  H
  H1194    1.0000 0.54610  0.38310  0.29970  Biso   1.000  H
  N846     1.0000 0.67119  0.45457  0.26086  Biso   1.000  N
  H1195    1.0000 0.61929  0.48239  0.31488  Biso   1.000  H
  N847     1.0000 0.71875  0.44484  0.34068  Biso   1.000  N
  H1196    1.0000 0.66901  0.47421  0.39717  Biso   1.000  H
  N848     1.0000 0.71484  0.36886  0.46190  Biso   1.000  N
  H1197    1.0000 0.66742  0.41801  0.48367  Biso   1.000  H
  H1198    1.0000 0.64500  0.36710  0.47228  Biso   1.000  H
  C1092    1.0000 0.56334  0.34305  0.19847  Biso   1.000  C
  C1093    1.0000 0.58876  0.41720  0.16682  Biso   1.000  C
  C1094    1.0000 0.65744  0.46948  0.20030  Biso   1.000  C
  C1095    1.0000 0.71706  0.45143  0.27811  Biso   1.000  C
  C1096    1.0000 0.76120  0.45231  0.37476  Biso   1.000  C
  C1097    1.0000 0.75750  0.39703  0.46547  Biso   1.000  C
  C1098    1.0000 0.72171  0.32444  0.48417  Biso   1.000  C
  O418     1.0000 0.54895  0.31139  0.23214  Biso   1.000  O
  N849     1.0000 0.56891  0.33991  0.13722  Biso   1.000  N
  C1099    1.0000 0.58344  0.38427  0.11079  Biso   1.000  C
  N850     1.0000 0.63756  0.43148  0.16380  Biso   1.000  N
  H1199    1.0000 0.56701  0.44480  0.16430  Biso   1.000  H
  H1200    1.0000 0.68529  0.48239  0.17889  Biso   1.000  H
  H1201    1.0000 0.63389  0.49512  0.20392  Biso   1.000  H
  O419     1.0000 0.75126  0.45415  0.24453  Biso   1.000  O
  N851     1.0000 0.77732  0.41043  0.40705  Biso   1.000  N
  H1202    1.0000 0.75581  0.47791  0.40481  Biso   1.000  H
  H1203    1.0000 0.78631  0.46289  0.34640  Biso   1.000  H
  H1204    1.0000 0.75331  0.42492  0.49300  Biso   1.000  H
  C1100    1.0000 0.79449  0.36248  0.49076  Biso   1.000  C
  O420     1.0000 0.69125  0.29419  0.49067  Biso   1.000  O
  N852     1.0000 0.76840  0.31851  0.49785  Biso   1.000  N
  C1101    1.0000 0.54818  0.30230  0.10095  Biso   1.000  C
  N853     1.0000 0.62994  0.38353  0.08453  Biso   1.000  N
  H1205    1.0000 0.55950  0.39650  0.08119  Biso   1.000  H
  C1102    1.0000 0.65987  0.41413  0.11330  Biso   1.000  C
  C1103    1.0000 0.82100  0.39192  0.39781  Biso   1.000  C
  N854     1.0000 0.83055  0.36068  0.44401  Biso   1.000  N
  H1206    1.0000 0.80760  0.37362  0.53069  Biso   1.000  H
  C1104    1.0000 0.78550  0.28040  0.53467  Biso   1.000  C
  N855     1.0000 0.58280  0.27226  0.07223  Biso   1.000  N
  H1207    1.0000 0.52780  0.28280  0.12762  Biso   1.000  H
  H1208    1.0000 0.52801  0.31640  0.06889  Biso   1.000  H
  C1105    1.0000 0.63925  0.36636  0.02310  Biso   1.000  C
  O421     1.0000 0.69993  0.42446  0.09606  Biso   1.000  O
  O422     1.0000 0.84769  0.40165  0.35564  Biso   1.000  O
  C1106    1.0000 0.87776  0.34584  0.45796  Biso   1.000  C
  N856     1.0000 0.82075  0.25160  0.50389  Biso   1.000  N
  H1209    1.0000 0.75859  0.26009  0.54647  Biso   1.000  H
  H1210    1.0000 0.79932  0.29341  0.57259  Biso   1.000  H
  C1107    1.0000 0.60565  0.28350  0.01459  Biso   1.000  C
  C1108    1.0000 0.58664  0.22543  0.08641  Biso   1.000  C
  N857     1.0000 0.64475  0.31608  0.01958  Biso   1.000  N
  H1211    1.0000 0.66830  0.38152  0.00750  Biso   1.000  H
  H1212    1.0000 0.61291  0.37591  0.99611  Biso   1.000  H
  N858     1.0000 0.88446  0.29521  0.45458  Biso   1.000  N
  H1213    1.0000 0.88591  0.35659  0.49968  Biso   1.000  H
  H1214    1.0000 0.89969  0.36132  0.42910  Biso   1.000  H
  C1109    1.0000 0.87036  0.26365  0.50293  Biso   1.000  C
  C1110    1.0000 0.81317  0.20495  0.49396  Biso   1.000  C
  H1215    1.0000 0.58241  0.29380  0.98289  Biso   1.000  H
  C1111    1.0000 0.62966  0.23636  0.99707  Biso   1.000  C
  O423     1.0000 0.56641  0.20601  0.12881  Biso   1.000  O
  N859     1.0000 0.61556  0.20481  0.04542  Biso   1.000  N
  C1112    1.0000 0.68681  0.29507  0.00604  Biso   1.000  C
  C1113    1.0000 0.91337  0.27458  0.41359  Biso   1.000  C
  H1216    1.0000 0.88132  0.27522  0.54377  Biso   1.000  H
  C1114    1.0000 0.89437  0.21648  0.48541  Biso   1.000  C
  O424     1.0000 0.77502  0.18471  0.49831  Biso   1.000  O
  N860     1.0000 0.85527  0.18394  0.48042  Biso   1.000  N
  N861     1.0000 0.67923  0.24842  0.99611  Biso   1.000  N
  H1217    1.0000 0.61869  0.22480  0.95618  Biso   1.000  H
  C1115    1.0000 0.62225  0.15414  0.04204  Biso   1.000  C
  O425     1.0000 0.72499  0.31531  0.00169  Biso   1.000  O
  O426     1.0000 0.93361  0.29401  0.37119  Biso   1.000  O
  N862     1.0000 0.91722  0.22773  0.42777  Biso   1.000  N
  H1218    1.0000 0.91760  0.20622  0.51711  Biso   1.000  H
  C1116    1.0000 0.86077  0.13366  0.47690  Biso   1.000  C
  C1117    1.0000 0.71452  0.21958  0.96533  Biso   1.000  C
  N863     1.0000 0.66946  0.13934  0.05599  Biso   1.000  N
  H1219    1.0000 0.61411  0.14339  0.00032  Biso   1.000  H
  H1220    1.0000 0.60029  0.13870  0.07090  Biso   1.000  H
  C1118    1.0000 0.95180  0.19769  0.39905  Biso   1.000  C
  N864     1.0000 0.87008  0.11645  0.41547  Biso   1.000  N
  H1221    1.0000 0.88711  0.12411  0.50389  Biso   1.000  H
  H1222    1.0000 0.83172  0.11850  0.49250  Biso   1.000  H
  N865     1.0000 0.73162  0.18150  0.00215  Biso   1.000  N
  H1223    1.0000 0.74142  0.23989  0.95348  Biso   1.000  H
  H1224    1.0000 0.70070  0.20661  0.92741  Biso   1.000  H
  C1119    1.0000 0.67902  0.10806  0.10219  Biso   1.000  C
  C1120    1.0000 0.70553  0.13754  0.00924  Biso   1.000  C
  N866     1.0000 0.93111  0.16010  0.36278  Biso   1.000  N
  H1225    1.0000 0.97222  0.21722  0.37238  Biso   1.000  H
  H1226    1.0000 0.97201  0.18362  0.43111  Biso   1.000  H
  C1121    1.0000 0.84014  0.08589  0.38665  Biso   1.000  C
  C1122    1.0000 0.91658  0.11575  0.38921  Biso   1.000  C
  C1123    1.0000 0.77830  0.17555  0.01583  Biso   1.000  C
  O427     1.0000 0.65233  0.09837  0.14436  Biso   1.000  O
  N867     1.0000 0.72270  0.08959  0.09295  Biso   1.000  N
  C1124    1.0000 0.74252  0.10299  0.03449  Biso   1.000  C
  H1227    1.0000 0.69242  0.12640  0.96931  Biso   1.000  H
  C1125    1.0000 0.93664  0.15697  0.30153  Biso   1.000  C
  N868     1.0000 0.86246  0.06850  0.33620  Biso   1.000  N
  O428     1.0000 0.80009  0.07556  0.40394  Biso   1.000  O
  C1126    1.0000 0.91126  0.08282  0.33314  Biso   1.000  C
  H1228    1.0000 0.94052  0.10352  0.41881  Biso   1.000  H
  O429     1.0000 0.80876  0.20580  0.00933  Biso   1.000  O
  N869     1.0000 0.78518  0.13116  0.03810  Biso   1.000  N
  C1127    1.0000 0.73881  0.04767  0.12524  Biso   1.000  C
  H1229    1.0000 0.74671  0.07510  0.00700  Biso   1.000  H
  N870     1.0000 0.92286  0.11300  0.28255  Biso   1.000  N
  O430     1.0000 0.95106  0.18859  0.26786  Biso   1.000  O
  C1128    1.0000 0.84258  0.03050  0.29970  Biso   1.000  C
  H1230    1.0000 0.93301  0.05521  0.33570  Biso   1.000  H
  C1129    1.0000 0.83129  0.11021  0.04286  Biso   1.000  C
  N871     1.0000 0.78126  0.05518  0.15932  Biso   1.000  N
  H1231    1.0000 0.74421  0.02211  0.09519  Biso   1.000  H
  H1232    1.0000 0.71371  0.03709  0.15360  Biso   1.000  H
  C1130    1.0000 0.93231  0.09498  0.22162  Biso   1.000  C
  N872     1.0000 0.82883  0.04545  0.23914  Biso   1.000  N
  H1233    1.0000 0.81472  0.01759  0.32111  Biso   1.000  H
  H1234    1.0000 0.86609  0.00490  0.29608  Biso   1.000  H
  N873     1.0000 0.84332  0.09664  0.10479  Biso   1.000  N
  H1235    1.0000 0.83260  0.08201  0.01628  Biso   1.000  H
  H1236    1.0000 0.85502  0.13288  0.02772  Biso   1.000  H
  C1131    1.0000 0.78296  0.04858  0.22189  Biso   1.000  C
  C1132    1.0000 0.82812  0.05278  0.13201  Biso   1.000  C
  N874     1.0000 0.89014  0.08917  0.18530  Biso   1.000  N
  H1237    1.0000 0.94842  0.06410  0.22509  Biso   1.000  H
  H1238    1.0000 0.95392  0.11691  0.20030  Biso   1.000  H
  C1133    1.0000 0.86130  0.04696  0.18800  Biso   1.000  C
  C1134    1.0000 0.88065  0.11593  0.13558  Biso   1.000  C
  O431     1.0000 0.74872  0.04587  0.25547  Biso   1.000  O
  H1239    1.0000 0.83101  0.02581  0.10278  Biso   1.000  H
  H1240    1.0000 0.88072  0.01759  0.18512  Biso   1.000  H
  O432     1.0000 0.90220  0.15115  0.11993  Biso   1.000  O
  O433     1.0000 0.65233  0.59835  0.85559  Biso   1.000  O
  C1135    1.0000 0.67902  0.60808  0.89781  Biso   1.000  C
  N875     1.0000 0.72270  0.58957  0.90705  Biso   1.000  N
  N876     1.0000 0.66946  0.63935  0.94401  Biso   1.000  N
  C1136    1.0000 0.73881  0.54769  0.87476  Biso   1.000  C
  C1137    1.0000 0.74252  0.60300  0.96547  Biso   1.000  C
  C1138    1.0000 0.70553  0.63756  0.99076  Biso   1.000  C
  C1139    1.0000 0.62225  0.65416  0.95796  Biso   1.000  C
  N877     1.0000 0.78126  0.55520  0.84068  Biso   1.000  N
  H1241    1.0000 0.74421  0.52209  0.90477  Biso   1.000  H
  H1242    1.0000 0.71371  0.53711  0.84640  Biso   1.000  H
  N878     1.0000 0.78518  0.63117  0.96190  Biso   1.000  N
  H1243    1.0000 0.74671  0.57512  0.99300  Biso   1.000  H
  N879     1.0000 0.73162  0.68149  0.99780  Biso   1.000  N
  H1244    1.0000 0.69242  0.62641  0.03069  Biso   1.000  H
  N880     1.0000 0.61556  0.70483  0.95458  Biso   1.000  N
  H1245    1.0000 0.61411  0.64341  0.99968  Biso   1.000  H
  H1246    1.0000 0.60029  0.63872  0.92910  Biso   1.000  H
  C1140    1.0000 0.78296  0.54860  0.77811  Biso   1.000  C
  C1141    1.0000 0.82812  0.55280  0.86794  Biso   1.000  C
  C1142    1.0000 0.83129  0.61020  0.95714  Biso   1.000  C
  C1143    1.0000 0.77830  0.67556  0.98417  Biso   1.000  C
  C1144    1.0000 0.71452  0.71960  0.03467  Biso   1.000  C
  C1145    1.0000 0.58664  0.72542  0.91359  Biso   1.000  C
  C1146    1.0000 0.62966  0.73638  0.00293  Biso   1.000  C
  N881     1.0000 0.82883  0.54543  0.76086  Biso   1.000  N
  O434     1.0000 0.74872  0.54585  0.74453  Biso   1.000  O
  C1147    1.0000 0.86130  0.54698  0.81200  Biso   1.000  C
  N882     1.0000 0.84332  0.59666  0.89521  Biso   1.000  N
  H1247    1.0000 0.83101  0.52579  0.89717  Biso   1.000  H
  H1248    1.0000 0.83260  0.58199  0.98367  Biso   1.000  H
  H1249    1.0000 0.85502  0.63290  0.97228  Biso   1.000  H
  O435     1.0000 0.80876  0.70581  0.99062  Biso   1.000  O
  N883     1.0000 0.67923  0.74844  0.00384  Biso   1.000  N
  H1250    1.0000 0.74142  0.73991  0.04647  Biso   1.000  H
  H1251    1.0000 0.70070  0.70662  0.07259  Biso   1.000  H
  O436     1.0000 0.56641  0.70599  0.87119  Biso   1.000  O
  N884     1.0000 0.58280  0.77227  0.92773  Biso   1.000  N
  C1148    1.0000 0.60565  0.78352  0.98541  Biso   1.000  C
  H1252    1.0000 0.61869  0.72482  0.04377  Biso   1.000  H
  C1149    1.0000 0.84258  0.53052  0.70026  Biso   1.000  C
  N885     1.0000 0.89014  0.58918  0.81466  Biso   1.000  N
  H1253    1.0000 0.88072  0.51761  0.81488  Biso   1.000  H
  C1150    1.0000 0.88065  0.61594  0.86438  Biso   1.000  C
  C1151    1.0000 0.68681  0.79509  0.99396  Biso   1.000  C
  C1152    1.0000 0.54818  0.80231  0.89905  Biso   1.000  C
  N886     1.0000 0.64475  0.81610  0.98042  Biso   1.000  N
  H1254    1.0000 0.58241  0.79382  0.01706  Biso   1.000  H
  N887     1.0000 0.86246  0.56852  0.66380  Biso   1.000  N
  H1255    1.0000 0.81472  0.51761  0.67889  Biso   1.000  H
  H1256    1.0000 0.86609  0.50492  0.70387  Biso   1.000  H
  C1153    1.0000 0.93231  0.59497  0.77838  Biso   1.000  C
  O437     1.0000 0.90220  0.65113  0.88007  Biso   1.000  O
  O438     1.0000 0.72499  0.81529  0.99831  Biso   1.000  O
  N888     1.0000 0.56891  0.83990  0.86278  Biso   1.000  N
  H1257    1.0000 0.52780  0.78282  0.87238  Biso   1.000  H
  H1258    1.0000 0.52801  0.81642  0.93107  Biso   1.000  H
  C1154    1.0000 0.63925  0.86634  0.97690  Biso   1.000  C
  C1155    1.0000 0.84014  0.58587  0.61330  Biso   1.000  C
  C1156    1.0000 0.91126  0.58280  0.66682  Biso   1.000  C
  N889     1.0000 0.92286  0.61298  0.71741  Biso   1.000  N
  H1259    1.0000 0.94842  0.56412  0.77491  Biso   1.000  H
  H1260    1.0000 0.95392  0.61690  0.79970  Biso   1.000  H
  C1157    1.0000 0.56334  0.84307  0.80153  Biso   1.000  C
  C1158    1.0000 0.58344  0.88429  0.88921  Biso   1.000  C
  N890     1.0000 0.62994  0.88355  0.91542  Biso   1.000  N
  H1261    1.0000 0.66830  0.88150  0.99250  Biso   1.000  H
  H1262    1.0000 0.61291  0.87589  0.00389  Biso   1.000  H
  O439     1.0000 0.80009  0.57554  0.59606  Biso   1.000  O
  N891     1.0000 0.87008  0.61647  0.58453  Biso   1.000  N
  C1159    1.0000 0.91658  0.61573  0.61074  Biso   1.000  C
  H1263    1.0000 0.93301  0.55520  0.66430  Biso   1.000  H
  C1160    1.0000 0.93664  0.65695  0.69847  Biso   1.000  C
  N892     1.0000 0.57716  0.88704  0.78255  Biso   1.000  N
  O440     1.0000 0.54895  0.81141  0.76782  Biso   1.000  O
  C1161    1.0000 0.58876  0.91722  0.83314  Biso   1.000  C
  H1264    1.0000 0.55950  0.89652  0.91876  Biso   1.000  H
  C1162    1.0000 0.65987  0.91415  0.88665  Biso   1.000  C
  C1163    1.0000 0.86077  0.63368  0.52305  Biso   1.000  C
  N893     1.0000 0.93111  0.66012  0.63722  Biso   1.000  N
  H1265    1.0000 0.94052  0.60350  0.58119  Biso   1.000  H
  O441     1.0000 0.95106  0.68861  0.73214  Biso   1.000  O
  C1164    1.0000 0.56771  0.90505  0.72157  Biso   1.000  C
  N894     1.0000 0.63756  0.93150  0.83620  Biso   1.000  N
  H1266    1.0000 0.56701  0.94482  0.83570  Biso   1.000  H
  O442     1.0000 0.69993  0.92448  0.90394  Biso   1.000  O
  N895     1.0000 0.85527  0.68392  0.51958  Biso   1.000  N
  H1267    1.0000 0.88711  0.62412  0.49611  Biso   1.000  H
  H1268    1.0000 0.83172  0.61852  0.50750  Biso   1.000  H
  C1165    1.0000 0.95180  0.69770  0.60095  Biso   1.000  C
  N896     1.0000 0.60988  0.91083  0.68530  Biso   1.000  N
  H1269    1.0000 0.55160  0.93590  0.72509  Biso   1.000  H
  H1270    1.0000 0.54610  0.88312  0.70030  Biso   1.000  H
  C1166    1.0000 0.65744  0.96950  0.79970  Biso   1.000  C
  C1167    1.0000 0.89437  0.71650  0.51459  Biso   1.000  C
  C1168    1.0000 0.81317  0.70493  0.50599  Biso   1.000  C
  N897     1.0000 0.91722  0.72774  0.57223  Biso   1.000  N
  H1271    1.0000 0.97222  0.71720  0.62757  Biso   1.000  H
  H1272    1.0000 0.97201  0.68360  0.56889  Biso   1.000  H
  C1169    1.0000 0.61936  0.88407  0.63558  Biso   1.000  C
  C1170    1.0000 0.63872  0.95304  0.68795  Biso   1.000  C
  N898     1.0000 0.67119  0.95455  0.73914  Biso   1.000  N
  H1273    1.0000 0.68529  0.98241  0.82111  Biso   1.000  H
  H1274    1.0000 0.63389  0.99510  0.79608  Biso   1.000  H
  H1275    1.0000 0.91760  0.70620  0.48289  Biso   1.000  H
  C1171    1.0000 0.87036  0.76364  0.49707  Biso   1.000  C
  O443     1.0000 0.77502  0.68473  0.50169  Biso   1.000  O
  N899     1.0000 0.82075  0.75158  0.49611  Biso   1.000  N
  C1172    1.0000 0.91337  0.77460  0.58641  Biso   1.000  C
  N900     1.0000 0.65670  0.90336  0.60479  Biso   1.000  N
  O444     1.0000 0.59782  0.84889  0.61993  Biso   1.000  O
  C1173    1.0000 0.67190  0.94722  0.63201  Biso   1.000  C
  H1276    1.0000 0.61929  0.98241  0.68507  Biso   1.000  H
  C1174    1.0000 0.71706  0.95142  0.72185  Biso   1.000  C
  N901     1.0000 0.88446  0.79519  0.54542  Biso   1.000  N
  H1277    1.0000 0.88132  0.77520  0.45618  Biso   1.000  H
  C1175    1.0000 0.78550  0.78042  0.46533  Biso   1.000  C
  O445     1.0000 0.93361  0.79403  0.62881  Biso   1.000  O
  C1176    1.0000 0.66872  0.88982  0.54286  Biso   1.000  C
  N902     1.0000 0.71875  0.94482  0.65927  Biso   1.000  N
  H1278    1.0000 0.66901  0.97423  0.60278  Biso   1.000  H
  O446     1.0000 0.75126  0.95417  0.75547  Biso   1.000  O
  C1177    1.0000 0.87776  0.84586  0.54204  Biso   1.000  C
  N903     1.0000 0.76840  0.81853  0.50215  Biso   1.000  N
  H1279    1.0000 0.75859  0.76011  0.45348  Biso   1.000  H
  H1280    1.0000 0.79932  0.79339  0.42741  Biso   1.000  H
  N904     1.0000 0.71484  0.86884  0.53810  Biso   1.000  N
  H1281    1.0000 0.66742  0.91803  0.51628  Biso   1.000  H
  H1282    1.0000 0.64500  0.86712  0.52767  Biso   1.000  H
  C1178    1.0000 0.76120  0.95233  0.62524  Biso   1.000  C
  N905     1.0000 0.83055  0.86066  0.55594  Biso   1.000  N
  H1283    1.0000 0.88591  0.85661  0.50027  Biso   1.000  H
  H1284    1.0000 0.89969  0.86130  0.57090  Biso   1.000  H
  C1179    1.0000 0.79449  0.86246  0.50919  Biso   1.000  C
  C1180    1.0000 0.72171  0.82445  0.51583  Biso   1.000  C
  C1181    1.0000 0.75750  0.89701  0.53449  Biso   1.000  C
  N906     1.0000 0.77732  0.91045  0.59295  Biso   1.000  N
  H1285    1.0000 0.75581  0.97789  0.59519  Biso   1.000  H
  H1286    1.0000 0.78631  0.96291  0.65360  Biso   1.000  H
  C1182    1.0000 0.82100  0.89194  0.60219  Biso   1.000  C
  H1287    1.0000 0.80760  0.87360  0.46931  Biso   1.000  H
  O447     1.0000 0.69125  0.79420  0.50933  Biso   1.000  O
  H1288    1.0000 0.75331  0.92490  0.50700  Biso   1.000  H
  O448     1.0000 0.84769  0.90167  0.64436  Biso   1.000  O
  C1183    1.0000 0.80277  0.42189  0.11797  Biso   1.000  C
  C1184    1.0000 0.79695  0.38871  0.06203  Biso   1.000  C
  C1185    1.0000 0.79695  0.38871  0.06198  Biso   1.000  C
  N907     1.0000 0.84663  0.40669  0.14518  Biso   1.000  N
  N908     1.0000 0.80517  0.46874  0.09071  Biso   1.000  N
  H1289    1.0000 0.77580  0.41900  0.14720  Biso   1.000  H
  N909     1.0000 0.80517  0.46874  0.09066  Biso   1.000  N
  N910     1.0000 0.84667  0.40669  0.14518  Biso   1.000  N
  N911     1.0000 0.80520  0.46874  0.09071  Biso   1.000  N
  N912     1.0000 0.80520  0.46874  0.09066  Biso   1.000  N
  N913     1.0000 0.83916  0.35987  0.06468  Biso   1.000  N
  N914     1.0000 0.79544  0.42118  0.01089  Biso   1.000  N
  H1290    1.0000 0.76758  0.36932  0.06491  Biso   1.000  H
  N915     1.0000 0.79544  0.42118  0.01084  Biso   1.000  N
  H1291    1.0000 0.76758  0.36932  0.06486  Biso   1.000  H
  N916     1.0000 0.83919  0.35987  0.06468  Biso   1.000  N
  H1292    1.0000 0.76762  0.36932  0.06491  Biso   1.000  H
  C1186    1.0000 0.80281  0.42189  0.11797  Biso   1.000  C
  H1293    1.0000 0.76762  0.36932  0.06486  Biso   1.000  H
  C1187    1.0000 0.86595  0.36935  0.11440  Biso   1.000  C
  C1188    1.0000 0.86021  0.41875  0.20712  Biso   1.000  C
  C1189    1.0000 0.79858  0.46705  0.02813  Biso   1.000  C
  C1190    1.0000 0.79858  0.46705  0.02809  Biso   1.000  C
  C1191    1.0000 0.79769  0.51119  0.12478  Biso   1.000  C
  C1192    1.0000 0.79769  0.51119  0.12474  Biso   1.000  C
  C1193    1.0000 0.84497  0.31774  0.02841  Biso   1.000  C
  C1194    1.0000 0.84497  0.31774  0.02836  Biso   1.000  C
  C1195    1.0000 0.78052  0.40743  0.95028  Biso   1.000  C
  O449     1.0000 0.90114  0.34781  0.13004  Biso   1.000  O
  N917     1.0000 0.88115  0.46483  0.21192  Biso   1.000  N
  H1294    1.0000 0.83200  0.41741  0.23369  Biso   1.000  H
  H1295    1.0000 0.88291  0.39502  0.22230  Biso   1.000  H
  N918     1.0000 0.88115  0.46483  0.21187  Biso   1.000  N
  H1296    1.0000 0.88291  0.39502  0.22226  Biso   1.000  H
  N919     1.0000 0.88118  0.46483  0.21192  Biso   1.000  N
  N920     1.0000 0.88118  0.46483  0.21187  Biso   1.000  N
  O450     1.0000 0.79586  0.50129  0.99456  Biso   1.000  O
  O451     1.0000 0.79586  0.50129  0.99451  Biso   1.000  O
  N921     1.0000 0.83958  0.52731  0.15703  Biso   1.000  N
  H1297    1.0000 0.77210  0.50580  0.15479  Biso   1.000  H
  H1298    1.0000 0.78708  0.53630  0.09638  Biso   1.000  H
  H1299    1.0000 0.78712  0.53630  0.09638  Biso   1.000  H
  H1300    1.0000 0.81409  0.30159  0.02488  Biso   1.000  H
  H1301    1.0000 0.86690  0.29609  0.04972  Biso   1.000  H
  H1302    1.0000 0.86690  0.29609  0.04968  Biso   1.000  H
  H1303    1.0000 0.81412  0.30159  0.02488  Biso   1.000  H
  N922     1.0000 0.86299  0.32719  0.96743  Biso   1.000  N
  N923     1.0000 0.81850  0.38755  0.91378  Biso   1.000  N
  H1304    1.0000 0.76758  0.43532  0.92892  Biso   1.000  H
  H1305    1.0000 0.75489  0.38392  0.95389  Biso   1.000  H
  H1306    1.0000 0.76758  0.43532  0.92887  Biso   1.000  H
  N924     1.0000 0.81853  0.38755  0.91378  Biso   1.000  N
  H1307    1.0000 0.76762  0.43532  0.92892  Biso   1.000  H
  H1308    1.0000 0.76762  0.43532  0.92887  Biso   1.000  H
  C1196    1.0000 0.85298  0.50749  0.21549  Biso   1.000  C
  C1197    1.0000 0.92557  0.47171  0.23415  Biso   1.000  C
  C1198    1.0000 0.85301  0.50749  0.21549  Biso   1.000  C
  C1199    1.0000 0.85805  0.57099  0.14784  Biso   1.000  C
  C1200    1.0000 0.85805  0.57099  0.14779  Biso   1.000  C
  C1201    1.0000 0.85809  0.57099  0.14784  Biso   1.000  C
  C1202    1.0000 0.85809  0.57099  0.14779  Biso   1.000  C
  C1203    1.0000 0.83281  0.33875  0.91684  Biso   1.000  C
  C1204    1.0000 0.90696  0.31337  0.94850  Biso   1.000  C
  C1205    1.0000 0.90696  0.31337  0.94845  Biso   1.000  C
  C1206    1.0000 0.83588  0.40986  0.86332  Biso   1.000  C
  H1309    1.0000 0.82509  0.50330  0.24298  Biso   1.000  H
  C1207    1.0000 0.88753  0.54451  0.24078  Biso   1.000  C
  C1208    1.0000 0.88753  0.54451  0.24074  Biso   1.000  C
  H1310    1.0000 0.82512  0.50330  0.24298  Biso   1.000  H
  C1209    1.0000 0.88756  0.54451  0.24078  Biso   1.000  C
  C1210    1.0000 0.88756  0.54451  0.24074  Biso   1.000  C
  O452     1.0000 0.95582  0.44124  0.24065  Biso   1.000  O
  N925     1.0000 0.93150  0.51842  0.24783  Biso   1.000  N
  O453     1.0000 0.84836  0.59768  0.10562  Biso   1.000  O
  N926     1.0000 0.88933  0.58055  0.19404  Biso   1.000  N
  N927     1.0000 0.88933  0.58055  0.19399  Biso   1.000  N
  C1211    1.0000 0.86574  0.33343  0.86076  Biso   1.000  C
  H1311    1.0000 0.80520  0.31700  0.91428  Biso   1.000  H
  O454     1.0000 0.93858  0.29895  0.98216  Biso   1.000  O
  N928     1.0000 0.91009  0.31890  0.88720  Biso   1.000  N
  O455     1.0000 0.93858  0.29895  0.98212  Biso   1.000  O
  O456     1.0000 0.93862  0.29895  0.98216  Biso   1.000  O
  O457     1.0000 0.93862  0.29895  0.98212  Biso   1.000  O
  O458     1.0000 0.82555  0.44992  0.84608  Biso   1.000  O
  N929     1.0000 0.86648  0.37993  0.83455  Biso   1.000  N
  O459     1.0000 0.82555  0.44992  0.84603  Biso   1.000  O
  N930     1.0000 0.86648  0.37993  0.83451  Biso   1.000  N
  H1312    1.0000 0.87639  0.55759  0.28072  Biso   1.000  H
  H1313    1.0000 0.87639  0.55759  0.28067  Biso   1.000  H
  H1314    1.0000 0.87642  0.55759  0.28072  Biso   1.000  H
  H1315    1.0000 0.87642  0.55759  0.28067  Biso   1.000  H
  C1212    1.0000 0.96957  0.53549  0.28469  Biso   1.000  C
  C1213    1.0000 0.96957  0.53549  0.28465  Biso   1.000  C
  C1214    1.0000 0.96961  0.53549  0.28469  Biso   1.000  C
  C1215    1.0000 0.96961  0.53549  0.28465  Biso   1.000  C
  C1216    1.0000 0.90417  0.62775  0.20799  Biso   1.000  C
  C1217    1.0000 0.90417  0.62775  0.20794  Biso   1.000  C
  H1316    1.0000 0.85351  0.30949  0.83121  Biso   1.000  H
  H1317    1.0000 0.85351  0.30949  0.83117  Biso   1.000  H
  C1218    1.0000 0.94771  0.29821  0.85093  Biso   1.000  C
  C1219    1.0000 0.88365  0.38924  0.77308  Biso   1.000  C
  C1220    1.0000 0.88369  0.38924  0.77308  Biso   1.000  C
  N931     1.0000 0.99841  0.57078  0.25387  Biso   1.000  N
  H1318    1.0000 0.98992  0.50862  0.29650  Biso   1.000  H
  H1319    1.0000 0.95660  0.54931  0.32261  Biso   1.000  H
  H1320    1.0000 0.95660  0.54931  0.32257  Biso   1.000  H
  N932     1.0000 0.95480  0.63445  0.20456  Biso   1.000  N
  H1321    1.0000 0.89338  0.63590  0.24970  Biso   1.000  H
  H1322    1.0000 0.88869  0.64972  0.17908  Biso   1.000  H
  H1323    1.0000 0.89338  0.63590  0.24966  Biso   1.000  H
  N933     1.0000 0.95484  0.63445  0.20456  Biso   1.000  N
  H1324    1.0000 0.89342  0.63590  0.24970  Biso   1.000  H
  H1325    1.0000 0.89342  0.63590  0.24966  Biso   1.000  H
  N934     1.0000 0.97775  0.33279  0.82225  Biso   1.000  N
  H1326    1.0000 0.96721  0.27779  0.87760  Biso   1.000  H
  H1327    1.0000 0.93361  0.27800  0.81891  Biso   1.000  H
  N935     1.0000 0.97775  0.33279  0.82220  Biso   1.000  N
  H1328    1.0000 0.93361  0.27800  0.81886  Biso   1.000  H
  N936     1.0000 0.93393  0.39474  0.76960  Biso   1.000  N
  H1329    1.0000 0.87410  0.36290  0.74609  Biso   1.000  H
  H1330    1.0000 0.86849  0.41829  0.75752  Biso   1.000  H
  N937     1.0000 0.93393  0.39474  0.76955  Biso   1.000  N
  H1331    1.0000 0.86849  0.41829  0.75748  Biso   1.000  H
  H1332    1.0000 0.86853  0.41829  0.75752  Biso   1.000  H
  H1333    1.0000 0.86853  0.41829  0.75748  Biso   1.000  H
  C1221    1.0000 0.98636  0.62035  0.25290  Biso   1.000  C
  C1222    1.0000 0.04506  0.56320  0.24398  Biso   1.000  C
  C1223    1.0000 0.04506  0.56320  0.24394  Biso   1.000  C
  C1224    1.0000 0.97543  0.66336  0.16362  Biso   1.000  C
  C1225    1.0000 0.97543  0.66336  0.16357  Biso   1.000  C
  C1226    1.0000 0.96651  0.35564  0.76457  Biso   1.000  C
  C1227    1.0000 0.02457  0.33664  0.83638  Biso   1.000  C
  C1228    1.0000 0.95494  0.43684  0.75602  Biso   1.000  C
  H1334    1.0000 0.97479  0.63132  0.29380  Biso   1.000  H
  H1335    1.0000 0.97483  0.63132  0.29380  Biso   1.000  H
  C1229    1.0000 0.03349  0.64436  0.23543  Biso   1.000  C
  C1230    1.0000 0.03349  0.64436  0.23539  Biso   1.000  C
  C1231    1.0000 0.03353  0.64436  0.23543  Biso   1.000  C
  C1232    1.0000 0.03353  0.64436  0.23539  Biso   1.000  C
  O460     1.0000 0.06530  0.52501  0.24833  Biso   1.000  O
  N938     1.0000 0.06607  0.60526  0.23040  Biso   1.000  N
  O461     1.0000 0.06530  0.52501  0.24828  Biso   1.000  O
  N939     1.0000 0.06611  0.60526  0.23040  Biso   1.000  N
  O462     1.0000 0.95600  0.68360  0.12121  Biso   1.000  O
  O463     1.0000 0.95600  0.68360  0.12117  Biso   1.000  O
  N940     1.0000 0.02225  0.66721  0.17775  Biso   1.000  N
  N941     1.0000 0.02228  0.66721  0.17775  Biso   1.000  N
  H1336    1.0000 0.95621  0.33240  0.73292  Biso   1.000  H
  H1337    1.0000 0.95621  0.33240  0.73287  Biso   1.000  H
  C1233    1.0000 0.01364  0.37965  0.74710  Biso   1.000  C
  C1234    1.0000 0.01364  0.37965  0.74705  Biso   1.000  C
  O464     1.0000 0.04400  0.31640  0.87879  Biso   1.000  O
  N942     1.0000 0.04520  0.36555  0.79544  Biso   1.000  N
  N943     1.0000 0.04520  0.36555  0.79540  Biso   1.000  N
  O465     1.0000 0.04404  0.31640  0.87879  Biso   1.000  O
  O466     1.0000 0.93470  0.47502  0.75167  Biso   1.000  O
  N944     1.0000 0.00159  0.42926  0.74613  Biso   1.000  N
  N945     1.0000 0.00159  0.42926  0.74609  Biso   1.000  N
  H1338    1.0000 0.04379  0.66760  0.26708  Biso   1.000  H
  H1339    1.0000 0.04382  0.66760  0.26708  Biso   1.000  H
  C1235    1.0000 0.11635  0.61076  0.22692  Biso   1.000  C
  C1236    1.0000 0.11635  0.61076  0.22688  Biso   1.000  C
  C1237    1.0000 0.05229  0.70183  0.14907  Biso   1.000  C
  C1238    1.0000 0.05229  0.70183  0.14903  Biso   1.000  C
  C1239    1.0000 0.05232  0.70183  0.14907  Biso   1.000  C
  C1240    1.0000 0.05232  0.70183  0.14903  Biso   1.000  C
  H1340    1.0000 0.02521  0.36872  0.70620  Biso   1.000  H
  C1241    1.0000 0.09583  0.37228  0.79201  Biso   1.000  C
  C1242    1.0000 0.09586  0.37228  0.79201  Biso   1.000  C
  C1243    1.0000 0.03043  0.46451  0.71531  Biso   1.000  C
  N946     1.0000 0.13352  0.62007  0.16545  Biso   1.000  N
  H1341    1.0000 0.12590  0.63710  0.25391  Biso   1.000  H
  H1342    1.0000 0.13151  0.58171  0.24248  Biso   1.000  H
  H1343    1.0000 0.12590  0.63710  0.25387  Biso   1.000  H
  N947     1.0000 0.13355  0.62007  0.16545  Biso   1.000  N
  N948     1.0000 0.08991  0.68110  0.11280  Biso   1.000  N
  H1344    1.0000 0.03279  0.72221  0.12240  Biso   1.000  H
  H1345    1.0000 0.06639  0.72200  0.18109  Biso   1.000  H
  N949     1.0000 0.08991  0.68110  0.11275  Biso   1.000  N
  H1346    1.0000 0.03279  0.72221  0.12236  Biso   1.000  H
  H1347    1.0000 0.03282  0.72221  0.12240  Biso   1.000  H
  H1348    1.0000 0.06642  0.72200  0.18109  Biso   1.000  H
  H1349    1.0000 0.03282  0.72221  0.12236  Biso   1.000  H
  N950     1.0000 0.11067  0.41945  0.80596  Biso   1.000  N
  H1350    1.0000 0.10662  0.36410  0.75030  Biso   1.000  H
  H1351    1.0000 0.11131  0.35032  0.82092  Biso   1.000  H
  H1352    1.0000 0.11131  0.35032  0.82088  Biso   1.000  H
  N951     1.0000 0.06850  0.48161  0.75217  Biso   1.000  N
  H1353    1.0000 0.01008  0.49141  0.70350  Biso   1.000  H
  H1354    1.0000 0.04340  0.45069  0.67739  Biso   1.000  H
  N952     1.0000 0.06850  0.48161  0.75213  Biso   1.000  N
  H1355    1.0000 0.01012  0.49141  0.70350  Biso   1.000  H
  C1244    1.0000 0.13426  0.66657  0.13924  Biso   1.000  C
  C1245    1.0000 0.16412  0.59017  0.13668  Biso   1.000  C
  C1246    1.0000 0.13426  0.66657  0.13919  Biso   1.000  C
  C1247    1.0000 0.16416  0.59017  0.13668  Biso   1.000  C
  C1248    1.0000 0.09304  0.68667  0.05150  Biso   1.000  C
  C1249    1.0000 0.09308  0.68667  0.05150  Biso   1.000  C
  C1250    1.0000 0.14195  0.42901  0.85216  Biso   1.000  C
  C1251    1.0000 0.11247  0.45552  0.75922  Biso   1.000  C
  C1252    1.0000 0.07443  0.52829  0.76585  Biso   1.000  C
  C1253    1.0000 0.07443  0.52829  0.76580  Biso   1.000  C
  C1254    1.0000 0.07446  0.52829  0.76585  Biso   1.000  C
  C1255    1.0000 0.07446  0.52829  0.76580  Biso   1.000  C
  H1356    1.0000 0.14649  0.69051  0.16879  Biso   1.000  H
  C1256    1.0000 0.16719  0.66125  0.08316  Biso   1.000  C
  H1357    1.0000 0.14653  0.69051  0.16879  Biso   1.000  H
  O467     1.0000 0.17445  0.55008  0.15392  Biso   1.000  O
  N953     1.0000 0.18150  0.61245  0.08622  Biso   1.000  N
  N954     1.0000 0.18150  0.61245  0.08618  Biso   1.000  N
  O468     1.0000 0.17449  0.55008  0.15392  Biso   1.000  O
  O469     1.0000 0.06142  0.70105  0.01784  Biso   1.000  O
  N955     1.0000 0.13701  0.67285  0.03257  Biso   1.000  N
  O470     1.0000 0.15164  0.40232  0.89438  Biso   1.000  O
  N956     1.0000 0.16042  0.47269  0.84297  Biso   1.000  N
  O471     1.0000 0.15164  0.40232  0.89434  Biso   1.000  O
  N957     1.0000 0.16042  0.47269  0.84292  Biso   1.000  N
  O472     1.0000 0.15168  0.40232  0.89438  Biso   1.000  O
  N958     1.0000 0.16046  0.47269  0.84297  Biso   1.000  N
  O473     1.0000 0.15168  0.40232  0.89434  Biso   1.000  O
  N959     1.0000 0.16046  0.47269  0.84292  Biso   1.000  N
  C1257    1.0000 0.14702  0.49251  0.78451  Biso   1.000  C
  H1358    1.0000 0.12361  0.44241  0.71928  Biso   1.000  H
  O474     1.0000 0.04418  0.55879  0.75935  Biso   1.000  O
  N960     1.0000 0.11885  0.53517  0.78808  Biso   1.000  N
  O475     1.0000 0.04418  0.55879  0.75931  Biso   1.000  O
  O476     1.0000 0.04421  0.55879  0.75935  Biso   1.000  O
  O477     1.0000 0.04421  0.55879  0.75931  Biso   1.000  O
  H1359    1.0000 0.19480  0.68300  0.08572  Biso   1.000  H
  H1360    1.0000 0.19480  0.68300  0.08567  Biso   1.000  H
  C1258    1.0000 0.21948  0.59260  0.04972  Biso   1.000  C
  C1259    1.0000 0.21948  0.59260  0.04968  Biso   1.000  C
  C1260    1.0000 0.21951  0.59260  0.04972  Biso   1.000  C
  C1261    1.0000 0.21951  0.59260  0.04968  Biso   1.000  C
  C1262    1.0000 0.15503  0.68230  0.97159  Biso   1.000  C
  C1263    1.0000 0.20231  0.48881  0.87522  Biso   1.000  C
  C1264    1.0000 0.20234  0.48881  0.87522  Biso   1.000  C
  H1361    1.0000 0.17491  0.49670  0.75702  Biso   1.000  H
  H1362    1.0000 0.17491  0.49670  0.75698  Biso   1.000  H
  C1265    1.0000 0.13979  0.58129  0.79288  Biso   1.000  C
  C1266    1.0000 0.13979  0.58129  0.79284  Biso   1.000  C
  N961     1.0000 0.20456  0.57882  0.98911  Biso   1.000  N
  H1363    1.0000 0.23242  0.56471  0.07108  Biso   1.000  H
  H1364    1.0000 0.24511  0.61612  0.04611  Biso   1.000  H
  H1365    1.0000 0.24511  0.61612  0.04606  Biso   1.000  H
  N962     1.0000 0.16084  0.64013  0.93532  Biso   1.000  N
  H1366    1.0000 0.18591  0.69841  0.97512  Biso   1.000  H
  H1367    1.0000 0.13310  0.70391  0.95028  Biso   1.000  H
  H1368    1.0000 0.18591  0.69841  0.97507  Biso   1.000  H
  N963     1.0000 0.19483  0.53129  0.90929  Biso   1.000  N
  H1369    1.0000 0.22790  0.49420  0.84521  Biso   1.000  H
  H1370    1.0000 0.21292  0.46370  0.90362  Biso   1.000  H
  H1371    1.0000 0.22790  0.49420  0.84517  Biso   1.000  H
  H1372    1.0000 0.21292  0.46370  0.90358  Biso   1.000  H
  N964     1.0000 0.15337  0.59334  0.85482  Biso   1.000  N
  H1373    1.0000 0.16800  0.58259  0.76631  Biso   1.000  H
  H1374    1.0000 0.11709  0.60501  0.77770  Biso   1.000  H
  N965     1.0000 0.15337  0.59334  0.85477  Biso   1.000  N
  H1375    1.0000 0.11712  0.60501  0.77770  Biso   1.000  H
  C1267    1.0000 0.20142  0.53295  0.97187  Biso   1.000  C
  C1268    1.0000 0.20305  0.61129  0.93797  Biso   1.000  C
  C1269    1.0000 0.13405  0.63068  0.88560  Biso   1.000  C
  C1270    1.0000 0.13405  0.63068  0.88555  Biso   1.000  C
  C1271    1.0000 0.13408  0.63068  0.88560  Biso   1.000  C
  C1272    1.0000 0.13408  0.63068  0.88555  Biso   1.000  C
  C1273    1.0000 0.19723  0.57811  0.88203  Biso   1.000  C
  O478     1.0000 0.20414  0.49875  0.00544  Biso   1.000  O
  H1376    1.0000 0.23242  0.63072  0.93509  Biso   1.000  H
  O479     1.0000 0.09886  0.65222  0.86996  Biso   1.000  O
  O480     1.0000 0.09886  0.65222  0.86991  Biso   1.000  O
  O481     1.0000 0.09890  0.65222  0.86996  Biso   1.000  O
  O482     1.0000 0.09890  0.65222  0.86991  Biso   1.000  O
  H1377    1.0000 0.22420  0.58100  0.85280  Biso   1.000  H
  C1274    1.0000 0.80277  0.42189  0.11797  Biso   1.000  C
  C1275    1.0000 0.79695  0.38871  0.06203  Biso   1.000  C
  C1276    1.0000 0.79695  0.38871  0.06198  Biso   1.000  C
  N966     1.0000 0.84663  0.40669  0.14518  Biso   1.000  N
  H1378    1.0000 0.77580  0.41900  0.14720  Biso   1.000  H
  N967     1.0000 0.84667  0.40669  0.14518  Biso   1.000  N
  N968     1.0000 0.80517  0.46874  0.09071  Biso   1.000  N
  N969     1.0000 0.80517  0.46874  0.09066  Biso   1.000  N
  N970     1.0000 0.80520  0.46874  0.09071  Biso   1.000  N
  N971     1.0000 0.80520  0.46874  0.09066  Biso   1.000  N
  N972     1.0000 0.83916  0.35987  0.06468  Biso   1.000  N
  N973     1.0000 0.79544  0.42118  0.01089  Biso   1.000  N
  N974     1.0000 0.83919  0.35987  0.06468  Biso   1.000  N
  N975     1.0000 0.79544  0.42118  0.01084  Biso   1.000  N
  C1277    1.0000 0.80281  0.42189  0.11797  Biso   1.000  C
  H1379    1.0000 0.76758  0.36932  0.06491  Biso   1.000  H
  H1380    1.0000 0.76758  0.36932  0.06486  Biso   1.000  H
  H1381    1.0000 0.76762  0.36932  0.06491  Biso   1.000  H
  H1382    1.0000 0.76762  0.36932  0.06486  Biso   1.000  H
  C1278    1.0000 0.86595  0.36935  0.11440  Biso   1.000  C
  C1279    1.0000 0.86021  0.41875  0.20712  Biso   1.000  C
  C1280    1.0000 0.79858  0.46705  0.02813  Biso   1.000  C
  C1281    1.0000 0.79858  0.46705  0.02809  Biso   1.000  C
  C1282    1.0000 0.79769  0.51119  0.12478  Biso   1.000  C
  C1283    1.0000 0.79769  0.51119  0.12474  Biso   1.000  C
  C1284    1.0000 0.84497  0.31774  0.02841  Biso   1.000  C
  C1285    1.0000 0.84497  0.31774  0.02836  Biso   1.000  C
  C1286    1.0000 0.78052  0.40743  0.95028  Biso   1.000  C
  O483     1.0000 0.90114  0.34781  0.13004  Biso   1.000  O
  H1383    1.0000 0.83200  0.41741  0.23369  Biso   1.000  H
  H1384    1.0000 0.88291  0.39502  0.22230  Biso   1.000  H
  H1385    1.0000 0.88291  0.39502  0.22226  Biso   1.000  H
  N976     1.0000 0.88115  0.46483  0.21192  Biso   1.000  N
  N977     1.0000 0.88115  0.46483  0.21187  Biso   1.000  N
  N978     1.0000 0.88118  0.46483  0.21192  Biso   1.000  N
  N979     1.0000 0.88118  0.46483  0.21187  Biso   1.000  N
  O484     1.0000 0.79586  0.50129  0.99456  Biso   1.000  O
  O485     1.0000 0.79586  0.50129  0.99451  Biso   1.000  O
  N980     1.0000 0.83958  0.52731  0.15703  Biso   1.000  N
  H1386    1.0000 0.77210  0.50580  0.15479  Biso   1.000  H
  H1387    1.0000 0.78708  0.53630  0.09638  Biso   1.000  H
  H1388    1.0000 0.78712  0.53630  0.09638  Biso   1.000  H
  H1389    1.0000 0.81409  0.30159  0.02488  Biso   1.000  H
  H1390    1.0000 0.86690  0.29609  0.04972  Biso   1.000  H
  H1391    1.0000 0.81412  0.30159  0.02488  Biso   1.000  H
  H1392    1.0000 0.86690  0.29609  0.04968  Biso   1.000  H
  N981     1.0000 0.86299  0.32719  0.96743  Biso   1.000  N
  N982     1.0000 0.81850  0.38755  0.91378  Biso   1.000  N
  H1393    1.0000 0.76758  0.43532  0.92892  Biso   1.000  H
  H1394    1.0000 0.75489  0.38392  0.95389  Biso   1.000  H
  H1395    1.0000 0.76758  0.43532  0.92887  Biso   1.000  H
  N983     1.0000 0.81853  0.38755  0.91378  Biso   1.000  N
  H1396    1.0000 0.76762  0.43532  0.92892  Biso   1.000  H
  H1397    1.0000 0.76762  0.43532  0.92887  Biso   1.000  H
  C1287    1.0000 0.85298  0.50749  0.21549  Biso   1.000  C
  C1288    1.0000 0.92557  0.47171  0.23415  Biso   1.000  C
  C1289    1.0000 0.85301  0.50749  0.21549  Biso   1.000  C
  C1290    1.0000 0.85805  0.57099  0.14784  Biso   1.000  C
  C1291    1.0000 0.85805  0.57099  0.14779  Biso   1.000  C
  C1292    1.0000 0.85809  0.57099  0.14784  Biso   1.000  C
  C1293    1.0000 0.85809  0.57099  0.14779  Biso   1.000  C
  C1294    1.0000 0.83281  0.33875  0.91684  Biso   1.000  C
  C1295    1.0000 0.90696  0.31337  0.94850  Biso   1.000  C
  C1296    1.0000 0.90696  0.31337  0.94845  Biso   1.000  C
  C1297    1.0000 0.83588  0.40986  0.86332  Biso   1.000  C
  H1398    1.0000 0.82509  0.50330  0.24298  Biso   1.000  H
  H1399    1.0000 0.82512  0.50330  0.24298  Biso   1.000  H
  C1298    1.0000 0.88753  0.54451  0.24078  Biso   1.000  C
  C1299    1.0000 0.88753  0.54451  0.24074  Biso   1.000  C
  C1300    1.0000 0.88756  0.54451  0.24078  Biso   1.000  C
  C1301    1.0000 0.88756  0.54451  0.24074  Biso   1.000  C
  O486     1.0000 0.95582  0.44124  0.24065  Biso   1.000  O
  N984     1.0000 0.93150  0.51842  0.24783  Biso   1.000  N
  O487     1.0000 0.84836  0.59768  0.10562  Biso   1.000  O
  N985     1.0000 0.88933  0.58055  0.19404  Biso   1.000  N
  N986     1.0000 0.88933  0.58055  0.19399  Biso   1.000  N
  C1302    1.0000 0.86574  0.33343  0.86076  Biso   1.000  C
  H1400    1.0000 0.80520  0.31700  0.91428  Biso   1.000  H
  O488     1.0000 0.93858  0.29895  0.98216  Biso   1.000  O
  N987     1.0000 0.91009  0.31890  0.88720  Biso   1.000  N
  O489     1.0000 0.93858  0.29895  0.98212  Biso   1.000  O
  O490     1.0000 0.93862  0.29895  0.98216  Biso   1.000  O
  O491     1.0000 0.93862  0.29895  0.98212  Biso   1.000  O
  O492     1.0000 0.82555  0.44992  0.84608  Biso   1.000  O
  N988     1.0000 0.86648  0.37993  0.83455  Biso   1.000  N
  O493     1.0000 0.82555  0.44992  0.84603  Biso   1.000  O
  N989     1.0000 0.86648  0.37993  0.83451  Biso   1.000  N
  H1401    1.0000 0.87639  0.55759  0.28072  Biso   1.000  H
  H1402    1.0000 0.87639  0.55759  0.28067  Biso   1.000  H
  H1403    1.0000 0.87642  0.55759  0.28072  Biso   1.000  H
  H1404    1.0000 0.87642  0.55759  0.28067  Biso   1.000  H
  C1303    1.0000 0.96957  0.53549  0.28469  Biso   1.000  C
  C1304    1.0000 0.96957  0.53549  0.28465  Biso   1.000  C
  C1305    1.0000 0.96961  0.53549  0.28469  Biso   1.000  C
  C1306    1.0000 0.96961  0.53549  0.28465  Biso   1.000  C
  C1307    1.0000 0.90417  0.62775  0.20799  Biso   1.000  C
  C1308    1.0000 0.90417  0.62775  0.20794  Biso   1.000  C
  H1405    1.0000 0.85351  0.30949  0.83121  Biso   1.000  H
  H1406    1.0000 0.85351  0.30949  0.83117  Biso   1.000  H
  C1309    1.0000 0.94771  0.29821  0.85093  Biso   1.000  C
  C1310    1.0000 0.88365  0.38924  0.77308  Biso   1.000  C
  C1311    1.0000 0.88369  0.38924  0.77308  Biso   1.000  C
  N990     1.0000 0.99841  0.57078  0.25387  Biso   1.000  N
  H1407    1.0000 0.98992  0.50862  0.29650  Biso   1.000  H
  H1408    1.0000 0.95660  0.54931  0.32261  Biso   1.000  H
  H1409    1.0000 0.95660  0.54931  0.32257  Biso   1.000  H
  N991     1.0000 0.95480  0.63445  0.20456  Biso   1.000  N
  H1410    1.0000 0.88869  0.64972  0.17908  Biso   1.000  H
  N992     1.0000 0.95484  0.63445  0.20456  Biso   1.000  N
  H1411    1.0000 0.89338  0.63590  0.24970  Biso   1.000  H
  H1412    1.0000 0.89338  0.63590  0.24966  Biso   1.000  H
  H1413    1.0000 0.89342  0.63590  0.24970  Biso   1.000  H
  H1414    1.0000 0.89342  0.63590  0.24966  Biso   1.000  H
  N993     1.0000 0.97775  0.33279  0.82225  Biso   1.000  N
  H1415    1.0000 0.96721  0.27779  0.87760  Biso   1.000  H
  H1416    1.0000 0.93361  0.27800  0.81891  Biso   1.000  H
  N994     1.0000 0.97775  0.33279  0.82220  Biso   1.000  N
  H1417    1.0000 0.93361  0.27800  0.81886  Biso   1.000  H
  N995     1.0000 0.93393  0.39474  0.76960  Biso   1.000  N
  H1418    1.0000 0.87410  0.36290  0.74609  Biso   1.000  H
  H1419    1.0000 0.86849  0.41829  0.75752  Biso   1.000  H
  N996     1.0000 0.93393  0.39474  0.76955  Biso   1.000  N
  H1420    1.0000 0.86849  0.41829  0.75748  Biso   1.000  H
  H1421    1.0000 0.86853  0.41829  0.75752  Biso   1.000  H
  H1422    1.0000 0.86853  0.41829  0.75748  Biso   1.000  H
  C1312    1.0000 0.98636  0.62035  0.25290  Biso   1.000  C
  C1313    1.0000 0.04506  0.56320  0.24398  Biso   1.000  C
  C1314    1.0000 0.04506  0.56320  0.24394  Biso   1.000  C
  C1315    1.0000 0.97543  0.66336  0.16362  Biso   1.000  C
  C1316    1.0000 0.97543  0.66336  0.16357  Biso   1.000  C
  C1317    1.0000 0.96651  0.35564  0.76457  Biso   1.000  C
  C1318    1.0000 0.02457  0.33664  0.83638  Biso   1.000  C
  C1319    1.0000 0.95494  0.43684  0.75602  Biso   1.000  C
  H1423    1.0000 0.97479  0.63132  0.29380  Biso   1.000  H
  H1424    1.0000 0.97483  0.63132  0.29380  Biso   1.000  H
  C1320    1.0000 0.03349  0.64436  0.23543  Biso   1.000  C
  C1321    1.0000 0.03349  0.64436  0.23539  Biso   1.000  C
  C1322    1.0000 0.03353  0.64436  0.23543  Biso   1.000  C
  C1323    1.0000 0.03353  0.64436  0.23539  Biso   1.000  C
  O494     1.0000 0.06530  0.52501  0.24833  Biso   1.000  O
  N997     1.0000 0.06607  0.60526  0.23040  Biso   1.000  N
  O495     1.0000 0.06530  0.52501  0.24828  Biso   1.000  O
  N998     1.0000 0.06611  0.60526  0.23040  Biso   1.000  N
  O496     1.0000 0.95600  0.68360  0.12121  Biso   1.000  O
  O497     1.0000 0.95600  0.68360  0.12117  Biso   1.000  O
  N999     1.0000 0.02225  0.66721  0.17775  Biso   1.000  N
  N1000    1.0000 0.02228  0.66721  0.17775  Biso   1.000  N
  H1425    1.0000 0.95621  0.33240  0.73292  Biso   1.000  H
  H1426    1.0000 0.95621  0.33240  0.73287  Biso   1.000  H
  C1324    1.0000 0.01364  0.37965  0.74710  Biso   1.000  C
  C1325    1.0000 0.01364  0.37965  0.74705  Biso   1.000  C
  O498     1.0000 0.04400  0.31640  0.87879  Biso   1.000  O
  N1001    1.0000 0.04520  0.36555  0.79544  Biso   1.000  N
  N1002    1.0000 0.04520  0.36555  0.79540  Biso   1.000  N
  O499     1.0000 0.04404  0.31640  0.87879  Biso   1.000  O
  O500     1.0000 0.93470  0.47502  0.75167  Biso   1.000  O
  N1003    1.0000 0.00159  0.42926  0.74613  Biso   1.000  N
  N1004    1.0000 0.00159  0.42926  0.74609  Biso   1.000  N
  H1427    1.0000 0.04379  0.66760  0.26708  Biso   1.000  H
  H1428    1.0000 0.04382  0.66760  0.26708  Biso   1.000  H
  C1326    1.0000 0.11635  0.61076  0.22692  Biso   1.000  C
  C1327    1.0000 0.11635  0.61076  0.22688  Biso   1.000  C
  C1328    1.0000 0.05229  0.70183  0.14907  Biso   1.000  C
  C1329    1.0000 0.05229  0.70183  0.14903  Biso   1.000  C
  C1330    1.0000 0.05232  0.70183  0.14907  Biso   1.000  C
  C1331    1.0000 0.05232  0.70183  0.14903  Biso   1.000  C
  H1429    1.0000 0.02521  0.36872  0.70620  Biso   1.000  H
  C1332    1.0000 0.09583  0.37228  0.79201  Biso   1.000  C
  C1333    1.0000 0.09586  0.37228  0.79201  Biso   1.000  C
  C1334    1.0000 0.03043  0.46451  0.71531  Biso   1.000  C
  N1005    1.0000 0.13352  0.62007  0.16545  Biso   1.000  N
  H1430    1.0000 0.12590  0.63710  0.25391  Biso   1.000  H
  H1431    1.0000 0.13151  0.58171  0.24248  Biso   1.000  H
  H1432    1.0000 0.12590  0.63710  0.25387  Biso   1.000  H
  N1006    1.0000 0.13355  0.62007  0.16545  Biso   1.000  N
  N1007    1.0000 0.08991  0.68110  0.11280  Biso   1.000  N
  H1433    1.0000 0.03279  0.72221  0.12240  Biso   1.000  H
  H1434    1.0000 0.06639  0.72200  0.18109  Biso   1.000  H
  N1008    1.0000 0.08991  0.68110  0.11275  Biso   1.000  N
  H1435    1.0000 0.03279  0.72221  0.12236  Biso   1.000  H
  H1436    1.0000 0.03282  0.72221  0.12240  Biso   1.000  H
  H1437    1.0000 0.06642  0.72200  0.18109  Biso   1.000  H
  H1438    1.0000 0.03282  0.72221  0.12236  Biso   1.000  H
  N1009    1.0000 0.11067  0.41945  0.80596  Biso   1.000  N
  H1439    1.0000 0.10662  0.36410  0.75030  Biso   1.000  H
  H1440    1.0000 0.11131  0.35032  0.82092  Biso   1.000  H
  H1441    1.0000 0.11131  0.35032  0.82088  Biso   1.000  H
  N1010    1.0000 0.06850  0.48161  0.75217  Biso   1.000  N
  H1442    1.0000 0.01008  0.49141  0.70350  Biso   1.000  H
  H1443    1.0000 0.04340  0.45069  0.67739  Biso   1.000  H
  N1011    1.0000 0.06850  0.48161  0.75213  Biso   1.000  N
  H1444    1.0000 0.01012  0.49141  0.70350  Biso   1.000  H
  C1335    1.0000 0.13426  0.66657  0.13924  Biso   1.000  C
  C1336    1.0000 0.16412  0.59017  0.13668  Biso   1.000  C
  C1337    1.0000 0.13426  0.66657  0.13919  Biso   1.000  C
  C1338    1.0000 0.16416  0.59017  0.13668  Biso   1.000  C
  C1339    1.0000 0.09304  0.68667  0.05150  Biso   1.000  C
  C1340    1.0000 0.09308  0.68667  0.05150  Biso   1.000  C
  C1341    1.0000 0.14195  0.42901  0.85216  Biso   1.000  C
  C1342    1.0000 0.11247  0.45552  0.75922  Biso   1.000  C
  C1343    1.0000 0.07443  0.52829  0.76585  Biso   1.000  C
  C1344    1.0000 0.07443  0.52829  0.76580  Biso   1.000  C
  C1345    1.0000 0.07446  0.52829  0.76585  Biso   1.000  C
  C1346    1.0000 0.07446  0.52829  0.76580  Biso   1.000  C
  H1445    1.0000 0.14649  0.69051  0.16879  Biso   1.000  H
  C1347    1.0000 0.16719  0.66125  0.08316  Biso   1.000  C
  H1446    1.0000 0.14653  0.69051  0.16879  Biso   1.000  H
  O501     1.0000 0.17445  0.55008  0.15392  Biso   1.000  O
  N1012    1.0000 0.18150  0.61245  0.08622  Biso   1.000  N
  N1013    1.0000 0.18150  0.61245  0.08618  Biso   1.000  N
  O502     1.0000 0.17449  0.55008  0.15392  Biso   1.000  O
  O503     1.0000 0.06142  0.70105  0.01784  Biso   1.000  O
  N1014    1.0000 0.13701  0.67285  0.03257  Biso   1.000  N
  O504     1.0000 0.15164  0.40232  0.89438  Biso   1.000  O
  N1015    1.0000 0.16042  0.47269  0.84297  Biso   1.000  N
  O505     1.0000 0.15164  0.40232  0.89434  Biso   1.000  O
  N1016    1.0000 0.16042  0.47269  0.84292  Biso   1.000  N
  O506     1.0000 0.15168  0.40232  0.89438  Biso   1.000  O
  N1017    1.0000 0.16046  0.47269  0.84297  Biso   1.000  N
  O507     1.0000 0.15168  0.40232  0.89434  Biso   1.000  O
  N1018    1.0000 0.16046  0.47269  0.84292  Biso   1.000  N
  C1348    1.0000 0.14702  0.49251  0.78451  Biso   1.000  C
  H1447    1.0000 0.12361  0.44241  0.71928  Biso   1.000  H
  O508     1.0000 0.04418  0.55879  0.75935  Biso   1.000  O
  N1019    1.0000 0.11885  0.53517  0.78808  Biso   1.000  N
  O509     1.0000 0.04418  0.55879  0.75931  Biso   1.000  O
  O510     1.0000 0.04421  0.55879  0.75935  Biso   1.000  O
  O511     1.0000 0.04421  0.55879  0.75931  Biso   1.000  O
  H1448    1.0000 0.19480  0.68300  0.08572  Biso   1.000  H
  H1449    1.0000 0.19480  0.68300  0.08567  Biso   1.000  H
  C1349    1.0000 0.21948  0.59260  0.04972  Biso   1.000  C
  C1350    1.0000 0.21948  0.59260  0.04968  Biso   1.000  C
  C1351    1.0000 0.21951  0.59260  0.04972  Biso   1.000  C
  C1352    1.0000 0.21951  0.59260  0.04968  Biso   1.000  C
  C1353    1.0000 0.15503  0.68230  0.97159  Biso   1.000  C
  C1354    1.0000 0.20231  0.48881  0.87522  Biso   1.000  C
  C1355    1.0000 0.20234  0.48881  0.87522  Biso   1.000  C
  H1450    1.0000 0.17491  0.49670  0.75702  Biso   1.000  H
  H1451    1.0000 0.17491  0.49670  0.75698  Biso   1.000  H
  C1356    1.0000 0.13979  0.58129  0.79288  Biso   1.000  C
  C1357    1.0000 0.13979  0.58129  0.79284  Biso   1.000  C
  N1020    1.0000 0.20456  0.57882  0.98911  Biso   1.000  N
  H1452    1.0000 0.23242  0.56471  0.07108  Biso   1.000  H
  H1453    1.0000 0.24511  0.61612  0.04611  Biso   1.000  H
  H1454    1.0000 0.24511  0.61612  0.04606  Biso   1.000  H
  N1021    1.0000 0.16084  0.64013  0.93532  Biso   1.000  N
  H1455    1.0000 0.18591  0.69841  0.97512  Biso   1.000  H
  H1456    1.0000 0.13310  0.70391  0.95028  Biso   1.000  H
  H1457    1.0000 0.18591  0.69841  0.97507  Biso   1.000  H
  N1022    1.0000 0.19483  0.53129  0.90929  Biso   1.000  N
  H1458    1.0000 0.22790  0.49420  0.84521  Biso   1.000  H
  H1459    1.0000 0.21292  0.46370  0.90362  Biso   1.000  H
  H1460    1.0000 0.22790  0.49420  0.84517  Biso   1.000  H
  H1461    1.0000 0.21292  0.46370  0.90358  Biso   1.000  H
  N1023    1.0000 0.15337  0.59334  0.85482  Biso   1.000  N
  H1462    1.0000 0.16800  0.58259  0.76631  Biso   1.000  H
  H1463    1.0000 0.11709  0.60501  0.77770  Biso   1.000  H
  N1024    1.0000 0.15337  0.59334  0.85477  Biso   1.000  N
  H1464    1.0000 0.11712  0.60501  0.77770  Biso   1.000  H
  C1358    1.0000 0.20142  0.53295  0.97187  Biso   1.000  C
  C1359    1.0000 0.20305  0.61129  0.93797  Biso   1.000  C
  C1360    1.0000 0.13405  0.63068  0.88560  Biso   1.000  C
  C1361    1.0000 0.13405  0.63068  0.88555  Biso   1.000  C
  C1362    1.0000 0.13408  0.63068  0.88560  Biso   1.000  C
  C1363    1.0000 0.13408  0.63068  0.88555  Biso   1.000  C
  C1364    1.0000 0.19723  0.57811  0.88203  Biso   1.000  C
  O512     1.0000 0.20414  0.49875  0.00544  Biso   1.000  O
  H1465    1.0000 0.23242  0.63072  0.93509  Biso   1.000  H
  O513     1.0000 0.09886  0.65222  0.86996  Biso   1.000  O
  O514     1.0000 0.09886  0.65222  0.86991  Biso   1.000  O
  O515     1.0000 0.09890  0.65222  0.86996  Biso   1.000  O
  O516     1.0000 0.09890  0.65222  0.86991  Biso   1.000  O
  H1466    1.0000 0.22420  0.58100  0.85280  Biso   1.000  H
  C1365    1.0000 0.80277  0.42189  0.11797  Biso   1.000  C
  N1025    1.0000 0.84663  0.40669  0.14518  Biso   1.000  N
  N1026    1.0000 0.84667  0.40669  0.14518  Biso   1.000  N
  H1467    1.0000 0.77580  0.41900  0.14720  Biso   1.000  H
  N1027    1.0000 0.80517  0.46874  0.09071  Biso   1.000  N
  C1366    1.0000 0.79695  0.38871  0.06203  Biso   1.000  C
  N1028    1.0000 0.80517  0.46874  0.09066  Biso   1.000  N
  C1367    1.0000 0.79695  0.38871  0.06198  Biso   1.000  C
  N1029    1.0000 0.80520  0.46874  0.09071  Biso   1.000  N
  N1030    1.0000 0.80520  0.46874  0.09066  Biso   1.000  N
  C1368    1.0000 0.86021  0.41875  0.20712  Biso   1.000  C
  C1369    1.0000 0.86595  0.36935  0.11440  Biso   1.000  C
  C1370    1.0000 0.80281  0.42189  0.11797  Biso   1.000  C
  C1371    1.0000 0.79858  0.46705  0.02813  Biso   1.000  C
  C1372    1.0000 0.79769  0.51119  0.12478  Biso   1.000  C
  C1373    1.0000 0.79858  0.46705  0.02809  Biso   1.000  C
  C1374    1.0000 0.79769  0.51119  0.12474  Biso   1.000  C
  N1031    1.0000 0.83916  0.35987  0.06468  Biso   1.000  N
  N1032    1.0000 0.83919  0.35987  0.06468  Biso   1.000  N
  N1033    1.0000 0.79544  0.42118  0.01089  Biso   1.000  N
  H1468    1.0000 0.76758  0.36932  0.06491  Biso   1.000  H
  N1034    1.0000 0.79544  0.42118  0.01084  Biso   1.000  N
  H1469    1.0000 0.76758  0.36932  0.06486  Biso   1.000  H
  H1470    1.0000 0.76762  0.36932  0.06491  Biso   1.000  H
  H1471    1.0000 0.76762  0.36932  0.06486  Biso   1.000  H
  H1472    1.0000 0.83200  0.41741  0.23369  Biso   1.000  H
  N1035    1.0000 0.88115  0.46483  0.21192  Biso   1.000  N
  H1473    1.0000 0.88291  0.39502  0.22230  Biso   1.000  H
  N1036    1.0000 0.88115  0.46483  0.21187  Biso   1.000  N
  H1474    1.0000 0.88291  0.39502  0.22226  Biso   1.000  H
  N1037    1.0000 0.88118  0.46483  0.21192  Biso   1.000  N
  N1038    1.0000 0.88118  0.46483  0.21187  Biso   1.000  N
  O517     1.0000 0.90114  0.34781  0.13004  Biso   1.000  O
  O518     1.0000 0.79586  0.50129  0.99456  Biso   1.000  O
  O519     1.0000 0.79586  0.50129  0.99451  Biso   1.000  O
  N1039    1.0000 0.83958  0.52731  0.15703  Biso   1.000  N
  H1475    1.0000 0.77210  0.50580  0.15479  Biso   1.000  H
  H1476    1.0000 0.78708  0.53630  0.09638  Biso   1.000  H
  H1477    1.0000 0.78712  0.53630  0.09638  Biso   1.000  H
  C1375    1.0000 0.84497  0.31774  0.02841  Biso   1.000  C
  C1376    1.0000 0.84497  0.31774  0.02836  Biso   1.000  C
  C1377    1.0000 0.78052  0.40743  0.95028  Biso   1.000  C
  C1378    1.0000 0.92557  0.47171  0.23415  Biso   1.000  C
  C1379    1.0000 0.85298  0.50749  0.21549  Biso   1.000  C
  C1380    1.0000 0.85301  0.50749  0.21549  Biso   1.000  C
  C1381    1.0000 0.85805  0.57099  0.14784  Biso   1.000  C
  C1382    1.0000 0.85805  0.57099  0.14779  Biso   1.000  C
  C1383    1.0000 0.85809  0.57099  0.14784  Biso   1.000  C
  C1384    1.0000 0.85809  0.57099  0.14779  Biso   1.000  C
  N1040    1.0000 0.86299  0.32719  0.96743  Biso   1.000  N
  H1478    1.0000 0.81409  0.30159  0.02488  Biso   1.000  H
  H1479    1.0000 0.86690  0.29609  0.04972  Biso   1.000  H
  H1480    1.0000 0.86690  0.29609  0.04968  Biso   1.000  H
  H1481    1.0000 0.81412  0.30159  0.02488  Biso   1.000  H
  N1041    1.0000 0.81850  0.38755  0.91378  Biso   1.000  N
  H1482    1.0000 0.76758  0.43532  0.92892  Biso   1.000  H
  H1483    1.0000 0.75489  0.38392  0.95389  Biso   1.000  H
  H1484    1.0000 0.76758  0.43532  0.92887  Biso   1.000  H
  N1042    1.0000 0.81853  0.38755  0.91378  Biso   1.000  N
  H1485    1.0000 0.76762  0.43532  0.92892  Biso   1.000  H
  H1486    1.0000 0.76762  0.43532  0.92887  Biso   1.000  H
  O520     1.0000 0.95582  0.44124  0.24065  Biso   1.000  O
  N1043    1.0000 0.93150  0.51842  0.24783  Biso   1.000  N
  H1487    1.0000 0.82509  0.50330  0.24298  Biso   1.000  H
  C1385    1.0000 0.88753  0.54451  0.24078  Biso   1.000  C
  C1386    1.0000 0.88753  0.54451  0.24074  Biso   1.000  C
  H1488    1.0000 0.82512  0.50330  0.24298  Biso   1.000  H
  C1387    1.0000 0.88756  0.54451  0.24078  Biso   1.000  C
  C1388    1.0000 0.88756  0.54451  0.24074  Biso   1.000  C
  N1044    1.0000 0.88933  0.58055  0.19404  Biso   1.000  N
  N1045    1.0000 0.88933  0.58055  0.19399  Biso   1.000  N
  O521     1.0000 0.84836  0.59768  0.10562  Biso   1.000  O
  C1389    1.0000 0.83281  0.33875  0.91684  Biso   1.000  C
  C1390    1.0000 0.90696  0.31337  0.94850  Biso   1.000  C
  C1391    1.0000 0.90696  0.31337  0.94845  Biso   1.000  C
  C1392    1.0000 0.83588  0.40986  0.86332  Biso   1.000  C
  C1393    1.0000 0.96957  0.53549  0.28469  Biso   1.000  C
  C1394    1.0000 0.96957  0.53549  0.28465  Biso   1.000  C
  C1395    1.0000 0.96961  0.53549  0.28469  Biso   1.000  C
  C1396    1.0000 0.96961  0.53549  0.28465  Biso   1.000  C
  H1489    1.0000 0.87639  0.55759  0.28072  Biso   1.000  H
  H1490    1.0000 0.87639  0.55759  0.28067  Biso   1.000  H
  H1491    1.0000 0.87642  0.55759  0.28072  Biso   1.000  H
  H1492    1.0000 0.87642  0.55759  0.28067  Biso   1.000  H
  C1397    1.0000 0.90417  0.62775  0.20799  Biso   1.000  C
  C1398    1.0000 0.90417  0.62775  0.20794  Biso   1.000  C
  C1399    1.0000 0.86574  0.33343  0.86076  Biso   1.000  C
  H1493    1.0000 0.80520  0.31700  0.91428  Biso   1.000  H
  O522     1.0000 0.93858  0.29895  0.98216  Biso   1.000  O
  N1046    1.0000 0.91009  0.31890  0.88720  Biso   1.000  N
  O523     1.0000 0.93858  0.29895  0.98212  Biso   1.000  O
  O524     1.0000 0.93862  0.29895  0.98216  Biso   1.000  O
  O525     1.0000 0.93862  0.29895  0.98212  Biso   1.000  O
  N1047    1.0000 0.86648  0.37993  0.83455  Biso   1.000  N
  N1048    1.0000 0.86648  0.37993  0.83451  Biso   1.000  N
  O526     1.0000 0.82555  0.44992  0.84608  Biso   1.000  O
  O527     1.0000 0.82555  0.44992  0.84603  Biso   1.000  O
  N1049    1.0000 0.99841  0.57078  0.25387  Biso   1.000  N
  H1494    1.0000 0.98992  0.50862  0.29650  Biso   1.000  H
  H1495    1.0000 0.95660  0.54931  0.32261  Biso   1.000  H
  H1496    1.0000 0.95660  0.54931  0.32257  Biso   1.000  H
  H1497    1.0000 0.88869  0.64972  0.17908  Biso   1.000  H
  N1050    1.0000 0.95480  0.63445  0.20456  Biso   1.000  N
  H1498    1.0000 0.89338  0.63590  0.24970  Biso   1.000  H
  H1499    1.0000 0.89338  0.63590  0.24966  Biso   1.000  H
  N1051    1.0000 0.95484  0.63445  0.20456  Biso   1.000  N
  H1500    1.0000 0.89342  0.63590  0.24970  Biso   1.000  H
  H1501    1.0000 0.89342  0.63590  0.24966  Biso   1.000  H
  H1502    1.0000 0.85351  0.30949  0.83121  Biso   1.000  H
  H1503    1.0000 0.85351  0.30949  0.83117  Biso   1.000  H
  C1400    1.0000 0.94771  0.29821  0.85093  Biso   1.000  C
  C1401    1.0000 0.88365  0.38924  0.77308  Biso   1.000  C
  C1402    1.0000 0.88369  0.38924  0.77308  Biso   1.000  C
  C1403    1.0000 0.98636  0.62035  0.25290  Biso   1.000  C
  C1404    1.0000 0.04506  0.56320  0.24398  Biso   1.000  C
  C1405    1.0000 0.04506  0.56320  0.24394  Biso   1.000  C
  C1406    1.0000 0.97543  0.66336  0.16362  Biso   1.000  C
  C1407    1.0000 0.97543  0.66336  0.16357  Biso   1.000  C
  N1052    1.0000 0.97775  0.33279  0.82225  Biso   1.000  N
  H1504    1.0000 0.96721  0.27779  0.87760  Biso   1.000  H
  H1505    1.0000 0.93361  0.27800  0.81891  Biso   1.000  H
  N1053    1.0000 0.97775  0.33279  0.82220  Biso   1.000  N
  H1506    1.0000 0.93361  0.27800  0.81886  Biso   1.000  H
  N1054    1.0000 0.93393  0.39474  0.76960  Biso   1.000  N
  H1507    1.0000 0.87410  0.36290  0.74609  Biso   1.000  H
  H1508    1.0000 0.86849  0.41829  0.75752  Biso   1.000  H
  N1055    1.0000 0.93393  0.39474  0.76955  Biso   1.000  N
  H1509    1.0000 0.86849  0.41829  0.75748  Biso   1.000  H
  H1510    1.0000 0.86853  0.41829  0.75752  Biso   1.000  H
  H1511    1.0000 0.86853  0.41829  0.75748  Biso   1.000  H
  H1512    1.0000 0.97479  0.63132  0.29380  Biso   1.000  H
  H1513    1.0000 0.97483  0.63132  0.29380  Biso   1.000  H
  C1408    1.0000 0.03349  0.64436  0.23543  Biso   1.000  C
  C1409    1.0000 0.03349  0.64436  0.23539  Biso   1.000  C
  C1410    1.0000 0.03353  0.64436  0.23543  Biso   1.000  C
  C1411    1.0000 0.03353  0.64436  0.23539  Biso   1.000  C
  O528     1.0000 0.06530  0.52501  0.24833  Biso   1.000  O
  N1056    1.0000 0.06607  0.60526  0.23040  Biso   1.000  N
  O529     1.0000 0.06530  0.52501  0.24828  Biso   1.000  O
  N1057    1.0000 0.06611  0.60526  0.23040  Biso   1.000  N
  N1058    1.0000 0.02225  0.66721  0.17775  Biso   1.000  N
  N1059    1.0000 0.02228  0.66721  0.17775  Biso   1.000  N
  O530     1.0000 0.95600  0.68360  0.12121  Biso   1.000  O
  O531     1.0000 0.95600  0.68360  0.12117  Biso   1.000  O
  C1412    1.0000 0.96651  0.35564  0.76457  Biso   1.000  C
  C1413    1.0000 0.02457  0.33664  0.83638  Biso   1.000  C
  C1414    1.0000 0.95494  0.43684  0.75602  Biso   1.000  C
  H1514    1.0000 0.04379  0.66760  0.26708  Biso   1.000  H
  H1515    1.0000 0.04382  0.66760  0.26708  Biso   1.000  H
  C1415    1.0000 0.11635  0.61076  0.22692  Biso   1.000  C
  C1416    1.0000 0.11635  0.61076  0.22688  Biso   1.000  C
  C1417    1.0000 0.05229  0.70183  0.14907  Biso   1.000  C
  C1418    1.0000 0.05229  0.70183  0.14903  Biso   1.000  C
  C1419    1.0000 0.05232  0.70183  0.14907  Biso   1.000  C
  C1420    1.0000 0.05232  0.70183  0.14903  Biso   1.000  C
  H1516    1.0000 0.95621  0.33240  0.73292  Biso   1.000  H
  H1517    1.0000 0.95621  0.33240  0.73287  Biso   1.000  H
  C1421    1.0000 0.01364  0.37965  0.74710  Biso   1.000  C
  C1422    1.0000 0.01364  0.37965  0.74705  Biso   1.000  C
  O532     1.0000 0.04400  0.31640  0.87879  Biso   1.000  O
  N1060    1.0000 0.04520  0.36555  0.79544  Biso   1.000  N
  N1061    1.0000 0.04520  0.36555  0.79540  Biso   1.000  N
  O533     1.0000 0.04404  0.31640  0.87879  Biso   1.000  O
  O534     1.0000 0.93470  0.47502  0.75167  Biso   1.000  O
  N1062    1.0000 0.00159  0.42926  0.74613  Biso   1.000  N
  N1063    1.0000 0.00159  0.42926  0.74609  Biso   1.000  N
  N1064    1.0000 0.13352  0.62007  0.16545  Biso   1.000  N
  H1518    1.0000 0.12590  0.63710  0.25391  Biso   1.000  H
  H1519    1.0000 0.13151  0.58171  0.24248  Biso   1.000  H
  H1520    1.0000 0.12590  0.63710  0.25387  Biso   1.000  H
  N1065    1.0000 0.13355  0.62007  0.16545  Biso   1.000  N
  N1066    1.0000 0.08991  0.68110  0.11280  Biso   1.000  N
  H1521    1.0000 0.03279  0.72221  0.12240  Biso   1.000  H
  H1522    1.0000 0.06639  0.72200  0.18109  Biso   1.000  H
  N1067    1.0000 0.08991  0.68110  0.11275  Biso   1.000  N
  H1523    1.0000 0.03279  0.72221  0.12236  Biso   1.000  H
  H1524    1.0000 0.03282  0.72221  0.12240  Biso   1.000  H
  H1525    1.0000 0.06642  0.72200  0.18109  Biso   1.000  H
  H1526    1.0000 0.03282  0.72221  0.12236  Biso   1.000  H
  H1527    1.0000 0.02521  0.36872  0.70620  Biso   1.000  H
  C1423    1.0000 0.09583  0.37228  0.79201  Biso   1.000  C
  C1424    1.0000 0.09586  0.37228  0.79201  Biso   1.000  C
  C1425    1.0000 0.03043  0.46451  0.71531  Biso   1.000  C
  C1426    1.0000 0.13426  0.66657  0.13924  Biso   1.000  C
  C1427    1.0000 0.16412  0.59017  0.13668  Biso   1.000  C
  C1428    1.0000 0.13426  0.66657  0.13919  Biso   1.000  C
  C1429    1.0000 0.16416  0.59017  0.13668  Biso   1.000  C
  C1430    1.0000 0.09304  0.68667  0.05150  Biso   1.000  C
  C1431    1.0000 0.09308  0.68667  0.05150  Biso   1.000  C
  N1068    1.0000 0.11067  0.41945  0.80596  Biso   1.000  N
  H1528    1.0000 0.10662  0.36410  0.75030  Biso   1.000  H
  H1529    1.0000 0.11131  0.35032  0.82092  Biso   1.000  H
  H1530    1.0000 0.11131  0.35032  0.82088  Biso   1.000  H
  N1069    1.0000 0.06850  0.48161  0.75217  Biso   1.000  N
  H1531    1.0000 0.01008  0.49141  0.70350  Biso   1.000  H
  H1532    1.0000 0.04340  0.45069  0.67739  Biso   1.000  H
  N1070    1.0000 0.06850  0.48161  0.75213  Biso   1.000  N
  H1533    1.0000 0.01012  0.49141  0.70350  Biso   1.000  H
  H1534    1.0000 0.14649  0.69051  0.16879  Biso   1.000  H
  C1432    1.0000 0.16719  0.66125  0.08316  Biso   1.000  C
  H1535    1.0000 0.14653  0.69051  0.16879  Biso   1.000  H
  O535     1.0000 0.17445  0.55008  0.15392  Biso   1.000  O
  N1071    1.0000 0.18150  0.61245  0.08622  Biso   1.000  N
  N1072    1.0000 0.18150  0.61245  0.08618  Biso   1.000  N
  O536     1.0000 0.17449  0.55008  0.15392  Biso   1.000  O
  O537     1.0000 0.06142  0.70105  0.01784  Biso   1.000  O
  N1073    1.0000 0.13701  0.67285  0.03257  Biso   1.000  N
  C1433    1.0000 0.14195  0.42901  0.85216  Biso   1.000  C
  C1434    1.0000 0.11247  0.45552  0.75922  Biso   1.000  C
  C1435    1.0000 0.07443  0.52829  0.76585  Biso   1.000  C
  C1436    1.0000 0.07443  0.52829  0.76580  Biso   1.000  C
  C1437    1.0000 0.07446  0.52829  0.76585  Biso   1.000  C
  C1438    1.0000 0.07446  0.52829  0.76580  Biso   1.000  C
  H1536    1.0000 0.19480  0.68300  0.08572  Biso   1.000  H
  H1537    1.0000 0.19480  0.68300  0.08567  Biso   1.000  H
  C1439    1.0000 0.21948  0.59260  0.04972  Biso   1.000  C
  C1440    1.0000 0.21948  0.59260  0.04968  Biso   1.000  C
  C1441    1.0000 0.21951  0.59260  0.04972  Biso   1.000  C
  C1442    1.0000 0.21951  0.59260  0.04968  Biso   1.000  C
  C1443    1.0000 0.15503  0.68230  0.97159  Biso   1.000  C
  O538     1.0000 0.15164  0.40232  0.89438  Biso   1.000  O
  N1074    1.0000 0.16042  0.47269  0.84297  Biso   1.000  N
  O539     1.0000 0.15164  0.40232  0.89434  Biso   1.000  O
  N1075    1.0000 0.16042  0.47269  0.84292  Biso   1.000  N
  O540     1.0000 0.15168  0.40232  0.89438  Biso   1.000  O
  N1076    1.0000 0.16046  0.47269  0.84297  Biso   1.000  N
  O541     1.0000 0.15168  0.40232  0.89434  Biso   1.000  O
  N1077    1.0000 0.16046  0.47269  0.84292  Biso   1.000  N
  C1444    1.0000 0.14702  0.49251  0.78451  Biso   1.000  C
  H1538    1.0000 0.12361  0.44241  0.71928  Biso   1.000  H
  O542     1.0000 0.04418  0.55879  0.75935  Biso   1.000  O
  N1078    1.0000 0.11885  0.53517  0.78808  Biso   1.000  N
  O543     1.0000 0.04418  0.55879  0.75931  Biso   1.000  O
  O544     1.0000 0.04421  0.55879  0.75935  Biso   1.000  O
  O545     1.0000 0.04421  0.55879  0.75931  Biso   1.000  O
  N1079    1.0000 0.20456  0.57882  0.98911  Biso   1.000  N
  H1539    1.0000 0.23242  0.56471  0.07108  Biso   1.000  H
  H1540    1.0000 0.24511  0.61612  0.04611  Biso   1.000  H
  H1541    1.0000 0.24511  0.61612  0.04606  Biso   1.000  H
  N1080    1.0000 0.16084  0.64013  0.93532  Biso   1.000  N
  H1542    1.0000 0.18591  0.69841  0.97512  Biso   1.000  H
  H1543    1.0000 0.13310  0.70391  0.95028  Biso   1.000  H
  H1544    1.0000 0.18591  0.69841  0.97507  Biso   1.000  H
  C1445    1.0000 0.20231  0.48881  0.87522  Biso   1.000  C
  C1446    1.0000 0.20234  0.48881  0.87522  Biso   1.000  C
  H1545    1.0000 0.17491  0.49670  0.75702  Biso   1.000  H
  H1546    1.0000 0.17491  0.49670  0.75698  Biso   1.000  H
  C1447    1.0000 0.13979  0.58129  0.79288  Biso   1.000  C
  C1448    1.0000 0.13979  0.58129  0.79284  Biso   1.000  C
  C1449    1.0000 0.20305  0.61129  0.93797  Biso   1.000  C
  C1450    1.0000 0.20142  0.53295  0.97187  Biso   1.000  C
  C1451    1.0000 0.13405  0.63068  0.88560  Biso   1.000  C
  C1452    1.0000 0.13405  0.63068  0.88555  Biso   1.000  C
  C1453    1.0000 0.13408  0.63068  0.88560  Biso   1.000  C
  C1454    1.0000 0.13408  0.63068  0.88555  Biso   1.000  C
  N1081    1.0000 0.19483  0.53129  0.90929  Biso   1.000  N
  H1547    1.0000 0.22790  0.49420  0.84521  Biso   1.000  H
  H1548    1.0000 0.21292  0.46370  0.90362  Biso   1.000  H
  H1549    1.0000 0.22790  0.49420  0.84517  Biso   1.000  H
  H1550    1.0000 0.21292  0.46370  0.90358  Biso   1.000  H
  N1082    1.0000 0.15337  0.59334  0.85482  Biso   1.000  N
  N1083    1.0000 0.15337  0.59334  0.85477  Biso   1.000  N
  H1551    1.0000 0.16800  0.58259  0.76631  Biso   1.000  H
  H1552    1.0000 0.11709  0.60501  0.77770  Biso   1.000  H
  H1553    1.0000 0.11712  0.60501  0.77770  Biso   1.000  H
  H1554    1.0000 0.23242  0.63072  0.93509  Biso   1.000  H
  C1455    1.0000 0.19723  0.57811  0.88203  Biso   1.000  C
  O546     1.0000 0.20414  0.49875  0.00544  Biso   1.000  O
  O547     1.0000 0.09886  0.65222  0.86996  Biso   1.000  O
  O548     1.0000 0.09886  0.65222  0.86991  Biso   1.000  O
  O549     1.0000 0.09890  0.65222  0.86996  Biso   1.000  O
  O550     1.0000 0.09890  0.65222  0.86991  Biso   1.000  O
  H1555    1.0000 0.22420  0.58100  0.85280  Biso   1.000  H
  C1456    1.0000 0.80277  0.42189  0.11797  Biso   1.000  C
  N1084    1.0000 0.84663  0.40669  0.14518  Biso   1.000  N
  N1085    1.0000 0.84667  0.40669  0.14518  Biso   1.000  N
  H1556    1.0000 0.77580  0.41900  0.14720  Biso   1.000  H
  N1086    1.0000 0.80517  0.46874  0.09071  Biso   1.000  N
  C1457    1.0000 0.79695  0.38871  0.06203  Biso   1.000  C
  N1087    1.0000 0.80517  0.46874  0.09066  Biso   1.000  N
  C1458    1.0000 0.79695  0.38871  0.06198  Biso   1.000  C
  N1088    1.0000 0.80520  0.46874  0.09071  Biso   1.000  N
  N1089    1.0000 0.80520  0.46874  0.09066  Biso   1.000  N
  C1459    1.0000 0.86021  0.41875  0.20712  Biso   1.000  C
  C1460    1.0000 0.86595  0.36935  0.11440  Biso   1.000  C
  C1461    1.0000 0.80281  0.42189  0.11797  Biso   1.000  C
  C1462    1.0000 0.79858  0.46705  0.02813  Biso   1.000  C
  C1463    1.0000 0.79769  0.51119  0.12478  Biso   1.000  C
  C1464    1.0000 0.79858  0.46705  0.02809  Biso   1.000  C
  C1465    1.0000 0.79769  0.51119  0.12474  Biso   1.000  C
  N1090    1.0000 0.83916  0.35987  0.06468  Biso   1.000  N
  N1091    1.0000 0.83919  0.35987  0.06468  Biso   1.000  N
  N1092    1.0000 0.79544  0.42118  0.01089  Biso   1.000  N
  H1557    1.0000 0.76758  0.36932  0.06491  Biso   1.000  H
  N1093    1.0000 0.79544  0.42118  0.01084  Biso   1.000  N
  H1558    1.0000 0.76758  0.36932  0.06486  Biso   1.000  H
  H1559    1.0000 0.76762  0.36932  0.06491  Biso   1.000  H
  H1560    1.0000 0.76762  0.36932  0.06486  Biso   1.000  H
  H1561    1.0000 0.83200  0.41741  0.23369  Biso   1.000  H
  N1094    1.0000 0.88115  0.46483  0.21192  Biso   1.000  N
  H1562    1.0000 0.88291  0.39502  0.22230  Biso   1.000  H
  N1095    1.0000 0.88115  0.46483  0.21187  Biso   1.000  N
  H1563    1.0000 0.88291  0.39502  0.22226  Biso   1.000  H
  N1096    1.0000 0.88118  0.46483  0.21192  Biso   1.000  N
  N1097    1.0000 0.88118  0.46483  0.21187  Biso   1.000  N
  O551     1.0000 0.90114  0.34781  0.13004  Biso   1.000  O
  O552     1.0000 0.79586  0.50129  0.99456  Biso   1.000  O
  O553     1.0000 0.79586  0.50129  0.99451  Biso   1.000  O
  N1098    1.0000 0.83958  0.52731  0.15703  Biso   1.000  N
  H1564    1.0000 0.77210  0.50580  0.15479  Biso   1.000  H
  H1565    1.0000 0.78708  0.53630  0.09638  Biso   1.000  H
  H1566    1.0000 0.78712  0.53630  0.09638  Biso   1.000  H
  C1466    1.0000 0.84497  0.31774  0.02841  Biso   1.000  C
  C1467    1.0000 0.84497  0.31774  0.02836  Biso   1.000  C
  C1468    1.0000 0.78052  0.40743  0.95028  Biso   1.000  C
  C1469    1.0000 0.92557  0.47171  0.23415  Biso   1.000  C
  C1470    1.0000 0.85298  0.50749  0.21549  Biso   1.000  C
  C1471    1.0000 0.85301  0.50749  0.21549  Biso   1.000  C
  C1472    1.0000 0.85805  0.57099  0.14784  Biso   1.000  C
  C1473    1.0000 0.85805  0.57099  0.14779  Biso   1.000  C
  C1474    1.0000 0.85809  0.57099  0.14784  Biso   1.000  C
  C1475    1.0000 0.85809  0.57099  0.14779  Biso   1.000  C
  N1099    1.0000 0.86299  0.32719  0.96743  Biso   1.000  N
  H1567    1.0000 0.81409  0.30159  0.02488  Biso   1.000  H
  H1568    1.0000 0.86690  0.29609  0.04972  Biso   1.000  H
  H1569    1.0000 0.86690  0.29609  0.04968  Biso   1.000  H
  H1570    1.0000 0.81412  0.30159  0.02488  Biso   1.000  H
  N1100    1.0000 0.81850  0.38755  0.91378  Biso   1.000  N
  H1571    1.0000 0.76758  0.43532  0.92892  Biso   1.000  H
  H1572    1.0000 0.75489  0.38392  0.95389  Biso   1.000  H
  H1573    1.0000 0.76758  0.43532  0.92887  Biso   1.000  H
  N1101    1.0000 0.81853  0.38755  0.91378  Biso   1.000  N
  H1574    1.0000 0.76762  0.43532  0.92892  Biso   1.000  H
  H1575    1.0000 0.76762  0.43532  0.92887  Biso   1.000  H
  O554     1.0000 0.95582  0.44124  0.24065  Biso   1.000  O
  N1102    1.0000 0.93150  0.51842  0.24783  Biso   1.000  N
  H1576    1.0000 0.82509  0.50330  0.24298  Biso   1.000  H
  C1476    1.0000 0.88753  0.54451  0.24078  Biso   1.000  C
  C1477    1.0000 0.88753  0.54451  0.24074  Biso   1.000  C
  H1577    1.0000 0.82512  0.50330  0.24298  Biso   1.000  H
  C1478    1.0000 0.88756  0.54451  0.24078  Biso   1.000  C
  C1479    1.0000 0.88756  0.54451  0.24074  Biso   1.000  C
  N1103    1.0000 0.88933  0.58055  0.19404  Biso   1.000  N
  N1104    1.0000 0.88933  0.58055  0.19399  Biso   1.000  N
  O555     1.0000 0.84836  0.59768  0.10562  Biso   1.000  O
  C1480    1.0000 0.83281  0.33875  0.91684  Biso   1.000  C
  C1481    1.0000 0.90696  0.31337  0.94850  Biso   1.000  C
  C1482    1.0000 0.90696  0.31337  0.94845  Biso   1.000  C
  C1483    1.0000 0.83588  0.40986  0.86332  Biso   1.000  C
  C1484    1.0000 0.96957  0.53549  0.28469  Biso   1.000  C
  C1485    1.0000 0.96957  0.53549  0.28465  Biso   1.000  C
  C1486    1.0000 0.96961  0.53549  0.28469  Biso   1.000  C
  C1487    1.0000 0.96961  0.53549  0.28465  Biso   1.000  C
  H1578    1.0000 0.87639  0.55759  0.28072  Biso   1.000  H
  H1579    1.0000 0.87639  0.55759  0.28067  Biso   1.000  H
  H1580    1.0000 0.87642  0.55759  0.28072  Biso   1.000  H
  H1581    1.0000 0.87642  0.55759  0.28067  Biso   1.000  H
  C1488    1.0000 0.90417  0.62775  0.20799  Biso   1.000  C
  C1489    1.0000 0.90417  0.62775  0.20794  Biso   1.000  C
  C1490    1.0000 0.86574  0.33343  0.86076  Biso   1.000  C
  H1582    1.0000 0.80520  0.31700  0.91428  Biso   1.000  H
  O556     1.0000 0.93858  0.29895  0.98216  Biso   1.000  O
  N1105    1.0000 0.91009  0.31890  0.88720  Biso   1.000  N
  O557     1.0000 0.93858  0.29895  0.98212  Biso   1.000  O
  O558     1.0000 0.93862  0.29895  0.98216  Biso   1.000  O
  O559     1.0000 0.93862  0.29895  0.98212  Biso   1.000  O
  N1106    1.0000 0.86648  0.37993  0.83455  Biso   1.000  N
  N1107    1.0000 0.86648  0.37993  0.83451  Biso   1.000  N
  O560     1.0000 0.82555  0.44992  0.84608  Biso   1.000  O
  O561     1.0000 0.82555  0.44992  0.84603  Biso   1.000  O
  N1108    1.0000 0.99841  0.57078  0.25387  Biso   1.000  N
  H1583    1.0000 0.98992  0.50862  0.29650  Biso   1.000  H
  H1584    1.0000 0.95660  0.54931  0.32261  Biso   1.000  H
  H1585    1.0000 0.95660  0.54931  0.32257  Biso   1.000  H
  H1586    1.0000 0.88869  0.64972  0.17908  Biso   1.000  H
  N1109    1.0000 0.95480  0.63445  0.20456  Biso   1.000  N
  H1587    1.0000 0.89338  0.63590  0.24970  Biso   1.000  H
  H1588    1.0000 0.89338  0.63590  0.24966  Biso   1.000  H
  N1110    1.0000 0.95484  0.63445  0.20456  Biso   1.000  N
  H1589    1.0000 0.89342  0.63590  0.24970  Biso   1.000  H
  H1590    1.0000 0.89342  0.63590  0.24966  Biso   1.000  H
  H1591    1.0000 0.85351  0.30949  0.83121  Biso   1.000  H
  H1592    1.0000 0.85351  0.30949  0.83117  Biso   1.000  H
  C1491    1.0000 0.94771  0.29821  0.85093  Biso   1.000  C
  C1492    1.0000 0.88365  0.38924  0.77308  Biso   1.000  C
  C1493    1.0000 0.88369  0.38924  0.77308  Biso   1.000  C
  C1494    1.0000 0.98636  0.62035  0.25290  Biso   1.000  C
  C1495    1.0000 0.04506  0.56320  0.24398  Biso   1.000  C
  C1496    1.0000 0.04506  0.56320  0.24394  Biso   1.000  C
  C1497    1.0000 0.97543  0.66336  0.16362  Biso   1.000  C
  C1498    1.0000 0.97543  0.66336  0.16357  Biso   1.000  C
  N1111    1.0000 0.97775  0.33279  0.82225  Biso   1.000  N
  H1593    1.0000 0.96721  0.27779  0.87760  Biso   1.000  H
  H1594    1.0000 0.93361  0.27800  0.81891  Biso   1.000  H
  N1112    1.0000 0.97775  0.33279  0.82220  Biso   1.000  N
  H1595    1.0000 0.93361  0.27800  0.81886  Biso   1.000  H
  N1113    1.0000 0.93393  0.39474  0.76960  Biso   1.000  N
  H1596    1.0000 0.87410  0.36290  0.74609  Biso   1.000  H
  H1597    1.0000 0.86849  0.41829  0.75752  Biso   1.000  H
  N1114    1.0000 0.93393  0.39474  0.76955  Biso   1.000  N
  H1598    1.0000 0.86849  0.41829  0.75748  Biso   1.000  H
  H1599    1.0000 0.86853  0.41829  0.75752  Biso   1.000  H
  H1600    1.0000 0.86853  0.41829  0.75748  Biso   1.000  H
  H1601    1.0000 0.97479  0.63132  0.29380  Biso   1.000  H
  H1602    1.0000 0.97483  0.63132  0.29380  Biso   1.000  H
  C1499    1.0000 0.03349  0.64436  0.23543  Biso   1.000  C
  C1500    1.0000 0.03349  0.64436  0.23539  Biso   1.000  C
  C1501    1.0000 0.03353  0.64436  0.23543  Biso   1.000  C
  C1502    1.0000 0.03353  0.64436  0.23539  Biso   1.000  C
  O562     1.0000 0.06530  0.52501  0.24833  Biso   1.000  O
  N1115    1.0000 0.06607  0.60526  0.23040  Biso   1.000  N
  O563     1.0000 0.06530  0.52501  0.24828  Biso   1.000  O
  N1116    1.0000 0.06611  0.60526  0.23040  Biso   1.000  N
  N1117    1.0000 0.02225  0.66721  0.17775  Biso   1.000  N
  N1118    1.0000 0.02228  0.66721  0.17775  Biso   1.000  N
  O564     1.0000 0.95600  0.68360  0.12121  Biso   1.000  O
  O565     1.0000 0.95600  0.68360  0.12117  Biso   1.000  O
  C1503    1.0000 0.96651  0.35564  0.76457  Biso   1.000  C
  C1504    1.0000 0.02457  0.33664  0.83638  Biso   1.000  C
  C1505    1.0000 0.95494  0.43684  0.75602  Biso   1.000  C
  H1603    1.0000 0.04379  0.66760  0.26708  Biso   1.000  H
  H1604    1.0000 0.04382  0.66760  0.26708  Biso   1.000  H
  C1506    1.0000 0.11635  0.61076  0.22692  Biso   1.000  C
  C1507    1.0000 0.11635  0.61076  0.22688  Biso   1.000  C
  C1508    1.0000 0.05229  0.70183  0.14907  Biso   1.000  C
  C1509    1.0000 0.05229  0.70183  0.14903  Biso   1.000  C
  C1510    1.0000 0.05232  0.70183  0.14907  Biso   1.000  C
  C1511    1.0000 0.05232  0.70183  0.14903  Biso   1.000  C
  H1605    1.0000 0.95621  0.33240  0.73292  Biso   1.000  H
  H1606    1.0000 0.95621  0.33240  0.73287  Biso   1.000  H
  C1512    1.0000 0.01364  0.37965  0.74710  Biso   1.000  C
  C1513    1.0000 0.01364  0.37965  0.74705  Biso   1.000  C
  O566     1.0000 0.04400  0.31640  0.87879  Biso   1.000  O
  N1119    1.0000 0.04520  0.36555  0.79544  Biso   1.000  N
  N1120    1.0000 0.04520  0.36555  0.79540  Biso   1.000  N
  O567     1.0000 0.04404  0.31640  0.87879  Biso   1.000  O
  O568     1.0000 0.93470  0.47502  0.75167  Biso   1.000  O
  N1121    1.0000 0.00159  0.42926  0.74613  Biso   1.000  N
  N1122    1.0000 0.00159  0.42926  0.74609  Biso   1.000  N
  N1123    1.0000 0.13352  0.62007  0.16545  Biso   1.000  N
  H1607    1.0000 0.12590  0.63710  0.25391  Biso   1.000  H
  H1608    1.0000 0.13151  0.58171  0.24248  Biso   1.000  H
  H1609    1.0000 0.12590  0.63710  0.25387  Biso   1.000  H
  N1124    1.0000 0.13355  0.62007  0.16545  Biso   1.000  N
  N1125    1.0000 0.08991  0.68110  0.11280  Biso   1.000  N
  H1610    1.0000 0.03279  0.72221  0.12240  Biso   1.000  H
  H1611    1.0000 0.06639  0.72200  0.18109  Biso   1.000  H
  N1126    1.0000 0.08991  0.68110  0.11275  Biso   1.000  N
  H1612    1.0000 0.03279  0.72221  0.12236  Biso   1.000  H
  H1613    1.0000 0.03282  0.72221  0.12240  Biso   1.000  H
  H1614    1.0000 0.06642  0.72200  0.18109  Biso   1.000  H
  H1615    1.0000 0.03282  0.72221  0.12236  Biso   1.000  H
  H1616    1.0000 0.02521  0.36872  0.70620  Biso   1.000  H
  C1514    1.0000 0.09583  0.37228  0.79201  Biso   1.000  C
  C1515    1.0000 0.09586  0.37228  0.79201  Biso   1.000  C
  C1516    1.0000 0.03043  0.46451  0.71531  Biso   1.000  C
  C1517    1.0000 0.13426  0.66657  0.13924  Biso   1.000  C
  C1518    1.0000 0.16412  0.59017  0.13668  Biso   1.000  C
  C1519    1.0000 0.13426  0.66657  0.13919  Biso   1.000  C
  C1520    1.0000 0.16416  0.59017  0.13668  Biso   1.000  C
  C1521    1.0000 0.09304  0.68667  0.05150  Biso   1.000  C
  C1522    1.0000 0.09308  0.68667  0.05150  Biso   1.000  C
  N1127    1.0000 0.11067  0.41945  0.80596  Biso   1.000  N
  H1617    1.0000 0.10662  0.36410  0.75030  Biso   1.000  H
  H1618    1.0000 0.11131  0.35032  0.82092  Biso   1.000  H
  H1619    1.0000 0.11131  0.35032  0.82088  Biso   1.000  H
  N1128    1.0000 0.06850  0.48161  0.75217  Biso   1.000  N
  H1620    1.0000 0.01008  0.49141  0.70350  Biso   1.000  H
  H1621    1.0000 0.04340  0.45069  0.67739  Biso   1.000  H
  N1129    1.0000 0.06850  0.48161  0.75213  Biso   1.000  N
  H1622    1.0000 0.01012  0.49141  0.70350  Biso   1.000  H
  H1623    1.0000 0.14649  0.69051  0.16879  Biso   1.000  H
  C1523    1.0000 0.16719  0.66125  0.08316  Biso   1.000  C
  H1624    1.0000 0.14653  0.69051  0.16879  Biso   1.000  H
  O569     1.0000 0.17445  0.55008  0.15392  Biso   1.000  O
  N1130    1.0000 0.18150  0.61245  0.08622  Biso   1.000  N
  N1131    1.0000 0.18150  0.61245  0.08618  Biso   1.000  N
  O570     1.0000 0.17449  0.55008  0.15392  Biso   1.000  O
  O571     1.0000 0.06142  0.70105  0.01784  Biso   1.000  O
  N1132    1.0000 0.13701  0.67285  0.03257  Biso   1.000  N
  C1524    1.0000 0.14195  0.42901  0.85216  Biso   1.000  C
  C1525    1.0000 0.11247  0.45552  0.75922  Biso   1.000  C
  C1526    1.0000 0.07443  0.52829  0.76585  Biso   1.000  C
  C1527    1.0000 0.07443  0.52829  0.76580  Biso   1.000  C
  C1528    1.0000 0.07446  0.52829  0.76585  Biso   1.000  C
  C1529    1.0000 0.07446  0.52829  0.76580  Biso   1.000  C
  H1625    1.0000 0.19480  0.68300  0.08572  Biso   1.000  H
  H1626    1.0000 0.19480  0.68300  0.08567  Biso   1.000  H
  C1530    1.0000 0.21948  0.59260  0.04972  Biso   1.000  C
  C1531    1.0000 0.21948  0.59260  0.04968  Biso   1.000  C
  C1532    1.0000 0.21951  0.59260  0.04972  Biso   1.000  C
  C1533    1.0000 0.21951  0.59260  0.04968  Biso   1.000  C
  C1534    1.0000 0.15503  0.68230  0.97159  Biso   1.000  C
  O572     1.0000 0.15164  0.40232  0.89438  Biso   1.000  O
  N1133    1.0000 0.16042  0.47269  0.84297  Biso   1.000  N
  O573     1.0000 0.15164  0.40232  0.89434  Biso   1.000  O
  N1134    1.0000 0.16042  0.47269  0.84292  Biso   1.000  N
  O574     1.0000 0.15168  0.40232  0.89438  Biso   1.000  O
  N1135    1.0000 0.16046  0.47269  0.84297  Biso   1.000  N
  O575     1.0000 0.15168  0.40232  0.89434  Biso   1.000  O
  N1136    1.0000 0.16046  0.47269  0.84292  Biso   1.000  N
  C1535    1.0000 0.14702  0.49251  0.78451  Biso   1.000  C
  H1627    1.0000 0.12361  0.44241  0.71928  Biso   1.000  H
  O576     1.0000 0.04418  0.55879  0.75935  Biso   1.000  O
  N1137    1.0000 0.11885  0.53517  0.78808  Biso   1.000  N
  O577     1.0000 0.04418  0.55879  0.75931  Biso   1.000  O
  O578     1.0000 0.04421  0.55879  0.75935  Biso   1.000  O
  O579     1.0000 0.04421  0.55879  0.75931  Biso   1.000  O
  N1138    1.0000 0.20456  0.57882  0.98911  Biso   1.000  N
  H1628    1.0000 0.23242  0.56471  0.07108  Biso   1.000  H
  H1629    1.0000 0.24511  0.61612  0.04611  Biso   1.000  H
  H1630    1.0000 0.24511  0.61612  0.04606  Biso   1.000  H
  N1139    1.0000 0.16084  0.64013  0.93532  Biso   1.000  N
  H1631    1.0000 0.18591  0.69841  0.97512  Biso   1.000  H
  H1632    1.0000 0.13310  0.70391  0.95028  Biso   1.000  H
  H1633    1.0000 0.18591  0.69841  0.97507  Biso   1.000  H
  C1536    1.0000 0.20231  0.48881  0.87522  Biso   1.000  C
  C1537    1.0000 0.20234  0.48881  0.87522  Biso   1.000  C
  H1634    1.0000 0.17491  0.49670  0.75702  Biso   1.000  H
  H1635    1.0000 0.17491  0.49670  0.75698  Biso   1.000  H
  C1538    1.0000 0.13979  0.58129  0.79288  Biso   1.000  C
  C1539    1.0000 0.13979  0.58129  0.79284  Biso   1.000  C
  C1540    1.0000 0.20305  0.61129  0.93797  Biso   1.000  C
  C1541    1.0000 0.20142  0.53295  0.97187  Biso   1.000  C
  C1542    1.0000 0.13405  0.63068  0.88560  Biso   1.000  C
  C1543    1.0000 0.13405  0.63068  0.88555  Biso   1.000  C
  C1544    1.0000 0.13408  0.63068  0.88560  Biso   1.000  C
  C1545    1.0000 0.13408  0.63068  0.88555  Biso   1.000  C
  N1140    1.0000 0.19483  0.53129  0.90929  Biso   1.000  N
  H1636    1.0000 0.22790  0.49420  0.84521  Biso   1.000  H
  H1637    1.0000 0.21292  0.46370  0.90362  Biso   1.000  H
  H1638    1.0000 0.22790  0.49420  0.84517  Biso   1.000  H
  H1639    1.0000 0.21292  0.46370  0.90358  Biso   1.000  H
  N1141    1.0000 0.15337  0.59334  0.85482  Biso   1.000  N
  N1142    1.0000 0.15337  0.59334  0.85477  Biso   1.000  N
  H1640    1.0000 0.16800  0.58259  0.76631  Biso   1.000  H
  H1641    1.0000 0.11709  0.60501  0.77770  Biso   1.000  H
  H1642    1.0000 0.11712  0.60501  0.77770  Biso   1.000  H
  H1643    1.0000 0.23242  0.63072  0.93509  Biso   1.000  H
  C1546    1.0000 0.19723  0.57811  0.88203  Biso   1.000  C
  O580     1.0000 0.20414  0.49875  0.00544  Biso   1.000  O
  O581     1.0000 0.09886  0.65222  0.86996  Biso   1.000  O
  O582     1.0000 0.09886  0.65222  0.86991  Biso   1.000  O
  O583     1.0000 0.09890  0.65222  0.86996  Biso   1.000  O
  O584     1.0000 0.09890  0.65222  0.86991  Biso   1.000  O
  H1644    1.0000 0.22420  0.58100  0.85280  Biso   1.000  H
