data_image0
_cell_length_a       40.24
_cell_length_b       40.894
_cell_length_c       13.206
_cell_angle_alpha    90
_cell_angle_beta     90
_cell_angle_gamma    90

_symmetry_space_group_name_H-M    "P 1"
_symmetry_int_tables_number       1

loop_
  _symmetry_equiv_pos_as_xyz
  'x, y, z'

loop_
  _atom_site_label
  _atom_site_occupancy
  _atom_site_fract_x
  _atom_site_fract_y
  _atom_site_fract_z
  _atom_site_thermal_displace_type
  _atom_site_B_iso_or_equiv
  _atom_site_type_symbol
  O1       1.0000 0.52326  0.55006  0.58617  Biso   1.000  O
  C1       1.0000 0.55256  0.55135  0.60298  Biso   1.000  C
  O2       1.0000 0.57102  0.52656  0.63706  Biso   1.000  O
  C2       1.0000 0.57165  0.58158  0.59056  Biso   1.000  C
  C3       1.0000 0.55368  0.49572  0.65538  Biso   1.000  C
  N1       1.0000 0.60497  0.58578  0.61010  Biso   1.000  N
  C4       1.0000 0.55880  0.61151  0.56149  Biso   1.000  C
  H1       1.0000 0.56740  0.47731  0.63077  Biso   1.000  H
  H2       1.0000 0.53250  0.49550  0.61752  Biso   1.000  H
  C5       1.0000 0.54672  0.49134  0.76836  Biso   1.000  C
  C6       1.0000 0.61295  0.61806  0.59481  Biso   1.000  C
  H3       1.0000 0.61931  0.56959  0.62699  Biso   1.000  H
  C7       1.0000 0.58472  0.63440  0.56338  Biso   1.000  C
  H4       1.0000 0.53641  0.61581  0.54331  Biso   1.000  H
  H5       1.0000 0.53700  0.51181  0.79562  Biso   1.000  H
  H6       1.0000 0.53019  0.47369  0.77760  Biso   1.000  H
  C8       1.0000 0.57806  0.48298  0.82803  Biso   1.000  C
  C9       1.0000 0.64473  0.63376  0.61722  Biso   1.000  C
  H7       1.0000 0.58320  0.65689  0.54642  Biso   1.000  H
  C10      1.0000 0.57460  0.48342  0.94601  Biso   1.000  C
  H8       1.0000 0.59570  0.49870  0.80857  Biso   1.000  H
  H9       1.0000 0.58561  0.46090  0.80721  Biso   1.000  H
  O3       1.0000 0.66610  0.61378  0.66629  Biso   1.000  O
  O4       1.0000 0.65045  0.66132  0.59632  Biso   1.000  O
  C11      1.0000 0.56548  0.51751  0.98167  Biso   1.000  C
  C12      1.0000 0.60726  0.47141  0.98932  Biso   1.000  C
  C13      1.0000 0.54704  0.45985  0.97827  Biso   1.000  C
  C14      1.0000 0.69806  0.62836  0.69559  Biso   1.000  C
  N2       1.0000 0.58121  0.54517  0.94669  Biso   1.000  N
  C15      1.0000 0.54026  0.52800  0.04316  Biso   1.000  C
  N3       1.0000 0.63730  0.48518  0.95979  Biso   1.000  N
  C16      1.0000 0.61499  0.44525  0.05028  Biso   1.000  C
  H10      1.0000 0.55179  0.43801  0.95154  Biso   1.000  H
  H11      1.0000 0.52570  0.46750  0.95161  Biso   1.000  H
  H12      1.0000 0.54600  0.45889  0.05240  Biso   1.000  H
  C17      1.0000 0.70025  0.63254  0.80857  Biso   1.000  C
  H13      1.0000 0.70060  0.64990  0.66227  Biso   1.000  H
  H14      1.0000 0.71640  0.61410  0.67219  Biso   1.000  H
  C18      1.0000 0.56638  0.57290  0.98349  Biso   1.000  C
  H15      1.0000 0.59739  0.54451  0.91103  Biso   1.000  H
  H16      1.0000 0.52520  0.51440  0.07943  Biso   1.000  H
  C19      1.0000 0.54063  0.56282  0.04339  Biso   1.000  C
  H17      1.0000 0.63981  0.50389  0.91299  Biso   1.000  H
  C20      1.0000 0.66352  0.46811  0.00197  Biso   1.000  C
  C21      1.0000 0.64990  0.44312  0.05740  Biso   1.000  C
  H18      1.0000 0.59950  0.43099  0.08224  Biso   1.000  H
  C22      1.0000 0.70567  0.60006  0.86362  Biso   1.000  C
  H19      1.0000 0.67950  0.64271  0.83348  Biso   1.000  H
  H20      1.0000 0.71881  0.64750  0.82470  Biso   1.000  H
  C23      1.0000 0.57749  0.60681  0.95260  Biso   1.000  C
  H21      1.0000 0.52560  0.57659  0.07883  Biso   1.000  H
  C24      1.0000 0.69923  0.47726  0.97910  Biso   1.000  C
  H22      1.0000 0.66190  0.42710  0.09443  Biso   1.000  H
  C25      1.0000 0.70224  0.60080  0.98039  Biso   1.000  C
  H23      1.0000 0.72821  0.59199  0.84674  Biso   1.000  H
  H24      1.0000 0.68949  0.58400  0.83659  Biso   1.000  H
  C26      1.0000 0.61168  0.61525  0.99493  Biso   1.000  C
  C27      1.0000 0.55229  0.63220  0.99038  Biso   1.000  C
  C28      1.0000 0.57831  0.60850  0.83583  Biso   1.000  C
  C29      1.0000 0.70420  0.47635  0.86309  Biso   1.000  C
  C30      1.0000 0.70815  0.51105  0.01878  Biso   1.000  C
  C31      1.0000 0.72254  0.45195  0.02703  Biso   1.000  C
  C32      1.0000 0.66747  0.61207  0.00863  Biso   1.000  C
  C33      1.0000 0.70952  0.56661  0.02029  Biso   1.000  C
  C34      1.0000 0.72773  0.62439  0.02673  Biso   1.000  C
  N4       1.0000 0.63971  0.59967  0.96199  Biso   1.000  N
  C35      1.0000 0.62152  0.63804  0.06399  Biso   1.000  C
  H25      1.0000 0.53009  0.62660  0.96509  Biso   1.000  H
  H26      1.0000 0.55860  0.65391  0.96570  Biso   1.000  H
  H27      1.0000 0.55211  0.63229  0.06459  Biso   1.000  H
  H28      1.0000 0.58529  0.63041  0.81448  Biso   1.000  H
  H29      1.0000 0.55609  0.60390  0.80887  Biso   1.000  H
  H30      1.0000 0.59411  0.59231  0.80978  Biso   1.000  H
  H31      1.0000 0.69861  0.45449  0.83757  Biso   1.000  H
  H32      1.0000 0.72741  0.48129  0.84711  Biso   1.000  H
  H33      1.0000 0.68971  0.49259  0.83121  Biso   1.000  H
  N5       1.0000 0.69617  0.53915  0.97509  Biso   1.000  N
  C36      1.0000 0.72940  0.52061  0.09412  Biso   1.000  C
  H34      1.0000 0.71750  0.43021  0.99970  Biso   1.000  H
  H35      1.0000 0.71941  0.45180  0.10064  Biso   1.000  H
  H36      1.0000 0.74560  0.45760  0.01143  Biso   1.000  H
  C37      1.0000 0.65666  0.63584  0.07300  Biso   1.000  C
  C38      1.0000 0.73027  0.55546  0.09481  Biso   1.000  C
  H37      1.0000 0.72351  0.64660  0.00220  Biso   1.000  H
  H38      1.0000 0.75020  0.61769  0.00682  Biso   1.000  H
  H39      1.0000 0.72589  0.62391  0.10071  Biso   1.000  H
  H40      1.0000 0.63909  0.58620  0.91799  Biso   1.000  H
  H41      1.0000 0.60750  0.65271  0.09958  Biso   1.000  H
  H42      1.0000 0.68221  0.53991  0.92397  Biso   1.000  H
  H43      1.0000 0.74140  0.50650  0.13812  Biso   1.000  H
  H44      1.0000 0.67030  0.64870  0.11631  Biso   1.000  H
  H45      1.0000 0.74309  0.56869  0.13933  Biso   1.000  H
  O5       1.0000 0.47674  0.44994  0.58617  Biso   1.000  O
  C39      1.0000 0.44744  0.44865  0.60298  Biso   1.000  C
  C40      1.0000 0.42835  0.41842  0.59056  Biso   1.000  C
  O6       1.0000 0.42898  0.47344  0.63706  Biso   1.000  O
  N6       1.0000 0.39503  0.41422  0.61010  Biso   1.000  N
  C41      1.0000 0.44120  0.38849  0.56149  Biso   1.000  C
  C42      1.0000 0.44632  0.50428  0.65538  Biso   1.000  C
  C43      1.0000 0.38705  0.38194  0.59481  Biso   1.000  C
  H46      1.0000 0.38069  0.43041  0.62699  Biso   1.000  H
  C44      1.0000 0.41528  0.36560  0.56338  Biso   1.000  C
  H47      1.0000 0.46359  0.38419  0.54331  Biso   1.000  H
  H48      1.0000 0.43260  0.52269  0.63077  Biso   1.000  H
  H49      1.0000 0.46750  0.50450  0.61752  Biso   1.000  H
  C45      1.0000 0.45328  0.50866  0.76836  Biso   1.000  C
  C46      1.0000 0.35527  0.36624  0.61722  Biso   1.000  C
  H50      1.0000 0.41680  0.34311  0.54642  Biso   1.000  H
  H51      1.0000 0.46300  0.48819  0.79562  Biso   1.000  H
  H52      1.0000 0.46981  0.52631  0.77760  Biso   1.000  H
  C47      1.0000 0.42194  0.51702  0.82803  Biso   1.000  C
  O7       1.0000 0.34955  0.33868  0.59632  Biso   1.000  O
  O8       1.0000 0.33390  0.38622  0.66629  Biso   1.000  O
  C48      1.0000 0.42540  0.51658  0.94601  Biso   1.000  C
  H53      1.0000 0.40430  0.50130  0.80857  Biso   1.000  H
  H54      1.0000 0.41439  0.53910  0.80721  Biso   1.000  H
  C49      1.0000 0.30194  0.37164  0.69559  Biso   1.000  C
  C50      1.0000 0.43452  0.48249  0.98167  Biso   1.000  C
  C51      1.0000 0.39274  0.52859  0.98932  Biso   1.000  C
  C52      1.0000 0.45296  0.54015  0.97827  Biso   1.000  C
  C53      1.0000 0.29975  0.36746  0.80857  Biso   1.000  C
  H55      1.0000 0.29940  0.35010  0.66227  Biso   1.000  H
  H56      1.0000 0.28360  0.38590  0.67219  Biso   1.000  H
  N7       1.0000 0.41879  0.45483  0.94669  Biso   1.000  N
  C54      1.0000 0.45974  0.47200  0.04316  Biso   1.000  C
  N8       1.0000 0.36270  0.51482  0.95979  Biso   1.000  N
  C55      1.0000 0.38501  0.55475  0.05028  Biso   1.000  C
  H57      1.0000 0.44821  0.56199  0.95154  Biso   1.000  H
  H58      1.0000 0.47430  0.53250  0.95161  Biso   1.000  H
  H59      1.0000 0.45400  0.54111  0.05240  Biso   1.000  H
  C56      1.0000 0.29433  0.39994  0.86362  Biso   1.000  C
  H60      1.0000 0.32050  0.35729  0.83348  Biso   1.000  H
  H61      1.0000 0.28119  0.35250  0.82470  Biso   1.000  H
  C57      1.0000 0.43362  0.42710  0.98349  Biso   1.000  C
  H62      1.0000 0.40261  0.45549  0.91103  Biso   1.000  H
  C58      1.0000 0.45937  0.43718  0.04339  Biso   1.000  C
  H63      1.0000 0.47480  0.48560  0.07943  Biso   1.000  H
  C59      1.0000 0.33648  0.53189  0.00197  Biso   1.000  C
  H64      1.0000 0.36019  0.49611  0.91299  Biso   1.000  H
  C60      1.0000 0.35010  0.55688  0.05740  Biso   1.000  C
  H65      1.0000 0.40050  0.56901  0.08224  Biso   1.000  H
  C61      1.0000 0.29776  0.39920  0.98039  Biso   1.000  C
  H66      1.0000 0.27179  0.40801  0.84674  Biso   1.000  H
  H67      1.0000 0.31051  0.41600  0.83659  Biso   1.000  H
  C62      1.0000 0.42251  0.39319  0.95260  Biso   1.000  C
  H68      1.0000 0.47440  0.42341  0.07883  Biso   1.000  H
  C63      1.0000 0.30077  0.52274  0.97910  Biso   1.000  C
  H69      1.0000 0.33810  0.57290  0.09443  Biso   1.000  H
  C64      1.0000 0.33253  0.38793  0.00863  Biso   1.000  C
  C65      1.0000 0.29048  0.43339  0.02029  Biso   1.000  C
  C66      1.0000 0.27227  0.37561  0.02673  Biso   1.000  C
  C67      1.0000 0.38832  0.38475  0.99493  Biso   1.000  C
  C68      1.0000 0.44771  0.36780  0.99038  Biso   1.000  C
  C69      1.0000 0.42169  0.39150  0.83583  Biso   1.000  C
  C70      1.0000 0.29185  0.48895  0.01878  Biso   1.000  C
  C71      1.0000 0.29580  0.52365  0.86309  Biso   1.000  C
  C72      1.0000 0.27746  0.54805  0.02703  Biso   1.000  C
  N9       1.0000 0.36029  0.40033  0.96199  Biso   1.000  N
  C73      1.0000 0.34334  0.36416  0.07300  Biso   1.000  C
  N10      1.0000 0.30383  0.46085  0.97509  Biso   1.000  N
  C74      1.0000 0.26973  0.44454  0.09481  Biso   1.000  C
  H70      1.0000 0.27649  0.35340  0.00220  Biso   1.000  H
  H71      1.0000 0.24980  0.38231  0.00682  Biso   1.000  H
  H72      1.0000 0.27411  0.37609  0.10071  Biso   1.000  H
  C75      1.0000 0.37848  0.36196  0.06399  Biso   1.000  C
  H73      1.0000 0.46991  0.37340  0.96509  Biso   1.000  H
  H74      1.0000 0.44140  0.34609  0.96570  Biso   1.000  H
  H75      1.0000 0.44789  0.36771  0.06459  Biso   1.000  H
  H76      1.0000 0.41471  0.36959  0.81448  Biso   1.000  H
  H77      1.0000 0.44391  0.39610  0.80887  Biso   1.000  H
  H78      1.0000 0.40589  0.40769  0.80978  Biso   1.000  H
  C76      1.0000 0.27060  0.47939  0.09412  Biso   1.000  C
  H79      1.0000 0.30139  0.54551  0.83757  Biso   1.000  H
  H80      1.0000 0.27259  0.51871  0.84711  Biso   1.000  H
  H81      1.0000 0.31029  0.50741  0.83121  Biso   1.000  H
  H82      1.0000 0.28250  0.56979  0.99970  Biso   1.000  H
  H83      1.0000 0.28059  0.54820  0.10064  Biso   1.000  H
  H84      1.0000 0.25440  0.54240  0.01143  Biso   1.000  H
  H85      1.0000 0.36091  0.41380  0.91799  Biso   1.000  H
  H86      1.0000 0.32970  0.35130  0.11631  Biso   1.000  H
  H87      1.0000 0.31779  0.46009  0.92397  Biso   1.000  H
  H88      1.0000 0.25691  0.43131  0.13933  Biso   1.000  H
  H89      1.0000 0.39250  0.34729  0.09958  Biso   1.000  H
  H90      1.0000 0.25860  0.49350  0.13812  Biso   1.000  H
  C77      1.0000 0.54975  0.38255  0.55861  Biso   1.000  C
  C78      1.0000 0.54433  0.35005  0.61358  Biso   1.000  C
  H91      1.0000 0.57050  0.39270  0.58352  Biso   1.000  H
  H92      1.0000 0.53119  0.39749  0.57466  Biso   1.000  H
  C79      1.0000 0.55194  0.37837  0.44563  Biso   1.000  C
  C80      1.0000 0.54776  0.35078  0.73043  Biso   1.000  C
  H93      1.0000 0.52179  0.34201  0.59670  Biso   1.000  H
  H94      1.0000 0.56051  0.33401  0.58663  Biso   1.000  H
  O9       1.0000 0.58390  0.36379  0.41633  Biso   1.000  O
  H95      1.0000 0.54940  0.39991  0.41231  Biso   1.000  H
  H96      1.0000 0.53360  0.36411  0.42223  Biso   1.000  H
  C81      1.0000 0.54048  0.31660  0.77033  Biso   1.000  C
  C82      1.0000 0.58253  0.36206  0.75859  Biso   1.000  C
  C83      1.0000 0.52227  0.37438  0.77669  Biso   1.000  C
  C84      1.0000 0.60527  0.38375  0.36718  Biso   1.000  C
  N11      1.0000 0.55383  0.28916  0.72512  Biso   1.000  N
  C85      1.0000 0.51973  0.30545  0.84477  Biso   1.000  C
  N12      1.0000 0.61029  0.34968  0.71202  Biso   1.000  N
  C86      1.0000 0.59334  0.38585  0.82303  Biso   1.000  C
  H97      1.0000 0.52649  0.39661  0.75223  Biso   1.000  H
  H98      1.0000 0.49980  0.36771  0.75678  Biso   1.000  H
  H99      1.0000 0.52411  0.37389  0.85067  Biso   1.000  H
  O10      1.0000 0.59955  0.41133  0.34628  Biso   1.000  O
  C87      1.0000 0.63705  0.36805  0.34477  Biso   1.000  C
  C88      1.0000 0.54185  0.26104  0.76882  Biso   1.000  C
  H100     1.0000 0.56779  0.28990  0.67401  Biso   1.000  H
  C89      1.0000 0.52060  0.27060  0.84409  Biso   1.000  C
  H101     1.0000 0.50691  0.31870  0.88929  Biso   1.000  H
  C90      1.0000 0.63832  0.36526  0.74489  Biso   1.000  C
  H102     1.0000 0.61091  0.33621  0.66803  Biso   1.000  H
  C91      1.0000 0.62848  0.38805  0.81402  Biso   1.000  C
  H103     1.0000 0.57970  0.39869  0.86627  Biso   1.000  H
  N13      1.0000 0.64503  0.33579  0.36006  Biso   1.000  N
  C92      1.0000 0.66528  0.38441  0.31342  Biso   1.000  C
  C93      1.0000 0.55077  0.22727  0.72906  Biso   1.000  C
  H104     1.0000 0.50860  0.25649  0.88808  Biso   1.000  H
  C94      1.0000 0.67251  0.35682  0.70264  Biso   1.000  C
  H105     1.0000 0.64250  0.40270  0.84961  Biso   1.000  H
  C95      1.0000 0.67835  0.33159  0.34060  Biso   1.000  C
  H106     1.0000 0.63069  0.31961  0.37703  Biso   1.000  H
  C96      1.0000 0.69120  0.36150  0.31153  Biso   1.000  C
  H107     1.0000 0.66680  0.40691  0.29638  Biso   1.000  H
  C97      1.0000 0.54580  0.22634  0.61313  Biso   1.000  C
  C98      1.0000 0.58648  0.21812  0.75201  Biso   1.000  C
  C99      1.0000 0.52746  0.20196  0.77700  Biso   1.000  C
  C100     1.0000 0.68362  0.32288  0.73353  Biso   1.000  C
  C101     1.0000 0.69771  0.38218  0.74042  Biso   1.000  C
  C102     1.0000 0.67169  0.35849  0.58579  Biso   1.000  C
  C103     1.0000 0.69744  0.30134  0.35302  Biso   1.000  C
  H108     1.0000 0.71359  0.36580  0.29328  Biso   1.000  H
  H109     1.0000 0.55139  0.20450  0.58761  Biso   1.000  H
  H110     1.0000 0.52259  0.23131  0.59708  Biso   1.000  H
  H111     1.0000 0.56029  0.24260  0.58118  Biso   1.000  H
  N14      1.0000 0.61270  0.23517  0.70983  Biso   1.000  N
  C104     1.0000 0.60010  0.19313  0.80744  Biso   1.000  C
  H112     1.0000 0.53059  0.20179  0.85060  Biso   1.000  H
  H113     1.0000 0.50440  0.20761  0.76140  Biso   1.000  H
  H114     1.0000 0.53250  0.18020  0.74973  Biso   1.000  H
  N15      1.0000 0.66879  0.29515  0.69673  Biso   1.000  N
  C105     1.0000 0.70937  0.31281  0.79343  Biso   1.000  C
  H115     1.0000 0.69789  0.38231  0.81463  Biso   1.000  H
  H116     1.0000 0.71991  0.37661  0.71513  Biso   1.000  H
  H117     1.0000 0.69140  0.40390  0.71574  Biso   1.000  H
  H118     1.0000 0.66471  0.38040  0.56452  Biso   1.000  H
  H119     1.0000 0.69391  0.35389  0.55891  Biso   1.000  H
  H120     1.0000 0.65589  0.34230  0.55982  Biso   1.000  H
  O11      1.0000 0.67898  0.27654  0.38702  Biso   1.000  O
  O12      1.0000 0.72674  0.30004  0.33621  Biso   1.000  O
  C106     1.0000 0.64274  0.22140  0.73929  Biso   1.000  C
  H121     1.0000 0.61019  0.25390  0.66303  Biso   1.000  H
  H122     1.0000 0.58810  0.17709  0.84439  Biso   1.000  H
  C107     1.0000 0.63501  0.19524  0.80032  Biso   1.000  C
  C108     1.0000 0.68452  0.26752  0.73171  Biso   1.000  C
  H123     1.0000 0.65261  0.29449  0.66099  Biso   1.000  H
  C109     1.0000 0.70974  0.27801  0.79320  Biso   1.000  C
  H124     1.0000 0.72440  0.32660  0.82879  Biso   1.000  H
  C110     1.0000 0.69632  0.24571  0.40542  Biso   1.000  C
  C111     1.0000 0.67540  0.23341  0.69597  Biso   1.000  C
  H125     1.0000 0.65050  0.18100  0.83220  Biso   1.000  H
  H126     1.0000 0.72480  0.26439  0.82940  Biso   1.000  H
  C112     1.0000 0.70328  0.24136  0.51840  Biso   1.000  C
  H127     1.0000 0.68260  0.22729  0.38081  Biso   1.000  H
  H128     1.0000 0.71750  0.24549  0.36748  Biso   1.000  H
  C113     1.0000 0.70296  0.20984  0.72831  Biso   1.000  C
  C114     1.0000 0.67194  0.23299  0.57799  Biso   1.000  C
  H129     1.0000 0.71300  0.26180  0.54559  Biso   1.000  H
  H130     1.0000 0.71981  0.22370  0.52756  Biso   1.000  H
  H131     1.0000 0.69821  0.18800  0.70150  Biso   1.000  H
  H132     1.0000 0.72430  0.21749  0.70158  Biso   1.000  H
  H133     1.0000 0.70400  0.20891  0.80236  Biso   1.000  H
  H134     1.0000 0.65430  0.24869  0.55861  Biso   1.000  H
  H135     1.0000 0.66439  0.21091  0.55717  Biso   1.000  H
  C115     1.0000 0.45025  0.61745  0.55861  Biso   1.000  C
  C116     1.0000 0.44806  0.62163  0.44563  Biso   1.000  C
  C117     1.0000 0.45567  0.64995  0.61358  Biso   1.000  C
  H136     1.0000 0.42950  0.60730  0.58352  Biso   1.000  H
  H137     1.0000 0.46881  0.60251  0.57466  Biso   1.000  H
  O13      1.0000 0.41610  0.63621  0.41633  Biso   1.000  O
  H138     1.0000 0.45060  0.60009  0.41231  Biso   1.000  H
  H139     1.0000 0.46640  0.63589  0.42223  Biso   1.000  H
  C118     1.0000 0.45224  0.64922  0.73043  Biso   1.000  C
  H140     1.0000 0.47821  0.65799  0.59670  Biso   1.000  H
  H141     1.0000 0.43949  0.66599  0.58663  Biso   1.000  H
  C119     1.0000 0.39473  0.61625  0.36718  Biso   1.000  C
  C120     1.0000 0.41747  0.63794  0.75859  Biso   1.000  C
  C121     1.0000 0.45952  0.68340  0.77033  Biso   1.000  C
  C122     1.0000 0.47773  0.62562  0.77669  Biso   1.000  C
  O14      1.0000 0.40045  0.58867  0.34628  Biso   1.000  O
  C123     1.0000 0.36295  0.63195  0.34477  Biso   1.000  C
  N16      1.0000 0.38971  0.65032  0.71202  Biso   1.000  N
  C124     1.0000 0.40666  0.61415  0.82303  Biso   1.000  C
  N17      1.0000 0.44617  0.71084  0.72512  Biso   1.000  N
  C125     1.0000 0.48027  0.69455  0.84477  Biso   1.000  C
  H142     1.0000 0.47351  0.60339  0.75223  Biso   1.000  H
  H143     1.0000 0.50020  0.63229  0.75678  Biso   1.000  H
  H144     1.0000 0.47589  0.62611  0.85067  Biso   1.000  H
  N18      1.0000 0.35497  0.66421  0.36006  Biso   1.000  N
  C126     1.0000 0.33472  0.61559  0.31342  Biso   1.000  C
  C127     1.0000 0.36168  0.63474  0.74489  Biso   1.000  C
  H145     1.0000 0.38909  0.66379  0.66803  Biso   1.000  H
  C128     1.0000 0.37152  0.61195  0.81402  Biso   1.000  C
  H146     1.0000 0.42030  0.60131  0.86627  Biso   1.000  H
  C129     1.0000 0.45815  0.73896  0.76882  Biso   1.000  C
  H147     1.0000 0.43221  0.71010  0.67401  Biso   1.000  H
  H148     1.0000 0.49309  0.68130  0.88929  Biso   1.000  H
  C130     1.0000 0.47940  0.72940  0.84409  Biso   1.000  C
  C131     1.0000 0.32165  0.66841  0.34060  Biso   1.000  C
  H149     1.0000 0.36931  0.68039  0.37703  Biso   1.000  H
  H150     1.0000 0.33320  0.59309  0.29638  Biso   1.000  H
  C132     1.0000 0.30880  0.63850  0.31153  Biso   1.000  C
  C133     1.0000 0.32749  0.64318  0.70264  Biso   1.000  C
  H151     1.0000 0.35750  0.59730  0.84961  Biso   1.000  H
  C134     1.0000 0.44923  0.77273  0.72906  Biso   1.000  C
  H152     1.0000 0.49140  0.74351  0.88808  Biso   1.000  H
  C135     1.0000 0.30256  0.69866  0.35302  Biso   1.000  C
  H153     1.0000 0.28641  0.63420  0.29328  Biso   1.000  H
  C136     1.0000 0.31638  0.67712  0.73353  Biso   1.000  C
  C137     1.0000 0.30229  0.61782  0.74042  Biso   1.000  C
  C138     1.0000 0.32831  0.64151  0.58579  Biso   1.000  C
  C139     1.0000 0.41352  0.78188  0.75201  Biso   1.000  C
  C140     1.0000 0.47254  0.79804  0.77700  Biso   1.000  C
  C141     1.0000 0.45420  0.77366  0.61313  Biso   1.000  C
  O15      1.0000 0.27326  0.69996  0.33621  Biso   1.000  O
  O16      1.0000 0.32102  0.72346  0.38702  Biso   1.000  O
  N19      1.0000 0.33121  0.70485  0.69673  Biso   1.000  N
  C142     1.0000 0.29063  0.68719  0.79343  Biso   1.000  C
  H154     1.0000 0.30211  0.61769  0.81463  Biso   1.000  H
  H155     1.0000 0.28009  0.62339  0.71513  Biso   1.000  H
  H156     1.0000 0.30860  0.59610  0.71574  Biso   1.000  H
  H157     1.0000 0.33529  0.61960  0.56452  Biso   1.000  H
  H158     1.0000 0.30609  0.64611  0.55891  Biso   1.000  H
  H159     1.0000 0.34411  0.65770  0.55982  Biso   1.000  H
  N20      1.0000 0.38730  0.76483  0.70983  Biso   1.000  N
  C143     1.0000 0.39990  0.80687  0.80744  Biso   1.000  C
  H160     1.0000 0.46941  0.79821  0.85060  Biso   1.000  H
  H161     1.0000 0.49560  0.79239  0.76140  Biso   1.000  H
  H162     1.0000 0.46750  0.81980  0.74973  Biso   1.000  H
  H163     1.0000 0.44861  0.79550  0.58761  Biso   1.000  H
  H164     1.0000 0.47741  0.76869  0.59708  Biso   1.000  H
  H165     1.0000 0.43971  0.75740  0.58118  Biso   1.000  H
  C144     1.0000 0.30368  0.75429  0.40542  Biso   1.000  C
  C145     1.0000 0.31548  0.73248  0.73171  Biso   1.000  C
  H166     1.0000 0.34739  0.70551  0.66099  Biso   1.000  H
  C146     1.0000 0.29026  0.72199  0.79320  Biso   1.000  C
  H167     1.0000 0.27560  0.67340  0.82879  Biso   1.000  H
  C147     1.0000 0.35726  0.77860  0.73929  Biso   1.000  C
  H168     1.0000 0.38981  0.74610  0.66303  Biso   1.000  H
  C148     1.0000 0.36499  0.80476  0.80032  Biso   1.000  C
  H169     1.0000 0.41190  0.82291  0.84439  Biso   1.000  H
  H170     1.0000 0.31740  0.77271  0.38081  Biso   1.000  H
  H171     1.0000 0.28250  0.75451  0.36748  Biso   1.000  H
  C149     1.0000 0.29672  0.75864  0.51840  Biso   1.000  C
  C150     1.0000 0.32460  0.76659  0.69597  Biso   1.000  C
  H172     1.0000 0.27520  0.73561  0.82940  Biso   1.000  H
  H173     1.0000 0.34950  0.81900  0.83220  Biso   1.000  H
  H174     1.0000 0.28700  0.73820  0.54559  Biso   1.000  H
  H175     1.0000 0.28019  0.77630  0.52756  Biso   1.000  H
  C151     1.0000 0.32806  0.76701  0.57799  Biso   1.000  C
  C152     1.0000 0.29704  0.79016  0.72831  Biso   1.000  C
  H176     1.0000 0.34570  0.75131  0.55861  Biso   1.000  H
  H177     1.0000 0.33561  0.78909  0.55717  Biso   1.000  H
  H178     1.0000 0.30179  0.81200  0.70150  Biso   1.000  H
  H179     1.0000 0.27570  0.78251  0.70158  Biso   1.000  H
  H180     1.0000 0.29600  0.79109  0.80236  Biso   1.000  H
  C153     1.0000 0.52746  0.70196  0.27700  Biso   1.000  C
  C154     1.0000 0.55077  0.72727  0.22906  Biso   1.000  C
  H181     1.0000 0.53059  0.70179  0.35060  Biso   1.000  H
  H182     1.0000 0.50440  0.70761  0.26140  Biso   1.000  H
  H183     1.0000 0.53250  0.68020  0.24973  Biso   1.000  H
  C155     1.0000 0.54185  0.76104  0.26882  Biso   1.000  C
  C156     1.0000 0.58648  0.71812  0.25201  Biso   1.000  C
  C157     1.0000 0.54580  0.72634  0.11313  Biso   1.000  C
  N21      1.0000 0.55383  0.78916  0.22512  Biso   1.000  N
  C158     1.0000 0.52060  0.77060  0.34409  Biso   1.000  C
  N22      1.0000 0.61270  0.73517  0.20983  Biso   1.000  N
  C159     1.0000 0.60010  0.69313  0.30744  Biso   1.000  C
  H184     1.0000 0.55139  0.70450  0.08761  Biso   1.000  H
  H185     1.0000 0.52259  0.73131  0.09708  Biso   1.000  H
  H186     1.0000 0.56029  0.74260  0.08118  Biso   1.000  H
  C160     1.0000 0.54048  0.81660  0.27033  Biso   1.000  C
  H187     1.0000 0.56779  0.78990  0.17401  Biso   1.000  H
  C161     1.0000 0.51973  0.80545  0.34477  Biso   1.000  C
  H188     1.0000 0.50860  0.75649  0.38808  Biso   1.000  H
  C162     1.0000 0.64274  0.72140  0.23929  Biso   1.000  C
  H189     1.0000 0.61019  0.75390  0.16303  Biso   1.000  H
  H190     1.0000 0.58810  0.67709  0.34439  Biso   1.000  H
  C163     1.0000 0.63501  0.69524  0.30032  Biso   1.000  C
  C164     1.0000 0.54776  0.85078  0.23043  Biso   1.000  C
  H191     1.0000 0.50691  0.81870  0.38929  Biso   1.000  H
  C165     1.0000 0.67540  0.73341  0.19597  Biso   1.000  C
  H192     1.0000 0.65050  0.68100  0.33220  Biso   1.000  H
  C166     1.0000 0.58253  0.86206  0.25859  Biso   1.000  C
  C167     1.0000 0.52227  0.87438  0.27669  Biso   1.000  C
  C168     1.0000 0.54433  0.85005  0.11358  Biso   1.000  C
  C169     1.0000 0.68452  0.76752  0.23171  Biso   1.000  C
  C170     1.0000 0.70296  0.70984  0.22831  Biso   1.000  C
  C171     1.0000 0.67194  0.73299  0.07799  Biso   1.000  C
  N23      1.0000 0.61029  0.84968  0.21202  Biso   1.000  N
  C172     1.0000 0.59334  0.88585  0.32303  Biso   1.000  C
  H193     1.0000 0.52649  0.89661  0.25223  Biso   1.000  H
  H194     1.0000 0.49980  0.86771  0.25678  Biso   1.000  H
  H195     1.0000 0.52411  0.87389  0.35067  Biso   1.000  H
  H196     1.0000 0.52179  0.84201  0.09670  Biso   1.000  H
  H197     1.0000 0.56051  0.83401  0.08663  Biso   1.000  H
  C173     1.0000 0.54975  0.88255  0.05861  Biso   1.000  C
  N24      1.0000 0.66879  0.79515  0.19673  Biso   1.000  N
  C174     1.0000 0.70974  0.77801  0.29320  Biso   1.000  C
  H198     1.0000 0.69821  0.68800  0.20150  Biso   1.000  H
  H199     1.0000 0.72430  0.71749  0.20158  Biso   1.000  H
  H200     1.0000 0.70400  0.70891  0.30236  Biso   1.000  H
  C175     1.0000 0.70328  0.74136  0.01840  Biso   1.000  C
  H201     1.0000 0.65430  0.74869  0.05861  Biso   1.000  H
  H202     1.0000 0.66439  0.71091  0.05717  Biso   1.000  H
  C176     1.0000 0.63832  0.86526  0.24489  Biso   1.000  C
  H203     1.0000 0.61091  0.83621  0.16803  Biso   1.000  H
  C177     1.0000 0.62848  0.88805  0.31402  Biso   1.000  C
  H204     1.0000 0.57970  0.89869  0.36627  Biso   1.000  H
  H205     1.0000 0.57050  0.89270  0.08352  Biso   1.000  H
  H206     1.0000 0.53119  0.89749  0.07466  Biso   1.000  H
  C178     1.0000 0.55194  0.87837  0.94563  Biso   1.000  C
  C179     1.0000 0.68362  0.82288  0.23353  Biso   1.000  C
  H207     1.0000 0.65261  0.79449  0.16099  Biso   1.000  H
  H208     1.0000 0.72480  0.76439  0.32940  Biso   1.000  H
  C180     1.0000 0.70937  0.81281  0.29343  Biso   1.000  C
  H209     1.0000 0.71300  0.76180  0.04559  Biso   1.000  H
  H210     1.0000 0.71981  0.72370  0.02756  Biso   1.000  H
  C181     1.0000 0.69632  0.74571  0.90542  Biso   1.000  C
  C182     1.0000 0.67251  0.85682  0.20264  Biso   1.000  C
  H211     1.0000 0.64250  0.90270  0.34961  Biso   1.000  H
  O17      1.0000 0.58390  0.86379  0.91633  Biso   1.000  O
  H212     1.0000 0.54940  0.89991  0.91231  Biso   1.000  H
  H213     1.0000 0.53360  0.86411  0.92223  Biso   1.000  H
  H214     1.0000 0.72440  0.82660  0.32879  Biso   1.000  H
  O18      1.0000 0.67898  0.77654  0.88702  Biso   1.000  O
  H215     1.0000 0.68260  0.72729  0.88081  Biso   1.000  H
  H216     1.0000 0.71750  0.74549  0.86748  Biso   1.000  H
  C183     1.0000 0.69771  0.88218  0.24042  Biso   1.000  C
  C184     1.0000 0.67169  0.85849  0.08579  Biso   1.000  C
  C185     1.0000 0.60527  0.88375  0.86718  Biso   1.000  C
  C186     1.0000 0.69744  0.80134  0.85302  Biso   1.000  C
  H217     1.0000 0.69789  0.88231  0.31463  Biso   1.000  H
  H218     1.0000 0.71991  0.87661  0.21513  Biso   1.000  H
  H219     1.0000 0.69140  0.90390  0.21574  Biso   1.000  H
  H220     1.0000 0.66471  0.88040  0.06452  Biso   1.000  H
  H221     1.0000 0.69391  0.85389  0.05891  Biso   1.000  H
  H222     1.0000 0.65589  0.84230  0.05982  Biso   1.000  H
  O19      1.0000 0.59955  0.91133  0.84628  Biso   1.000  O
  C187     1.0000 0.63705  0.86805  0.84477  Biso   1.000  C
  O20      1.0000 0.72674  0.80004  0.83621  Biso   1.000  O
  C188     1.0000 0.67835  0.83159  0.84060  Biso   1.000  C
  N25      1.0000 0.64503  0.83579  0.86006  Biso   1.000  N
  C189     1.0000 0.66528  0.88441  0.81342  Biso   1.000  C
  C190     1.0000 0.69120  0.86150  0.81153  Biso   1.000  C
  H223     1.0000 0.63069  0.81961  0.87703  Biso   1.000  H
  H224     1.0000 0.66680  0.90691  0.79638  Biso   1.000  H
  H225     1.0000 0.71359  0.86580  0.79328  Biso   1.000  H
  C191     1.0000 0.47254  0.29804  0.27700  Biso   1.000  C
  C192     1.0000 0.44923  0.27273  0.22906  Biso   1.000  C
  H226     1.0000 0.46941  0.29821  0.35060  Biso   1.000  H
  H227     1.0000 0.49560  0.29239  0.26140  Biso   1.000  H
  H228     1.0000 0.46750  0.31980  0.24973  Biso   1.000  H
  C193     1.0000 0.41352  0.28188  0.25201  Biso   1.000  C
  C194     1.0000 0.45815  0.23896  0.26882  Biso   1.000  C
  C195     1.0000 0.45420  0.27366  0.11313  Biso   1.000  C
  N26      1.0000 0.38730  0.26483  0.20983  Biso   1.000  N
  C196     1.0000 0.39990  0.30687  0.30744  Biso   1.000  C
  N27      1.0000 0.44617  0.21084  0.22512  Biso   1.000  N
  C197     1.0000 0.47940  0.22940  0.34409  Biso   1.000  C
  H229     1.0000 0.44861  0.29550  0.08761  Biso   1.000  H
  H230     1.0000 0.47741  0.26869  0.09708  Biso   1.000  H
  H231     1.0000 0.43971  0.25740  0.08118  Biso   1.000  H
  C198     1.0000 0.35726  0.27860  0.23929  Biso   1.000  C
  H232     1.0000 0.38981  0.24610  0.16303  Biso   1.000  H
  C199     1.0000 0.36499  0.30476  0.30032  Biso   1.000  C
  H233     1.0000 0.41190  0.32291  0.34439  Biso   1.000  H
  C200     1.0000 0.45952  0.18340  0.27033  Biso   1.000  C
  H234     1.0000 0.43221  0.21010  0.17401  Biso   1.000  H
  C201     1.0000 0.48027  0.19455  0.34477  Biso   1.000  C
  H235     1.0000 0.49140  0.24351  0.38808  Biso   1.000  H
  C202     1.0000 0.32460  0.26659  0.19597  Biso   1.000  C
  H236     1.0000 0.34950  0.31900  0.33220  Biso   1.000  H
  C203     1.0000 0.45224  0.14922  0.23043  Biso   1.000  C
  H237     1.0000 0.49309  0.18130  0.38929  Biso   1.000  H
  C204     1.0000 0.31548  0.23248  0.23171  Biso   1.000  C
  C205     1.0000 0.29704  0.29016  0.22831  Biso   1.000  C
  C206     1.0000 0.32806  0.26701  0.07799  Biso   1.000  C
  C207     1.0000 0.41747  0.13794  0.25859  Biso   1.000  C
  C208     1.0000 0.47773  0.12562  0.27669  Biso   1.000  C
  C209     1.0000 0.45567  0.14995  0.11358  Biso   1.000  C
  C210     1.0000 0.29026  0.22199  0.29320  Biso   1.000  C
  N28      1.0000 0.33121  0.20485  0.19673  Biso   1.000  N
  H238     1.0000 0.30179  0.31200  0.20150  Biso   1.000  H
  H239     1.0000 0.27570  0.28251  0.20158  Biso   1.000  H
  H240     1.0000 0.29600  0.29109  0.30236  Biso   1.000  H
  C211     1.0000 0.29672  0.25864  0.01840  Biso   1.000  C
  H241     1.0000 0.34570  0.25131  0.05861  Biso   1.000  H
  H242     1.0000 0.33561  0.28909  0.05717  Biso   1.000  H
  N29      1.0000 0.38971  0.15032  0.21202  Biso   1.000  N
  C212     1.0000 0.40666  0.11415  0.32303  Biso   1.000  C
  H243     1.0000 0.47351  0.10339  0.25223  Biso   1.000  H
  H244     1.0000 0.50020  0.13229  0.25678  Biso   1.000  H
  H245     1.0000 0.47589  0.12611  0.35067  Biso   1.000  H
  H246     1.0000 0.47821  0.15799  0.09670  Biso   1.000  H
  H247     1.0000 0.43949  0.16599  0.08663  Biso   1.000  H
  C213     1.0000 0.45025  0.11745  0.05861  Biso   1.000  C
  H248     1.0000 0.27520  0.23561  0.32940  Biso   1.000  H
  C214     1.0000 0.29063  0.18719  0.29343  Biso   1.000  C
  C215     1.0000 0.31638  0.17712  0.23353  Biso   1.000  C
  H249     1.0000 0.34739  0.20551  0.16099  Biso   1.000  H
  H250     1.0000 0.28700  0.23820  0.04559  Biso   1.000  H
  H251     1.0000 0.28019  0.27630  0.02756  Biso   1.000  H
  C216     1.0000 0.30368  0.25429  0.90542  Biso   1.000  C
  C217     1.0000 0.36168  0.13474  0.24489  Biso   1.000  C
  H252     1.0000 0.38909  0.16379  0.16803  Biso   1.000  H
  C218     1.0000 0.37152  0.11195  0.31402  Biso   1.000  C
  H253     1.0000 0.42030  0.10131  0.36627  Biso   1.000  H
  H254     1.0000 0.42950  0.10730  0.08352  Biso   1.000  H
  H255     1.0000 0.46881  0.10251  0.07466  Biso   1.000  H
  C219     1.0000 0.44806  0.12163  0.94563  Biso   1.000  C
  H256     1.0000 0.27560  0.17340  0.32879  Biso   1.000  H
  C220     1.0000 0.32749  0.14318  0.20264  Biso   1.000  C
  O21      1.0000 0.32102  0.22346  0.88702  Biso   1.000  O
  H257     1.0000 0.31740  0.27271  0.88081  Biso   1.000  H
  H258     1.0000 0.28250  0.25451  0.86748  Biso   1.000  H
  H259     1.0000 0.35750  0.09730  0.34961  Biso   1.000  H
  O22      1.0000 0.41610  0.13621  0.91633  Biso   1.000  O
  H260     1.0000 0.45060  0.10009  0.91231  Biso   1.000  H
  H261     1.0000 0.46640  0.13589  0.92223  Biso   1.000  H
  C221     1.0000 0.30229  0.11782  0.24042  Biso   1.000  C
  C222     1.0000 0.32831  0.14151  0.08579  Biso   1.000  C
  C223     1.0000 0.30256  0.19866  0.85302  Biso   1.000  C
  C224     1.0000 0.39473  0.11625  0.86718  Biso   1.000  C
  H262     1.0000 0.30211  0.11769  0.31463  Biso   1.000  H
  H263     1.0000 0.28009  0.12339  0.21513  Biso   1.000  H
  H264     1.0000 0.30860  0.09610  0.21574  Biso   1.000  H
  H265     1.0000 0.33529  0.11960  0.06452  Biso   1.000  H
  H266     1.0000 0.30609  0.14611  0.05891  Biso   1.000  H
  H267     1.0000 0.34411  0.15770  0.05982  Biso   1.000  H
  O23      1.0000 0.27326  0.19996  0.83621  Biso   1.000  O
  C225     1.0000 0.32165  0.16841  0.84060  Biso   1.000  C
  C226     1.0000 0.36295  0.13195  0.84477  Biso   1.000  C
  O24      1.0000 0.40045  0.08867  0.84628  Biso   1.000  O
  N30      1.0000 0.35497  0.16421  0.86006  Biso   1.000  N
  C227     1.0000 0.30880  0.13850  0.81153  Biso   1.000  C
  C228     1.0000 0.33472  0.11559  0.81342  Biso   1.000  C
  H268     1.0000 0.36931  0.18039  0.87703  Biso   1.000  H
  H269     1.0000 0.28641  0.13420  0.79328  Biso   1.000  H
  H270     1.0000 0.33320  0.09309  0.79638  Biso   1.000  H
  C229     1.0000 0.77060  0.47939  0.59412  Biso   1.000  C
  C230     1.0000 0.76973  0.44454  0.59481  Biso   1.000  C
  C231     1.0000 0.79185  0.48895  0.51878  Biso   1.000  C
  H271     1.0000 0.75860  0.49350  0.63812  Biso   1.000  H
  C232     1.0000 0.79048  0.43339  0.52029  Biso   1.000  C
  H272     1.0000 0.75691  0.43131  0.63933  Biso   1.000  H
  N31      1.0000 0.80383  0.46085  0.47509  Biso   1.000  N
  C233     1.0000 0.80077  0.52274  0.47910  Biso   1.000  C
  C234     1.0000 0.79776  0.39920  0.48039  Biso   1.000  C
  H273     1.0000 0.81779  0.46009  0.42397  Biso   1.000  H
  C235     1.0000 0.83648  0.53189  0.50197  Biso   1.000  C
  C236     1.0000 0.77746  0.54805  0.52703  Biso   1.000  C
  C237     1.0000 0.79580  0.52365  0.36309  Biso   1.000  C
  C238     1.0000 0.77227  0.37561  0.52673  Biso   1.000  C
  C239     1.0000 0.83253  0.38793  0.50863  Biso   1.000  C
  C240     1.0000 0.79433  0.39994  0.36362  Biso   1.000  C
  N32      1.0000 0.86270  0.51482  0.45979  Biso   1.000  N
  C241     1.0000 0.85010  0.55688  0.55740  Biso   1.000  C
  H274     1.0000 0.78059  0.54820  0.60064  Biso   1.000  H
  H275     1.0000 0.75440  0.54240  0.51143  Biso   1.000  H
  H276     1.0000 0.78250  0.56979  0.49970  Biso   1.000  H
  H277     1.0000 0.80139  0.54551  0.33757  Biso   1.000  H
  H278     1.0000 0.77259  0.51871  0.34711  Biso   1.000  H
  H279     1.0000 0.81029  0.50741  0.33121  Biso   1.000  H
  H280     1.0000 0.77649  0.35340  0.50220  Biso   1.000  H
  H281     1.0000 0.74980  0.38231  0.50682  Biso   1.000  H
  H282     1.0000 0.77411  0.37609  0.60071  Biso   1.000  H
  N33      1.0000 0.86029  0.40033  0.46199  Biso   1.000  N
  C242     1.0000 0.84334  0.36416  0.57300  Biso   1.000  C
  H283     1.0000 0.77179  0.40801  0.34674  Biso   1.000  H
  H284     1.0000 0.81051  0.41600  0.33659  Biso   1.000  H
  C243     1.0000 0.79975  0.36746  0.30857  Biso   1.000  C
  C244     1.0000 0.89274  0.52859  0.48932  Biso   1.000  C
  H285     1.0000 0.86019  0.49611  0.41299  Biso   1.000  H
  H286     1.0000 0.83810  0.57290  0.59443  Biso   1.000  H
  C245     1.0000 0.88501  0.55475  0.55028  Biso   1.000  C
  C246     1.0000 0.88832  0.38475  0.49493  Biso   1.000  C
  H287     1.0000 0.86091  0.41380  0.41799  Biso   1.000  H
  C247     1.0000 0.87848  0.36196  0.56399  Biso   1.000  C
  H288     1.0000 0.82970  0.35130  0.61631  Biso   1.000  H
  H289     1.0000 0.82050  0.35729  0.33348  Biso   1.000  H
  H290     1.0000 0.78119  0.35250  0.32470  Biso   1.000  H
  C248     1.0000 0.80194  0.37164  0.19559  Biso   1.000  C
  C249     1.0000 0.92540  0.51658  0.44601  Biso   1.000  C
  H291     1.0000 0.90050  0.56901  0.58224  Biso   1.000  H
  C250     1.0000 0.92251  0.39319  0.45260  Biso   1.000  C
  H292     1.0000 0.89250  0.34729  0.59958  Biso   1.000  H
  O25      1.0000 0.83390  0.38622  0.16629  Biso   1.000  O
  H293     1.0000 0.79940  0.35010  0.16227  Biso   1.000  H
  H294     1.0000 0.78360  0.38590  0.17219  Biso   1.000  H
  C251     1.0000 0.93452  0.48249  0.48167  Biso   1.000  C
  C252     1.0000 0.95296  0.54015  0.47827  Biso   1.000  C
  C253     1.0000 0.92194  0.51702  0.32803  Biso   1.000  C
  C254     1.0000 0.93362  0.42710  0.48349  Biso   1.000  C
  C255     1.0000 0.94771  0.36780  0.49038  Biso   1.000  C
  C256     1.0000 0.92169  0.39150  0.33583  Biso   1.000  C
  C257     1.0000 0.85527  0.36624  0.11722  Biso   1.000  C
  N34      1.0000 0.91879  0.45483  0.44669  Biso   1.000  N
  C258     1.0000 0.95974  0.47200  0.54316  Biso   1.000  C
  H295     1.0000 0.94821  0.56199  0.45154  Biso   1.000  H
  H296     1.0000 0.97430  0.53250  0.45161  Biso   1.000  H
  H297     1.0000 0.95400  0.54111  0.55240  Biso   1.000  H
  C259     1.0000 0.95328  0.50866  0.26836  Biso   1.000  C
  H298     1.0000 0.90430  0.50130  0.30857  Biso   1.000  H
  H299     1.0000 0.91439  0.53910  0.30721  Biso   1.000  H
  C260     1.0000 0.95937  0.43718  0.54339  Biso   1.000  C
  H300     1.0000 0.94789  0.36771  0.56459  Biso   1.000  H
  H301     1.0000 0.96991  0.37340  0.46509  Biso   1.000  H
  H302     1.0000 0.94140  0.34609  0.46570  Biso   1.000  H
  H303     1.0000 0.91471  0.36959  0.31448  Biso   1.000  H
  H304     1.0000 0.94391  0.39610  0.30887  Biso   1.000  H
  H305     1.0000 0.90589  0.40769  0.30978  Biso   1.000  H
  O26      1.0000 0.84955  0.33868  0.09632  Biso   1.000  O
  C261     1.0000 0.88705  0.38194  0.09481  Biso   1.000  C
  H306     1.0000 0.90261  0.45549  0.41103  Biso   1.000  H
  H307     1.0000 0.97480  0.48560  0.57943  Biso   1.000  H
  C262     1.0000 0.94632  0.50428  0.15538  Biso   1.000  C
  H308     1.0000 0.96300  0.48819  0.29562  Biso   1.000  H
  H309     1.0000 0.96981  0.52631  0.27760  Biso   1.000  H
  H310     1.0000 0.97440  0.42341  0.57883  Biso   1.000  H
  N35      1.0000 0.89503  0.41422  0.11010  Biso   1.000  N
  C263     1.0000 0.91528  0.36560  0.06338  Biso   1.000  C
  O27      1.0000 0.92898  0.47344  0.13706  Biso   1.000  O
  H311     1.0000 0.93260  0.52269  0.13077  Biso   1.000  H
  H312     1.0000 0.96750  0.50450  0.11752  Biso   1.000  H
  C264     1.0000 0.92835  0.41842  0.09056  Biso   1.000  C
  H313     1.0000 0.88069  0.43041  0.12699  Biso   1.000  H
  H314     1.0000 0.91680  0.34311  0.04642  Biso   1.000  H
  C265     1.0000 0.94120  0.38849  0.06149  Biso   1.000  C
  C266     1.0000 0.94744  0.44865  0.10298  Biso   1.000  C
  H315     1.0000 0.96359  0.38419  0.04331  Biso   1.000  H
  O28      1.0000 0.97674  0.44994  0.08617  Biso   1.000  O
  C267     1.0000 0.22940  0.52061  0.59412  Biso   1.000  C
  C268     1.0000 0.20815  0.51105  0.51878  Biso   1.000  C
  C269     1.0000 0.23027  0.55546  0.59481  Biso   1.000  C
  H316     1.0000 0.24140  0.50650  0.63812  Biso   1.000  H
  C270     1.0000 0.19923  0.47726  0.47910  Biso   1.000  C
  N36      1.0000 0.19617  0.53915  0.47509  Biso   1.000  N
  C271     1.0000 0.20952  0.56661  0.52029  Biso   1.000  C
  H317     1.0000 0.24309  0.56869  0.63933  Biso   1.000  H
  C272     1.0000 0.22254  0.45195  0.52703  Biso   1.000  C
  C273     1.0000 0.16352  0.46811  0.50197  Biso   1.000  C
  C274     1.0000 0.20420  0.47635  0.36309  Biso   1.000  C
  H318     1.0000 0.18221  0.53991  0.42397  Biso   1.000  H
  C275     1.0000 0.20224  0.60080  0.48039  Biso   1.000  C
  H319     1.0000 0.21941  0.45180  0.60064  Biso   1.000  H
  H320     1.0000 0.24560  0.45760  0.51143  Biso   1.000  H
  H321     1.0000 0.21750  0.43021  0.49970  Biso   1.000  H
  N37      1.0000 0.13730  0.48518  0.45979  Biso   1.000  N
  C276     1.0000 0.14990  0.44312  0.55740  Biso   1.000  C
  H322     1.0000 0.19861  0.45449  0.33757  Biso   1.000  H
  H323     1.0000 0.22741  0.48129  0.34711  Biso   1.000  H
  H324     1.0000 0.18971  0.49259  0.33121  Biso   1.000  H
  C277     1.0000 0.16747  0.61207  0.50863  Biso   1.000  C
  C278     1.0000 0.22773  0.62439  0.52673  Biso   1.000  C
  C279     1.0000 0.20567  0.60006  0.36362  Biso   1.000  C
  C280     1.0000 0.10726  0.47141  0.48932  Biso   1.000  C
  H325     1.0000 0.13981  0.50389  0.41299  Biso   1.000  H
  H326     1.0000 0.16190  0.42710  0.59443  Biso   1.000  H
  C281     1.0000 0.11499  0.44525  0.55028  Biso   1.000  C
  N38      1.0000 0.13971  0.59967  0.46199  Biso   1.000  N
  C282     1.0000 0.15666  0.63584  0.57300  Biso   1.000  C
  H327     1.0000 0.22351  0.64660  0.50220  Biso   1.000  H
  H328     1.0000 0.25020  0.61769  0.50682  Biso   1.000  H
  H329     1.0000 0.22589  0.62391  0.60071  Biso   1.000  H
  H330     1.0000 0.22821  0.59199  0.34674  Biso   1.000  H
  H331     1.0000 0.18949  0.58400  0.33659  Biso   1.000  H
  C283     1.0000 0.20025  0.63254  0.30857  Biso   1.000  C
  C284     1.0000 0.07460  0.48342  0.44601  Biso   1.000  C
  H332     1.0000 0.09950  0.43099  0.58224  Biso   1.000  H
  C285     1.0000 0.11168  0.61525  0.49493  Biso   1.000  C
  H333     1.0000 0.13909  0.58620  0.41799  Biso   1.000  H
  C286     1.0000 0.12152  0.63804  0.56399  Biso   1.000  C
  H334     1.0000 0.17030  0.64870  0.61631  Biso   1.000  H
  H335     1.0000 0.17950  0.64271  0.33348  Biso   1.000  H
  H336     1.0000 0.21881  0.64750  0.32470  Biso   1.000  H
  C287     1.0000 0.19806  0.62836  0.19559  Biso   1.000  C
  C288     1.0000 0.06548  0.51751  0.48167  Biso   1.000  C
  C289     1.0000 0.04704  0.45985  0.47827  Biso   1.000  C
  C290     1.0000 0.07806  0.48298  0.32803  Biso   1.000  C
  C291     1.0000 0.07749  0.60681  0.45260  Biso   1.000  C
  H337     1.0000 0.10750  0.65271  0.59958  Biso   1.000  H
  O29      1.0000 0.16610  0.61378  0.16629  Biso   1.000  O
  H338     1.0000 0.20060  0.64990  0.16227  Biso   1.000  H
  H339     1.0000 0.21640  0.61410  0.17219  Biso   1.000  H
  N39      1.0000 0.08121  0.54517  0.44669  Biso   1.000  N
  C292     1.0000 0.04026  0.52800  0.54316  Biso   1.000  C
  H340     1.0000 0.05179  0.43801  0.45154  Biso   1.000  H
  H341     1.0000 0.02570  0.46750  0.45161  Biso   1.000  H
  H342     1.0000 0.04600  0.45889  0.55240  Biso   1.000  H
  C293     1.0000 0.04672  0.49134  0.26836  Biso   1.000  C
  H343     1.0000 0.09570  0.49870  0.30857  Biso   1.000  H
  H344     1.0000 0.08561  0.46090  0.30721  Biso   1.000  H
  C294     1.0000 0.06638  0.57290  0.48349  Biso   1.000  C
  C295     1.0000 0.05229  0.63220  0.49038  Biso   1.000  C
  C296     1.0000 0.07831  0.60850  0.33583  Biso   1.000  C
  C297     1.0000 0.14473  0.63376  0.11722  Biso   1.000  C
  H345     1.0000 0.09739  0.54451  0.41103  Biso   1.000  H
  H346     1.0000 0.02520  0.51440  0.57943  Biso   1.000  H
  C298     1.0000 0.04063  0.56282  0.54339  Biso   1.000  C
  C299     1.0000 0.05368  0.49572  0.15538  Biso   1.000  C
  H347     1.0000 0.03700  0.51181  0.29562  Biso   1.000  H
  H348     1.0000 0.03019  0.47369  0.27760  Biso   1.000  H
  H349     1.0000 0.05211  0.63229  0.56459  Biso   1.000  H
  H350     1.0000 0.03009  0.62660  0.46509  Biso   1.000  H
  H351     1.0000 0.05860  0.65391  0.46570  Biso   1.000  H
  H352     1.0000 0.08529  0.63041  0.31448  Biso   1.000  H
  H353     1.0000 0.05609  0.60390  0.30887  Biso   1.000  H
  H354     1.0000 0.09411  0.59231  0.30978  Biso   1.000  H
  O30      1.0000 0.15045  0.66132  0.09632  Biso   1.000  O
  C300     1.0000 0.11295  0.61806  0.09481  Biso   1.000  C
  H355     1.0000 0.02560  0.57659  0.57883  Biso   1.000  H
  O31      1.0000 0.07102  0.52656  0.13706  Biso   1.000  O
  H356     1.0000 0.06740  0.47731  0.13077  Biso   1.000  H
  H357     1.0000 0.03250  0.49550  0.11752  Biso   1.000  H
  N40      1.0000 0.10497  0.58578  0.11010  Biso   1.000  N
  C301     1.0000 0.08472  0.63440  0.06338  Biso   1.000  C
  C302     1.0000 0.05256  0.55135  0.10298  Biso   1.000  C
  C303     1.0000 0.07165  0.58158  0.09056  Biso   1.000  C
  H358     1.0000 0.11931  0.56959  0.12699  Biso   1.000  H
  C304     1.0000 0.05880  0.61151  0.06149  Biso   1.000  C
  H359     1.0000 0.08320  0.65689  0.04642  Biso   1.000  H
  O32      1.0000 0.02326  0.55006  0.08617  Biso   1.000  O
  H360     1.0000 0.03641  0.61581  0.04331  Biso   1.000  H
  C305     1.0000 0.80229  0.61782  0.24042  Biso   1.000  C
  C306     1.0000 0.82749  0.64318  0.20264  Biso   1.000  C
  H361     1.0000 0.80211  0.61769  0.31463  Biso   1.000  H
  H362     1.0000 0.78009  0.62339  0.21513  Biso   1.000  H
  H363     1.0000 0.80860  0.59610  0.21574  Biso   1.000  H
  C307     1.0000 0.81638  0.67712  0.23353  Biso   1.000  C
  C308     1.0000 0.86168  0.63474  0.24489  Biso   1.000  C
  C309     1.0000 0.82831  0.64151  0.08579  Biso   1.000  C
  N41      1.0000 0.83121  0.70485  0.19673  Biso   1.000  N
  C310     1.0000 0.79063  0.68719  0.29343  Biso   1.000  C
  N42      1.0000 0.88971  0.65032  0.21202  Biso   1.000  N
  C311     1.0000 0.87152  0.61195  0.31402  Biso   1.000  C
  H364     1.0000 0.83529  0.61960  0.06452  Biso   1.000  H
  H365     1.0000 0.80609  0.64611  0.05891  Biso   1.000  H
  H366     1.0000 0.84411  0.65770  0.05982  Biso   1.000  H
  C312     1.0000 0.81548  0.73248  0.23171  Biso   1.000  C
  H367     1.0000 0.84739  0.70551  0.16099  Biso   1.000  H
  C313     1.0000 0.79026  0.72199  0.29320  Biso   1.000  C
  H368     1.0000 0.77560  0.67340  0.32879  Biso   1.000  H
  C314     1.0000 0.91747  0.63794  0.25859  Biso   1.000  C
  H369     1.0000 0.88909  0.66379  0.16803  Biso   1.000  H
  H370     1.0000 0.85750  0.59730  0.34961  Biso   1.000  H
  C315     1.0000 0.90666  0.61415  0.32303  Biso   1.000  C
  C316     1.0000 0.82460  0.76659  0.19597  Biso   1.000  C
  H371     1.0000 0.77520  0.73561  0.32940  Biso   1.000  H
  C317     1.0000 0.95224  0.64922  0.23043  Biso   1.000  C
  H372     1.0000 0.92030  0.60131  0.36627  Biso   1.000  H
  C318     1.0000 0.85726  0.77860  0.23929  Biso   1.000  C
  C319     1.0000 0.79704  0.79016  0.22831  Biso   1.000  C
  C320     1.0000 0.82806  0.76701  0.07799  Biso   1.000  C
  C321     1.0000 0.95952  0.68340  0.27033  Biso   1.000  C
  C322     1.0000 0.97773  0.62562  0.27669  Biso   1.000  C
  C323     1.0000 0.95567  0.64995  0.11358  Biso   1.000  C
  N43      1.0000 0.88730  0.76483  0.20983  Biso   1.000  N
  C324     1.0000 0.86499  0.80476  0.30032  Biso   1.000  C
  H373     1.0000 0.80179  0.81200  0.20150  Biso   1.000  H
  H374     1.0000 0.77570  0.78251  0.20158  Biso   1.000  H
  H375     1.0000 0.79600  0.79109  0.30236  Biso   1.000  H
  C325     1.0000 0.79672  0.75864  0.01840  Biso   1.000  C
  H376     1.0000 0.84570  0.75131  0.05861  Biso   1.000  H
  H377     1.0000 0.83561  0.78909  0.05717  Biso   1.000  H
  N44      1.0000 0.94617  0.71084  0.22512  Biso   1.000  N
  C326     1.0000 0.98027  0.69455  0.34477  Biso   1.000  C
  H378     1.0000 0.97351  0.60339  0.25223  Biso   1.000  H
  H379     1.0000 0.97589  0.62611  0.35067  Biso   1.000  H
  H380     1.0000 0.00020  0.63229  0.25678  Biso   1.000  H
  H381     1.0000 0.97821  0.65799  0.09670  Biso   1.000  H
  H382     1.0000 0.93949  0.66599  0.08663  Biso   1.000  H
  C327     1.0000 0.95025  0.61745  0.05861  Biso   1.000  C
  C328     1.0000 0.91352  0.78188  0.25201  Biso   1.000  C
  H383     1.0000 0.88981  0.74610  0.16303  Biso   1.000  H
  C329     1.0000 0.89990  0.80687  0.30744  Biso   1.000  C
  H384     1.0000 0.84950  0.81900  0.33220  Biso   1.000  H
  H385     1.0000 0.78700  0.73820  0.04559  Biso   1.000  H
  H386     1.0000 0.78019  0.77630  0.02756  Biso   1.000  H
  C330     1.0000 0.80368  0.75429  0.90542  Biso   1.000  C
  C331     1.0000 0.95815  0.73896  0.26882  Biso   1.000  C
  H387     1.0000 0.93221  0.71010  0.17401  Biso   1.000  H
  H388     1.0000 0.99309  0.68130  0.38929  Biso   1.000  H
  C332     1.0000 0.97940  0.72940  0.34409  Biso   1.000  C
  H389     1.0000 0.92950  0.60730  0.08352  Biso   1.000  H
  H390     1.0000 0.96881  0.60251  0.07466  Biso   1.000  H
  C333     1.0000 0.94806  0.62163  0.94563  Biso   1.000  C
  C334     1.0000 0.94923  0.77273  0.22906  Biso   1.000  C
  H391     1.0000 0.91190  0.82291  0.34439  Biso   1.000  H
  O33      1.0000 0.82102  0.72346  0.88702  Biso   1.000  O
  H392     1.0000 0.81740  0.77271  0.88081  Biso   1.000  H
  H393     1.0000 0.78250  0.75451  0.86748  Biso   1.000  H
  H394     1.0000 0.99140  0.74351  0.38808  Biso   1.000  H
  O34      1.0000 0.91610  0.63621  0.91633  Biso   1.000  O
  H395     1.0000 0.95060  0.60009  0.91231  Biso   1.000  H
  H396     1.0000 0.96640  0.63589  0.92223  Biso   1.000  H
  C335     1.0000 0.97254  0.79804  0.27700  Biso   1.000  C
  C336     1.0000 0.95420  0.77366  0.11313  Biso   1.000  C
  C337     1.0000 0.80256  0.69866  0.85302  Biso   1.000  C
  C338     1.0000 0.89473  0.61625  0.86718  Biso   1.000  C
  H397     1.0000 0.96941  0.79821  0.35060  Biso   1.000  H
  H398     1.0000 0.99560  0.79239  0.26140  Biso   1.000  H
  H399     1.0000 0.96750  0.81980  0.24973  Biso   1.000  H
  H400     1.0000 0.94861  0.79550  0.08761  Biso   1.000  H
  H401     1.0000 0.97741  0.76869  0.09708  Biso   1.000  H
  H402     1.0000 0.93971  0.75740  0.08118  Biso   1.000  H
  O35      1.0000 0.77326  0.69996  0.83621  Biso   1.000  O
  C339     1.0000 0.82165  0.66841  0.84060  Biso   1.000  C
  O36      1.0000 0.90045  0.58867  0.84628  Biso   1.000  O
  C340     1.0000 0.86295  0.63195  0.84477  Biso   1.000  C
  N45      1.0000 0.85497  0.66421  0.86006  Biso   1.000  N
  C341     1.0000 0.80880  0.63850  0.81153  Biso   1.000  C
  C342     1.0000 0.83472  0.61559  0.81342  Biso   1.000  C
  H403     1.0000 0.86931  0.68039  0.87703  Biso   1.000  H
  H404     1.0000 0.78641  0.63420  0.79328  Biso   1.000  H
  H405     1.0000 0.83320  0.59309  0.79638  Biso   1.000  H
  C343     1.0000 0.19771  0.38218  0.24042  Biso   1.000  C
  C344     1.0000 0.17251  0.35682  0.20264  Biso   1.000  C
  H406     1.0000 0.19789  0.38231  0.31463  Biso   1.000  H
  H407     1.0000 0.21991  0.37661  0.21513  Biso   1.000  H
  H408     1.0000 0.19140  0.40390  0.21574  Biso   1.000  H
  C345     1.0000 0.18362  0.32288  0.23353  Biso   1.000  C
  C346     1.0000 0.13832  0.36526  0.24489  Biso   1.000  C
  C347     1.0000 0.17169  0.35849  0.08579  Biso   1.000  C
  C348     1.0000 0.20937  0.31281  0.29343  Biso   1.000  C
  N46      1.0000 0.16879  0.29515  0.19673  Biso   1.000  N
  N47      1.0000 0.11029  0.34968  0.21202  Biso   1.000  N
  C349     1.0000 0.12848  0.38805  0.31402  Biso   1.000  C
  H409     1.0000 0.16471  0.38040  0.06452  Biso   1.000  H
  H410     1.0000 0.19391  0.35389  0.05891  Biso   1.000  H
  H411     1.0000 0.15589  0.34230  0.05982  Biso   1.000  H
  C350     1.0000 0.20974  0.27801  0.29320  Biso   1.000  C
  H412     1.0000 0.22440  0.32660  0.32879  Biso   1.000  H
  C351     1.0000 0.18452  0.26752  0.23171  Biso   1.000  C
  H413     1.0000 0.15261  0.29449  0.16099  Biso   1.000  H
  C352     1.0000 0.08253  0.36206  0.25859  Biso   1.000  C
  H414     1.0000 0.11091  0.33621  0.16803  Biso   1.000  H
  H415     1.0000 0.14250  0.40270  0.34961  Biso   1.000  H
  C353     1.0000 0.09334  0.38585  0.32303  Biso   1.000  C
  H416     1.0000 0.22480  0.26439  0.32940  Biso   1.000  H
  C354     1.0000 0.17540  0.23341  0.19597  Biso   1.000  C
  C355     1.0000 0.04776  0.35078  0.23043  Biso   1.000  C
  H417     1.0000 0.07970  0.39869  0.36627  Biso   1.000  H
  C356     1.0000 0.14274  0.22140  0.23929  Biso   1.000  C
  C357     1.0000 0.20296  0.20984  0.22831  Biso   1.000  C
  C358     1.0000 0.17194  0.23299  0.07799  Biso   1.000  C
  C359     1.0000 0.04048  0.31660  0.27033  Biso   1.000  C
  C360     1.0000 0.02227  0.37438  0.27669  Biso   1.000  C
  C361     1.0000 0.04433  0.35005  0.11358  Biso   1.000  C
  N48      1.0000 0.11270  0.23517  0.20983  Biso   1.000  N
  C362     1.0000 0.13501  0.19524  0.30032  Biso   1.000  C
  H418     1.0000 0.19821  0.18800  0.20150  Biso   1.000  H
  H419     1.0000 0.22430  0.21749  0.20158  Biso   1.000  H
  H420     1.0000 0.20400  0.20891  0.30236  Biso   1.000  H
  C363     1.0000 0.20328  0.24136  0.01840  Biso   1.000  C
  H421     1.0000 0.15430  0.24869  0.05861  Biso   1.000  H
  H422     1.0000 0.16439  0.21091  0.05717  Biso   1.000  H
  N49      1.0000 0.05383  0.28916  0.22512  Biso   1.000  N
  C364     1.0000 0.01973  0.30545  0.34477  Biso   1.000  C
  H423     1.0000 0.02649  0.39661  0.25223  Biso   1.000  H
  H424     1.0000 0.02411  0.37389  0.35067  Biso   1.000  H
  H425     1.0000 0.99980  0.36771  0.25678  Biso   1.000  H
  H426     1.0000 0.02179  0.34201  0.09670  Biso   1.000  H
  H427     1.0000 0.06051  0.33401  0.08663  Biso   1.000  H
  C365     1.0000 0.04975  0.38255  0.05861  Biso   1.000  C
  C366     1.0000 0.08648  0.21812  0.25201  Biso   1.000  C
  H428     1.0000 0.11019  0.25390  0.16303  Biso   1.000  H
  C367     1.0000 0.10010  0.19313  0.30744  Biso   1.000  C
  H429     1.0000 0.15050  0.18100  0.33220  Biso   1.000  H
  H430     1.0000 0.21300  0.26180  0.04559  Biso   1.000  H
  H431     1.0000 0.21981  0.22370  0.02756  Biso   1.000  H
  C368     1.0000 0.19632  0.24571  0.90542  Biso   1.000  C
  C369     1.0000 0.04185  0.26104  0.26882  Biso   1.000  C
  H432     1.0000 0.06779  0.28990  0.17401  Biso   1.000  H
  C370     1.0000 0.02060  0.27060  0.34409  Biso   1.000  C
  H433     1.0000 0.00691  0.31870  0.38929  Biso   1.000  H
  H434     1.0000 0.07050  0.39270  0.08352  Biso   1.000  H
  H435     1.0000 0.03119  0.39749  0.07466  Biso   1.000  H
  C371     1.0000 0.05194  0.37837  0.94563  Biso   1.000  C
  C372     1.0000 0.05077  0.22727  0.22906  Biso   1.000  C
  H436     1.0000 0.08810  0.17709  0.34439  Biso   1.000  H
  O37      1.0000 0.17898  0.27654  0.88702  Biso   1.000  O
  H437     1.0000 0.18260  0.22729  0.88081  Biso   1.000  H
  H438     1.0000 0.21750  0.24549  0.86748  Biso   1.000  H
  H439     1.0000 0.00860  0.25649  0.38808  Biso   1.000  H
  O38      1.0000 0.08390  0.36379  0.91633  Biso   1.000  O
  H440     1.0000 0.04940  0.39991  0.91231  Biso   1.000  H
  H441     1.0000 0.03360  0.36411  0.92223  Biso   1.000  H
  C373     1.0000 0.02746  0.20196  0.27700  Biso   1.000  C
  C374     1.0000 0.04580  0.22634  0.11313  Biso   1.000  C
  C375     1.0000 0.19744  0.30134  0.85302  Biso   1.000  C
  C376     1.0000 0.10527  0.38375  0.86718  Biso   1.000  C
  H442     1.0000 0.03059  0.20179  0.35060  Biso   1.000  H
  H443     1.0000 0.00440  0.20761  0.26140  Biso   1.000  H
  H444     1.0000 0.03250  0.18020  0.24973  Biso   1.000  H
  H445     1.0000 0.05139  0.20450  0.08761  Biso   1.000  H
  H446     1.0000 0.02259  0.23131  0.09708  Biso   1.000  H
  H447     1.0000 0.06029  0.24260  0.08118  Biso   1.000  H
  O39      1.0000 0.22674  0.30004  0.83621  Biso   1.000  O
  C377     1.0000 0.17835  0.33159  0.84060  Biso   1.000  C
  C378     1.0000 0.13705  0.36805  0.84477  Biso   1.000  C
  O40      1.0000 0.09955  0.41133  0.84628  Biso   1.000  O
  N50      1.0000 0.14503  0.33579  0.86006  Biso   1.000  N
  C379     1.0000 0.19120  0.36150  0.81153  Biso   1.000  C
  C380     1.0000 0.16528  0.38441  0.81342  Biso   1.000  C
  H448     1.0000 0.13069  0.31961  0.87703  Biso   1.000  H
  H449     1.0000 0.21359  0.36580  0.79328  Biso   1.000  H
  H450     1.0000 0.16680  0.40691  0.79638  Biso   1.000  H
  C381     1.0000 0.79704  0.29016  0.72831  Biso   1.000  C
  C382     1.0000 0.82460  0.26659  0.69597  Biso   1.000  C
  H451     1.0000 0.80179  0.31200  0.70150  Biso   1.000  H
  H452     1.0000 0.77570  0.28251  0.70158  Biso   1.000  H
  H453     1.0000 0.79600  0.29109  0.80236  Biso   1.000  H
  C383     1.0000 0.82806  0.26701  0.57799  Biso   1.000  C
  C384     1.0000 0.81548  0.23248  0.73171  Biso   1.000  C
  C385     1.0000 0.85726  0.27860  0.73929  Biso   1.000  C
  C386     1.0000 0.79672  0.25864  0.51840  Biso   1.000  C
  H454     1.0000 0.84570  0.25131  0.55861  Biso   1.000  H
  H455     1.0000 0.83561  0.28909  0.55717  Biso   1.000  H
  N51      1.0000 0.83121  0.20485  0.69673  Biso   1.000  N
  C387     1.0000 0.79026  0.22199  0.79320  Biso   1.000  C
  N52      1.0000 0.88730  0.26483  0.70983  Biso   1.000  N
  C388     1.0000 0.86499  0.30476  0.80032  Biso   1.000  C
  C389     1.0000 0.80368  0.25429  0.40542  Biso   1.000  C
  H456     1.0000 0.78700  0.23820  0.54559  Biso   1.000  H
  H457     1.0000 0.78019  0.27630  0.52756  Biso   1.000  H
  C390     1.0000 0.81638  0.17712  0.73353  Biso   1.000  C
  H458     1.0000 0.84739  0.20551  0.66099  Biso   1.000  H
  H459     1.0000 0.77520  0.23561  0.82940  Biso   1.000  H
  C391     1.0000 0.79063  0.18719  0.79343  Biso   1.000  C
  C392     1.0000 0.91352  0.28188  0.75201  Biso   1.000  C
  H460     1.0000 0.88981  0.24610  0.66303  Biso   1.000  H
  C393     1.0000 0.89990  0.30687  0.80744  Biso   1.000  C
  H461     1.0000 0.84950  0.31900  0.83220  Biso   1.000  H
  O41      1.0000 0.82102  0.22346  0.38702  Biso   1.000  O
  H462     1.0000 0.81740  0.27271  0.38081  Biso   1.000  H
  H463     1.0000 0.78250  0.25451  0.36748  Biso   1.000  H
  C394     1.0000 0.82749  0.14318  0.70264  Biso   1.000  C
  H464     1.0000 0.77560  0.17340  0.82879  Biso   1.000  H
  C395     1.0000 0.94923  0.27273  0.72906  Biso   1.000  C
  H465     1.0000 0.91190  0.32291  0.84439  Biso   1.000  H
  C396     1.0000 0.80256  0.19866  0.35302  Biso   1.000  C
  C397     1.0000 0.86168  0.13474  0.74489  Biso   1.000  C
  C398     1.0000 0.80229  0.11782  0.74042  Biso   1.000  C
  C399     1.0000 0.82831  0.14151  0.58579  Biso   1.000  C
  C400     1.0000 0.95815  0.23896  0.76882  Biso   1.000  C
  C401     1.0000 0.97254  0.29804  0.77700  Biso   1.000  C
  C402     1.0000 0.95420  0.27366  0.61313  Biso   1.000  C
  O42      1.0000 0.77326  0.19996  0.33621  Biso   1.000  O
  C403     1.0000 0.82165  0.16841  0.34060  Biso   1.000  C
  N53      1.0000 0.88971  0.15032  0.71202  Biso   1.000  N
  C404     1.0000 0.87152  0.11195  0.81402  Biso   1.000  C
  H466     1.0000 0.80211  0.11769  0.81463  Biso   1.000  H
  H467     1.0000 0.78009  0.12339  0.71513  Biso   1.000  H
  H468     1.0000 0.80860  0.09610  0.71574  Biso   1.000  H
  H469     1.0000 0.83529  0.11960  0.56452  Biso   1.000  H
  H470     1.0000 0.80609  0.14611  0.55891  Biso   1.000  H
  H471     1.0000 0.84411  0.15770  0.55982  Biso   1.000  H
  N54      1.0000 0.94617  0.21084  0.72512  Biso   1.000  N
  C405     1.0000 0.97940  0.22940  0.84409  Biso   1.000  C
  H472     1.0000 0.96941  0.29821  0.85060  Biso   1.000  H
  H473     1.0000 0.99560  0.29239  0.76140  Biso   1.000  H
  H474     1.0000 0.96750  0.31980  0.74973  Biso   1.000  H
  H475     1.0000 0.94861  0.29550  0.58761  Biso   1.000  H
  H476     1.0000 0.97741  0.26869  0.59708  Biso   1.000  H
  H477     1.0000 0.93971  0.25740  0.58118  Biso   1.000  H
  N55      1.0000 0.85497  0.16421  0.36006  Biso   1.000  N
  C406     1.0000 0.80880  0.13850  0.31153  Biso   1.000  C
  C407     1.0000 0.91747  0.13794  0.75859  Biso   1.000  C
  H478     1.0000 0.88909  0.16379  0.66803  Biso   1.000  H
  C408     1.0000 0.90666  0.11415  0.82303  Biso   1.000  C
  H479     1.0000 0.85750  0.09730  0.84961  Biso   1.000  H
  C409     1.0000 0.95952  0.18340  0.77033  Biso   1.000  C
  H480     1.0000 0.93221  0.21010  0.67401  Biso   1.000  H
  C410     1.0000 0.98027  0.19455  0.84477  Biso   1.000  C
  H481     1.0000 0.99140  0.24351  0.88808  Biso   1.000  H
  C411     1.0000 0.86295  0.13195  0.34477  Biso   1.000  C
  H482     1.0000 0.86931  0.18039  0.37703  Biso   1.000  H
  C412     1.0000 0.83472  0.11559  0.31342  Biso   1.000  C
  H483     1.0000 0.78641  0.13420  0.29328  Biso   1.000  H
  C413     1.0000 0.95224  0.14922  0.73043  Biso   1.000  C
  H484     1.0000 0.92030  0.10131  0.86627  Biso   1.000  H
  H485     1.0000 0.99309  0.18130  0.88929  Biso   1.000  H
  C414     1.0000 0.89473  0.11625  0.36718  Biso   1.000  C
  H486     1.0000 0.83320  0.09309  0.29638  Biso   1.000  H
  C415     1.0000 0.95567  0.14995  0.61358  Biso   1.000  C
  C416     1.0000 0.97773  0.12562  0.77669  Biso   1.000  C
  O43      1.0000 0.91610  0.13621  0.41633  Biso   1.000  O
  O44      1.0000 0.90045  0.08867  0.34628  Biso   1.000  O
  C417     1.0000 0.95025  0.11745  0.55861  Biso   1.000  C
  H487     1.0000 0.97821  0.15799  0.59670  Biso   1.000  H
  H488     1.0000 0.93949  0.16599  0.58663  Biso   1.000  H
  H489     1.0000 0.97351  0.10339  0.75223  Biso   1.000  H
  H490     1.0000 0.97589  0.12611  0.85067  Biso   1.000  H
  H491     1.0000 0.00020  0.13229  0.75678  Biso   1.000  H
  C418     1.0000 0.94806  0.12163  0.44563  Biso   1.000  C
  H492     1.0000 0.92950  0.10730  0.58352  Biso   1.000  H
  H493     1.0000 0.96881  0.10251  0.57466  Biso   1.000  H
  H494     1.0000 0.95060  0.10009  0.41231  Biso   1.000  H
  H495     1.0000 0.96640  0.13589  0.42223  Biso   1.000  H
  C419     1.0000 0.20296  0.70984  0.72831  Biso   1.000  C
  C420     1.0000 0.17540  0.73341  0.69597  Biso   1.000  C
  H496     1.0000 0.19821  0.68800  0.70150  Biso   1.000  H
  H497     1.0000 0.22430  0.71749  0.70158  Biso   1.000  H
  H498     1.0000 0.20400  0.70891  0.80236  Biso   1.000  H
  C421     1.0000 0.18452  0.76752  0.73171  Biso   1.000  C
  C422     1.0000 0.14274  0.72140  0.73929  Biso   1.000  C
  C423     1.0000 0.17194  0.73299  0.57799  Biso   1.000  C
  N56      1.0000 0.16879  0.79515  0.69673  Biso   1.000  N
  C424     1.0000 0.20974  0.77801  0.79320  Biso   1.000  C
  N57      1.0000 0.11270  0.73517  0.70983  Biso   1.000  N
  C425     1.0000 0.13501  0.69524  0.80032  Biso   1.000  C
  C426     1.0000 0.20328  0.74136  0.51840  Biso   1.000  C
  H499     1.0000 0.15430  0.74869  0.55861  Biso   1.000  H
  H500     1.0000 0.16439  0.71091  0.55717  Biso   1.000  H
  C427     1.0000 0.18362  0.82288  0.73353  Biso   1.000  C
  H501     1.0000 0.15261  0.79449  0.66099  Biso   1.000  H
  H502     1.0000 0.22480  0.76439  0.82940  Biso   1.000  H
  C428     1.0000 0.20937  0.81281  0.79343  Biso   1.000  C
  C429     1.0000 0.08648  0.71812  0.75201  Biso   1.000  C
  H503     1.0000 0.11019  0.75390  0.66303  Biso   1.000  H
  C430     1.0000 0.10010  0.69313  0.80744  Biso   1.000  C
  H504     1.0000 0.15050  0.68100  0.83220  Biso   1.000  H
  C431     1.0000 0.19632  0.74571  0.40542  Biso   1.000  C
  H505     1.0000 0.21300  0.76180  0.54559  Biso   1.000  H
  H506     1.0000 0.21981  0.72370  0.52756  Biso   1.000  H
  C432     1.0000 0.17251  0.85682  0.70264  Biso   1.000  C
  H507     1.0000 0.22440  0.82660  0.82879  Biso   1.000  H
  C433     1.0000 0.05077  0.72727  0.72906  Biso   1.000  C
  H508     1.0000 0.08810  0.67709  0.84439  Biso   1.000  H
  O45      1.0000 0.17898  0.77654  0.38702  Biso   1.000  O
  H509     1.0000 0.18260  0.72729  0.38081  Biso   1.000  H
  H510     1.0000 0.21750  0.74549  0.36748  Biso   1.000  H
  C434     1.0000 0.13832  0.86526  0.74489  Biso   1.000  C
  C435     1.0000 0.19771  0.88218  0.74042  Biso   1.000  C
  C436     1.0000 0.17169  0.85849  0.58579  Biso   1.000  C
  C437     1.0000 0.04185  0.76104  0.76882  Biso   1.000  C
  C438     1.0000 0.02746  0.70196  0.77700  Biso   1.000  C
  C439     1.0000 0.04580  0.72634  0.61313  Biso   1.000  C
  C440     1.0000 0.19744  0.80134  0.35302  Biso   1.000  C
  N58      1.0000 0.11029  0.84968  0.71202  Biso   1.000  N
  C441     1.0000 0.12848  0.88805  0.81402  Biso   1.000  C
  H511     1.0000 0.19789  0.88231  0.81463  Biso   1.000  H
  H512     1.0000 0.21991  0.87661  0.71513  Biso   1.000  H
  H513     1.0000 0.19140  0.90390  0.71574  Biso   1.000  H
  H514     1.0000 0.16471  0.88040  0.56452  Biso   1.000  H
  H515     1.0000 0.19391  0.85389  0.55891  Biso   1.000  H
  H516     1.0000 0.15589  0.84230  0.55982  Biso   1.000  H
  N59      1.0000 0.05383  0.78916  0.72512  Biso   1.000  N
  C442     1.0000 0.02060  0.77060  0.84409  Biso   1.000  C
  H517     1.0000 0.03059  0.70179  0.85060  Biso   1.000  H
  H518     1.0000 0.00440  0.70761  0.76140  Biso   1.000  H
  H519     1.0000 0.03250  0.68020  0.74973  Biso   1.000  H
  H520     1.0000 0.05139  0.70450  0.58761  Biso   1.000  H
  H521     1.0000 0.02259  0.73131  0.59708  Biso   1.000  H
  H522     1.0000 0.06029  0.74260  0.58118  Biso   1.000  H
  O46      1.0000 0.22674  0.80004  0.33621  Biso   1.000  O
  C443     1.0000 0.17835  0.83159  0.34060  Biso   1.000  C
  C444     1.0000 0.08253  0.86206  0.75859  Biso   1.000  C
  H523     1.0000 0.11091  0.83621  0.66803  Biso   1.000  H
  H524     1.0000 0.14250  0.90270  0.84961  Biso   1.000  H
  C445     1.0000 0.09334  0.88585  0.82303  Biso   1.000  C
  C446     1.0000 0.04048  0.81660  0.77033  Biso   1.000  C
  H525     1.0000 0.06779  0.78990  0.67401  Biso   1.000  H
  C447     1.0000 0.01973  0.80545  0.84477  Biso   1.000  C
  H526     1.0000 0.00860  0.75649  0.88808  Biso   1.000  H
  N60      1.0000 0.14503  0.83579  0.36006  Biso   1.000  N
  C448     1.0000 0.19120  0.86150  0.31153  Biso   1.000  C
  C449     1.0000 0.04776  0.85078  0.73043  Biso   1.000  C
  H527     1.0000 0.07970  0.89869  0.86627  Biso   1.000  H
  H528     1.0000 0.00691  0.81870  0.88929  Biso   1.000  H
  C450     1.0000 0.13705  0.86805  0.34477  Biso   1.000  C
  H529     1.0000 0.13069  0.81961  0.37703  Biso   1.000  H
  C451     1.0000 0.16528  0.88441  0.31342  Biso   1.000  C
  H530     1.0000 0.21359  0.86580  0.29328  Biso   1.000  H
  C452     1.0000 0.02227  0.87438  0.77669  Biso   1.000  C
  C453     1.0000 0.04433  0.85005  0.61358  Biso   1.000  C
  C454     1.0000 0.10527  0.88375  0.36718  Biso   1.000  C
  H531     1.0000 0.16680  0.90691  0.29638  Biso   1.000  H
  H532     1.0000 0.02649  0.89661  0.75223  Biso   1.000  H
  H533     1.0000 0.02411  0.87389  0.85067  Biso   1.000  H
  H534     1.0000 0.99980  0.86771  0.75678  Biso   1.000  H
  H535     1.0000 0.02179  0.84201  0.59670  Biso   1.000  H
  H536     1.0000 0.06051  0.83401  0.58663  Biso   1.000  H
  C455     1.0000 0.04975  0.88255  0.55861  Biso   1.000  C
  O47      1.0000 0.08390  0.86379  0.41633  Biso   1.000  O
  O48      1.0000 0.09955  0.91133  0.34628  Biso   1.000  O
  H537     1.0000 0.07050  0.89270  0.58352  Biso   1.000  H
  H538     1.0000 0.03119  0.89749  0.57466  Biso   1.000  H
  C456     1.0000 0.05194  0.87837  0.44563  Biso   1.000  C
  H539     1.0000 0.04940  0.89991  0.41231  Biso   1.000  H
  H540     1.0000 0.03360  0.86411  0.42223  Biso   1.000  H
  C457     1.0000 0.55229  0.13220  0.49038  Biso   1.000  C
  C458     1.0000 0.57749  0.10681  0.45260  Biso   1.000  C
  H541     1.0000 0.55211  0.13229  0.56459  Biso   1.000  H
  H542     1.0000 0.53009  0.12660  0.46509  Biso   1.000  H
  H543     1.0000 0.55860  0.15391  0.46570  Biso   1.000  H
  C459     1.0000 0.56638  0.07290  0.48349  Biso   1.000  C
  C460     1.0000 0.61168  0.11525  0.49493  Biso   1.000  C
  C461     1.0000 0.57831  0.10850  0.33583  Biso   1.000  C
  N61      1.0000 0.58121  0.04517  0.44669  Biso   1.000  N
  C462     1.0000 0.54063  0.06282  0.54339  Biso   1.000  C
  N62      1.0000 0.63971  0.09967  0.46199  Biso   1.000  N
  C463     1.0000 0.62152  0.13804  0.56399  Biso   1.000  C
  H544     1.0000 0.58529  0.13041  0.31448  Biso   1.000  H
  H545     1.0000 0.55609  0.10390  0.30887  Biso   1.000  H
  H546     1.0000 0.59411  0.09231  0.30978  Biso   1.000  H
  C464     1.0000 0.56548  0.01751  0.48167  Biso   1.000  C
  H547     1.0000 0.59739  0.04451  0.41103  Biso   1.000  H
  C465     1.0000 0.54026  0.02800  0.54316  Biso   1.000  C
  H548     1.0000 0.52560  0.07659  0.57883  Biso   1.000  H
  C466     1.0000 0.66747  0.11207  0.50863  Biso   1.000  C
  H549     1.0000 0.63909  0.08620  0.41799  Biso   1.000  H
  H550     1.0000 0.60750  0.15271  0.59958  Biso   1.000  H
  C467     1.0000 0.65666  0.13584  0.57300  Biso   1.000  C
  C468     1.0000 0.57460  0.98342  0.44601  Biso   1.000  C
  H551     1.0000 0.52520  0.01440  0.57943  Biso   1.000  H
  C469     1.0000 0.70224  0.10080  0.48039  Biso   1.000  C
  H552     1.0000 0.67030  0.14870  0.61631  Biso   1.000  H
  C470     1.0000 0.60726  0.97141  0.48932  Biso   1.000  C
  C471     1.0000 0.54704  0.95985  0.47827  Biso   1.000  C
  C472     1.0000 0.57806  0.98298  0.32803  Biso   1.000  C
  C473     1.0000 0.70952  0.06661  0.52029  Biso   1.000  C
  C474     1.0000 0.72773  0.12439  0.52673  Biso   1.000  C
  C475     1.0000 0.70567  0.10006  0.36362  Biso   1.000  C
  N63      1.0000 0.63730  0.98518  0.45979  Biso   1.000  N
  C476     1.0000 0.61499  0.94525  0.55028  Biso   1.000  C
  H553     1.0000 0.55179  0.93801  0.45154  Biso   1.000  H
  H554     1.0000 0.52570  0.96750  0.45161  Biso   1.000  H
  H555     1.0000 0.54600  0.95889  0.55240  Biso   1.000  H
  C477     1.0000 0.54672  0.99134  0.26836  Biso   1.000  C
  H556     1.0000 0.59570  0.99870  0.30857  Biso   1.000  H
  H557     1.0000 0.58561  0.96090  0.30721  Biso   1.000  H
  N64      1.0000 0.69617  0.03915  0.47509  Biso   1.000  N
  C478     1.0000 0.73027  0.05546  0.59481  Biso   1.000  C
  H558     1.0000 0.72351  0.14660  0.50220  Biso   1.000  H
  H559     1.0000 0.75020  0.11769  0.50682  Biso   1.000  H
  H560     1.0000 0.72589  0.12391  0.60071  Biso   1.000  H
  H561     1.0000 0.72821  0.09199  0.34674  Biso   1.000  H
  H562     1.0000 0.68949  0.08400  0.33659  Biso   1.000  H
  C479     1.0000 0.70025  0.13254  0.30857  Biso   1.000  C
  H563     1.0000 0.63981  0.00389  0.41299  Biso   1.000  H
  C480     1.0000 0.66352  0.96811  0.50197  Biso   1.000  C
  C481     1.0000 0.64990  0.94312  0.55740  Biso   1.000  C
  H564     1.0000 0.59950  0.93099  0.58224  Biso   1.000  H
  H565     1.0000 0.53700  0.01181  0.29562  Biso   1.000  H
  C482     1.0000 0.55368  0.99572  0.15538  Biso   1.000  C
  H566     1.0000 0.53019  0.97369  0.27760  Biso   1.000  H
  C483     1.0000 0.70815  0.01105  0.51878  Biso   1.000  C
  H567     1.0000 0.68221  0.03991  0.42397  Biso   1.000  H
  H568     1.0000 0.74309  0.06869  0.63933  Biso   1.000  H
  C484     1.0000 0.72940  0.02061  0.59412  Biso   1.000  C
  H569     1.0000 0.67950  0.14271  0.33348  Biso   1.000  H
  H570     1.0000 0.71881  0.14750  0.32470  Biso   1.000  H
  C485     1.0000 0.69806  0.12836  0.19559  Biso   1.000  C
  C486     1.0000 0.69923  0.97726  0.47910  Biso   1.000  C
  H571     1.0000 0.66190  0.92710  0.59443  Biso   1.000  H
  O49      1.0000 0.57102  0.02656  0.13706  Biso   1.000  O
  H572     1.0000 0.56740  0.97731  0.13077  Biso   1.000  H
  H573     1.0000 0.53250  0.99550  0.11752  Biso   1.000  H
  H574     1.0000 0.74140  0.00650  0.63812  Biso   1.000  H
  O50      1.0000 0.66610  0.11378  0.16629  Biso   1.000  O
  H575     1.0000 0.70060  0.14990  0.16227  Biso   1.000  H
  H576     1.0000 0.71640  0.11410  0.17219  Biso   1.000  H
  C487     1.0000 0.72254  0.95195  0.52703  Biso   1.000  C
  C488     1.0000 0.70420  0.97635  0.36309  Biso   1.000  C
  C489     1.0000 0.55256  0.05135  0.10298  Biso   1.000  C
  C490     1.0000 0.64473  0.13376  0.11722  Biso   1.000  C
  H577     1.0000 0.71941  0.95180  0.60064  Biso   1.000  H
  H578     1.0000 0.74560  0.95760  0.51143  Biso   1.000  H
  H579     1.0000 0.71750  0.93021  0.49970  Biso   1.000  H
  H580     1.0000 0.69861  0.95449  0.33757  Biso   1.000  H
  H581     1.0000 0.72741  0.98129  0.34711  Biso   1.000  H
  H582     1.0000 0.68971  0.99259  0.33121  Biso   1.000  H
  O51      1.0000 0.52326  0.05006  0.08617  Biso   1.000  O
  C491     1.0000 0.57165  0.08158  0.09056  Biso   1.000  C
  O52      1.0000 0.65045  0.16132  0.09632  Biso   1.000  O
  C492     1.0000 0.61295  0.11806  0.09481  Biso   1.000  C
  N65      1.0000 0.60497  0.08578  0.11010  Biso   1.000  N
  C493     1.0000 0.55880  0.11151  0.06149  Biso   1.000  C
  C494     1.0000 0.58472  0.13440  0.06338  Biso   1.000  C
  H583     1.0000 0.61931  0.06959  0.12699  Biso   1.000  H
  H584     1.0000 0.53641  0.11581  0.04331  Biso   1.000  H
  H585     1.0000 0.58320  0.15689  0.04642  Biso   1.000  H
  C495     1.0000 0.44771  0.86780  0.49038  Biso   1.000  C
  C496     1.0000 0.42251  0.89319  0.45260  Biso   1.000  C
  H586     1.0000 0.44789  0.86771  0.56459  Biso   1.000  H
  H587     1.0000 0.46991  0.87340  0.46509  Biso   1.000  H
  H588     1.0000 0.44140  0.84609  0.46570  Biso   1.000  H
  C497     1.0000 0.38832  0.88475  0.49493  Biso   1.000  C
  C498     1.0000 0.43362  0.92710  0.48349  Biso   1.000  C
  C499     1.0000 0.42169  0.89150  0.33583  Biso   1.000  C
  N66      1.0000 0.36029  0.90033  0.46199  Biso   1.000  N
  C500     1.0000 0.37848  0.86196  0.56399  Biso   1.000  C
  N67      1.0000 0.41879  0.95483  0.44669  Biso   1.000  N
  C501     1.0000 0.45937  0.93718  0.54339  Biso   1.000  C
  H589     1.0000 0.41471  0.86959  0.31448  Biso   1.000  H
  H590     1.0000 0.44391  0.89610  0.30887  Biso   1.000  H
  H591     1.0000 0.40589  0.90769  0.30978  Biso   1.000  H
  C502     1.0000 0.33253  0.88793  0.50863  Biso   1.000  C
  H592     1.0000 0.36091  0.91380  0.41799  Biso   1.000  H
  C503     1.0000 0.34334  0.86416  0.57300  Biso   1.000  C
  H593     1.0000 0.39250  0.84729  0.59958  Biso   1.000  H
  C504     1.0000 0.43452  0.98249  0.48167  Biso   1.000  C
  H594     1.0000 0.40261  0.95549  0.41103  Biso   1.000  H
  C505     1.0000 0.45974  0.97200  0.54316  Biso   1.000  C
  H595     1.0000 0.47440  0.92341  0.57883  Biso   1.000  H
  C506     1.0000 0.29776  0.89920  0.48039  Biso   1.000  C
  H596     1.0000 0.32970  0.85130  0.61631  Biso   1.000  H
  C507     1.0000 0.42540  0.01658  0.44601  Biso   1.000  C
  H597     1.0000 0.47480  0.98560  0.57943  Biso   1.000  H
  C508     1.0000 0.29433  0.89994  0.36362  Biso   1.000  C
  C509     1.0000 0.29048  0.93339  0.52029  Biso   1.000  C
  C510     1.0000 0.27227  0.87561  0.52673  Biso   1.000  C
  C511     1.0000 0.42194  0.01702  0.32803  Biso   1.000  C
  C512     1.0000 0.39274  0.02859  0.48932  Biso   1.000  C
  C513     1.0000 0.45296  0.04015  0.47827  Biso   1.000  C
  C514     1.0000 0.29975  0.86746  0.30857  Biso   1.000  C
  H598     1.0000 0.27179  0.90801  0.34674  Biso   1.000  H
  H599     1.0000 0.31051  0.91600  0.33659  Biso   1.000  H
  N68      1.0000 0.30383  0.96085  0.47509  Biso   1.000  N
  C515     1.0000 0.26973  0.94454  0.59481  Biso   1.000  C
  H600     1.0000 0.27649  0.85340  0.50220  Biso   1.000  H
  H601     1.0000 0.24980  0.88231  0.50682  Biso   1.000  H
  H602     1.0000 0.27411  0.87609  0.60071  Biso   1.000  H
  C516     1.0000 0.45328  0.00866  0.26836  Biso   1.000  C
  H603     1.0000 0.40430  0.00130  0.30857  Biso   1.000  H
  H604     1.0000 0.41439  0.03910  0.30721  Biso   1.000  H
  N69      1.0000 0.36270  0.01482  0.45979  Biso   1.000  N
  C517     1.0000 0.38501  0.05475  0.55028  Biso   1.000  C
  H605     1.0000 0.44821  0.06199  0.45154  Biso   1.000  H
  H606     1.0000 0.47430  0.03250  0.45161  Biso   1.000  H
  H607     1.0000 0.45400  0.04111  0.55240  Biso   1.000  H
  C518     1.0000 0.30194  0.87164  0.19559  Biso   1.000  C
  H608     1.0000 0.32050  0.85729  0.33348  Biso   1.000  H
  H609     1.0000 0.28119  0.85250  0.32470  Biso   1.000  H
  C519     1.0000 0.29185  0.98895  0.51878  Biso   1.000  C
  H610     1.0000 0.31779  0.96009  0.42397  Biso   1.000  H
  H611     1.0000 0.25691  0.93131  0.63933  Biso   1.000  H
  C520     1.0000 0.27060  0.97939  0.59412  Biso   1.000  C
  C521     1.0000 0.44632  0.00428  0.15538  Biso   1.000  C
  H612     1.0000 0.46300  0.98819  0.29562  Biso   1.000  H
  H613     1.0000 0.46981  0.02631  0.27760  Biso   1.000  H
  C522     1.0000 0.33648  0.03189  0.50197  Biso   1.000  C
  H614     1.0000 0.36019  0.99611  0.41299  Biso   1.000  H
  C523     1.0000 0.35010  0.05688  0.55740  Biso   1.000  C
  H615     1.0000 0.40050  0.06901  0.58224  Biso   1.000  H
  O53      1.0000 0.33390  0.88622  0.16629  Biso   1.000  O
  H616     1.0000 0.29940  0.85010  0.16227  Biso   1.000  H
  H617     1.0000 0.28360  0.88590  0.17219  Biso   1.000  H
  C524     1.0000 0.30077  0.02274  0.47910  Biso   1.000  C
  H618     1.0000 0.25860  0.99350  0.63812  Biso   1.000  H
  O54      1.0000 0.42898  0.97344  0.13706  Biso   1.000  O
  H619     1.0000 0.43260  0.02269  0.13077  Biso   1.000  H
  H620     1.0000 0.46750  0.00450  0.11752  Biso   1.000  H
  H621     1.0000 0.33810  0.07290  0.59443  Biso   1.000  H
  C525     1.0000 0.35527  0.86624  0.11722  Biso   1.000  C
  C526     1.0000 0.27746  0.04805  0.52703  Biso   1.000  C
  C527     1.0000 0.29580  0.02365  0.36309  Biso   1.000  C
  C528     1.0000 0.44744  0.94865  0.10298  Biso   1.000  C
  O55      1.0000 0.34955  0.83868  0.09632  Biso   1.000  O
  C529     1.0000 0.38705  0.88194  0.09481  Biso   1.000  C
  H622     1.0000 0.28059  0.04820  0.60064  Biso   1.000  H
  H623     1.0000 0.25440  0.04240  0.51143  Biso   1.000  H
  H624     1.0000 0.28250  0.06979  0.49970  Biso   1.000  H
  H625     1.0000 0.30139  0.04551  0.33757  Biso   1.000  H
  H626     1.0000 0.27259  0.01871  0.34711  Biso   1.000  H
  H627     1.0000 0.31029  0.00741  0.33121  Biso   1.000  H
  C530     1.0000 0.42835  0.91842  0.09056  Biso   1.000  C
  O56      1.0000 0.47674  0.94994  0.08617  Biso   1.000  O
  N70      1.0000 0.39503  0.91422  0.11010  Biso   1.000  N
  C531     1.0000 0.41528  0.86560  0.06338  Biso   1.000  C
  C532     1.0000 0.44120  0.88849  0.06149  Biso   1.000  C
  H628     1.0000 0.38069  0.93041  0.12699  Biso   1.000  H
  H629     1.0000 0.41680  0.84311  0.04642  Biso   1.000  H
  H630     1.0000 0.46359  0.88419  0.04331  Biso   1.000  H
  C533     1.0000 0.80194  0.87164  0.69559  Biso   1.000  C
  O57      1.0000 0.83390  0.88622  0.66629  Biso   1.000  O
  C534     1.0000 0.79975  0.86746  0.80857  Biso   1.000  C
  H631     1.0000 0.79940  0.85010  0.66227  Biso   1.000  H
  H632     1.0000 0.78360  0.88590  0.67219  Biso   1.000  H
  C535     1.0000 0.85527  0.86624  0.61722  Biso   1.000  C
  C536     1.0000 0.79433  0.89994  0.86362  Biso   1.000  C
  H633     1.0000 0.82050  0.85729  0.83348  Biso   1.000  H
  H634     1.0000 0.78119  0.85250  0.82470  Biso   1.000  H
  O58      1.0000 0.84955  0.83868  0.59632  Biso   1.000  O
  C537     1.0000 0.88705  0.88194  0.59481  Biso   1.000  C
  C538     1.0000 0.79776  0.89920  0.98039  Biso   1.000  C
  H635     1.0000 0.77179  0.90801  0.84674  Biso   1.000  H
  H636     1.0000 0.81051  0.91600  0.83659  Biso   1.000  H
  N71      1.0000 0.89503  0.91422  0.61010  Biso   1.000  N
  C539     1.0000 0.91528  0.86560  0.56338  Biso   1.000  C
  C540     1.0000 0.83253  0.88793  0.00863  Biso   1.000  C
  C541     1.0000 0.79048  0.93339  0.02029  Biso   1.000  C
  C542     1.0000 0.77227  0.87561  0.02673  Biso   1.000  C
  C543     1.0000 0.92835  0.91842  0.59056  Biso   1.000  C
  H637     1.0000 0.88069  0.93041  0.62699  Biso   1.000  H
  H638     1.0000 0.91680  0.84311  0.54642  Biso   1.000  H
  C544     1.0000 0.94120  0.88849  0.56149  Biso   1.000  C
  N72      1.0000 0.86029  0.90033  0.96199  Biso   1.000  N
  C545     1.0000 0.84334  0.86416  0.07300  Biso   1.000  C
  N73      1.0000 0.80383  0.96085  0.97509  Biso   1.000  N
  C546     1.0000 0.76973  0.94454  0.09481  Biso   1.000  C
  H639     1.0000 0.77649  0.85340  0.00220  Biso   1.000  H
  H640     1.0000 0.74980  0.88231  0.00682  Biso   1.000  H
  H641     1.0000 0.77411  0.87609  0.10071  Biso   1.000  H
  C547     1.0000 0.94744  0.94865  0.60298  Biso   1.000  C
  H642     1.0000 0.96359  0.88419  0.54331  Biso   1.000  H
  C548     1.0000 0.88832  0.88475  0.99493  Biso   1.000  C
  H643     1.0000 0.86091  0.91380  0.91799  Biso   1.000  H
  C549     1.0000 0.87848  0.86196  0.06399  Biso   1.000  C
  H644     1.0000 0.82970  0.85130  0.11631  Biso   1.000  H
  H645     1.0000 0.81779  0.96009  0.92397  Biso   1.000  H
  C550     1.0000 0.79185  0.98895  0.01878  Biso   1.000  C
  H646     1.0000 0.75691  0.93131  0.13933  Biso   1.000  H
  C551     1.0000 0.77060  0.97939  0.09412  Biso   1.000  C
  O59      1.0000 0.97674  0.94994  0.58617  Biso   1.000  O
  O60      1.0000 0.92898  0.97344  0.63706  Biso   1.000  O
  C552     1.0000 0.92251  0.89319  0.95260  Biso   1.000  C
  H647     1.0000 0.89250  0.84729  0.09958  Biso   1.000  H
  C553     1.0000 0.80077  0.02274  0.97910  Biso   1.000  C
  H648     1.0000 0.75860  0.99350  0.13812  Biso   1.000  H
  C554     1.0000 0.94632  0.00428  0.65538  Biso   1.000  C
  C555     1.0000 0.93362  0.92710  0.98349  Biso   1.000  C
  C556     1.0000 0.94771  0.86780  0.99038  Biso   1.000  C
  C557     1.0000 0.92169  0.89150  0.83583  Biso   1.000  C
  C558     1.0000 0.79580  0.02365  0.86309  Biso   1.000  C
  C559     1.0000 0.83648  0.03189  0.00197  Biso   1.000  C
  C560     1.0000 0.77746  0.04805  0.02703  Biso   1.000  C
  H649     1.0000 0.93260  0.02269  0.63077  Biso   1.000  H
  H650     1.0000 0.96750  0.00450  0.61752  Biso   1.000  H
  C561     1.0000 0.95328  0.00866  0.76836  Biso   1.000  C
  N74      1.0000 0.91879  0.95483  0.94669  Biso   1.000  N
  C562     1.0000 0.95937  0.93718  0.04339  Biso   1.000  C
  H651     1.0000 0.96991  0.87340  0.96509  Biso   1.000  H
  H652     1.0000 0.94140  0.84609  0.96570  Biso   1.000  H
  H653     1.0000 0.94789  0.86771  0.06459  Biso   1.000  H
  H654     1.0000 0.91471  0.86959  0.81448  Biso   1.000  H
  H655     1.0000 0.94391  0.89610  0.80887  Biso   1.000  H
  H656     1.0000 0.90589  0.90769  0.80978  Biso   1.000  H
  H657     1.0000 0.80139  0.04551  0.83757  Biso   1.000  H
  H658     1.0000 0.77259  0.01871  0.84711  Biso   1.000  H
  H659     1.0000 0.81029  0.00741  0.83121  Biso   1.000  H
  N75      1.0000 0.86270  0.01482  0.95979  Biso   1.000  N
  C563     1.0000 0.85010  0.05688  0.05740  Biso   1.000  C
  H660     1.0000 0.78250  0.06979  0.99970  Biso   1.000  H
  H661     1.0000 0.78059  0.04820  0.10064  Biso   1.000  H
  H662     1.0000 0.75440  0.04240  0.01143  Biso   1.000  H
  H663     1.0000 0.96300  0.98819  0.79562  Biso   1.000  H
  H664     1.0000 0.96981  0.02631  0.77760  Biso   1.000  H
  C564     1.0000 0.92194  0.01702  0.82803  Biso   1.000  C
  C565     1.0000 0.93452  0.98249  0.98167  Biso   1.000  C
  H665     1.0000 0.90261  0.95549  0.91103  Biso   1.000  H
  C566     1.0000 0.95974  0.97200  0.04316  Biso   1.000  C
  H666     1.0000 0.97440  0.92341  0.07883  Biso   1.000  H
  H667     1.0000 0.86019  0.99611  0.91299  Biso   1.000  H
  C567     1.0000 0.89274  0.02859  0.98932  Biso   1.000  C
  H668     1.0000 0.83810  0.07290  0.09443  Biso   1.000  H
  C568     1.0000 0.88501  0.05475  0.05028  Biso   1.000  C
  C569     1.0000 0.92540  0.01658  0.94601  Biso   1.000  C
  H669     1.0000 0.90430  0.00130  0.80857  Biso   1.000  H
  H670     1.0000 0.91439  0.03910  0.80721  Biso   1.000  H
  H671     1.0000 0.97480  0.98560  0.07943  Biso   1.000  H
  H672     1.0000 0.90050  0.06901  0.08224  Biso   1.000  H
  C570     1.0000 0.95296  0.04015  0.97827  Biso   1.000  C
  H673     1.0000 0.94821  0.06199  0.95154  Biso   1.000  H
  H674     1.0000 0.97430  0.03250  0.95161  Biso   1.000  H
  H675     1.0000 0.95400  0.04111  0.05240  Biso   1.000  H
  C571     1.0000 0.19806  0.12836  0.69559  Biso   1.000  C
  O61      1.0000 0.16610  0.11378  0.66629  Biso   1.000  O
  C572     1.0000 0.20025  0.13254  0.80857  Biso   1.000  C
  H676     1.0000 0.20060  0.14990  0.66227  Biso   1.000  H
  H677     1.0000 0.21640  0.11410  0.67219  Biso   1.000  H
  C573     1.0000 0.14473  0.13376  0.61722  Biso   1.000  C
  C574     1.0000 0.20567  0.10006  0.86362  Biso   1.000  C
  H678     1.0000 0.17950  0.14271  0.83348  Biso   1.000  H
  H679     1.0000 0.21881  0.14750  0.82470  Biso   1.000  H
  O62      1.0000 0.15045  0.16132  0.59632  Biso   1.000  O
  C575     1.0000 0.11295  0.11806  0.59481  Biso   1.000  C
  C576     1.0000 0.20224  0.10080  0.98039  Biso   1.000  C
  H680     1.0000 0.22821  0.09199  0.84674  Biso   1.000  H
  H681     1.0000 0.18949  0.08400  0.83659  Biso   1.000  H
  N76      1.0000 0.10497  0.08578  0.61010  Biso   1.000  N
  C577     1.0000 0.08472  0.13440  0.56338  Biso   1.000  C
  C578     1.0000 0.16747  0.11207  0.00863  Biso   1.000  C
  C579     1.0000 0.20952  0.06661  0.02029  Biso   1.000  C
  C580     1.0000 0.22773  0.12439  0.02673  Biso   1.000  C
  C581     1.0000 0.07165  0.08158  0.59056  Biso   1.000  C
  H682     1.0000 0.11931  0.06959  0.62699  Biso   1.000  H
  H683     1.0000 0.08320  0.15689  0.54642  Biso   1.000  H
  C582     1.0000 0.05880  0.11151  0.56149  Biso   1.000  C
  N77      1.0000 0.13971  0.09967  0.96199  Biso   1.000  N
  C583     1.0000 0.15666  0.13584  0.07300  Biso   1.000  C
  N78      1.0000 0.19617  0.03915  0.97509  Biso   1.000  N
  C584     1.0000 0.23027  0.05546  0.09481  Biso   1.000  C
  H684     1.0000 0.22351  0.14660  0.00220  Biso   1.000  H
  H685     1.0000 0.25020  0.11769  0.00682  Biso   1.000  H
  H686     1.0000 0.22589  0.12391  0.10071  Biso   1.000  H
  C585     1.0000 0.05256  0.05135  0.60298  Biso   1.000  C
  H687     1.0000 0.03641  0.11581  0.54331  Biso   1.000  H
  C586     1.0000 0.11168  0.11525  0.99493  Biso   1.000  C
  H688     1.0000 0.13909  0.08620  0.91799  Biso   1.000  H
  C587     1.0000 0.12152  0.13804  0.06399  Biso   1.000  C
  H689     1.0000 0.17030  0.14870  0.11631  Biso   1.000  H
  H690     1.0000 0.18221  0.03991  0.92397  Biso   1.000  H
  C588     1.0000 0.20815  0.01105  0.01878  Biso   1.000  C
  H691     1.0000 0.24309  0.06869  0.13933  Biso   1.000  H
  C589     1.0000 0.22940  0.02061  0.09412  Biso   1.000  C
  O63      1.0000 0.02326  0.05006  0.58617  Biso   1.000  O
  O64      1.0000 0.07102  0.02656  0.63706  Biso   1.000  O
  C590     1.0000 0.07749  0.10681  0.95260  Biso   1.000  C
  H692     1.0000 0.10750  0.15271  0.09958  Biso   1.000  H
  C591     1.0000 0.19923  0.97726  0.97910  Biso   1.000  C
  H693     1.0000 0.24140  0.00650  0.13812  Biso   1.000  H
  C592     1.0000 0.05368  0.99572  0.65538  Biso   1.000  C
  C593     1.0000 0.06638  0.07290  0.98349  Biso   1.000  C
  C594     1.0000 0.05229  0.13220  0.99038  Biso   1.000  C
  C595     1.0000 0.07831  0.10850  0.83583  Biso   1.000  C
  C596     1.0000 0.20420  0.97635  0.86309  Biso   1.000  C
  C597     1.0000 0.16352  0.96811  0.00197  Biso   1.000  C
  C598     1.0000 0.22254  0.95195  0.02703  Biso   1.000  C
  H694     1.0000 0.06740  0.97731  0.63077  Biso   1.000  H
  H695     1.0000 0.03250  0.99550  0.61752  Biso   1.000  H
  C599     1.0000 0.04672  0.99134  0.76836  Biso   1.000  C
  N79      1.0000 0.08121  0.04517  0.94669  Biso   1.000  N
  C600     1.0000 0.04063  0.06282  0.04339  Biso   1.000  C
  H696     1.0000 0.03009  0.12660  0.96509  Biso   1.000  H
  H697     1.0000 0.05860  0.15391  0.96570  Biso   1.000  H
  H698     1.0000 0.05211  0.13229  0.06459  Biso   1.000  H
  H699     1.0000 0.08529  0.13041  0.81448  Biso   1.000  H
  H700     1.0000 0.05609  0.10390  0.80887  Biso   1.000  H
  H701     1.0000 0.09411  0.09231  0.80978  Biso   1.000  H
  H702     1.0000 0.19861  0.95449  0.83757  Biso   1.000  H
  H703     1.0000 0.22741  0.98129  0.84711  Biso   1.000  H
  H704     1.0000 0.18971  0.99259  0.83121  Biso   1.000  H
  N80      1.0000 0.13730  0.98518  0.95979  Biso   1.000  N
  C601     1.0000 0.14990  0.94312  0.05740  Biso   1.000  C
  H705     1.0000 0.21750  0.93021  0.99970  Biso   1.000  H
  H706     1.0000 0.21941  0.95180  0.10064  Biso   1.000  H
  H707     1.0000 0.24560  0.95760  0.01143  Biso   1.000  H
  H708     1.0000 0.03700  0.01181  0.79562  Biso   1.000  H
  H709     1.0000 0.03019  0.97369  0.77760  Biso   1.000  H
  C602     1.0000 0.07806  0.98298  0.82803  Biso   1.000  C
  C603     1.0000 0.06548  0.01751  0.98167  Biso   1.000  C
  H710     1.0000 0.09739  0.04451  0.91103  Biso   1.000  H
  C604     1.0000 0.04026  0.02800  0.04316  Biso   1.000  C
  H711     1.0000 0.02560  0.07659  0.07883  Biso   1.000  H
  C605     1.0000 0.10726  0.97141  0.98932  Biso   1.000  C
  H712     1.0000 0.13981  0.00389  0.91299  Biso   1.000  H
  C606     1.0000 0.11499  0.94525  0.05028  Biso   1.000  C
  H713     1.0000 0.16190  0.92710  0.09443  Biso   1.000  H
  C607     1.0000 0.07460  0.98342  0.94601  Biso   1.000  C
  H714     1.0000 0.09570  0.99870  0.80857  Biso   1.000  H
  H715     1.0000 0.08561  0.96090  0.80721  Biso   1.000  H
  H716     1.0000 0.02520  0.01440  0.07943  Biso   1.000  H
  H717     1.0000 0.09950  0.93099  0.08224  Biso   1.000  H
  C608     1.0000 0.04704  0.95985  0.97827  Biso   1.000  C
  H718     1.0000 0.05179  0.93801  0.95154  Biso   1.000  H
  H719     1.0000 0.02570  0.96750  0.95161  Biso   1.000  H
  H720     1.0000 0.04600  0.95889  0.05240  Biso   1.000  H
