data_image0
_cell_length_a       16.387
_cell_length_b       11.486
_cell_length_c       15.506
_cell_angle_alpha    90
_cell_angle_beta     90
_cell_angle_gamma    90

_symmetry_space_group_name_H-M    "P 1"
_symmetry_int_tables_number       1

loop_
  _symmetry_equiv_pos_as_xyz
  'x, y, z'

loop_
  _atom_site_label
  _atom_site_occupancy
  _atom_site_fract_x
  _atom_site_fract_y
  _atom_site_fract_z
  _atom_site_thermal_displace_type
  _atom_site_B_iso_or_equiv
  _atom_site_type_symbol
  O1       1.0000 0.22927  0.32840  0.11318  Biso   1.000  O
  C1       1.0000 0.23628  0.43218  0.12930  Biso   1.000  C
  N1       1.0000 0.20998  0.48494  0.20347  Biso   1.000  N
  N2       1.0000 0.27290  0.51280  0.07732  Biso   1.000  N
  C2       1.0000 0.23220  0.60700  0.20611  Biso   1.000  C
  C3       1.0000 0.17563  0.42112  0.27338  Biso   1.000  C
  C4       1.0000 0.27760  0.62493  0.11950  Biso   1.000  C
  C5       1.0000 0.31592  0.48259  0.00000  Biso   1.000  C
  N3       1.0000 0.16428  0.68666  0.20070  Biso   1.000  N
  H1       1.0000 0.26741  0.62459  0.25551  Biso   1.000  H
  N4       1.0000 0.08818  0.42896  0.27912  Biso   1.000  N
  H2       1.0000 0.19912  0.44942  0.32691  Biso   1.000  H
  H3       1.0000 0.19070  0.33980  0.26751  Biso   1.000  H
  N5       1.0000 0.23061  0.71600  0.07797  Biso   1.000  N
  H4       1.0000 0.33429  0.64879  0.12872  Biso   1.000  H
  H5       1.0000 0.36840  0.52177  0.00000  Biso   1.000  H
  H6       1.0000 0.32617  0.39944  0.00000  Biso   1.000  H
  N6       1.0000 0.27290  0.51280  0.92268  Biso   1.000  N
  C6       1.0000 0.10801  0.71017  0.27080  Biso   1.000  C
  C7       1.0000 0.16531  0.74987  0.12640  Biso   1.000  C
  C8       1.0000 0.04351  0.52090  0.32233  Biso   1.000  C
  C9       1.0000 0.03710  0.34076  0.25403  Biso   1.000  C
  C10      1.0000 0.25459  0.77494  0.00000  Biso   1.000  C
  C11      1.0000 0.27760  0.62493  0.88050  Biso   1.000  C
  C12      1.0000 0.23628  0.43218  0.87070  Biso   1.000  C
  N7       1.0000 0.04040  0.62937  0.27409  Biso   1.000  N
  H7       1.0000 0.08678  0.78861  0.26441  Biso   1.000  H
  H8       1.0000 0.13749  0.70669  0.32491  Biso   1.000  H
  O2       1.0000 0.11778  0.82727  0.10796  Biso   1.000  O
  H9       1.0000 0.06102  0.52899  0.37998  Biso   1.000  H
  C13      1.0000 0.95649  0.47910  0.32233  Biso   1.000  C
  O3       1.0000 0.05871  0.25118  0.21850  Biso   1.000  O
  N8       1.0000 0.95960  0.37063  0.27409  Biso   1.000  N
  H10      1.0000 0.23067  0.85217  0.00000  Biso   1.000  H
  H11      1.0000 0.31342  0.78391  0.00000  Biso   1.000  H
  N9       1.0000 0.23061  0.71600  0.92203  Biso   1.000  N
  C14      1.0000 0.23220  0.60700  0.79389  Biso   1.000  C
  H12      1.0000 0.33429  0.64879  0.87128  Biso   1.000  H
  O4       1.0000 0.22927  0.32840  0.88682  Biso   1.000  O
  N10      1.0000 0.20998  0.48494  0.79653  Biso   1.000  N
  C15      1.0000 0.96290  0.65924  0.25403  Biso   1.000  C
  N11      1.0000 0.91182  0.57104  0.27912  Biso   1.000  N
  H13      1.0000 0.93898  0.47101  0.37998  Biso   1.000  H
  C16      1.0000 0.89199  0.28983  0.27080  Biso   1.000  C
  C17      1.0000 0.16531  0.74987  0.87360  Biso   1.000  C
  N12      1.0000 0.16428  0.68666  0.79930  Biso   1.000  N
  H14      1.0000 0.26741  0.62459  0.74449  Biso   1.000  H
  C18      1.0000 0.17563  0.42112  0.72662  Biso   1.000  C
  O5       1.0000 0.94129  0.74882  0.21850  Biso   1.000  O
  C19      1.0000 0.82437  0.57888  0.27338  Biso   1.000  C
  N13      1.0000 0.83572  0.31334  0.20070  Biso   1.000  N
  H15      1.0000 0.91322  0.21139  0.26441  Biso   1.000  H
  H16      1.0000 0.86251  0.29331  0.32491  Biso   1.000  H
  O6       1.0000 0.11778  0.82727  0.89204  Biso   1.000  O
  C20      1.0000 0.10801  0.71017  0.72920  Biso   1.000  C
  N14      1.0000 0.08818  0.42896  0.72088  Biso   1.000  N
  H17      1.0000 0.19912  0.44942  0.67309  Biso   1.000  H
  H18      1.0000 0.19070  0.33980  0.73249  Biso   1.000  H
  N15      1.0000 0.79002  0.51506  0.20347  Biso   1.000  N
  H19      1.0000 0.80088  0.55058  0.32691  Biso   1.000  H
  H20      1.0000 0.80930  0.66020  0.26751  Biso   1.000  H
  C21      1.0000 0.76780  0.39300  0.20611  Biso   1.000  C
  C22      1.0000 0.83469  0.25013  0.12640  Biso   1.000  C
  N16      1.0000 0.04040  0.62937  0.72591  Biso   1.000  N
  H21      1.0000 0.08678  0.78861  0.73559  Biso   1.000  H
  H22      1.0000 0.13749  0.70669  0.67509  Biso   1.000  H
  C23      1.0000 0.04351  0.52090  0.67767  Biso   1.000  C
  C24      1.0000 0.03710  0.34076  0.74597  Biso   1.000  C
  C25      1.0000 0.76372  0.56782  0.12930  Biso   1.000  C
  H23      1.0000 0.73259  0.37541  0.25551  Biso   1.000  H
  C26      1.0000 0.72240  0.37507  0.11950  Biso   1.000  C
  O7       1.0000 0.88222  0.17273  0.10796  Biso   1.000  O
  N17      1.0000 0.76939  0.28400  0.07797  Biso   1.000  N
  C27      1.0000 0.96290  0.65924  0.74597  Biso   1.000  C
  C28      1.0000 0.95649  0.47910  0.67767  Biso   1.000  C
  H24      1.0000 0.06102  0.52899  0.62002  Biso   1.000  H
  N18      1.0000 0.95960  0.37063  0.72591  Biso   1.000  N
  O8       1.0000 0.05871  0.25118  0.78150  Biso   1.000  O
  O9       1.0000 0.77073  0.67160  0.11318  Biso   1.000  O
  N19      1.0000 0.72710  0.48720  0.07732  Biso   1.000  N
  H25      1.0000 0.66571  0.35121  0.12872  Biso   1.000  H
  C29      1.0000 0.74541  0.22506  0.00000  Biso   1.000  C
  N20      1.0000 0.91182  0.57104  0.72088  Biso   1.000  N
  O10      1.0000 0.94129  0.74882  0.78150  Biso   1.000  O
  H26      1.0000 0.93898  0.47101  0.62002  Biso   1.000  H
  C30      1.0000 0.89199  0.28983  0.72920  Biso   1.000  C
  C31      1.0000 0.68408  0.51741  0.00000  Biso   1.000  C
  N21      1.0000 0.76939  0.28400  0.92203  Biso   1.000  N
  H27      1.0000 0.76933  0.14783  0.00000  Biso   1.000  H
  H28      1.0000 0.68658  0.21609  0.00000  Biso   1.000  H
  C32      1.0000 0.82437  0.57888  0.72662  Biso   1.000  C
  N22      1.0000 0.83572  0.31334  0.79930  Biso   1.000  N
  H29      1.0000 0.91322  0.21139  0.73559  Biso   1.000  H
  H30      1.0000 0.86251  0.29331  0.67509  Biso   1.000  H
  N23      1.0000 0.72710  0.48720  0.92268  Biso   1.000  N
  H31      1.0000 0.63160  0.47823  0.00000  Biso   1.000  H
  H32      1.0000 0.67383  0.60056  0.00000  Biso   1.000  H
  C33      1.0000 0.72240  0.37507  0.88050  Biso   1.000  C
  C34      1.0000 0.83469  0.25013  0.87360  Biso   1.000  C
  N24      1.0000 0.79002  0.51506  0.79653  Biso   1.000  N
  H33      1.0000 0.80088  0.55058  0.67309  Biso   1.000  H
  H34      1.0000 0.80930  0.66020  0.73249  Biso   1.000  H
  C35      1.0000 0.76780  0.39300  0.79389  Biso   1.000  C
  C36      1.0000 0.76372  0.56782  0.87070  Biso   1.000  C
  H35      1.0000 0.66571  0.35121  0.87128  Biso   1.000  H
  O11      1.0000 0.88222  0.17273  0.89204  Biso   1.000  O
  H36      1.0000 0.73259  0.37541  0.74449  Biso   1.000  H
  O12      1.0000 0.77073  0.67160  0.88682  Biso   1.000  O
  O13      1.0000 0.22927  0.32840  0.11318  Biso   1.000  O
  C37      1.0000 0.23628  0.43218  0.12930  Biso   1.000  C
  N25      1.0000 0.20998  0.48494  0.20347  Biso   1.000  N
  N26      1.0000 0.27290  0.51280  0.07732  Biso   1.000  N
  C38      1.0000 0.23220  0.60700  0.20611  Biso   1.000  C
  C39      1.0000 0.17563  0.42112  0.27338  Biso   1.000  C
  C40      1.0000 0.27760  0.62493  0.11950  Biso   1.000  C
  C41      1.0000 0.31592  0.48259  0.00000  Biso   1.000  C
  N27      1.0000 0.16428  0.68666  0.20070  Biso   1.000  N
  H37      1.0000 0.26741  0.62459  0.25551  Biso   1.000  H
  N28      1.0000 0.08818  0.42896  0.27912  Biso   1.000  N
  H38      1.0000 0.19912  0.44942  0.32691  Biso   1.000  H
  H39      1.0000 0.19070  0.33980  0.26751  Biso   1.000  H
  N29      1.0000 0.23061  0.71600  0.07797  Biso   1.000  N
  H40      1.0000 0.33429  0.64879  0.12872  Biso   1.000  H
  H41      1.0000 0.36840  0.52177  0.00000  Biso   1.000  H
  H42      1.0000 0.32617  0.39944  0.00000  Biso   1.000  H
  N30      1.0000 0.27290  0.51280  0.92268  Biso   1.000  N
  C42      1.0000 0.10801  0.71017  0.27080  Biso   1.000  C
  C43      1.0000 0.16531  0.74987  0.12640  Biso   1.000  C
  C44      1.0000 0.04351  0.52090  0.32233  Biso   1.000  C
  C45      1.0000 0.03710  0.34076  0.25403  Biso   1.000  C
  C46      1.0000 0.25459  0.77494  0.00000  Biso   1.000  C
  C47      1.0000 0.27760  0.62493  0.88050  Biso   1.000  C
  C48      1.0000 0.23628  0.43218  0.87070  Biso   1.000  C
  N31      1.0000 0.04040  0.62937  0.27409  Biso   1.000  N
  H43      1.0000 0.08678  0.78861  0.26441  Biso   1.000  H
  H44      1.0000 0.13749  0.70669  0.32491  Biso   1.000  H
  O14      1.0000 0.11778  0.82727  0.10796  Biso   1.000  O
  H45      1.0000 0.06102  0.52899  0.37998  Biso   1.000  H
  C49      1.0000 0.95649  0.47910  0.32233  Biso   1.000  C
  O15      1.0000 0.05871  0.25118  0.21850  Biso   1.000  O
  N32      1.0000 0.95960  0.37063  0.27409  Biso   1.000  N
  H46      1.0000 0.23067  0.85217  0.00000  Biso   1.000  H
  H47      1.0000 0.31342  0.78391  0.00000  Biso   1.000  H
  N33      1.0000 0.23061  0.71600  0.92203  Biso   1.000  N
  C50      1.0000 0.23220  0.60700  0.79389  Biso   1.000  C
  H48      1.0000 0.33429  0.64879  0.87128  Biso   1.000  H
  O16      1.0000 0.22927  0.32840  0.88682  Biso   1.000  O
  N34      1.0000 0.20998  0.48494  0.79653  Biso   1.000  N
  C51      1.0000 0.96290  0.65924  0.25403  Biso   1.000  C
  N35      1.0000 0.91182  0.57104  0.27912  Biso   1.000  N
  H49      1.0000 0.93898  0.47101  0.37998  Biso   1.000  H
  C52      1.0000 0.89199  0.28983  0.27080  Biso   1.000  C
  C53      1.0000 0.16531  0.74987  0.87360  Biso   1.000  C
  N36      1.0000 0.16428  0.68666  0.79930  Biso   1.000  N
  H50      1.0000 0.26741  0.62459  0.74449  Biso   1.000  H
  C54      1.0000 0.17563  0.42112  0.72662  Biso   1.000  C
  O17      1.0000 0.94129  0.74882  0.21850  Biso   1.000  O
  C55      1.0000 0.82437  0.57888  0.27338  Biso   1.000  C
  N37      1.0000 0.83572  0.31334  0.20070  Biso   1.000  N
  H51      1.0000 0.91322  0.21139  0.26441  Biso   1.000  H
  H52      1.0000 0.86251  0.29331  0.32491  Biso   1.000  H
  O18      1.0000 0.11778  0.82727  0.89204  Biso   1.000  O
  C56      1.0000 0.10801  0.71017  0.72920  Biso   1.000  C
  N38      1.0000 0.08818  0.42896  0.72088  Biso   1.000  N
  H53      1.0000 0.19912  0.44942  0.67309  Biso   1.000  H
  H54      1.0000 0.19070  0.33980  0.73249  Biso   1.000  H
  N39      1.0000 0.79002  0.51506  0.20347  Biso   1.000  N
  H55      1.0000 0.80088  0.55058  0.32691  Biso   1.000  H
  H56      1.0000 0.80930  0.66020  0.26751  Biso   1.000  H
  C57      1.0000 0.76780  0.39300  0.20611  Biso   1.000  C
  C58      1.0000 0.83469  0.25013  0.12640  Biso   1.000  C
  N40      1.0000 0.04040  0.62937  0.72591  Biso   1.000  N
  H57      1.0000 0.08678  0.78861  0.73559  Biso   1.000  H
  H58      1.0000 0.13749  0.70669  0.67509  Biso   1.000  H
  C59      1.0000 0.04351  0.52090  0.67767  Biso   1.000  C
  C60      1.0000 0.03710  0.34076  0.74597  Biso   1.000  C
  C61      1.0000 0.76372  0.56782  0.12930  Biso   1.000  C
  H59      1.0000 0.73259  0.37541  0.25551  Biso   1.000  H
  C62      1.0000 0.72240  0.37507  0.11950  Biso   1.000  C
  O19      1.0000 0.88222  0.17273  0.10796  Biso   1.000  O
  N41      1.0000 0.76939  0.28400  0.07797  Biso   1.000  N
  C63      1.0000 0.96290  0.65924  0.74597  Biso   1.000  C
  C64      1.0000 0.95649  0.47910  0.67767  Biso   1.000  C
  H60      1.0000 0.06102  0.52899  0.62002  Biso   1.000  H
  N42      1.0000 0.95960  0.37063  0.72591  Biso   1.000  N
  O20      1.0000 0.05871  0.25118  0.78150  Biso   1.000  O
  O21      1.0000 0.77073  0.67160  0.11318  Biso   1.000  O
  N43      1.0000 0.72710  0.48720  0.07732  Biso   1.000  N
  H61      1.0000 0.66571  0.35121  0.12872  Biso   1.000  H
  C65      1.0000 0.74541  0.22506  0.00000  Biso   1.000  C
  N44      1.0000 0.91182  0.57104  0.72088  Biso   1.000  N
  O22      1.0000 0.94129  0.74882  0.78150  Biso   1.000  O
  H62      1.0000 0.93898  0.47101  0.62002  Biso   1.000  H
  C66      1.0000 0.89199  0.28983  0.72920  Biso   1.000  C
  C67      1.0000 0.68408  0.51741  0.00000  Biso   1.000  C
  N45      1.0000 0.76939  0.28400  0.92203  Biso   1.000  N
  H63      1.0000 0.76933  0.14783  0.00000  Biso   1.000  H
  H64      1.0000 0.68658  0.21609  0.00000  Biso   1.000  H
  C68      1.0000 0.82437  0.57888  0.72662  Biso   1.000  C
  N46      1.0000 0.83572  0.31334  0.79930  Biso   1.000  N
  H65      1.0000 0.91322  0.21139  0.73559  Biso   1.000  H
  H66      1.0000 0.86251  0.29331  0.67509  Biso   1.000  H
  N47      1.0000 0.72710  0.48720  0.92268  Biso   1.000  N
  H67      1.0000 0.63160  0.47823  0.00000  Biso   1.000  H
  H68      1.0000 0.67383  0.60056  0.00000  Biso   1.000  H
  C69      1.0000 0.72240  0.37507  0.88050  Biso   1.000  C
  C70      1.0000 0.83469  0.25013  0.87360  Biso   1.000  C
  N48      1.0000 0.79002  0.51506  0.79653  Biso   1.000  N
  H69      1.0000 0.80088  0.55058  0.67309  Biso   1.000  H
  H70      1.0000 0.80930  0.66020  0.73249  Biso   1.000  H
  C71      1.0000 0.76780  0.39300  0.79389  Biso   1.000  C
  C72      1.0000 0.76372  0.56782  0.87070  Biso   1.000  C
  H71      1.0000 0.66571  0.35121  0.87128  Biso   1.000  H
  O23      1.0000 0.88222  0.17273  0.89204  Biso   1.000  O
  H72      1.0000 0.73259  0.37541  0.74449  Biso   1.000  H
  O24      1.0000 0.77073  0.67160  0.88682  Biso   1.000  O
  O25      1.0000 0.22927  0.32840  0.11318  Biso   1.000  O
  C73      1.0000 0.23628  0.43218  0.12930  Biso   1.000  C
  N49      1.0000 0.20998  0.48494  0.20347  Biso   1.000  N
  N50      1.0000 0.27290  0.51280  0.07732  Biso   1.000  N
  C74      1.0000 0.23220  0.60700  0.20611  Biso   1.000  C
  C75      1.0000 0.17563  0.42112  0.27338  Biso   1.000  C
  C76      1.0000 0.27760  0.62493  0.11950  Biso   1.000  C
  C77      1.0000 0.31592  0.48259  0.00000  Biso   1.000  C
  N51      1.0000 0.16428  0.68666  0.20070  Biso   1.000  N
  H73      1.0000 0.26741  0.62459  0.25551  Biso   1.000  H
  N52      1.0000 0.08818  0.42896  0.27912  Biso   1.000  N
  H74      1.0000 0.19912  0.44942  0.32691  Biso   1.000  H
  H75      1.0000 0.19070  0.33980  0.26751  Biso   1.000  H
  N53      1.0000 0.23061  0.71600  0.07797  Biso   1.000  N
  H76      1.0000 0.33429  0.64879  0.12872  Biso   1.000  H
  H77      1.0000 0.36840  0.52177  0.00000  Biso   1.000  H
  H78      1.0000 0.32617  0.39944  0.00000  Biso   1.000  H
  N54      1.0000 0.27290  0.51280  0.92268  Biso   1.000  N
  C78      1.0000 0.10801  0.71017  0.27080  Biso   1.000  C
  C79      1.0000 0.16531  0.74987  0.12640  Biso   1.000  C
  C80      1.0000 0.04351  0.52090  0.32233  Biso   1.000  C
  C81      1.0000 0.03710  0.34076  0.25403  Biso   1.000  C
  C82      1.0000 0.25459  0.77494  0.00000  Biso   1.000  C
  C83      1.0000 0.27760  0.62493  0.88050  Biso   1.000  C
  C84      1.0000 0.23628  0.43218  0.87070  Biso   1.000  C
  N55      1.0000 0.04040  0.62937  0.27409  Biso   1.000  N
  H79      1.0000 0.08678  0.78861  0.26441  Biso   1.000  H
  H80      1.0000 0.13749  0.70669  0.32491  Biso   1.000  H
  O26      1.0000 0.11778  0.82727  0.10796  Biso   1.000  O
  H81      1.0000 0.06102  0.52899  0.37998  Biso   1.000  H
  C85      1.0000 0.95649  0.47910  0.32233  Biso   1.000  C
  O27      1.0000 0.05871  0.25118  0.21850  Biso   1.000  O
  N56      1.0000 0.95960  0.37063  0.27409  Biso   1.000  N
  H82      1.0000 0.23067  0.85217  0.00000  Biso   1.000  H
  H83      1.0000 0.31342  0.78391  0.00000  Biso   1.000  H
  N57      1.0000 0.23061  0.71600  0.92203  Biso   1.000  N
  C86      1.0000 0.23220  0.60700  0.79389  Biso   1.000  C
  H84      1.0000 0.33429  0.64879  0.87128  Biso   1.000  H
  O28      1.0000 0.22927  0.32840  0.88682  Biso   1.000  O
  N58      1.0000 0.20998  0.48494  0.79653  Biso   1.000  N
  C87      1.0000 0.96290  0.65924  0.25403  Biso   1.000  C
  N59      1.0000 0.91182  0.57104  0.27912  Biso   1.000  N
  H85      1.0000 0.93898  0.47101  0.37998  Biso   1.000  H
  C88      1.0000 0.89199  0.28983  0.27080  Biso   1.000  C
  C89      1.0000 0.16531  0.74987  0.87360  Biso   1.000  C
  N60      1.0000 0.16428  0.68666  0.79930  Biso   1.000  N
  H86      1.0000 0.26741  0.62459  0.74449  Biso   1.000  H
  C90      1.0000 0.17563  0.42112  0.72662  Biso   1.000  C
  O29      1.0000 0.94129  0.74882  0.21850  Biso   1.000  O
  C91      1.0000 0.82437  0.57888  0.27338  Biso   1.000  C
  N61      1.0000 0.83572  0.31334  0.20070  Biso   1.000  N
  H87      1.0000 0.91322  0.21139  0.26441  Biso   1.000  H
  H88      1.0000 0.86251  0.29331  0.32491  Biso   1.000  H
  O30      1.0000 0.11778  0.82727  0.89204  Biso   1.000  O
  C92      1.0000 0.10801  0.71017  0.72920  Biso   1.000  C
  N62      1.0000 0.08818  0.42896  0.72088  Biso   1.000  N
  H89      1.0000 0.19912  0.44942  0.67309  Biso   1.000  H
  H90      1.0000 0.19070  0.33980  0.73249  Biso   1.000  H
  N63      1.0000 0.79002  0.51506  0.20347  Biso   1.000  N
  H91      1.0000 0.80088  0.55058  0.32691  Biso   1.000  H
  H92      1.0000 0.80930  0.66020  0.26751  Biso   1.000  H
  C93      1.0000 0.76780  0.39300  0.20611  Biso   1.000  C
  C94      1.0000 0.83469  0.25013  0.12640  Biso   1.000  C
  N64      1.0000 0.04040  0.62937  0.72591  Biso   1.000  N
  H93      1.0000 0.08678  0.78861  0.73559  Biso   1.000  H
  H94      1.0000 0.13749  0.70669  0.67509  Biso   1.000  H
  C95      1.0000 0.04351  0.52090  0.67767  Biso   1.000  C
  C96      1.0000 0.03710  0.34076  0.74597  Biso   1.000  C
  C97      1.0000 0.76372  0.56782  0.12930  Biso   1.000  C
  H95      1.0000 0.73259  0.37541  0.25551  Biso   1.000  H
  C98      1.0000 0.72240  0.37507  0.11950  Biso   1.000  C
  O31      1.0000 0.88222  0.17273  0.10796  Biso   1.000  O
  N65      1.0000 0.76939  0.28400  0.07797  Biso   1.000  N
  C99      1.0000 0.96290  0.65924  0.74597  Biso   1.000  C
  C100     1.0000 0.95649  0.47910  0.67767  Biso   1.000  C
  H96      1.0000 0.06102  0.52899  0.62002  Biso   1.000  H
  N66      1.0000 0.95960  0.37063  0.72591  Biso   1.000  N
  O32      1.0000 0.05871  0.25118  0.78150  Biso   1.000  O
  O33      1.0000 0.77073  0.67160  0.11318  Biso   1.000  O
  N67      1.0000 0.72710  0.48720  0.07732  Biso   1.000  N
  H97      1.0000 0.66571  0.35121  0.12872  Biso   1.000  H
  C101     1.0000 0.74541  0.22506  0.00000  Biso   1.000  C
  N68      1.0000 0.91182  0.57104  0.72088  Biso   1.000  N
  O34      1.0000 0.94129  0.74882  0.78150  Biso   1.000  O
  H98      1.0000 0.93898  0.47101  0.62002  Biso   1.000  H
  C102     1.0000 0.89199  0.28983  0.72920  Biso   1.000  C
  C103     1.0000 0.68408  0.51741  0.00000  Biso   1.000  C
  N69      1.0000 0.76939  0.28400  0.92203  Biso   1.000  N
  H99      1.0000 0.76933  0.14783  0.00000  Biso   1.000  H
  H100     1.0000 0.68658  0.21609  0.00000  Biso   1.000  H
  C104     1.0000 0.82437  0.57888  0.72662  Biso   1.000  C
  N70      1.0000 0.83572  0.31334  0.79930  Biso   1.000  N
  H101     1.0000 0.91322  0.21139  0.73559  Biso   1.000  H
  H102     1.0000 0.86251  0.29331  0.67509  Biso   1.000  H
  N71      1.0000 0.72710  0.48720  0.92268  Biso   1.000  N
  H103     1.0000 0.63160  0.47823  0.00000  Biso   1.000  H
  H104     1.0000 0.67383  0.60056  0.00000  Biso   1.000  H
  C105     1.0000 0.72240  0.37507  0.88050  Biso   1.000  C
  C106     1.0000 0.83469  0.25013  0.87360  Biso   1.000  C
  N72      1.0000 0.79002  0.51506  0.79653  Biso   1.000  N
  H105     1.0000 0.80088  0.55058  0.67309  Biso   1.000  H
  H106     1.0000 0.80930  0.66020  0.73249  Biso   1.000  H
  C107     1.0000 0.76780  0.39300  0.79389  Biso   1.000  C
  C108     1.0000 0.76372  0.56782  0.87070  Biso   1.000  C
  H107     1.0000 0.66571  0.35121  0.87128  Biso   1.000  H
  O35      1.0000 0.88222  0.17273  0.89204  Biso   1.000  O
  H108     1.0000 0.73259  0.37541  0.74449  Biso   1.000  H
  O36      1.0000 0.77073  0.67160  0.88682  Biso   1.000  O
  O37      1.0000 0.22927  0.32840  0.11318  Biso   1.000  O
  C109     1.0000 0.23628  0.43218  0.12930  Biso   1.000  C
  N73      1.0000 0.20998  0.48494  0.20347  Biso   1.000  N
  N74      1.0000 0.27290  0.51280  0.07732  Biso   1.000  N
  C110     1.0000 0.23220  0.60700  0.20611  Biso   1.000  C
  C111     1.0000 0.17563  0.42112  0.27338  Biso   1.000  C
  C112     1.0000 0.27760  0.62493  0.11950  Biso   1.000  C
  C113     1.0000 0.31592  0.48259  0.00000  Biso   1.000  C
  N75      1.0000 0.16428  0.68666  0.20070  Biso   1.000  N
  H109     1.0000 0.26741  0.62459  0.25551  Biso   1.000  H
  N76      1.0000 0.08818  0.42896  0.27912  Biso   1.000  N
  H110     1.0000 0.19912  0.44942  0.32691  Biso   1.000  H
  H111     1.0000 0.19070  0.33980  0.26751  Biso   1.000  H
  N77      1.0000 0.23061  0.71600  0.07797  Biso   1.000  N
  H112     1.0000 0.33429  0.64879  0.12872  Biso   1.000  H
  H113     1.0000 0.36840  0.52177  0.00000  Biso   1.000  H
  H114     1.0000 0.32617  0.39944  0.00000  Biso   1.000  H
  N78      1.0000 0.27290  0.51280  0.92268  Biso   1.000  N
  C114     1.0000 0.10801  0.71017  0.27080  Biso   1.000  C
  C115     1.0000 0.16531  0.74987  0.12640  Biso   1.000  C
  C116     1.0000 0.04351  0.52090  0.32233  Biso   1.000  C
  C117     1.0000 0.03710  0.34076  0.25403  Biso   1.000  C
  C118     1.0000 0.25459  0.77494  0.00000  Biso   1.000  C
  C119     1.0000 0.27760  0.62493  0.88050  Biso   1.000  C
  C120     1.0000 0.23628  0.43218  0.87070  Biso   1.000  C
  N79      1.0000 0.04040  0.62937  0.27409  Biso   1.000  N
  H115     1.0000 0.08678  0.78861  0.26441  Biso   1.000  H
  H116     1.0000 0.13749  0.70669  0.32491  Biso   1.000  H
  O38      1.0000 0.11778  0.82727  0.10796  Biso   1.000  O
  H117     1.0000 0.06102  0.52899  0.37998  Biso   1.000  H
  C121     1.0000 0.95649  0.47910  0.32233  Biso   1.000  C
  O39      1.0000 0.05871  0.25118  0.21850  Biso   1.000  O
  N80      1.0000 0.95960  0.37063  0.27409  Biso   1.000  N
  H118     1.0000 0.23067  0.85217  0.00000  Biso   1.000  H
  H119     1.0000 0.31342  0.78391  0.00000  Biso   1.000  H
  N81      1.0000 0.23061  0.71600  0.92203  Biso   1.000  N
  C122     1.0000 0.23220  0.60700  0.79389  Biso   1.000  C
  H120     1.0000 0.33429  0.64879  0.87128  Biso   1.000  H
  O40      1.0000 0.22927  0.32840  0.88682  Biso   1.000  O
  N82      1.0000 0.20998  0.48494  0.79653  Biso   1.000  N
  C123     1.0000 0.96290  0.65924  0.25403  Biso   1.000  C
  N83      1.0000 0.91182  0.57104  0.27912  Biso   1.000  N
  H121     1.0000 0.93898  0.47101  0.37998  Biso   1.000  H
  C124     1.0000 0.89199  0.28983  0.27080  Biso   1.000  C
  C125     1.0000 0.16531  0.74987  0.87360  Biso   1.000  C
  N84      1.0000 0.16428  0.68666  0.79930  Biso   1.000  N
  H122     1.0000 0.26741  0.62459  0.74449  Biso   1.000  H
  C126     1.0000 0.17563  0.42112  0.72662  Biso   1.000  C
  O41      1.0000 0.94129  0.74882  0.21850  Biso   1.000  O
  C127     1.0000 0.82437  0.57888  0.27338  Biso   1.000  C
  N85      1.0000 0.83572  0.31334  0.20070  Biso   1.000  N
  H123     1.0000 0.91322  0.21139  0.26441  Biso   1.000  H
  H124     1.0000 0.86251  0.29331  0.32491  Biso   1.000  H
  O42      1.0000 0.11778  0.82727  0.89204  Biso   1.000  O
  C128     1.0000 0.10801  0.71017  0.72920  Biso   1.000  C
  N86      1.0000 0.08818  0.42896  0.72088  Biso   1.000  N
  H125     1.0000 0.19912  0.44942  0.67309  Biso   1.000  H
  H126     1.0000 0.19070  0.33980  0.73249  Biso   1.000  H
  N87      1.0000 0.79002  0.51506  0.20347  Biso   1.000  N
  H127     1.0000 0.80088  0.55058  0.32691  Biso   1.000  H
  H128     1.0000 0.80930  0.66020  0.26751  Biso   1.000  H
  C129     1.0000 0.76780  0.39300  0.20611  Biso   1.000  C
  C130     1.0000 0.83469  0.25013  0.12640  Biso   1.000  C
  N88      1.0000 0.04040  0.62937  0.72591  Biso   1.000  N
  H129     1.0000 0.08678  0.78861  0.73559  Biso   1.000  H
  H130     1.0000 0.13749  0.70669  0.67509  Biso   1.000  H
  C131     1.0000 0.04351  0.52090  0.67767  Biso   1.000  C
  C132     1.0000 0.03710  0.34076  0.74597  Biso   1.000  C
  C133     1.0000 0.76372  0.56782  0.12930  Biso   1.000  C
  H131     1.0000 0.73259  0.37541  0.25551  Biso   1.000  H
  C134     1.0000 0.72240  0.37507  0.11950  Biso   1.000  C
  O43      1.0000 0.88222  0.17273  0.10796  Biso   1.000  O
  N89      1.0000 0.76939  0.28400  0.07797  Biso   1.000  N
  C135     1.0000 0.96290  0.65924  0.74597  Biso   1.000  C
  C136     1.0000 0.95649  0.47910  0.67767  Biso   1.000  C
  H132     1.0000 0.06102  0.52899  0.62002  Biso   1.000  H
  N90      1.0000 0.95960  0.37063  0.72591  Biso   1.000  N
  O44      1.0000 0.05871  0.25118  0.78150  Biso   1.000  O
  O45      1.0000 0.77073  0.67160  0.11318  Biso   1.000  O
  N91      1.0000 0.72710  0.48720  0.07732  Biso   1.000  N
  H133     1.0000 0.66571  0.35121  0.12872  Biso   1.000  H
  C137     1.0000 0.74541  0.22506  0.00000  Biso   1.000  C
  N92      1.0000 0.91182  0.57104  0.72088  Biso   1.000  N
  O46      1.0000 0.94129  0.74882  0.78150  Biso   1.000  O
  H134     1.0000 0.93898  0.47101  0.62002  Biso   1.000  H
  C138     1.0000 0.89199  0.28983  0.72920  Biso   1.000  C
  C139     1.0000 0.68408  0.51741  0.00000  Biso   1.000  C
  N93      1.0000 0.76939  0.28400  0.92203  Biso   1.000  N
  H135     1.0000 0.76933  0.14783  0.00000  Biso   1.000  H
  H136     1.0000 0.68658  0.21609  0.00000  Biso   1.000  H
  C140     1.0000 0.82437  0.57888  0.72662  Biso   1.000  C
  N94      1.0000 0.83572  0.31334  0.79930  Biso   1.000  N
  H137     1.0000 0.91322  0.21139  0.73559  Biso   1.000  H
  H138     1.0000 0.86251  0.29331  0.67509  Biso   1.000  H
  N95      1.0000 0.72710  0.48720  0.92268  Biso   1.000  N
  H139     1.0000 0.63160  0.47823  0.00000  Biso   1.000  H
  H140     1.0000 0.67383  0.60056  0.00000  Biso   1.000  H
  C141     1.0000 0.72240  0.37507  0.88050  Biso   1.000  C
  C142     1.0000 0.83469  0.25013  0.87360  Biso   1.000  C
  N96      1.0000 0.79002  0.51506  0.79653  Biso   1.000  N
  H141     1.0000 0.80088  0.55058  0.67309  Biso   1.000  H
  H142     1.0000 0.80930  0.66020  0.73249  Biso   1.000  H
  C143     1.0000 0.76780  0.39300  0.79389  Biso   1.000  C
  C144     1.0000 0.76372  0.56782  0.87070  Biso   1.000  C
  H143     1.0000 0.66571  0.35121  0.87128  Biso   1.000  H
  O47      1.0000 0.88222  0.17273  0.89204  Biso   1.000  O
  H144     1.0000 0.73259  0.37541  0.74449  Biso   1.000  H
  O48      1.0000 0.77073  0.67160  0.88682  Biso   1.000  O
  N97      1.0000 0.33569  0.18666  0.29930  Biso   1.000  N
  C145     1.0000 0.26777  0.10700  0.29389  Biso   1.000  C
  C146     1.0000 0.39202  0.21017  0.22920  Biso   1.000  C
  C147     1.0000 0.33472  0.24987  0.37360  Biso   1.000  C
  H145     1.0000 0.23262  0.12459  0.24449  Biso   1.000  H
  C148     1.0000 0.22237  0.12493  0.38050  Biso   1.000  C
  N98      1.0000 0.28999  0.98494  0.29653  Biso   1.000  N
  N99      1.0000 0.45957  0.12937  0.22591  Biso   1.000  N
  H146     1.0000 0.41319  0.28861  0.23559  Biso   1.000  H
  H147     1.0000 0.36248  0.20669  0.17509  Biso   1.000  H
  O49      1.0000 0.38219  0.32727  0.39204  Biso   1.000  O
  N100     1.0000 0.26936  0.21600  0.42203  Biso   1.000  N
  N101     1.0000 0.22713  0.01280  0.42268  Biso   1.000  N
  H148     1.0000 0.16568  0.14879  0.37128  Biso   1.000  H
  C149     1.0000 0.32440  0.92112  0.22662  Biso   1.000  C
  C150     1.0000 0.26368  0.93218  0.37070  Biso   1.000  C
  C151     1.0000 0.45652  0.02090  0.17767  Biso   1.000  C
  C152     1.0000 0.53707  0.15924  0.24597  Biso   1.000  C
  C153     1.0000 0.24538  0.27494  0.50000  Biso   1.000  C
  C154     1.0000 0.18411  0.98259  0.50000  Biso   1.000  C
  N102     1.0000 0.41179  0.92896  0.22088  Biso   1.000  N
  H149     1.0000 0.30091  0.94942  0.17309  Biso   1.000  H
  H150     1.0000 0.30927  0.83980  0.23249  Biso   1.000  H
  O50      1.0000 0.27070  0.82840  0.38682  Biso   1.000  O
  H151     1.0000 0.43901  0.02899  0.12002  Biso   1.000  H
  C155     1.0000 0.54348  0.97910  0.17767  Biso   1.000  C
  N103     1.0000 0.58821  0.07104  0.22088  Biso   1.000  N
  O51      1.0000 0.55867  0.24882  0.28150  Biso   1.000  O
  N104     1.0000 0.26936  0.21600  0.57797  Biso   1.000  N
  H152     1.0000 0.26930  0.35217  0.50000  Biso   1.000  H
  H153     1.0000 0.18661  0.28391  0.50000  Biso   1.000  H
  N105     1.0000 0.22713  0.01280  0.57732  Biso   1.000  N
  H154     1.0000 0.13163  0.02177  0.50000  Biso   1.000  H
  H155     1.0000 0.17380  0.89944  0.50000  Biso   1.000  H
  C156     1.0000 0.46293  0.84076  0.24597  Biso   1.000  C
  N106     1.0000 0.54043  0.87063  0.22591  Biso   1.000  N
  H156     1.0000 0.56099  0.97101  0.12002  Biso   1.000  H
  C157     1.0000 0.67560  0.07888  0.22662  Biso   1.000  C
  C158     1.0000 0.22237  0.12493  0.61950  Biso   1.000  C
  C159     1.0000 0.33472  0.24987  0.62640  Biso   1.000  C
  C160     1.0000 0.26368  0.93218  0.62930  Biso   1.000  C
  O52      1.0000 0.44133  0.75118  0.28150  Biso   1.000  O
  C161     1.0000 0.60798  0.78983  0.22920  Biso   1.000  C
  N107     1.0000 0.71001  0.01506  0.29653  Biso   1.000  N
  H157     1.0000 0.69909  0.05058  0.17309  Biso   1.000  H
  H158     1.0000 0.69073  0.16020  0.23249  Biso   1.000  H
  C162     1.0000 0.26777  0.10700  0.70611  Biso   1.000  C
  H159     1.0000 0.16568  0.14879  0.62872  Biso   1.000  H
  O53      1.0000 0.38219  0.32727  0.60796  Biso   1.000  O
  N108     1.0000 0.33569  0.18666  0.70070  Biso   1.000  N
  O54      1.0000 0.27070  0.82840  0.61318  Biso   1.000  O
  N109     1.0000 0.28999  0.98494  0.70347  Biso   1.000  N
  N110     1.0000 0.66431  0.81334  0.29930  Biso   1.000  N
  H160     1.0000 0.58681  0.71139  0.23559  Biso   1.000  H
  H161     1.0000 0.63752  0.79331  0.17509  Biso   1.000  H
  C163     1.0000 0.73632  0.06782  0.37070  Biso   1.000  C
  C164     1.0000 0.73223  0.89300  0.29389  Biso   1.000  C
  H162     1.0000 0.23262  0.12459  0.75551  Biso   1.000  H
  C165     1.0000 0.39202  0.21017  0.77080  Biso   1.000  C
  C166     1.0000 0.32440  0.92112  0.77338  Biso   1.000  C
  C167     1.0000 0.66528  0.75013  0.37360  Biso   1.000  C
  O55      1.0000 0.72930  0.17160  0.38682  Biso   1.000  O
  N111     1.0000 0.77287  0.98720  0.42268  Biso   1.000  N
  H163     1.0000 0.76738  0.87541  0.24449  Biso   1.000  H
  C168     1.0000 0.77763  0.87507  0.38050  Biso   1.000  C
  N112     1.0000 0.45957  0.12937  0.77409  Biso   1.000  N
  H164     1.0000 0.41319  0.28861  0.76441  Biso   1.000  H
  H165     1.0000 0.36248  0.20669  0.82491  Biso   1.000  H
  N113     1.0000 0.41179  0.92896  0.77912  Biso   1.000  N
  H166     1.0000 0.30091  0.94942  0.82691  Biso   1.000  H
  H167     1.0000 0.30927  0.83980  0.76751  Biso   1.000  H
  O56      1.0000 0.61781  0.67273  0.39204  Biso   1.000  O
  N114     1.0000 0.73064  0.78400  0.42203  Biso   1.000  N
  C169     1.0000 0.81589  0.01741  0.50000  Biso   1.000  C
  H168     1.0000 0.83432  0.85121  0.37128  Biso   1.000  H
  C170     1.0000 0.53707  0.15924  0.75403  Biso   1.000  C
  C171     1.0000 0.45652  0.02090  0.82233  Biso   1.000  C
  C172     1.0000 0.46293  0.84076  0.75403  Biso   1.000  C
  C173     1.0000 0.75462  0.72506  0.50000  Biso   1.000  C
  H169     1.0000 0.82620  0.10056  0.50000  Biso   1.000  H
  N115     1.0000 0.77287  0.98720  0.57732  Biso   1.000  N
  H170     1.0000 0.86837  0.97823  0.50000  Biso   1.000  H
  N116     1.0000 0.58821  0.07104  0.77912  Biso   1.000  N
  O57      1.0000 0.55867  0.24882  0.71850  Biso   1.000  O
  H171     1.0000 0.43901  0.02899  0.87998  Biso   1.000  H
  C174     1.0000 0.54348  0.97910  0.82233  Biso   1.000  C
  N117     1.0000 0.54043  0.87063  0.77409  Biso   1.000  N
  O58      1.0000 0.44133  0.75118  0.71850  Biso   1.000  O
  N118     1.0000 0.73064  0.78400  0.57797  Biso   1.000  N
  H172     1.0000 0.73070  0.64783  0.50000  Biso   1.000  H
  H173     1.0000 0.81339  0.71609  0.50000  Biso   1.000  H
  C175     1.0000 0.73632  0.06782  0.62930  Biso   1.000  C
  C176     1.0000 0.77763  0.87507  0.61950  Biso   1.000  C
  C177     1.0000 0.67560  0.07888  0.77338  Biso   1.000  C
  H174     1.0000 0.56099  0.97101  0.87998  Biso   1.000  H
  C178     1.0000 0.60798  0.78983  0.77080  Biso   1.000  C
  C179     1.0000 0.66528  0.75013  0.62640  Biso   1.000  C
  O59      1.0000 0.72930  0.17160  0.61318  Biso   1.000  O
  N119     1.0000 0.71001  0.01506  0.70347  Biso   1.000  N
  C180     1.0000 0.73223  0.89300  0.70611  Biso   1.000  C
  H175     1.0000 0.83432  0.85121  0.62872  Biso   1.000  H
  H176     1.0000 0.69909  0.05058  0.82691  Biso   1.000  H
  H177     1.0000 0.69073  0.16020  0.76751  Biso   1.000  H
  N120     1.0000 0.66431  0.81334  0.70070  Biso   1.000  N
  H178     1.0000 0.58681  0.71139  0.76441  Biso   1.000  H
  H179     1.0000 0.63752  0.79331  0.82491  Biso   1.000  H
  O60      1.0000 0.61781  0.67273  0.60796  Biso   1.000  O
  H180     1.0000 0.76738  0.87541  0.75551  Biso   1.000  H
  N121     1.0000 0.33569  0.18666  0.29930  Biso   1.000  N
  C181     1.0000 0.26777  0.10700  0.29389  Biso   1.000  C
  C182     1.0000 0.39202  0.21017  0.22920  Biso   1.000  C
  C183     1.0000 0.33472  0.24987  0.37360  Biso   1.000  C
  H181     1.0000 0.23262  0.12459  0.24449  Biso   1.000  H
  C184     1.0000 0.22237  0.12493  0.38050  Biso   1.000  C
  N122     1.0000 0.28999  0.98494  0.29653  Biso   1.000  N
  N123     1.0000 0.45957  0.12937  0.22591  Biso   1.000  N
  H182     1.0000 0.41319  0.28861  0.23559  Biso   1.000  H
  H183     1.0000 0.36248  0.20669  0.17509  Biso   1.000  H
  O61      1.0000 0.38219  0.32727  0.39204  Biso   1.000  O
  N124     1.0000 0.26936  0.21600  0.42203  Biso   1.000  N
  N125     1.0000 0.22713  0.01280  0.42268  Biso   1.000  N
  H184     1.0000 0.16568  0.14879  0.37128  Biso   1.000  H
  C185     1.0000 0.32440  0.92112  0.22662  Biso   1.000  C
  C186     1.0000 0.26368  0.93218  0.37070  Biso   1.000  C
  C187     1.0000 0.45652  0.02090  0.17767  Biso   1.000  C
  C188     1.0000 0.53707  0.15924  0.24597  Biso   1.000  C
  C189     1.0000 0.24538  0.27494  0.50000  Biso   1.000  C
  C190     1.0000 0.18411  0.98259  0.50000  Biso   1.000  C
  N126     1.0000 0.41179  0.92896  0.22088  Biso   1.000  N
  H185     1.0000 0.30091  0.94942  0.17309  Biso   1.000  H
  H186     1.0000 0.30927  0.83980  0.23249  Biso   1.000  H
  O62      1.0000 0.27070  0.82840  0.38682  Biso   1.000  O
  H187     1.0000 0.43901  0.02899  0.12002  Biso   1.000  H
  C191     1.0000 0.54348  0.97910  0.17767  Biso   1.000  C
  N127     1.0000 0.58821  0.07104  0.22088  Biso   1.000  N
  O63      1.0000 0.55867  0.24882  0.28150  Biso   1.000  O
  N128     1.0000 0.26936  0.21600  0.57797  Biso   1.000  N
  H188     1.0000 0.26930  0.35217  0.50000  Biso   1.000  H
  H189     1.0000 0.18661  0.28391  0.50000  Biso   1.000  H
  N129     1.0000 0.22713  0.01280  0.57732  Biso   1.000  N
  H190     1.0000 0.13163  0.02177  0.50000  Biso   1.000  H
  H191     1.0000 0.17380  0.89944  0.50000  Biso   1.000  H
  C192     1.0000 0.46293  0.84076  0.24597  Biso   1.000  C
  N130     1.0000 0.54043  0.87063  0.22591  Biso   1.000  N
  H192     1.0000 0.56099  0.97101  0.12002  Biso   1.000  H
  C193     1.0000 0.67560  0.07888  0.22662  Biso   1.000  C
  C194     1.0000 0.22237  0.12493  0.61950  Biso   1.000  C
  C195     1.0000 0.33472  0.24987  0.62640  Biso   1.000  C
  C196     1.0000 0.26368  0.93218  0.62930  Biso   1.000  C
  O64      1.0000 0.44133  0.75118  0.28150  Biso   1.000  O
  C197     1.0000 0.60798  0.78983  0.22920  Biso   1.000  C
  N131     1.0000 0.71001  0.01506  0.29653  Biso   1.000  N
  H193     1.0000 0.69909  0.05058  0.17309  Biso   1.000  H
  H194     1.0000 0.69073  0.16020  0.23249  Biso   1.000  H
  C198     1.0000 0.26777  0.10700  0.70611  Biso   1.000  C
  H195     1.0000 0.16568  0.14879  0.62872  Biso   1.000  H
  O65      1.0000 0.38219  0.32727  0.60796  Biso   1.000  O
  N132     1.0000 0.33569  0.18666  0.70070  Biso   1.000  N
  O66      1.0000 0.27070  0.82840  0.61318  Biso   1.000  O
  N133     1.0000 0.28999  0.98494  0.70347  Biso   1.000  N
  N134     1.0000 0.66431  0.81334  0.29930  Biso   1.000  N
  H196     1.0000 0.58681  0.71139  0.23559  Biso   1.000  H
  H197     1.0000 0.63752  0.79331  0.17509  Biso   1.000  H
  C199     1.0000 0.73632  0.06782  0.37070  Biso   1.000  C
  C200     1.0000 0.73223  0.89300  0.29389  Biso   1.000  C
  H198     1.0000 0.23262  0.12459  0.75551  Biso   1.000  H
  C201     1.0000 0.39202  0.21017  0.77080  Biso   1.000  C
  C202     1.0000 0.32440  0.92112  0.77338  Biso   1.000  C
  C203     1.0000 0.66528  0.75013  0.37360  Biso   1.000  C
  O67      1.0000 0.72930  0.17160  0.38682  Biso   1.000  O
  N135     1.0000 0.77287  0.98720  0.42268  Biso   1.000  N
  H199     1.0000 0.76738  0.87541  0.24449  Biso   1.000  H
  C204     1.0000 0.77763  0.87507  0.38050  Biso   1.000  C
  N136     1.0000 0.45957  0.12937  0.77409  Biso   1.000  N
  H200     1.0000 0.41319  0.28861  0.76441  Biso   1.000  H
  H201     1.0000 0.36248  0.20669  0.82491  Biso   1.000  H
  N137     1.0000 0.41179  0.92896  0.77912  Biso   1.000  N
  H202     1.0000 0.30091  0.94942  0.82691  Biso   1.000  H
  H203     1.0000 0.30927  0.83980  0.76751  Biso   1.000  H
  O68      1.0000 0.61781  0.67273  0.39204  Biso   1.000  O
  N138     1.0000 0.73064  0.78400  0.42203  Biso   1.000  N
  C205     1.0000 0.81589  0.01741  0.50000  Biso   1.000  C
  H204     1.0000 0.83432  0.85121  0.37128  Biso   1.000  H
  C206     1.0000 0.53707  0.15924  0.75403  Biso   1.000  C
  C207     1.0000 0.45652  0.02090  0.82233  Biso   1.000  C
  C208     1.0000 0.46293  0.84076  0.75403  Biso   1.000  C
  C209     1.0000 0.75462  0.72506  0.50000  Biso   1.000  C
  H205     1.0000 0.82620  0.10056  0.50000  Biso   1.000  H
  N139     1.0000 0.77287  0.98720  0.57732  Biso   1.000  N
  H206     1.0000 0.86837  0.97823  0.50000  Biso   1.000  H
  N140     1.0000 0.58821  0.07104  0.77912  Biso   1.000  N
  O69      1.0000 0.55867  0.24882  0.71850  Biso   1.000  O
  H207     1.0000 0.43901  0.02899  0.87998  Biso   1.000  H
  C210     1.0000 0.54348  0.97910  0.82233  Biso   1.000  C
  N141     1.0000 0.54043  0.87063  0.77409  Biso   1.000  N
  O70      1.0000 0.44133  0.75118  0.71850  Biso   1.000  O
  N142     1.0000 0.73064  0.78400  0.57797  Biso   1.000  N
  H208     1.0000 0.73070  0.64783  0.50000  Biso   1.000  H
  H209     1.0000 0.81339  0.71609  0.50000  Biso   1.000  H
  C211     1.0000 0.73632  0.06782  0.62930  Biso   1.000  C
  C212     1.0000 0.77763  0.87507  0.61950  Biso   1.000  C
  C213     1.0000 0.67560  0.07888  0.77338  Biso   1.000  C
  H210     1.0000 0.56099  0.97101  0.87998  Biso   1.000  H
  C214     1.0000 0.60798  0.78983  0.77080  Biso   1.000  C
  C215     1.0000 0.66528  0.75013  0.62640  Biso   1.000  C
  O71      1.0000 0.72930  0.17160  0.61318  Biso   1.000  O
  N143     1.0000 0.71001  0.01506  0.70347  Biso   1.000  N
  C216     1.0000 0.73223  0.89300  0.70611  Biso   1.000  C
  H211     1.0000 0.83432  0.85121  0.62872  Biso   1.000  H
  H212     1.0000 0.69909  0.05058  0.82691  Biso   1.000  H
  H213     1.0000 0.69073  0.16020  0.76751  Biso   1.000  H
  N144     1.0000 0.66431  0.81334  0.70070  Biso   1.000  N
  H214     1.0000 0.58681  0.71139  0.76441  Biso   1.000  H
  H215     1.0000 0.63752  0.79331  0.82491  Biso   1.000  H
  O72      1.0000 0.61781  0.67273  0.60796  Biso   1.000  O
  H216     1.0000 0.76738  0.87541  0.75551  Biso   1.000  H
