data_image0
_cell_length_a       24.2
_cell_length_b       24.2
_cell_length_c       7.918
_cell_angle_alpha    90
_cell_angle_beta     90
_cell_angle_gamma    90

_symmetry_space_group_name_H-M    "P 1"
_symmetry_int_tables_number       1

loop_
  _symmetry_equiv_pos_as_xyz
  'x, y, z'

loop_
  _atom_site_label
  _atom_site_occupancy
  _atom_site_fract_x
  _atom_site_fract_y
  _atom_site_fract_z
  _atom_site_thermal_displace_type
  _atom_site_B_iso_or_equiv
  _atom_site_type_symbol
  C1       1.0000 0.80851  0.80070  0.12112  Biso   1.000  C
  O1       1.0000 0.81860  0.77318  0.27684  Biso   1.000  O
  O2       1.0000 0.81492  0.85818  0.13476  Biso   1.000  O
  H1       1.0000 0.77000  0.79289  0.08613  Biso   1.000  H
  C2       1.0000 0.84669  0.78128  0.98333  Biso   1.000  C
  C3       1.0000 0.87430  0.78041  0.33834  Biso   1.000  C
  C4       1.0000 0.77062  0.88839  0.21053  Biso   1.000  C
  C5       1.0000 0.90711  0.78760  0.04142  Biso   1.000  C
  O3       1.0000 0.83802  0.72302  0.95479  Biso   1.000  O
  H2       1.0000 0.84021  0.80240  0.87813  Biso   1.000  H
  C6       1.0000 0.91570  0.75888  0.20914  Biso   1.000  C
  C7       1.0000 0.87802  0.75029  0.50366  Biso   1.000  C
  H3       1.0000 0.88120  0.82029  0.35792  Biso   1.000  H
  C8       1.0000 0.78818  0.91649  0.37573  Biso   1.000  C
  C9       1.0000 0.75372  0.93252  0.08209  Biso   1.000  C
  H4       1.0000 0.73909  0.86331  0.23226  Biso   1.000  H
  C10      1.0000 0.75372  0.93248  0.08209  Biso   1.000  C
  H5       1.0000 0.91459  0.82748  0.05734  Biso   1.000  H
  H6       1.0000 0.91459  0.82752  0.05734  Biso   1.000  H
  O4       1.0000 0.94388  0.76731  0.91488  Biso   1.000  O
  H7       1.0000 0.80161  0.71731  0.90465  Biso   1.000  H
  O5       1.0000 0.96950  0.77169  0.27153  Biso   1.000  O
  H8       1.0000 0.91149  0.71851  0.19563  Biso   1.000  H
  H9       1.0000 0.85099  0.76541  0.58159  Biso   1.000  H
  H10      1.0000 0.91479  0.75471  0.55027  Biso   1.000  H
  H11      1.0000 0.87062  0.71140  0.48560  Biso   1.000  H
  C11      1.0000 0.74269  0.95388  0.43748  Biso   1.000  C
  O6       1.0000 0.80339  0.87711  0.50126  Biso   1.000  O
  H12      1.0000 0.82099  0.93971  0.35135  Biso   1.000  H
  O7       1.0000 0.70921  0.96661  0.15143  Biso   1.000  O
  H13      1.0000 0.78599  0.95669  0.06226  Biso   1.000  H
  C12      1.0000 0.73450  0.91149  0.91513  Biso   1.000  C
  H14      1.0000 0.93521  0.72888  0.89063  Biso   1.000  H
  C13      1.0000 0.00500  0.72541  0.29982  Biso   1.000  C
  C14      1.0000 0.72541  0.99500  0.29982  Biso   1.000  C
  O8       1.0000 0.69661  0.92140  0.48156  Biso   1.000  O
  H15      1.0000 0.75562  0.97450  0.53814  Biso   1.000  H
  H16      1.0000 0.77050  0.86351  0.55709  Biso   1.000  H
  O9       1.0000 0.69430  0.86740  0.92624  Biso   1.000  O
  H17      1.0000 0.71818  0.94231  0.85160  Biso   1.000  H
  H18      1.0000 0.76661  0.89818  0.85135  Biso   1.000  H
  H19      1.0000 0.98260  0.69401  0.34125  Biso   1.000  H
  C15      1.0000 0.04612  0.74269  0.43748  Biso   1.000  C
  O10      1.0000 0.03339  0.70921  0.15143  Biso   1.000  O
  O11      1.0000 0.77169  0.03050  0.27153  Biso   1.000  O
  H20      1.0000 0.69401  0.01740  0.34125  Biso   1.000  H
  H21      1.0000 0.67149  0.94302  0.55128  Biso   1.000  H
  H22      1.0000 0.66570  0.87740  0.00859  Biso   1.000  H
  C16      1.0000 0.08351  0.78818  0.37573  Biso   1.000  C
  O12      1.0000 0.07860  0.69661  0.48156  Biso   1.000  O
  H23      1.0000 0.02550  0.75562  0.53814  Biso   1.000  H
  C17      1.0000 0.06748  0.75372  0.08209  Biso   1.000  C
  C18      1.0000 0.06752  0.75372  0.08209  Biso   1.000  C
  C19      1.0000 0.75888  0.08430  0.20914  Biso   1.000  C
  C20      1.0000 0.11161  0.77062  0.21053  Biso   1.000  C
  O13      1.0000 0.12289  0.80339  0.50126  Biso   1.000  O
  H24      1.0000 0.06029  0.82099  0.35135  Biso   1.000  H
  H25      1.0000 0.05698  0.67149  0.55128  Biso   1.000  H
  C21      1.0000 0.08851  0.73450  0.91513  Biso   1.000  C
  H26      1.0000 0.04331  0.78599  0.06226  Biso   1.000  H
  C22      1.0000 0.78041  0.12570  0.33834  Biso   1.000  C
  C23      1.0000 0.78760  0.09289  0.04142  Biso   1.000  C
  H27      1.0000 0.71851  0.08851  0.19563  Biso   1.000  H
  O14      1.0000 0.14182  0.81492  0.13476  Biso   1.000  O
  H28      1.0000 0.13669  0.73909  0.23226  Biso   1.000  H
  H29      1.0000 0.13649  0.77050  0.55709  Biso   1.000  H
  O15      1.0000 0.13260  0.69430  0.92624  Biso   1.000  O
  H30      1.0000 0.05769  0.71818  0.85160  Biso   1.000  H
  H31      1.0000 0.10182  0.76661  0.85135  Biso   1.000  H
  O16      1.0000 0.77318  0.18140  0.27684  Biso   1.000  O
  C24      1.0000 0.75029  0.12198  0.50366  Biso   1.000  C
  H32      1.0000 0.82029  0.11880  0.35792  Biso   1.000  H
  C25      1.0000 0.78128  0.15331  0.98333  Biso   1.000  C
  O17      1.0000 0.76731  0.05612  0.91488  Biso   1.000  O
  H33      1.0000 0.82748  0.08541  0.05734  Biso   1.000  H
  H34      1.0000 0.82752  0.08541  0.05734  Biso   1.000  H
  C26      1.0000 0.19930  0.80851  0.12112  Biso   1.000  C
  H35      1.0000 0.12260  0.66570  0.00859  Biso   1.000  H
  C27      1.0000 0.80070  0.19149  0.12112  Biso   1.000  C
  H36      1.0000 0.76541  0.14901  0.58159  Biso   1.000  H
  H37      1.0000 0.75471  0.08521  0.55027  Biso   1.000  H
  H38      1.0000 0.71140  0.12938  0.48560  Biso   1.000  H
  O18      1.0000 0.72302  0.16198  0.95479  Biso   1.000  O
  H39      1.0000 0.80240  0.15979  0.87813  Biso   1.000  H
  H40      1.0000 0.72888  0.06479  0.89063  Biso   1.000  H
  C28      1.0000 0.21872  0.84669  0.98333  Biso   1.000  C
  O19      1.0000 0.22682  0.81860  0.27684  Biso   1.000  O
  H41      1.0000 0.20711  0.77000  0.08613  Biso   1.000  H
  O20      1.0000 0.85818  0.18508  0.13476  Biso   1.000  O
  H42      1.0000 0.79289  0.23000  0.08613  Biso   1.000  H
  H43      1.0000 0.71731  0.19839  0.90465  Biso   1.000  H
  O21      1.0000 0.27698  0.83802  0.95479  Biso   1.000  O
  H44      1.0000 0.19760  0.84021  0.87813  Biso   1.000  H
  C29      1.0000 0.21240  0.90711  0.04142  Biso   1.000  C
  C30      1.0000 0.21959  0.87430  0.33834  Biso   1.000  C
  C31      1.0000 0.88839  0.22938  0.21053  Biso   1.000  C
  H45      1.0000 0.28269  0.80161  0.90465  Biso   1.000  H
  O22      1.0000 0.23269  0.94388  0.91488  Biso   1.000  O
  C32      1.0000 0.24112  0.91570  0.20914  Biso   1.000  C
  H46      1.0000 0.17252  0.91459  0.05734  Biso   1.000  H
  C33      1.0000 0.24971  0.87802  0.50366  Biso   1.000  C
  H47      1.0000 0.17971  0.88120  0.35792  Biso   1.000  H
  C34      1.0000 0.91649  0.21182  0.37573  Biso   1.000  C
  C35      1.0000 0.93252  0.24628  0.08209  Biso   1.000  C
  H48      1.0000 0.86331  0.26091  0.23226  Biso   1.000  H
  C36      1.0000 0.93248  0.24628  0.08209  Biso   1.000  C
  H49      1.0000 0.27112  0.93521  0.89063  Biso   1.000  H
  O23      1.0000 0.22831  0.96950  0.27153  Biso   1.000  O
  H50      1.0000 0.28149  0.91149  0.19563  Biso   1.000  H
  H51      1.0000 0.23459  0.85099  0.58159  Biso   1.000  H
  H52      1.0000 0.24529  0.91479  0.55027  Biso   1.000  H
  H53      1.0000 0.28860  0.87062  0.48560  Biso   1.000  H
  C37      1.0000 0.95388  0.25731  0.43748  Biso   1.000  C
  O24      1.0000 0.87711  0.19661  0.50126  Biso   1.000  O
  H54      1.0000 0.93971  0.17901  0.35135  Biso   1.000  H
  C38      1.0000 0.91149  0.26550  0.91513  Biso   1.000  C
  O25      1.0000 0.96661  0.29079  0.15143  Biso   1.000  O
  H55      1.0000 0.95669  0.21401  0.06226  Biso   1.000  H
  C39      1.0000 0.27459  0.00500  0.29982  Biso   1.000  C
  C40      1.0000 0.99500  0.27459  0.29982  Biso   1.000  C
  O26      1.0000 0.92140  0.30339  0.48156  Biso   1.000  O
  H56      1.0000 0.97450  0.24438  0.53814  Biso   1.000  H
  H57      1.0000 0.86351  0.22950  0.55709  Biso   1.000  H
  O27      1.0000 0.86740  0.30570  0.92624  Biso   1.000  O
  H58      1.0000 0.94231  0.28182  0.85160  Biso   1.000  H
  H59      1.0000 0.89818  0.23339  0.85135  Biso   1.000  H
  H60      1.0000 0.30599  0.98260  0.34125  Biso   1.000  H
  C41      1.0000 0.25731  0.04612  0.43748  Biso   1.000  C
  O28      1.0000 0.29079  0.03339  0.15143  Biso   1.000  O
  O29      1.0000 0.03050  0.22831  0.27153  Biso   1.000  O
  H61      1.0000 0.01740  0.30599  0.34125  Biso   1.000  H
  H62      1.0000 0.94302  0.32851  0.55128  Biso   1.000  H
  H63      1.0000 0.87740  0.33430  0.00859  Biso   1.000  H
  C42      1.0000 0.21182  0.08351  0.37573  Biso   1.000  C
  O30      1.0000 0.30339  0.07860  0.48156  Biso   1.000  O
  H64      1.0000 0.24438  0.02550  0.53814  Biso   1.000  H
  C43      1.0000 0.24628  0.06748  0.08209  Biso   1.000  C
  C44      1.0000 0.08430  0.24112  0.20914  Biso   1.000  C
  C45      1.0000 0.22938  0.11161  0.21053  Biso   1.000  C
  O31      1.0000 0.19661  0.12289  0.50126  Biso   1.000  O
  H65      1.0000 0.17901  0.06029  0.35135  Biso   1.000  H
  H66      1.0000 0.32851  0.05698  0.55128  Biso   1.000  H
  C46      1.0000 0.26550  0.08851  0.91513  Biso   1.000  C
  H67      1.0000 0.21401  0.04331  0.06226  Biso   1.000  H
  C47      1.0000 0.09289  0.21240  0.04142  Biso   1.000  C
  C48      1.0000 0.12570  0.21959  0.33834  Biso   1.000  C
  H68      1.0000 0.08851  0.28149  0.19563  Biso   1.000  H
  O32      1.0000 0.18508  0.14182  0.13476  Biso   1.000  O
  H69      1.0000 0.26091  0.13669  0.23226  Biso   1.000  H
  H70      1.0000 0.22950  0.13649  0.55709  Biso   1.000  H
  O33      1.0000 0.30570  0.13260  0.92624  Biso   1.000  O
  H71      1.0000 0.28182  0.05769  0.85160  Biso   1.000  H
  H72      1.0000 0.23339  0.10182  0.85135  Biso   1.000  H
  C49      1.0000 0.15331  0.21872  0.98333  Biso   1.000  C
  O34      1.0000 0.05612  0.23269  0.91488  Biso   1.000  O
  H73      1.0000 0.08541  0.17252  0.05734  Biso   1.000  H
  O35      1.0000 0.18140  0.22682  0.27684  Biso   1.000  O
  C50      1.0000 0.12198  0.24971  0.50366  Biso   1.000  C
  H74      1.0000 0.11880  0.17971  0.35792  Biso   1.000  H
  C51      1.0000 0.19149  0.19930  0.12112  Biso   1.000  C
  H75      1.0000 0.33430  0.12260  0.00859  Biso   1.000  H
  O36      1.0000 0.16198  0.27698  0.95479  Biso   1.000  O
  H76      1.0000 0.15979  0.19760  0.87813  Biso   1.000  H
  H77      1.0000 0.06479  0.27112  0.89063  Biso   1.000  H
  H78      1.0000 0.14901  0.23459  0.58159  Biso   1.000  H
  H79      1.0000 0.08521  0.24529  0.55027  Biso   1.000  H
  H80      1.0000 0.12938  0.28860  0.48560  Biso   1.000  H
  H81      1.0000 0.23000  0.20711  0.08613  Biso   1.000  H
  H82      1.0000 0.19839  0.28269  0.90465  Biso   1.000  H
  C52      1.0000 0.80851  0.80070  0.12112  Biso   1.000  C
  O37      1.0000 0.81860  0.77318  0.27684  Biso   1.000  O
  O38      1.0000 0.81492  0.85818  0.13476  Biso   1.000  O
  H83      1.0000 0.77000  0.79289  0.08613  Biso   1.000  H
  C53      1.0000 0.84669  0.78128  0.98333  Biso   1.000  C
  C54      1.0000 0.87430  0.78041  0.33834  Biso   1.000  C
  C55      1.0000 0.77062  0.88839  0.21053  Biso   1.000  C
  C56      1.0000 0.90711  0.78760  0.04142  Biso   1.000  C
  O39      1.0000 0.83802  0.72302  0.95479  Biso   1.000  O
  H84      1.0000 0.84021  0.80240  0.87813  Biso   1.000  H
  C57      1.0000 0.91570  0.75888  0.20914  Biso   1.000  C
  C58      1.0000 0.87802  0.75029  0.50366  Biso   1.000  C
  H85      1.0000 0.88120  0.82029  0.35792  Biso   1.000  H
  C59      1.0000 0.78818  0.91649  0.37573  Biso   1.000  C
  H86      1.0000 0.73909  0.86331  0.23226  Biso   1.000  H
  C60      1.0000 0.75372  0.93252  0.08209  Biso   1.000  C
  C61      1.0000 0.75372  0.93248  0.08209  Biso   1.000  C
  H87      1.0000 0.91459  0.82748  0.05734  Biso   1.000  H
  H88      1.0000 0.91459  0.82752  0.05734  Biso   1.000  H
  O40      1.0000 0.94388  0.76731  0.91488  Biso   1.000  O
  H89      1.0000 0.80161  0.71731  0.90465  Biso   1.000  H
  O41      1.0000 0.96950  0.77169  0.27153  Biso   1.000  O
  H90      1.0000 0.91149  0.71851  0.19563  Biso   1.000  H
  H91      1.0000 0.85099  0.76541  0.58159  Biso   1.000  H
  H92      1.0000 0.91479  0.75471  0.55027  Biso   1.000  H
  H93      1.0000 0.87062  0.71140  0.48560  Biso   1.000  H
  C62      1.0000 0.74269  0.95388  0.43748  Biso   1.000  C
  O42      1.0000 0.80339  0.87711  0.50126  Biso   1.000  O
  H94      1.0000 0.82099  0.93971  0.35135  Biso   1.000  H
  O43      1.0000 0.70921  0.96661  0.15143  Biso   1.000  O
  H95      1.0000 0.78599  0.95669  0.06226  Biso   1.000  H
  C63      1.0000 0.73450  0.91149  0.91513  Biso   1.000  C
  H96      1.0000 0.93521  0.72888  0.89063  Biso   1.000  H
  C64      1.0000 0.00500  0.72541  0.29982  Biso   1.000  C
  C65      1.0000 0.72541  0.99500  0.29982  Biso   1.000  C
  O44      1.0000 0.69661  0.92140  0.48156  Biso   1.000  O
  H97      1.0000 0.75562  0.97450  0.53814  Biso   1.000  H
  H98      1.0000 0.77050  0.86351  0.55709  Biso   1.000  H
  O45      1.0000 0.69430  0.86740  0.92624  Biso   1.000  O
  H99      1.0000 0.71818  0.94231  0.85160  Biso   1.000  H
  H100     1.0000 0.76661  0.89818  0.85135  Biso   1.000  H
  H101     1.0000 0.98260  0.69401  0.34125  Biso   1.000  H
  C66      1.0000 0.04612  0.74269  0.43748  Biso   1.000  C
  O46      1.0000 0.03339  0.70921  0.15143  Biso   1.000  O
  O47      1.0000 0.77169  0.03050  0.27153  Biso   1.000  O
  H102     1.0000 0.69401  0.01740  0.34125  Biso   1.000  H
  H103     1.0000 0.67149  0.94302  0.55128  Biso   1.000  H
  H104     1.0000 0.66570  0.87740  0.00859  Biso   1.000  H
  C67      1.0000 0.08351  0.78818  0.37573  Biso   1.000  C
  O48      1.0000 0.07860  0.69661  0.48156  Biso   1.000  O
  H105     1.0000 0.02550  0.75562  0.53814  Biso   1.000  H
  C68      1.0000 0.06748  0.75372  0.08209  Biso   1.000  C
  C69      1.0000 0.06752  0.75372  0.08209  Biso   1.000  C
  C70      1.0000 0.75888  0.08430  0.20914  Biso   1.000  C
  C71      1.0000 0.11161  0.77062  0.21053  Biso   1.000  C
  O49      1.0000 0.12289  0.80339  0.50126  Biso   1.000  O
  H106     1.0000 0.06029  0.82099  0.35135  Biso   1.000  H
  H107     1.0000 0.05698  0.67149  0.55128  Biso   1.000  H
  C72      1.0000 0.08851  0.73450  0.91513  Biso   1.000  C
  H108     1.0000 0.04331  0.78599  0.06226  Biso   1.000  H
  C73      1.0000 0.78041  0.12570  0.33834  Biso   1.000  C
  C74      1.0000 0.78760  0.09289  0.04142  Biso   1.000  C
  H109     1.0000 0.71851  0.08851  0.19563  Biso   1.000  H
  O50      1.0000 0.14182  0.81492  0.13476  Biso   1.000  O
  H110     1.0000 0.13669  0.73909  0.23226  Biso   1.000  H
  H111     1.0000 0.13649  0.77050  0.55709  Biso   1.000  H
  O51      1.0000 0.13260  0.69430  0.92624  Biso   1.000  O
  H112     1.0000 0.05769  0.71818  0.85160  Biso   1.000  H
  H113     1.0000 0.10182  0.76661  0.85135  Biso   1.000  H
  O52      1.0000 0.77318  0.18140  0.27684  Biso   1.000  O
  C75      1.0000 0.75029  0.12198  0.50366  Biso   1.000  C
  H114     1.0000 0.82029  0.11880  0.35792  Biso   1.000  H
  C76      1.0000 0.78128  0.15331  0.98333  Biso   1.000  C
  O53      1.0000 0.76731  0.05612  0.91488  Biso   1.000  O
  H115     1.0000 0.82748  0.08541  0.05734  Biso   1.000  H
  H116     1.0000 0.82752  0.08541  0.05734  Biso   1.000  H
  C77      1.0000 0.19930  0.80851  0.12112  Biso   1.000  C
  H117     1.0000 0.12260  0.66570  0.00859  Biso   1.000  H
  C78      1.0000 0.80070  0.19149  0.12112  Biso   1.000  C
  H118     1.0000 0.76541  0.14901  0.58159  Biso   1.000  H
  H119     1.0000 0.75471  0.08521  0.55027  Biso   1.000  H
  H120     1.0000 0.71140  0.12938  0.48560  Biso   1.000  H
  O54      1.0000 0.72302  0.16198  0.95479  Biso   1.000  O
  H121     1.0000 0.80240  0.15979  0.87813  Biso   1.000  H
  H122     1.0000 0.72888  0.06479  0.89063  Biso   1.000  H
  C79      1.0000 0.21872  0.84669  0.98333  Biso   1.000  C
  O55      1.0000 0.22682  0.81860  0.27684  Biso   1.000  O
  H123     1.0000 0.20711  0.77000  0.08613  Biso   1.000  H
  O56      1.0000 0.85818  0.18508  0.13476  Biso   1.000  O
  H124     1.0000 0.79289  0.23000  0.08613  Biso   1.000  H
  H125     1.0000 0.71731  0.19839  0.90465  Biso   1.000  H
  O57      1.0000 0.27698  0.83802  0.95479  Biso   1.000  O
  H126     1.0000 0.19760  0.84021  0.87813  Biso   1.000  H
  C80      1.0000 0.21240  0.90711  0.04142  Biso   1.000  C
  C81      1.0000 0.21959  0.87430  0.33834  Biso   1.000  C
  C82      1.0000 0.88839  0.22938  0.21053  Biso   1.000  C
  H127     1.0000 0.28269  0.80161  0.90465  Biso   1.000  H
  O58      1.0000 0.23269  0.94388  0.91488  Biso   1.000  O
  C83      1.0000 0.24112  0.91570  0.20914  Biso   1.000  C
  H128     1.0000 0.17252  0.91459  0.05734  Biso   1.000  H
  C84      1.0000 0.24971  0.87802  0.50366  Biso   1.000  C
  H129     1.0000 0.17971  0.88120  0.35792  Biso   1.000  H
  C85      1.0000 0.91649  0.21182  0.37573  Biso   1.000  C
  C86      1.0000 0.93252  0.24628  0.08209  Biso   1.000  C
  H130     1.0000 0.86331  0.26091  0.23226  Biso   1.000  H
  C87      1.0000 0.93248  0.24628  0.08209  Biso   1.000  C
  H131     1.0000 0.27112  0.93521  0.89063  Biso   1.000  H
  O59      1.0000 0.22831  0.96950  0.27153  Biso   1.000  O
  H132     1.0000 0.28149  0.91149  0.19563  Biso   1.000  H
  H133     1.0000 0.23459  0.85099  0.58159  Biso   1.000  H
  H134     1.0000 0.24529  0.91479  0.55027  Biso   1.000  H
  H135     1.0000 0.28860  0.87062  0.48560  Biso   1.000  H
  C88      1.0000 0.95388  0.25731  0.43748  Biso   1.000  C
  O60      1.0000 0.87711  0.19661  0.50126  Biso   1.000  O
  H136     1.0000 0.93971  0.17901  0.35135  Biso   1.000  H
  C89      1.0000 0.91149  0.26550  0.91513  Biso   1.000  C
  O61      1.0000 0.96661  0.29079  0.15143  Biso   1.000  O
  H137     1.0000 0.95669  0.21401  0.06226  Biso   1.000  H
  C90      1.0000 0.27459  0.00500  0.29982  Biso   1.000  C
  C91      1.0000 0.99500  0.27459  0.29982  Biso   1.000  C
  O62      1.0000 0.92140  0.30339  0.48156  Biso   1.000  O
  H138     1.0000 0.97450  0.24438  0.53814  Biso   1.000  H
  H139     1.0000 0.86351  0.22950  0.55709  Biso   1.000  H
  O63      1.0000 0.86740  0.30570  0.92624  Biso   1.000  O
  H140     1.0000 0.94231  0.28182  0.85160  Biso   1.000  H
  H141     1.0000 0.89818  0.23339  0.85135  Biso   1.000  H
  H142     1.0000 0.30599  0.98260  0.34125  Biso   1.000  H
  C92      1.0000 0.25731  0.04612  0.43748  Biso   1.000  C
  O64      1.0000 0.29079  0.03339  0.15143  Biso   1.000  O
  O65      1.0000 0.03050  0.22831  0.27153  Biso   1.000  O
  H143     1.0000 0.01740  0.30599  0.34125  Biso   1.000  H
  H144     1.0000 0.94302  0.32851  0.55128  Biso   1.000  H
  H145     1.0000 0.87740  0.33430  0.00859  Biso   1.000  H
  C93      1.0000 0.21182  0.08351  0.37573  Biso   1.000  C
  O66      1.0000 0.30339  0.07860  0.48156  Biso   1.000  O
  H146     1.0000 0.24438  0.02550  0.53814  Biso   1.000  H
  C94      1.0000 0.24628  0.06748  0.08209  Biso   1.000  C
  C95      1.0000 0.08430  0.24112  0.20914  Biso   1.000  C
  C96      1.0000 0.22938  0.11161  0.21053  Biso   1.000  C
  O67      1.0000 0.19661  0.12289  0.50126  Biso   1.000  O
  H147     1.0000 0.17901  0.06029  0.35135  Biso   1.000  H
  H148     1.0000 0.32851  0.05698  0.55128  Biso   1.000  H
  C97      1.0000 0.26550  0.08851  0.91513  Biso   1.000  C
  H149     1.0000 0.21401  0.04331  0.06226  Biso   1.000  H
  C98      1.0000 0.09289  0.21240  0.04142  Biso   1.000  C
  C99      1.0000 0.12570  0.21959  0.33834  Biso   1.000  C
  H150     1.0000 0.08851  0.28149  0.19563  Biso   1.000  H
  O68      1.0000 0.18508  0.14182  0.13476  Biso   1.000  O
  H151     1.0000 0.26091  0.13669  0.23226  Biso   1.000  H
  H152     1.0000 0.22950  0.13649  0.55709  Biso   1.000  H
  O69      1.0000 0.30570  0.13260  0.92624  Biso   1.000  O
  H153     1.0000 0.28182  0.05769  0.85160  Biso   1.000  H
  H154     1.0000 0.23339  0.10182  0.85135  Biso   1.000  H
  C100     1.0000 0.15331  0.21872  0.98333  Biso   1.000  C
  O70      1.0000 0.05612  0.23269  0.91488  Biso   1.000  O
  H155     1.0000 0.08541  0.17252  0.05734  Biso   1.000  H
  O71      1.0000 0.18140  0.22682  0.27684  Biso   1.000  O
  C101     1.0000 0.12198  0.24971  0.50366  Biso   1.000  C
  H156     1.0000 0.11880  0.17971  0.35792  Biso   1.000  H
  C102     1.0000 0.19149  0.19930  0.12112  Biso   1.000  C
  H157     1.0000 0.33430  0.12260  0.00859  Biso   1.000  H
  O72      1.0000 0.16198  0.27698  0.95479  Biso   1.000  O
  H158     1.0000 0.15979  0.19760  0.87813  Biso   1.000  H
  H159     1.0000 0.06479  0.27112  0.89063  Biso   1.000  H
  H160     1.0000 0.14901  0.23459  0.58159  Biso   1.000  H
  H161     1.0000 0.08521  0.24529  0.55027  Biso   1.000  H
  H162     1.0000 0.12938  0.28860  0.48560  Biso   1.000  H
  H163     1.0000 0.23000  0.20711  0.08613  Biso   1.000  H
  H164     1.0000 0.19839  0.28269  0.90465  Biso   1.000  H
  C103     1.0000 0.80851  0.80070  0.12112  Biso   1.000  C
  O73      1.0000 0.81860  0.77318  0.27684  Biso   1.000  O
  O74      1.0000 0.81492  0.85818  0.13476  Biso   1.000  O
  H165     1.0000 0.77000  0.79289  0.08613  Biso   1.000  H
  C104     1.0000 0.84669  0.78128  0.98333  Biso   1.000  C
  C105     1.0000 0.87430  0.78041  0.33834  Biso   1.000  C
  C106     1.0000 0.77062  0.88839  0.21053  Biso   1.000  C
  C107     1.0000 0.90711  0.78760  0.04142  Biso   1.000  C
  O75      1.0000 0.83802  0.72302  0.95479  Biso   1.000  O
  H166     1.0000 0.84021  0.80240  0.87813  Biso   1.000  H
  C108     1.0000 0.91570  0.75888  0.20914  Biso   1.000  C
  C109     1.0000 0.87802  0.75029  0.50366  Biso   1.000  C
  H167     1.0000 0.88120  0.82029  0.35792  Biso   1.000  H
  C110     1.0000 0.78818  0.91649  0.37573  Biso   1.000  C
  H168     1.0000 0.73909  0.86331  0.23226  Biso   1.000  H
  C111     1.0000 0.75372  0.93252  0.08209  Biso   1.000  C
  C112     1.0000 0.75372  0.93248  0.08209  Biso   1.000  C
  O76      1.0000 0.94388  0.76731  0.91488  Biso   1.000  O
  H169     1.0000 0.91459  0.82748  0.05734  Biso   1.000  H
  H170     1.0000 0.91459  0.82752  0.05734  Biso   1.000  H
  H171     1.0000 0.80161  0.71731  0.90465  Biso   1.000  H
  O77      1.0000 0.96950  0.77169  0.27153  Biso   1.000  O
  H172     1.0000 0.91149  0.71851  0.19563  Biso   1.000  H
  H173     1.0000 0.85099  0.76541  0.58159  Biso   1.000  H
  H174     1.0000 0.91479  0.75471  0.55027  Biso   1.000  H
  H175     1.0000 0.87062  0.71140  0.48560  Biso   1.000  H
  C113     1.0000 0.74269  0.95388  0.43748  Biso   1.000  C
  O78      1.0000 0.80339  0.87711  0.50126  Biso   1.000  O
  H176     1.0000 0.82099  0.93971  0.35135  Biso   1.000  H
  O79      1.0000 0.70921  0.96661  0.15143  Biso   1.000  O
  H177     1.0000 0.78599  0.95669  0.06226  Biso   1.000  H
  C114     1.0000 0.73450  0.91149  0.91513  Biso   1.000  C
  H178     1.0000 0.93521  0.72888  0.89063  Biso   1.000  H
  C115     1.0000 0.00500  0.72541  0.29982  Biso   1.000  C
  C116     1.0000 0.72541  0.99500  0.29982  Biso   1.000  C
  O80      1.0000 0.69661  0.92140  0.48156  Biso   1.000  O
  H179     1.0000 0.75562  0.97450  0.53814  Biso   1.000  H
  H180     1.0000 0.77050  0.86351  0.55709  Biso   1.000  H
  O81      1.0000 0.69430  0.86740  0.92624  Biso   1.000  O
  H181     1.0000 0.71818  0.94231  0.85160  Biso   1.000  H
  H182     1.0000 0.76661  0.89818  0.85135  Biso   1.000  H
  H183     1.0000 0.98260  0.69401  0.34125  Biso   1.000  H
  C117     1.0000 0.04612  0.74269  0.43748  Biso   1.000  C
  O82      1.0000 0.03339  0.70921  0.15143  Biso   1.000  O
  O83      1.0000 0.77169  0.03050  0.27153  Biso   1.000  O
  H184     1.0000 0.69401  0.01740  0.34125  Biso   1.000  H
  H185     1.0000 0.67149  0.94302  0.55128  Biso   1.000  H
  H186     1.0000 0.66570  0.87740  0.00859  Biso   1.000  H
  C118     1.0000 0.08351  0.78818  0.37573  Biso   1.000  C
  O84      1.0000 0.07860  0.69661  0.48156  Biso   1.000  O
  H187     1.0000 0.02550  0.75562  0.53814  Biso   1.000  H
  C119     1.0000 0.06748  0.75372  0.08209  Biso   1.000  C
  C120     1.0000 0.06752  0.75372  0.08209  Biso   1.000  C
  C121     1.0000 0.75888  0.08430  0.20914  Biso   1.000  C
  C122     1.0000 0.11161  0.77062  0.21053  Biso   1.000  C
  O85      1.0000 0.12289  0.80339  0.50126  Biso   1.000  O
  H188     1.0000 0.06029  0.82099  0.35135  Biso   1.000  H
  H189     1.0000 0.05698  0.67149  0.55128  Biso   1.000  H
  C123     1.0000 0.08851  0.73450  0.91513  Biso   1.000  C
  H190     1.0000 0.04331  0.78599  0.06226  Biso   1.000  H
  C124     1.0000 0.78041  0.12570  0.33834  Biso   1.000  C
  C125     1.0000 0.78760  0.09289  0.04142  Biso   1.000  C
  H191     1.0000 0.71851  0.08851  0.19563  Biso   1.000  H
  O86      1.0000 0.14182  0.81492  0.13476  Biso   1.000  O
  H192     1.0000 0.13669  0.73909  0.23226  Biso   1.000  H
  H193     1.0000 0.13649  0.77050  0.55709  Biso   1.000  H
  O87      1.0000 0.13260  0.69430  0.92624  Biso   1.000  O
  H194     1.0000 0.05769  0.71818  0.85160  Biso   1.000  H
  H195     1.0000 0.10182  0.76661  0.85135  Biso   1.000  H
  O88      1.0000 0.77318  0.18140  0.27684  Biso   1.000  O
  C126     1.0000 0.75029  0.12198  0.50366  Biso   1.000  C
  H196     1.0000 0.82029  0.11880  0.35792  Biso   1.000  H
  C127     1.0000 0.78128  0.15331  0.98333  Biso   1.000  C
  O89      1.0000 0.76731  0.05612  0.91488  Biso   1.000  O
  H197     1.0000 0.82748  0.08541  0.05734  Biso   1.000  H
  H198     1.0000 0.82752  0.08541  0.05734  Biso   1.000  H
  C128     1.0000 0.19930  0.80851  0.12112  Biso   1.000  C
  H199     1.0000 0.12260  0.66570  0.00859  Biso   1.000  H
  C129     1.0000 0.80070  0.19149  0.12112  Biso   1.000  C
  H200     1.0000 0.76541  0.14901  0.58159  Biso   1.000  H
  H201     1.0000 0.75471  0.08521  0.55027  Biso   1.000  H
  H202     1.0000 0.71140  0.12938  0.48560  Biso   1.000  H
  O90      1.0000 0.72302  0.16198  0.95479  Biso   1.000  O
  H203     1.0000 0.80240  0.15979  0.87813  Biso   1.000  H
  H204     1.0000 0.72888  0.06479  0.89063  Biso   1.000  H
  C130     1.0000 0.21872  0.84669  0.98333  Biso   1.000  C
  O91      1.0000 0.22682  0.81860  0.27684  Biso   1.000  O
  H205     1.0000 0.20711  0.77000  0.08613  Biso   1.000  H
  O92      1.0000 0.85818  0.18508  0.13476  Biso   1.000  O
  H206     1.0000 0.79289  0.23000  0.08613  Biso   1.000  H
  H207     1.0000 0.71731  0.19839  0.90465  Biso   1.000  H
  O93      1.0000 0.27698  0.83802  0.95479  Biso   1.000  O
  H208     1.0000 0.19760  0.84021  0.87813  Biso   1.000  H
  C131     1.0000 0.21240  0.90711  0.04142  Biso   1.000  C
  C132     1.0000 0.21959  0.87430  0.33834  Biso   1.000  C
  C133     1.0000 0.88839  0.22938  0.21053  Biso   1.000  C
  H209     1.0000 0.28269  0.80161  0.90465  Biso   1.000  H
  O94      1.0000 0.23269  0.94388  0.91488  Biso   1.000  O
  C134     1.0000 0.24112  0.91570  0.20914  Biso   1.000  C
  H210     1.0000 0.17252  0.91459  0.05734  Biso   1.000  H
  C135     1.0000 0.24971  0.87802  0.50366  Biso   1.000  C
  H211     1.0000 0.17971  0.88120  0.35792  Biso   1.000  H
  C136     1.0000 0.91649  0.21182  0.37573  Biso   1.000  C
  C137     1.0000 0.93252  0.24628  0.08209  Biso   1.000  C
  H212     1.0000 0.86331  0.26091  0.23226  Biso   1.000  H
  C138     1.0000 0.93248  0.24628  0.08209  Biso   1.000  C
  H213     1.0000 0.27112  0.93521  0.89063  Biso   1.000  H
  O95      1.0000 0.22831  0.96950  0.27153  Biso   1.000  O
  H214     1.0000 0.28149  0.91149  0.19563  Biso   1.000  H
  H215     1.0000 0.23459  0.85099  0.58159  Biso   1.000  H
  H216     1.0000 0.24529  0.91479  0.55027  Biso   1.000  H
  H217     1.0000 0.28860  0.87062  0.48560  Biso   1.000  H
  C139     1.0000 0.95388  0.25731  0.43748  Biso   1.000  C
  O96      1.0000 0.87711  0.19661  0.50126  Biso   1.000  O
  H218     1.0000 0.93971  0.17901  0.35135  Biso   1.000  H
  C140     1.0000 0.91149  0.26550  0.91513  Biso   1.000  C
  O97      1.0000 0.96661  0.29079  0.15143  Biso   1.000  O
  H219     1.0000 0.95669  0.21401  0.06226  Biso   1.000  H
  C141     1.0000 0.27459  0.00500  0.29982  Biso   1.000  C
  C142     1.0000 0.99500  0.27459  0.29982  Biso   1.000  C
  O98      1.0000 0.92140  0.30339  0.48156  Biso   1.000  O
  H220     1.0000 0.97450  0.24438  0.53814  Biso   1.000  H
  H221     1.0000 0.86351  0.22950  0.55709  Biso   1.000  H
  O99      1.0000 0.86740  0.30570  0.92624  Biso   1.000  O
  H222     1.0000 0.94231  0.28182  0.85160  Biso   1.000  H
  H223     1.0000 0.89818  0.23339  0.85135  Biso   1.000  H
  H224     1.0000 0.30599  0.98260  0.34125  Biso   1.000  H
  C143     1.0000 0.25731  0.04612  0.43748  Biso   1.000  C
  O100     1.0000 0.29079  0.03339  0.15143  Biso   1.000  O
  O101     1.0000 0.03050  0.22831  0.27153  Biso   1.000  O
  H225     1.0000 0.01740  0.30599  0.34125  Biso   1.000  H
  H226     1.0000 0.94302  0.32851  0.55128  Biso   1.000  H
  H227     1.0000 0.87740  0.33430  0.00859  Biso   1.000  H
  C144     1.0000 0.21182  0.08351  0.37573  Biso   1.000  C
  O102     1.0000 0.30339  0.07860  0.48156  Biso   1.000  O
  H228     1.0000 0.24438  0.02550  0.53814  Biso   1.000  H
  C145     1.0000 0.24628  0.06748  0.08209  Biso   1.000  C
  C146     1.0000 0.08430  0.24112  0.20914  Biso   1.000  C
  C147     1.0000 0.22938  0.11161  0.21053  Biso   1.000  C
  O103     1.0000 0.19661  0.12289  0.50126  Biso   1.000  O
  H229     1.0000 0.17901  0.06029  0.35135  Biso   1.000  H
  H230     1.0000 0.32851  0.05698  0.55128  Biso   1.000  H
  C148     1.0000 0.26550  0.08851  0.91513  Biso   1.000  C
  H231     1.0000 0.21401  0.04331  0.06226  Biso   1.000  H
  C149     1.0000 0.09289  0.21240  0.04142  Biso   1.000  C
  C150     1.0000 0.12570  0.21959  0.33834  Biso   1.000  C
  H232     1.0000 0.08851  0.28149  0.19563  Biso   1.000  H
  O104     1.0000 0.18508  0.14182  0.13476  Biso   1.000  O
  H233     1.0000 0.26091  0.13669  0.23226  Biso   1.000  H
  H234     1.0000 0.22950  0.13649  0.55709  Biso   1.000  H
  O105     1.0000 0.30570  0.13260  0.92624  Biso   1.000  O
  H235     1.0000 0.28182  0.05769  0.85160  Biso   1.000  H
  H236     1.0000 0.23339  0.10182  0.85135  Biso   1.000  H
  C151     1.0000 0.15331  0.21872  0.98333  Biso   1.000  C
  O106     1.0000 0.05612  0.23269  0.91488  Biso   1.000  O
  H237     1.0000 0.08541  0.17252  0.05734  Biso   1.000  H
  O107     1.0000 0.18140  0.22682  0.27684  Biso   1.000  O
  C152     1.0000 0.12198  0.24971  0.50366  Biso   1.000  C
  H238     1.0000 0.11880  0.17971  0.35792  Biso   1.000  H
  C153     1.0000 0.19149  0.19930  0.12112  Biso   1.000  C
  H239     1.0000 0.33430  0.12260  0.00859  Biso   1.000  H
  O108     1.0000 0.16198  0.27698  0.95479  Biso   1.000  O
  H240     1.0000 0.15979  0.19760  0.87813  Biso   1.000  H
  H241     1.0000 0.06479  0.27112  0.89063  Biso   1.000  H
  H242     1.0000 0.14901  0.23459  0.58159  Biso   1.000  H
  H243     1.0000 0.08521  0.24529  0.55027  Biso   1.000  H
  H244     1.0000 0.12938  0.28860  0.48560  Biso   1.000  H
  H245     1.0000 0.23000  0.20711  0.08613  Biso   1.000  H
  H246     1.0000 0.19839  0.28269  0.90465  Biso   1.000  H
  C154     1.0000 0.80851  0.80070  0.12112  Biso   1.000  C
  O109     1.0000 0.81860  0.77318  0.27684  Biso   1.000  O
  O110     1.0000 0.81492  0.85818  0.13476  Biso   1.000  O
  H247     1.0000 0.77000  0.79289  0.08613  Biso   1.000  H
  C155     1.0000 0.84669  0.78128  0.98333  Biso   1.000  C
  C156     1.0000 0.87430  0.78041  0.33834  Biso   1.000  C
  C157     1.0000 0.77062  0.88839  0.21053  Biso   1.000  C
  C158     1.0000 0.90711  0.78760  0.04142  Biso   1.000  C
  O111     1.0000 0.83802  0.72302  0.95479  Biso   1.000  O
  H248     1.0000 0.84021  0.80240  0.87813  Biso   1.000  H
  C159     1.0000 0.91570  0.75888  0.20914  Biso   1.000  C
  C160     1.0000 0.87802  0.75029  0.50366  Biso   1.000  C
  H249     1.0000 0.88120  0.82029  0.35792  Biso   1.000  H
  C161     1.0000 0.78818  0.91649  0.37573  Biso   1.000  C
  H250     1.0000 0.73909  0.86331  0.23226  Biso   1.000  H
  C162     1.0000 0.75372  0.93252  0.08209  Biso   1.000  C
  C163     1.0000 0.75372  0.93248  0.08209  Biso   1.000  C
  O112     1.0000 0.94388  0.76731  0.91488  Biso   1.000  O
  H251     1.0000 0.91459  0.82748  0.05734  Biso   1.000  H
  H252     1.0000 0.91459  0.82752  0.05734  Biso   1.000  H
  H253     1.0000 0.80161  0.71731  0.90465  Biso   1.000  H
  O113     1.0000 0.96950  0.77169  0.27153  Biso   1.000  O
  H254     1.0000 0.91149  0.71851  0.19563  Biso   1.000  H
  H255     1.0000 0.85099  0.76541  0.58159  Biso   1.000  H
  H256     1.0000 0.91479  0.75471  0.55027  Biso   1.000  H
  H257     1.0000 0.87062  0.71140  0.48560  Biso   1.000  H
  C164     1.0000 0.74269  0.95388  0.43748  Biso   1.000  C
  O114     1.0000 0.80339  0.87711  0.50126  Biso   1.000  O
  H258     1.0000 0.82099  0.93971  0.35135  Biso   1.000  H
  O115     1.0000 0.70921  0.96661  0.15143  Biso   1.000  O
  H259     1.0000 0.78599  0.95669  0.06226  Biso   1.000  H
  C165     1.0000 0.73450  0.91149  0.91513  Biso   1.000  C
  H260     1.0000 0.93521  0.72888  0.89063  Biso   1.000  H
  C166     1.0000 0.00500  0.72541  0.29982  Biso   1.000  C
  C167     1.0000 0.72541  0.99500  0.29982  Biso   1.000  C
  O116     1.0000 0.69661  0.92140  0.48156  Biso   1.000  O
  H261     1.0000 0.75562  0.97450  0.53814  Biso   1.000  H
  H262     1.0000 0.77050  0.86351  0.55709  Biso   1.000  H
  O117     1.0000 0.69430  0.86740  0.92624  Biso   1.000  O
  H263     1.0000 0.71818  0.94231  0.85160  Biso   1.000  H
  H264     1.0000 0.76661  0.89818  0.85135  Biso   1.000  H
  H265     1.0000 0.98260  0.69401  0.34125  Biso   1.000  H
  C168     1.0000 0.04612  0.74269  0.43748  Biso   1.000  C
  O118     1.0000 0.03339  0.70921  0.15143  Biso   1.000  O
  O119     1.0000 0.77169  0.03050  0.27153  Biso   1.000  O
  H266     1.0000 0.69401  0.01740  0.34125  Biso   1.000  H
  H267     1.0000 0.67149  0.94302  0.55128  Biso   1.000  H
  H268     1.0000 0.66570  0.87740  0.00859  Biso   1.000  H
  C169     1.0000 0.08351  0.78818  0.37573  Biso   1.000  C
  O120     1.0000 0.07860  0.69661  0.48156  Biso   1.000  O
  H269     1.0000 0.02550  0.75562  0.53814  Biso   1.000  H
  C170     1.0000 0.06748  0.75372  0.08209  Biso   1.000  C
  C171     1.0000 0.06752  0.75372  0.08209  Biso   1.000  C
  C172     1.0000 0.75888  0.08430  0.20914  Biso   1.000  C
  C173     1.0000 0.11161  0.77062  0.21053  Biso   1.000  C
  O121     1.0000 0.12289  0.80339  0.50126  Biso   1.000  O
  H270     1.0000 0.06029  0.82099  0.35135  Biso   1.000  H
  H271     1.0000 0.05698  0.67149  0.55128  Biso   1.000  H
  C174     1.0000 0.08851  0.73450  0.91513  Biso   1.000  C
  H272     1.0000 0.04331  0.78599  0.06226  Biso   1.000  H
  C175     1.0000 0.78041  0.12570  0.33834  Biso   1.000  C
  C176     1.0000 0.78760  0.09289  0.04142  Biso   1.000  C
  H273     1.0000 0.71851  0.08851  0.19563  Biso   1.000  H
  O122     1.0000 0.14182  0.81492  0.13476  Biso   1.000  O
  H274     1.0000 0.13669  0.73909  0.23226  Biso   1.000  H
  H275     1.0000 0.13649  0.77050  0.55709  Biso   1.000  H
  O123     1.0000 0.13260  0.69430  0.92624  Biso   1.000  O
  H276     1.0000 0.05769  0.71818  0.85160  Biso   1.000  H
  H277     1.0000 0.10182  0.76661  0.85135  Biso   1.000  H
  O124     1.0000 0.77318  0.18140  0.27684  Biso   1.000  O
  C177     1.0000 0.75029  0.12198  0.50366  Biso   1.000  C
  H278     1.0000 0.82029  0.11880  0.35792  Biso   1.000  H
  C178     1.0000 0.78128  0.15331  0.98333  Biso   1.000  C
  O125     1.0000 0.76731  0.05612  0.91488  Biso   1.000  O
  H279     1.0000 0.82748  0.08541  0.05734  Biso   1.000  H
  H280     1.0000 0.82752  0.08541  0.05734  Biso   1.000  H
  C179     1.0000 0.19930  0.80851  0.12112  Biso   1.000  C
  H281     1.0000 0.12260  0.66570  0.00859  Biso   1.000  H
  C180     1.0000 0.80070  0.19149  0.12112  Biso   1.000  C
  H282     1.0000 0.76541  0.14901  0.58159  Biso   1.000  H
  H283     1.0000 0.75471  0.08521  0.55027  Biso   1.000  H
  H284     1.0000 0.71140  0.12938  0.48560  Biso   1.000  H
  O126     1.0000 0.72302  0.16198  0.95479  Biso   1.000  O
  H285     1.0000 0.80240  0.15979  0.87813  Biso   1.000  H
  H286     1.0000 0.72888  0.06479  0.89063  Biso   1.000  H
  C181     1.0000 0.21872  0.84669  0.98333  Biso   1.000  C
  O127     1.0000 0.22682  0.81860  0.27684  Biso   1.000  O
  H287     1.0000 0.20711  0.77000  0.08613  Biso   1.000  H
  O128     1.0000 0.85818  0.18508  0.13476  Biso   1.000  O
  H288     1.0000 0.79289  0.23000  0.08613  Biso   1.000  H
  H289     1.0000 0.71731  0.19839  0.90465  Biso   1.000  H
  O129     1.0000 0.27698  0.83802  0.95479  Biso   1.000  O
  H290     1.0000 0.19760  0.84021  0.87813  Biso   1.000  H
  C182     1.0000 0.21240  0.90711  0.04142  Biso   1.000  C
  C183     1.0000 0.21959  0.87430  0.33834  Biso   1.000  C
  C184     1.0000 0.88839  0.22938  0.21053  Biso   1.000  C
  H291     1.0000 0.28269  0.80161  0.90465  Biso   1.000  H
  O130     1.0000 0.23269  0.94388  0.91488  Biso   1.000  O
  C185     1.0000 0.24112  0.91570  0.20914  Biso   1.000  C
  H292     1.0000 0.17252  0.91459  0.05734  Biso   1.000  H
  C186     1.0000 0.24971  0.87802  0.50366  Biso   1.000  C
  H293     1.0000 0.17971  0.88120  0.35792  Biso   1.000  H
  C187     1.0000 0.91649  0.21182  0.37573  Biso   1.000  C
  C188     1.0000 0.93252  0.24628  0.08209  Biso   1.000  C
  H294     1.0000 0.86331  0.26091  0.23226  Biso   1.000  H
  C189     1.0000 0.93248  0.24628  0.08209  Biso   1.000  C
  H295     1.0000 0.27112  0.93521  0.89063  Biso   1.000  H
  O131     1.0000 0.22831  0.96950  0.27153  Biso   1.000  O
  H296     1.0000 0.28149  0.91149  0.19563  Biso   1.000  H
  H297     1.0000 0.23459  0.85099  0.58159  Biso   1.000  H
  H298     1.0000 0.24529  0.91479  0.55027  Biso   1.000  H
  H299     1.0000 0.28860  0.87062  0.48560  Biso   1.000  H
  C190     1.0000 0.95388  0.25731  0.43748  Biso   1.000  C
  O132     1.0000 0.87711  0.19661  0.50126  Biso   1.000  O
  H300     1.0000 0.93971  0.17901  0.35135  Biso   1.000  H
  C191     1.0000 0.91149  0.26550  0.91513  Biso   1.000  C
  O133     1.0000 0.96661  0.29079  0.15143  Biso   1.000  O
  H301     1.0000 0.95669  0.21401  0.06226  Biso   1.000  H
  C192     1.0000 0.27459  0.00500  0.29982  Biso   1.000  C
  C193     1.0000 0.99500  0.27459  0.29982  Biso   1.000  C
  O134     1.0000 0.92140  0.30339  0.48156  Biso   1.000  O
  H302     1.0000 0.97450  0.24438  0.53814  Biso   1.000  H
  H303     1.0000 0.86351  0.22950  0.55709  Biso   1.000  H
  O135     1.0000 0.86740  0.30570  0.92624  Biso   1.000  O
  H304     1.0000 0.94231  0.28182  0.85160  Biso   1.000  H
  H305     1.0000 0.89818  0.23339  0.85135  Biso   1.000  H
  H306     1.0000 0.30599  0.98260  0.34125  Biso   1.000  H
  C194     1.0000 0.25731  0.04612  0.43748  Biso   1.000  C
  O136     1.0000 0.29079  0.03339  0.15143  Biso   1.000  O
  O137     1.0000 0.03050  0.22831  0.27153  Biso   1.000  O
  H307     1.0000 0.01740  0.30599  0.34125  Biso   1.000  H
  H308     1.0000 0.94302  0.32851  0.55128  Biso   1.000  H
  H309     1.0000 0.87740  0.33430  0.00859  Biso   1.000  H
  C195     1.0000 0.21182  0.08351  0.37573  Biso   1.000  C
  O138     1.0000 0.30339  0.07860  0.48156  Biso   1.000  O
  H310     1.0000 0.24438  0.02550  0.53814  Biso   1.000  H
  C196     1.0000 0.24628  0.06748  0.08209  Biso   1.000  C
  C197     1.0000 0.08430  0.24112  0.20914  Biso   1.000  C
  C198     1.0000 0.22938  0.11161  0.21053  Biso   1.000  C
  O139     1.0000 0.19661  0.12289  0.50126  Biso   1.000  O
  H311     1.0000 0.17901  0.06029  0.35135  Biso   1.000  H
  H312     1.0000 0.32851  0.05698  0.55128  Biso   1.000  H
  C199     1.0000 0.26550  0.08851  0.91513  Biso   1.000  C
  H313     1.0000 0.21401  0.04331  0.06226  Biso   1.000  H
  C200     1.0000 0.09289  0.21240  0.04142  Biso   1.000  C
  C201     1.0000 0.12570  0.21959  0.33834  Biso   1.000  C
  H314     1.0000 0.08851  0.28149  0.19563  Biso   1.000  H
  O140     1.0000 0.18508  0.14182  0.13476  Biso   1.000  O
  H315     1.0000 0.26091  0.13669  0.23226  Biso   1.000  H
  H316     1.0000 0.22950  0.13649  0.55709  Biso   1.000  H
  O141     1.0000 0.30570  0.13260  0.92624  Biso   1.000  O
  H317     1.0000 0.28182  0.05769  0.85160  Biso   1.000  H
  H318     1.0000 0.23339  0.10182  0.85135  Biso   1.000  H
  C202     1.0000 0.15331  0.21872  0.98333  Biso   1.000  C
  O142     1.0000 0.05612  0.23269  0.91488  Biso   1.000  O
  H319     1.0000 0.08541  0.17252  0.05734  Biso   1.000  H
  O143     1.0000 0.18140  0.22682  0.27684  Biso   1.000  O
  C203     1.0000 0.12198  0.24971  0.50366  Biso   1.000  C
  H320     1.0000 0.11880  0.17971  0.35792  Biso   1.000  H
  C204     1.0000 0.19149  0.19930  0.12112  Biso   1.000  C
  H321     1.0000 0.33430  0.12260  0.00859  Biso   1.000  H
  O144     1.0000 0.16198  0.27698  0.95479  Biso   1.000  O
  H322     1.0000 0.15979  0.19760  0.87813  Biso   1.000  H
  H323     1.0000 0.06479  0.27112  0.89063  Biso   1.000  H
  H324     1.0000 0.14901  0.23459  0.58159  Biso   1.000  H
  H325     1.0000 0.08521  0.24529  0.55027  Biso   1.000  H
  H326     1.0000 0.12938  0.28860  0.48560  Biso   1.000  H
  H327     1.0000 0.23000  0.20711  0.08613  Biso   1.000  H
  H328     1.0000 0.19839  0.28269  0.90465  Biso   1.000  H
  O145     1.0000 0.78570  0.66339  0.33190  Biso   1.000  O
  C205     1.0000 0.72810  0.65810  0.33986  Biso   1.000  C
  H329     1.0000 0.79521  0.69318  0.25499  Biso   1.000  H
  C206     1.0000 0.70029  0.65682  0.17088  Biso   1.000  C
  H330     1.0000 0.71318  0.68909  0.40515  Biso   1.000  H
  H331     1.0000 0.71909  0.62401  0.40061  Biso   1.000  H
  C207     1.0000 0.72698  0.61888  0.03978  Biso   1.000  C
  O146     1.0000 0.69831  0.71269  0.10836  Biso   1.000  O
  H332     1.0000 0.66182  0.64421  0.18818  Biso   1.000  H
  O147     1.0000 0.72372  0.56409  0.10508  Biso   1.000  O
  H333     1.0000 0.76612  0.62938  0.02235  Biso   1.000  H
  C208     1.0000 0.69529  0.62302  0.87396  Biso   1.000  C
  C209     1.0000 0.66669  0.71839  0.95858  Biso   1.000  C
  C210     1.0000 0.77339  0.53682  0.13185  Biso   1.000  C
  C211     1.0000 0.69008  0.68302  0.81776  Biso   1.000  C
  O148     1.0000 0.71959  0.58930  0.74665  Biso   1.000  O
  H334     1.0000 0.65752  0.60888  0.89454  Biso   1.000  H
  O149     1.0000 0.61128  0.70339  0.98106  Biso   1.000  O
  H335     1.0000 0.66802  0.75760  0.92258  Biso   1.000  H
  C212     1.0000 0.76430  0.49430  0.27254  Biso   1.000  C
  O150     1.0000 0.79360  0.51008  0.98661  Biso   1.000  O
  H336     1.0000 0.80128  0.56401  0.17037  Biso   1.000  H
  O151     1.0000 0.74372  0.70289  0.76964  Biso   1.000  O
  H337     1.0000 0.66508  0.68492  0.71887  Biso   1.000  H
  H338     1.0000 0.75901  0.59562  0.74387  Biso   1.000  H
  C213     1.0000 0.57541  0.74521  0.04812  Biso   1.000  C
  C214     1.0000 0.72430  0.45140  0.21344  Biso   1.000  C
  O152     1.0000 0.81450  0.46748  0.31460  Biso   1.000  O
  H339     1.0000 0.74930  0.51302  0.37371  Biso   1.000  H
  C215     1.0000 0.75620  0.46880  0.91665  Biso   1.000  C
  H340     1.0000 0.74050  0.74062  0.72834  Biso   1.000  H
  C216     1.0000 0.54860  0.72430  0.21344  Biso   1.000  C
  C217     1.0000 0.53120  0.75620  0.91665  Biso   1.000  C
  H341     1.0000 0.59661  0.77938  0.07035  Biso   1.000  H
  C218     1.0000 0.74521  0.42459  0.04812  Biso   1.000  C
  O153     1.0000 0.71430  0.41041  0.34251  Biso   1.000  O
  H342     1.0000 0.68880  0.47008  0.18856  Biso   1.000  H
  H343     1.0000 0.83851  0.49318  0.37573  Biso   1.000  H
  C219     1.0000 0.78240  0.44661  0.76484  Biso   1.000  C
  H344     1.0000 0.72099  0.48669  0.88545  Biso   1.000  H
  C220     1.0000 0.50570  0.76430  0.27254  Biso   1.000  C
  O154     1.0000 0.58959  0.71430  0.34251  Biso   1.000  O
  H345     1.0000 0.52992  0.68880  0.18856  Biso   1.000  H
  O155     1.0000 0.48992  0.79360  0.98661  Biso   1.000  O
  C221     1.0000 0.55339  0.78240  0.76484  Biso   1.000  C
  H346     1.0000 0.51331  0.72099  0.88545  Biso   1.000  H
  O156     1.0000 0.70339  0.38872  0.98106  Biso   1.000  O
  H347     1.0000 0.77938  0.40339  0.07035  Biso   1.000  H
  H348     1.0000 0.74521  0.40959  0.42043  Biso   1.000  H
  H349     1.0000 0.78860  0.47620  0.68464  Biso   1.000  H
  H350     1.0000 0.75839  0.41901  0.71432  Biso   1.000  H
  H351     1.0000 0.81740  0.42971  0.79452  Biso   1.000  H
  C222     1.0000 0.46318  0.77339  0.13185  Biso   1.000  C
  O157     1.0000 0.53252  0.81450  0.31460  Biso   1.000  O
  H352     1.0000 0.48698  0.74930  0.37371  Biso   1.000  H
  H353     1.0000 0.59041  0.74521  0.42043  Biso   1.000  H
  H354     1.0000 0.52380  0.78860  0.68464  Biso   1.000  H
  H355     1.0000 0.58099  0.75839  0.71432  Biso   1.000  H
  H356     1.0000 0.57029  0.81740  0.79452  Biso   1.000  H
  C223     1.0000 0.71839  0.33331  0.95858  Biso   1.000  C
  O158     1.0000 0.43591  0.72372  0.10508  Biso   1.000  O
  H357     1.0000 0.43599  0.80128  0.17037  Biso   1.000  H
  H358     1.0000 0.50682  0.83851  0.37573  Biso   1.000  H
  O159     1.0000 0.71269  0.30169  0.10836  Biso   1.000  O
  C224     1.0000 0.68302  0.30992  0.81776  Biso   1.000  C
  H359     1.0000 0.75760  0.33198  0.92258  Biso   1.000  H
  C225     1.0000 0.38112  0.72698  0.03978  Biso   1.000  C
  C226     1.0000 0.65682  0.29971  0.17088  Biso   1.000  C
  C227     1.0000 0.62302  0.30471  0.87396  Biso   1.000  C
  O160     1.0000 0.70289  0.25628  0.76964  Biso   1.000  O
  H360     1.0000 0.68492  0.33492  0.71887  Biso   1.000  H
  C228     1.0000 0.34318  0.70029  0.17088  Biso   1.000  C
  C229     1.0000 0.37698  0.69529  0.87396  Biso   1.000  C
  H361     1.0000 0.37062  0.76612  0.02235  Biso   1.000  H
  C230     1.0000 0.61888  0.27302  0.03978  Biso   1.000  C
  C231     1.0000 0.65810  0.27190  0.33986  Biso   1.000  C
  H362     1.0000 0.64421  0.33818  0.18818  Biso   1.000  H
  O161     1.0000 0.58930  0.28041  0.74665  Biso   1.000  O
  H363     1.0000 0.60888  0.34248  0.89454  Biso   1.000  H
  H364     1.0000 0.74062  0.25950  0.72834  Biso   1.000  H
  O162     1.0000 0.28731  0.69831  0.10836  Biso   1.000  O
  C232     1.0000 0.34190  0.72810  0.33986  Biso   1.000  C
  H365     1.0000 0.35579  0.66182  0.18818  Biso   1.000  H
  C233     1.0000 0.31698  0.69008  0.81776  Biso   1.000  C
  O163     1.0000 0.41070  0.71959  0.74665  Biso   1.000  O
  H366     1.0000 0.39112  0.65752  0.89454  Biso   1.000  H
  O164     1.0000 0.56409  0.27628  0.10508  Biso   1.000  O
  H367     1.0000 0.62938  0.23388  0.02235  Biso   1.000  H
  O165     1.0000 0.66339  0.21430  0.33190  Biso   1.000  O
  H368     1.0000 0.68909  0.28682  0.40515  Biso   1.000  H
  H369     1.0000 0.62401  0.28091  0.40061  Biso   1.000  H
  H370     1.0000 0.59562  0.24099  0.74387  Biso   1.000  H
  C234     1.0000 0.28161  0.66669  0.95858  Biso   1.000  C
  O166     1.0000 0.33661  0.78570  0.33190  Biso   1.000  O
  H371     1.0000 0.31091  0.71318  0.40515  Biso   1.000  H
  H372     1.0000 0.37599  0.71909  0.40061  Biso   1.000  H
  O167     1.0000 0.29711  0.74372  0.76964  Biso   1.000  O
  H373     1.0000 0.31508  0.66508  0.71887  Biso   1.000  H
  H374     1.0000 0.40438  0.75901  0.74387  Biso   1.000  H
  C235     1.0000 0.53682  0.22661  0.13185  Biso   1.000  C
  H375     1.0000 0.69318  0.20479  0.25499  Biso   1.000  H
  O168     1.0000 0.29661  0.61128  0.98106  Biso   1.000  O
  H376     1.0000 0.24240  0.66802  0.92258  Biso   1.000  H
  H377     1.0000 0.30682  0.79521  0.25499  Biso   1.000  H
  H378     1.0000 0.25938  0.74050  0.72834  Biso   1.000  H
  C236     1.0000 0.49430  0.23570  0.27254  Biso   1.000  C
  O169     1.0000 0.51008  0.20640  0.98661  Biso   1.000  O
  H379     1.0000 0.56401  0.19872  0.17037  Biso   1.000  H
  C237     1.0000 0.25479  0.57541  0.04812  Biso   1.000  C
  C238     1.0000 0.45140  0.27570  0.21344  Biso   1.000  C
  O170     1.0000 0.46748  0.18550  0.31460  Biso   1.000  O
  H380     1.0000 0.51302  0.25070  0.37371  Biso   1.000  H
  C239     1.0000 0.46880  0.24380  0.91665  Biso   1.000  C
  C240     1.0000 0.27570  0.54860  0.21344  Biso   1.000  C
  C241     1.0000 0.24380  0.53120  0.91665  Biso   1.000  C
  H381     1.0000 0.22062  0.59661  0.07035  Biso   1.000  H
  C242     1.0000 0.42459  0.25479  0.04812  Biso   1.000  C
  O171     1.0000 0.41041  0.28570  0.34251  Biso   1.000  O
  H382     1.0000 0.47008  0.31120  0.18856  Biso   1.000  H
  H383     1.0000 0.49318  0.16149  0.37573  Biso   1.000  H
  C243     1.0000 0.44661  0.21760  0.76484  Biso   1.000  C
  H384     1.0000 0.48669  0.27901  0.88545  Biso   1.000  H
  C244     1.0000 0.23570  0.50570  0.27254  Biso   1.000  C
  O172     1.0000 0.28570  0.58959  0.34251  Biso   1.000  O
  H385     1.0000 0.31120  0.52992  0.18856  Biso   1.000  H
  O173     1.0000 0.20640  0.48992  0.98661  Biso   1.000  O
  C245     1.0000 0.21760  0.55339  0.76484  Biso   1.000  C
  H386     1.0000 0.27901  0.51331  0.88545  Biso   1.000  H
  O174     1.0000 0.38872  0.29661  0.98106  Biso   1.000  O
  H387     1.0000 0.40339  0.22062  0.07035  Biso   1.000  H
  H388     1.0000 0.40959  0.25479  0.42043  Biso   1.000  H
  H389     1.0000 0.47620  0.21140  0.68464  Biso   1.000  H
  H390     1.0000 0.41901  0.24161  0.71432  Biso   1.000  H
  H391     1.0000 0.42971  0.18260  0.79452  Biso   1.000  H
  C246     1.0000 0.22661  0.46318  0.13185  Biso   1.000  C
  O175     1.0000 0.18550  0.53248  0.31460  Biso   1.000  O
  H392     1.0000 0.25070  0.48698  0.37371  Biso   1.000  H
  H393     1.0000 0.25479  0.59041  0.42043  Biso   1.000  H
  H394     1.0000 0.21140  0.52380  0.68464  Biso   1.000  H
  H395     1.0000 0.24161  0.58099  0.71432  Biso   1.000  H
  H396     1.0000 0.18260  0.57029  0.79452  Biso   1.000  H
  C247     1.0000 0.33331  0.28161  0.95858  Biso   1.000  C
  O176     1.0000 0.27628  0.43591  0.10508  Biso   1.000  O
  H397     1.0000 0.19872  0.43599  0.17037  Biso   1.000  H
  H398     1.0000 0.16149  0.50682  0.37573  Biso   1.000  H
  O177     1.0000 0.30169  0.28731  0.10836  Biso   1.000  O
  C248     1.0000 0.30992  0.31698  0.81776  Biso   1.000  C
  H399     1.0000 0.33198  0.24240  0.92258  Biso   1.000  H
  C249     1.0000 0.27302  0.38112  0.03978  Biso   1.000  C
  C250     1.0000 0.29971  0.34318  0.17088  Biso   1.000  C
  C251     1.0000 0.30471  0.37698  0.87396  Biso   1.000  C
  O178     1.0000 0.25628  0.29711  0.76964  Biso   1.000  O
  H400     1.0000 0.33492  0.31508  0.71887  Biso   1.000  H
  H401     1.0000 0.23388  0.37062  0.02235  Biso   1.000  H
  C252     1.0000 0.27190  0.34190  0.33986  Biso   1.000  C
  H402     1.0000 0.33818  0.35579  0.18818  Biso   1.000  H
  O179     1.0000 0.28041  0.41070  0.74665  Biso   1.000  O
  H403     1.0000 0.34248  0.39112  0.89454  Biso   1.000  H
  H404     1.0000 0.25950  0.25938  0.72834  Biso   1.000  H
  O180     1.0000 0.21430  0.33661  0.33190  Biso   1.000  O
  H405     1.0000 0.28682  0.31091  0.40515  Biso   1.000  H
  H406     1.0000 0.28091  0.37599  0.40061  Biso   1.000  H
  H407     1.0000 0.24099  0.40438  0.74387  Biso   1.000  H
  H408     1.0000 0.20479  0.30682  0.25499  Biso   1.000  H
  Ne1      1.0000 0.50000  0.50000  0.06011  Biso   1.000  Ne
  He1      1.0000 0.50000  0.50000  0.21805  Biso   1.000  He
  He2      1.0000 0.50000  0.50000  0.86469  Biso   1.000  He
  Ar1      1.0000 0.50000  0.50000  0.06011  Biso   1.000  Ar
  Ne2      1.0000 0.99747  0.99929  0.19254  Biso   1.000  Ne
  He3      1.0000 0.00000  1.00000  0.37930  Biso   1.000  He
  He4      1.0000 0.00002  0.00001  0.02828  Biso   1.000  He
  Ar2      1.0000 0.00002  0.00001  0.18237  Biso   1.000  Ar
  Ne3      1.0000 0.99747  0.99929  0.19254  Biso   1.000  Ne
  He5      1.0000 0.00000  1.00000  0.37930  Biso   1.000  He
  He6      1.0000 0.00002  0.00001  0.02828  Biso   1.000  He
  Ar3      1.0000 0.00002  0.00001  0.18237  Biso   1.000  Ar
  Ne4      1.0000 0.99747  0.99929  0.19254  Biso   1.000  Ne
  He7      1.0000 0.00000  1.00000  0.37930  Biso   1.000  He
  He8      1.0000 0.00002  0.00001  0.02828  Biso   1.000  He
  Ar4      1.0000 0.00002  0.00001  0.18237  Biso   1.000  Ar
  Ne5      1.0000 0.99747  0.99929  0.19254  Biso   1.000  Ne
  He9      1.0000 0.00000  1.00000  0.37930  Biso   1.000  He
  He10     1.0000 0.00002  0.00001  0.02828  Biso   1.000  He
  Ar5      1.0000 0.00002  0.00001  0.18237  Biso   1.000  Ar
