data_image0
_cell_length_a       13.5
_cell_length_b       20.605
_cell_length_c       43.205
_cell_angle_alpha    90
_cell_angle_beta     96.48
_cell_angle_gamma    90

_symmetry_space_group_name_H-M    "P 1"
_symmetry_int_tables_number       1

loop_
  _symmetry_equiv_pos_as_xyz
  'x, y, z'

loop_
  _atom_site_label
  _atom_site_occupancy
  _atom_site_fract_x
  _atom_site_fract_y
  _atom_site_fract_z
  _atom_site_thermal_displace_type
  _atom_site_B_iso_or_equiv
  _atom_site_type_symbol
  C1       1.0000 0.66082  0.40961  0.43623  Biso   1.000  C
  C2       1.0000 0.56981  0.37569  0.42135  Biso   1.000  C
  H1       1.0000 0.66964  0.40010  0.45841  Biso   1.000  H
  H2       1.0000 0.71860  0.39471  0.42680  Biso   1.000  H
  H3       1.0000 0.65321  0.45601  0.43320  Biso   1.000  H
  O1       1.0000 0.56220  0.38830  0.38878  Biso   1.000  O
  H4       1.0000 0.51050  0.39190  0.43001  Biso   1.000  H
  H5       1.0000 0.57521  0.32890  0.42521  Biso   1.000  H
  C3       1.0000 0.48337  0.36195  0.37008  Biso   1.000  C
  C4       1.0000 0.41297  0.32133  0.38107  Biso   1.000  C
  C5       1.0000 0.47678  0.37641  0.33851  Biso   1.000  C
  C6       1.0000 0.33572  0.29483  0.36141  Biso   1.000  C
  H6       1.0000 0.41812  0.31157  0.40250  Biso   1.000  H
  C7       1.0000 0.39951  0.34948  0.31878  Biso   1.000  C
  C8       1.0000 0.55147  0.42208  0.32626  Biso   1.000  C
  C9       1.0000 0.32899  0.30920  0.32985  Biso   1.000  C
  C10      1.0000 0.25814  0.25256  0.37467  Biso   1.000  C
  H7       1.0000 0.39475  0.35870  0.29740  Biso   1.000  H
  H8       1.0000 0.61761  0.41407  0.33751  Biso   1.000  H
  H9       1.0000 0.55506  0.41272  0.30420  Biso   1.000  H
  C11      1.0000 0.52459  0.49318  0.32978  Biso   1.000  C
  O2       1.0000 0.24996  0.28207  0.31121  Biso   1.000  O
  C12      1.0000 0.18018  0.29304  0.38832  Biso   1.000  C
  H10      1.0000 0.29133  0.22431  0.39090  Biso   1.000  H
  H11      1.0000 0.22549  0.22490  0.35810  Biso   1.000  H
  C13      1.0000 0.45705  0.52376  0.30788  Biso   1.000  C
  C14      1.0000 0.56568  0.52851  0.35514  Biso   1.000  C
  C15      1.0000 0.24989  0.28197  0.27902  Biso   1.000  C
  C16      1.0000 0.09882  0.31657  0.36917  Biso   1.000  C
  C17      1.0000 0.18924  0.30891  0.41955  Biso   1.000  C
  O3       1.0000 0.41980  0.48687  0.28247  Biso   1.000  O
  C18      1.0000 0.43020  0.58850  0.31189  Biso   1.000  C
  H12      1.0000 0.61197  0.50857  0.37010  Biso   1.000  H
  C19      1.0000 0.53958  0.59364  0.35917  Biso   1.000  C
  H13      1.0000 0.24817  0.32672  0.27119  Biso   1.000  H
  H14      1.0000 0.31060  0.26110  0.27341  Biso   1.000  H
  C20      1.0000 0.16019  0.24581  0.26488  Biso   1.000  C
  C21      1.0000 0.02819  0.35579  0.38056  Biso   1.000  C
  H15      1.0000 0.09151  0.30561  0.34790  Biso   1.000  H
  O4       1.0000 0.27062  0.28391  0.43772  Biso   1.000  O
  C22      1.0000 0.11793  0.34807  0.43111  Biso   1.000  C
  C23      1.0000 0.36256  0.51784  0.25729  Biso   1.000  C
  C24      1.0000 0.47021  0.62334  0.33774  Biso   1.000  C
  H16      1.0000 0.38435  0.60859  0.29691  Biso   1.000  H
  O5       1.0000 0.57952  0.63091  0.38403  Biso   1.000  O
  H17      1.0000 0.16677  0.20029  0.27040  Biso   1.000  H
  H18      1.0000 0.10098  0.26348  0.27261  Biso   1.000  H
  H19      1.0000 0.15437  0.25018  0.24240  Biso   1.000  H
  C25      1.0000 0.03725  0.37234  0.41198  Biso   1.000  C
  O6       1.0000 0.94596  0.38068  0.36269  Biso   1.000  O
  C26      1.0000 0.27669  0.28940  0.46952  Biso   1.000  C
  H20      1.0000 0.12473  0.35831  0.45240  Biso   1.000  H
  H21      1.0000 0.30268  0.53720  0.26420  Biso   1.000  H
  H22      1.0000 0.40157  0.55229  0.24881  Biso   1.000  H
  C27      1.0000 0.33426  0.46697  0.23287  Biso   1.000  C
  C28      1.0000 0.43450  0.69231  0.34285  Biso   1.000  C
  C29      1.0000 0.65705  0.60830  0.40427  Biso   1.000  C
  C30      1.0000 0.96259  0.41781  0.42472  Biso   1.000  C
  C31      1.0000 0.93362  0.36671  0.33036  Biso   1.000  C
  H23      1.0000 0.28212  0.33521  0.47572  Biso   1.000  H
  H24      1.0000 0.21684  0.27120  0.47711  Biso   1.000  H
  C32      1.0000 0.36757  0.25290  0.48324  Biso   1.000  C
  H25      1.0000 0.29345  0.43407  0.24131  Biso   1.000  H
  H26      1.0000 0.29696  0.48711  0.21491  Biso   1.000  H
  H27      1.0000 0.39418  0.44708  0.22670  Biso   1.000  H
  C33      1.0000 0.34412  0.69347  0.36048  Biso   1.000  C
  H28      1.0000 0.41807  0.71347  0.32260  Biso   1.000  H
  H29      1.0000 0.48848  0.71696  0.35449  Biso   1.000  H
  H30      1.0000 0.63373  0.57331  0.41701  Biso   1.000  H
  H31      1.0000 0.70921  0.59088  0.39260  Biso   1.000  H
  C34      1.0000 0.69842  0.66261  0.42489  Biso   1.000  C
  H32      1.0000 0.95812  0.40728  0.44660  Biso   1.000  H
  H33      1.0000 0.89665  0.41111  0.41319  Biso   1.000  H
  C35      1.0000 0.99202  0.48872  0.42214  Biso   1.000  C
  H34      1.0000 0.99138  0.38229  0.32069  Biso   1.000  H
  H35      1.0000 0.92766  0.31968  0.32701  Biso   1.000  H
  C36      1.0000 0.84121  0.40000  0.31631  Biso   1.000  C
  H36      1.0000 0.37465  0.25722  0.50570  Biso   1.000  H
  H37      1.0000 0.36046  0.20738  0.47770  Biso   1.000  H
  H38      1.0000 0.42615  0.27052  0.47520  Biso   1.000  H
  C37      1.0000 0.35474  0.68998  0.39274  Biso   1.000  C
  C38      1.0000 0.24811  0.69672  0.34527  Biso   1.000  C
  H39      1.0000 0.75660  0.64737  0.43810  Biso   1.000  H
  H40      1.0000 0.71725  0.69828  0.41219  Biso   1.000  H
  H41      1.0000 0.64831  0.67707  0.43770  Biso   1.000  H
  C39      1.0000 0.05866  0.51774  0.44480  Biso   1.000  C
  C40      1.0000 0.95413  0.52570  0.39679  Biso   1.000  C
  H42      1.0000 0.78519  0.38617  0.32691  Biso   1.000  H
  H43      1.0000 0.84956  0.44659  0.31850  Biso   1.000  H
  H44      1.0000 0.82877  0.38889  0.29439  Biso   1.000  H
  H45      1.0000 0.41922  0.68867  0.40350  Biso   1.000  H
  C41      1.0000 0.27274  0.68838  0.40956  Biso   1.000  C
  O7       1.0000 0.23907  0.69784  0.31305  Biso   1.000  O
  C42      1.0000 0.16671  0.69532  0.36230  Biso   1.000  C
  O8       1.0000 0.09323  0.47954  0.46978  Biso   1.000  O
  C43      1.0000 0.08735  0.58219  0.44161  Biso   1.000  C
  H46      1.0000 0.90868  0.50677  0.38130  Biso   1.000  H
  C44      1.0000 0.98179  0.59025  0.39379  Biso   1.000  C
  O9       1.0000 0.28154  0.68347  0.44173  Biso   1.000  O
  C45      1.0000 0.17718  0.69080  0.39437  Biso   1.000  C
  C46      1.0000 0.14968  0.72070  0.29628  Biso   1.000  C
  H47      1.0000 0.10218  0.69760  0.35160  Biso   1.000  H
  C47      1.0000 0.14624  0.50837  0.49615  Biso   1.000  C
  H48      1.0000 0.13273  0.60097  0.45710  Biso   1.000  H
  C48      1.0000 0.05048  0.61898  0.41601  Biso   1.000  C
  O10      1.0000 0.94560  0.62912  0.36907  Biso   1.000  O
  C49      1.0000 0.37235  0.69910  0.45995  Biso   1.000  C
  C50      1.0000 0.08679  0.68833  0.41215  Biso   1.000  C
  H49      1.0000 0.14718  0.70619  0.27459  Biso   1.000  H
  H50      1.0000 0.09287  0.70129  0.30511  Biso   1.000  H
  C51      1.0000 0.13970  0.79190  0.29675  Biso   1.000  C
  C52      1.0000 0.16905  0.45659  0.52014  Biso   1.000  C
  H51      1.0000 0.20816  0.52778  0.49060  Biso   1.000  H
  H52      1.0000 0.10607  0.54268  0.50430  Biso   1.000  H
  C53      1.0000 0.87531  0.60480  0.34632  Biso   1.000  C
  H53      1.0000 0.37073  0.68260  0.48110  Biso   1.000  H
  H54      1.0000 0.42759  0.67780  0.45109  Biso   1.000  H
  C54      1.0000 0.38970  0.77248  0.46102  Biso   1.000  C
  H55      1.0000 0.10362  0.70789  0.43271  Biso   1.000  H
  H56      1.0000 0.03291  0.71400  0.40101  Biso   1.000  H
  H57      1.0000 0.14119  0.80670  0.31811  Biso   1.000  H
  H58      1.0000 0.19429  0.81150  0.28731  Biso   1.000  H
  H59      1.0000 0.07690  0.80437  0.28510  Biso   1.000  H
  H60      1.0000 0.20324  0.47561  0.53891  Biso   1.000  H
  H61      1.0000 0.10747  0.43669  0.52480  Biso   1.000  H
  H62      1.0000 0.21137  0.42388  0.51219  Biso   1.000  H
  H63      1.0000 0.90437  0.57049  0.33451  Biso   1.000  H
  H64      1.0000 0.81847  0.58670  0.35570  Biso   1.000  H
  C55      1.0000 0.84217  0.66120  0.32533  Biso   1.000  C
  H65      1.0000 0.45172  0.78180  0.47381  Biso   1.000  H
  H66      1.0000 0.39333  0.78860  0.44010  Biso   1.000  H
  H67      1.0000 0.33502  0.79350  0.46980  Biso   1.000  H
  H68      1.0000 0.80399  0.69139  0.33651  Biso   1.000  H
  H69      1.0000 0.90025  0.68299  0.31899  Biso   1.000  H
  H70      1.0000 0.80110  0.64528  0.30700  Biso   1.000  H
  C56      1.0000 0.33948  0.59039  0.56379  Biso   1.000  C
  C57      1.0000 0.43048  0.62427  0.57865  Biso   1.000  C
  H71      1.0000 0.33066  0.59990  0.54162  Biso   1.000  H
  H72      1.0000 0.28162  0.60529  0.57320  Biso   1.000  H
  H73      1.0000 0.34709  0.54399  0.56680  Biso   1.000  H
  O11      1.0000 0.43809  0.61165  0.61122  Biso   1.000  O
  H74      1.0000 0.48973  0.60810  0.57001  Biso   1.000  H
  H75      1.0000 0.42509  0.67110  0.57481  Biso   1.000  H
  C58      1.0000 0.51685  0.63800  0.62992  Biso   1.000  C
  C59      1.0000 0.52351  0.62354  0.66149  Biso   1.000  C
  C60      1.0000 0.58725  0.67862  0.61893  Biso   1.000  C
  C61      1.0000 0.44876  0.57792  0.67376  Biso   1.000  C
  C62      1.0000 0.60079  0.65052  0.68124  Biso   1.000  C
  H76      1.0000 0.58218  0.68838  0.59750  Biso   1.000  H
  C63      1.0000 0.66458  0.70512  0.63861  Biso   1.000  C
  C64      1.0000 0.47570  0.50682  0.67022  Biso   1.000  C
  H77      1.0000 0.38270  0.58588  0.66251  Biso   1.000  H
  H78      1.0000 0.44516  0.58728  0.69580  Biso   1.000  H
  C65      1.0000 0.67131  0.69075  0.67015  Biso   1.000  C
  H79      1.0000 0.60547  0.64130  0.70260  Biso   1.000  H
  C66      1.0000 0.74216  0.74744  0.62534  Biso   1.000  C
  C67      1.0000 0.54318  0.47620  0.69214  Biso   1.000  C
  C68      1.0000 0.43461  0.47149  0.64486  Biso   1.000  C
  O12      1.0000 0.75026  0.71793  0.68879  Biso   1.000  O
  C69      1.0000 0.82004  0.70696  0.61168  Biso   1.000  C
  H80      1.0000 0.70896  0.77569  0.60910  Biso   1.000  H
  H81      1.0000 0.77480  0.77510  0.64190  Biso   1.000  H
  C70      1.0000 0.57009  0.41150  0.68811  Biso   1.000  C
  O13      1.0000 0.58049  0.51313  0.71753  Biso   1.000  O
  C71      1.0000 0.46071  0.40631  0.64083  Biso   1.000  C
  H82      1.0000 0.38825  0.49139  0.62990  Biso   1.000  H
  C72      1.0000 0.75041  0.71798  0.72100  Biso   1.000  C
  C73      1.0000 0.90148  0.68343  0.63086  Biso   1.000  C
  C74      1.0000 0.81105  0.69105  0.58045  Biso   1.000  C
  C75      1.0000 0.53008  0.37661  0.66226  Biso   1.000  C
  H83      1.0000 0.61588  0.39141  0.70311  Biso   1.000  H
  C76      1.0000 0.63775  0.48216  0.74274  Biso   1.000  C
  O14      1.0000 0.42077  0.36904  0.61597  Biso   1.000  O
  H84      1.0000 0.75212  0.67328  0.72881  Biso   1.000  H
  H85      1.0000 0.68970  0.73890  0.72662  Biso   1.000  H
  C77      1.0000 0.84011  0.75419  0.73514  Biso   1.000  C
  C78      1.0000 0.97211  0.64416  0.61947  Biso   1.000  C
  H86      1.0000 0.90879  0.69439  0.65210  Biso   1.000  H
  C79      1.0000 0.88236  0.65193  0.56889  Biso   1.000  C
  O15      1.0000 0.72968  0.71604  0.56228  Biso   1.000  O
  C80      1.0000 0.56580  0.30769  0.65716  Biso   1.000  C
  H87      1.0000 0.69761  0.46280  0.73580  Biso   1.000  H
  H88      1.0000 0.59873  0.44771  0.75122  Biso   1.000  H
  C81      1.0000 0.66604  0.53298  0.76715  Biso   1.000  C
  C82      1.0000 0.34325  0.39170  0.59575  Biso   1.000  C
  H89      1.0000 0.83352  0.79966  0.72960  Biso   1.000  H
  H90      1.0000 0.89932  0.73647  0.72741  Biso   1.000  H
  H91      1.0000 0.84593  0.74977  0.75760  Biso   1.000  H
  C83      1.0000 0.96305  0.62766  0.58802  Biso   1.000  C
  O16      1.0000 0.05433  0.61932  0.63731  Biso   1.000  O
  H92      1.0000 0.87556  0.64169  0.54760  Biso   1.000  H
  C84      1.0000 0.72353  0.71060  0.53048  Biso   1.000  C
  C85      1.0000 0.65618  0.30653  0.63954  Biso   1.000  C
  H93      1.0000 0.58222  0.28648  0.67740  Biso   1.000  H
  H94      1.0000 0.51181  0.28299  0.64551  Biso   1.000  H
  H95      1.0000 0.70685  0.56588  0.75872  Biso   1.000  H
  H96      1.0000 0.70335  0.51289  0.78511  Biso   1.000  H
  H97      1.0000 0.60612  0.55288  0.77330  Biso   1.000  H
  H98      1.0000 0.36657  0.42669  0.58301  Biso   1.000  H
  H99      1.0000 0.29109  0.40908  0.60740  Biso   1.000  H
  C86      1.0000 0.30187  0.33739  0.57511  Biso   1.000  C
  C87      1.0000 0.03763  0.58214  0.57528  Biso   1.000  C
  C88      1.0000 0.06668  0.63329  0.66964  Biso   1.000  C
  H100     1.0000 0.71811  0.66479  0.52431  Biso   1.000  H
  H101     1.0000 0.78346  0.72880  0.52291  Biso   1.000  H
  C89      1.0000 0.63273  0.74710  0.51678  Biso   1.000  C
  C90      1.0000 0.64556  0.31002  0.60728  Biso   1.000  C
  C91      1.0000 0.75218  0.30328  0.65473  Biso   1.000  C
  H102     1.0000 0.24369  0.35258  0.56190  Biso   1.000  H
  H103     1.0000 0.28305  0.30167  0.58781  Biso   1.000  H
  H104     1.0000 0.35198  0.32288  0.56230  Biso   1.000  H
  C92      1.0000 0.00828  0.51128  0.57788  Biso   1.000  C
  H105     1.0000 0.04218  0.59267  0.55340  Biso   1.000  H
  H106     1.0000 0.10365  0.58889  0.58681  Biso   1.000  H
  H107     1.0000 0.00891  0.61767  0.67931  Biso   1.000  H
  H108     1.0000 0.07256  0.68027  0.67300  Biso   1.000  H
  C93      1.0000 0.15909  0.60000  0.68371  Biso   1.000  C
  H109     1.0000 0.62565  0.74278  0.49430  Biso   1.000  H
  H110     1.0000 0.63983  0.79257  0.52230  Biso   1.000  H
  H111     1.0000 0.57414  0.72948  0.52480  Biso   1.000  H
  C94      1.0000 0.72756  0.31162  0.59046  Biso   1.000  C
  H112     1.0000 0.58107  0.31128  0.59650  Biso   1.000  H
  C95      1.0000 0.83360  0.30463  0.63773  Biso   1.000  C
  O17      1.0000 0.76116  0.30216  0.68697  Biso   1.000  O
  C96      1.0000 0.94165  0.48221  0.55522  Biso   1.000  C
  C97      1.0000 0.04616  0.47430  0.60321  Biso   1.000  C
  H113     1.0000 0.21512  0.61378  0.67311  Biso   1.000  H
  H114     1.0000 0.15066  0.55341  0.68150  Biso   1.000  H
  H115     1.0000 0.17152  0.61107  0.70561  Biso   1.000  H
  O18      1.0000 0.71876  0.31648  0.55829  Biso   1.000  O
  C98      1.0000 0.82304  0.30920  0.60563  Biso   1.000  C
  H116     1.0000 0.89812  0.30240  0.64840  Biso   1.000  H
  C99      1.0000 0.85062  0.27930  0.70374  Biso   1.000  C
  C100     1.0000 0.91295  0.41781  0.55841  Biso   1.000  C
  O19      1.0000 0.90706  0.52041  0.53022  Biso   1.000  O
  C101     1.0000 0.01844  0.40971  0.60623  Biso   1.000  C
  H117     1.0000 0.09154  0.49318  0.61870  Biso   1.000  H
  C102     1.0000 0.62796  0.30090  0.54008  Biso   1.000  C
  C103     1.0000 0.91343  0.31162  0.58785  Biso   1.000  C
  H118     1.0000 0.85312  0.29381  0.72541  Biso   1.000  H
  H119     1.0000 0.90736  0.29871  0.69492  Biso   1.000  H
  C104     1.0000 0.86060  0.20810  0.70325  Biso   1.000  C
  C105     1.0000 0.94974  0.38098  0.58399  Biso   1.000  C
  H120     1.0000 0.86757  0.39898  0.54290  Biso   1.000  H
  C106     1.0000 0.85407  0.49158  0.50388  Biso   1.000  C
  O20      1.0000 0.05469  0.37083  0.63093  Biso   1.000  O
  C107     1.0000 0.61052  0.22752  0.53898  Biso   1.000  C
  H121     1.0000 0.62957  0.31740  0.51890  Biso   1.000  H
  H122     1.0000 0.57263  0.32220  0.54891  Biso   1.000  H
  H123     1.0000 0.89668  0.29211  0.56731  Biso   1.000  H
  H124     1.0000 0.96739  0.28600  0.59901  Biso   1.000  H
  H125     1.0000 0.85911  0.19330  0.68192  Biso   1.000  H
  H126     1.0000 0.80601  0.18850  0.71271  Biso   1.000  H
  H127     1.0000 0.92339  0.19558  0.71490  Biso   1.000  H
  C108     1.0000 0.83125  0.54341  0.47989  Biso   1.000  C
  H128     1.0000 0.79213  0.47217  0.50940  Biso   1.000  H
  H129     1.0000 0.89422  0.45727  0.49570  Biso   1.000  H
  C109     1.0000 0.12500  0.39520  0.65371  Biso   1.000  C
  H130     1.0000 0.54857  0.21820  0.52619  Biso   1.000  H
  H131     1.0000 0.60697  0.21140  0.55990  Biso   1.000  H
  H132     1.0000 0.66528  0.20650  0.53020  Biso   1.000  H
  H133     1.0000 0.79706  0.52439  0.46111  Biso   1.000  H
  H134     1.0000 0.89282  0.56331  0.47520  Biso   1.000  H
  H135     1.0000 0.78893  0.57607  0.48781  Biso   1.000  H
  H136     1.0000 0.09585  0.42951  0.66552  Biso   1.000  H
  H137     1.0000 0.18175  0.41330  0.64430  Biso   1.000  H
  C110     1.0000 0.15812  0.33880  0.67467  Biso   1.000  C
  H138     1.0000 0.19632  0.30861  0.66351  Biso   1.000  H
  H139     1.0000 0.09997  0.31701  0.68101  Biso   1.000  H
  H140     1.0000 0.19919  0.35467  0.69301  Biso   1.000  H
  C111     1.0000 0.22487  0.76467  0.53092  Biso   1.000  C
  C112     1.0000 0.13286  0.72657  0.51921  Biso   1.000  C
  O21      1.0000 0.24018  0.75821  0.56286  Biso   1.000  O
  H141     1.0000 0.28266  0.74807  0.52151  Biso   1.000  H
  H142     1.0000 0.21573  0.81048  0.52531  Biso   1.000  H
  H143     1.0000 0.11884  0.73210  0.49680  Biso   1.000  H
  H144     1.0000 0.07666  0.74210  0.52932  Biso   1.000  H
  H145     1.0000 0.14378  0.68090  0.52401  Biso   1.000  H
  C113     1.0000 0.32218  0.78670  0.57966  Biso   1.000  C
  C114     1.0000 0.33574  0.77365  0.61127  Biso   1.000  C
  C115     1.0000 0.38875  0.82669  0.56628  Biso   1.000  C
  C116     1.0000 0.26190  0.73249  0.62687  Biso   1.000  C
  C117     1.0000 0.41649  0.80078  0.62913  Biso   1.000  C
  C118     1.0000 0.46920  0.85489  0.58434  Biso   1.000  C
  H146     1.0000 0.37926  0.83480  0.54471  Biso   1.000  H
  C119     1.0000 0.18871  0.77370  0.64246  Biso   1.000  C
  H147     1.0000 0.22498  0.70459  0.61120  Biso   1.000  H
  H148     1.0000 0.29858  0.70439  0.64250  Biso   1.000  H
  H149     1.0000 0.42669  0.79170  0.65061  Biso   1.000  H
  C120     1.0000 0.48306  0.84106  0.61613  Biso   1.000  C
  C121     1.0000 0.53665  0.90182  0.56989  Biso   1.000  C
  C122     1.0000 0.10440  0.79777  0.62499  Biso   1.000  C
  C123     1.0000 0.20427  0.78908  0.67383  Biso   1.000  C
  O22      1.0000 0.56523  0.86843  0.63281  Biso   1.000  O
  C124     1.0000 0.50558  0.97224  0.57390  Biso   1.000  C
  H150     1.0000 0.53504  0.89216  0.54760  Biso   1.000  H
  H151     1.0000 0.60524  0.89590  0.57952  Biso   1.000  H
  C125     1.0000 0.03651  0.83684  0.63822  Biso   1.000  C
  H152     1.0000 0.09264  0.78738  0.60369  Biso   1.000  H
  O23      1.0000 0.28851  0.76312  0.69072  Biso   1.000  O
  C126     1.0000 0.13523  0.82800  0.68716  Biso   1.000  C
  C127     1.0000 0.57711  0.86066  0.66552  Biso   1.000  C
  C128     1.0000 0.43844  0.00349  0.55207  Biso   1.000  C
  C129     1.0000 0.54233  0.00650  0.60039  Biso   1.000  C
  C130     1.0000 0.05192  0.85174  0.66980  Biso   1.000  C
  O24      1.0000 0.95114  0.86096  0.62212  Biso   1.000  O
  C131     1.0000 0.32181  0.78680  0.71872  Biso   1.000  C
  H153     1.0000 0.14641  0.83810  0.70850  Biso   1.000  H
  H154     1.0000 0.57947  0.81437  0.67081  Biso   1.000  H
  H155     1.0000 0.52062  0.88027  0.67442  Biso   1.000  H
  C132     1.0000 0.67196  0.89289  0.67852  Biso   1.000  C
  O25      1.0000 0.40407  0.96850  0.52585  Biso   1.000  O
  C133     1.0000 0.40974  0.06736  0.55732  Biso   1.000  C
  H156     1.0000 0.58868  0.98646  0.61530  Biso   1.000  H
  C134     1.0000 0.51207  0.06964  0.60540  Biso   1.000  C
  C135     1.0000 0.97857  0.89498  0.68471  Biso   1.000  C
  C136     1.0000 0.93588  0.85106  0.58930  Biso   1.000  C
  H157     1.0000 0.27001  0.78297  0.73282  Biso   1.000  H
  H158     1.0000 0.33860  0.83290  0.71700  Biso   1.000  H
  C137     1.0000 0.41341  0.74890  0.73156  Biso   1.000  C
  H159     1.0000 0.72737  0.87377  0.66931  Biso   1.000  H
  H160     1.0000 0.68182  0.88687  0.70090  Biso   1.000  H
  H161     1.0000 0.66826  0.93890  0.67381  Biso   1.000  H
  C138     1.0000 0.34331  0.00078  0.50178  Biso   1.000  C
  C139     1.0000 0.44555  0.10070  0.58427  Biso   1.000  C
  H162     1.0000 0.36517  0.08828  0.54220  Biso   1.000  H
  O26      1.0000 0.54945  0.10556  0.63137  Biso   1.000  O
  H163     1.0000 0.91072  0.88537  0.67530  Biso   1.000  H
  H164     1.0000 0.98217  0.88479  0.70700  Biso   1.000  H
  C140     1.0000 0.99939  0.96666  0.68085  Biso   1.000  C
  H165     1.0000 0.93278  0.80446  0.58462  Biso   1.000  H
  H166     1.0000 0.99082  0.87008  0.57940  Biso   1.000  H
  C141     1.0000 0.83977  0.88299  0.57730  Biso   1.000  C
  H167     1.0000 0.46857  0.75996  0.72000  Biso   1.000  H
  H168     1.0000 0.39971  0.70279  0.72951  Biso   1.000  H
  H169     1.0000 0.43049  0.75967  0.75341  Biso   1.000  H
  C142     1.0000 0.31602  0.95249  0.47607  Biso   1.000  C
  H170     1.0000 0.37954  0.03737  0.49400  Biso   1.000  H
  H171     1.0000 0.28291  0.01747  0.50970  Biso   1.000  H
  C143     1.0000 0.40869  0.16933  0.58990  Biso   1.000  C
  C144     1.0000 0.57921  0.07319  0.65923  Biso   1.000  C
  C145     1.0000 0.07181  0.99835  0.70067  Biso   1.000  C
  C146     1.0000 0.94725  0.00238  0.65727  Biso   1.000  C
  H172     1.0000 0.82676  0.87600  0.55501  Biso   1.000  H
  H173     1.0000 0.84429  0.92919  0.58161  Biso   1.000  H
  H174     1.0000 0.78605  0.86440  0.58751  Biso   1.000  H
  H175     1.0000 0.27656  0.97379  0.45890  Biso   1.000  H
  H176     1.0000 0.27770  0.91740  0.48380  Biso   1.000  H
  H177     1.0000 0.37633  0.93506  0.46891  Biso   1.000  H
  C147     1.0000 0.32199  0.17054  0.60950  Biso   1.000  C
  H178     1.0000 0.46389  0.19476  0.60041  Biso   1.000  H
  H179     1.0000 0.38795  0.18995  0.56980  Biso   1.000  H
  H180     1.0000 0.63108  0.04140  0.65620  Biso   1.000  H
  H181     1.0000 0.52247  0.05028  0.66640  Biso   1.000  H
  C148     1.0000 0.61781  0.12177  0.68222  Biso   1.000  C
  O27      1.0000 0.11858  0.96253  0.72455  Biso   1.000  O
  C149     1.0000 0.09377  0.06421  0.69543  Biso   1.000  C
  H182     1.0000 0.89668  0.98209  0.64402  Biso   1.000  H
  C150     1.0000 0.96785  0.06794  0.65278  Biso   1.000  C
  C151     1.0000 0.22345  0.16777  0.59529  Biso   1.000  C
  C152     1.0000 0.33697  0.17433  0.64152  Biso   1.000  C
  H183     1.0000 0.67617  0.14239  0.67542  Biso   1.000  H
  H184     1.0000 0.63570  0.10090  0.70221  Biso   1.000  H
  H185     1.0000 0.56687  0.15428  0.68432  Biso   1.000  H
  C153     1.0000 0.17268  0.99447  0.74963  Biso   1.000  C
  C154     1.0000 0.04312  0.09881  0.67106  Biso   1.000  C
  H186     1.0000 0.14390  0.08498  0.70871  Biso   1.000  H
  O28      1.0000 0.91781  0.10439  0.62909  Biso   1.000  O
  O29      1.0000 0.21177  0.16472  0.56335  Biso   1.000  O
  C155     1.0000 0.14557  0.16811  0.61366  Biso   1.000  C
  H187     1.0000 0.40250  0.17719  0.65152  Biso   1.000  H
  C156     1.0000 0.25819  0.17408  0.65948  Biso   1.000  C
  C157     1.0000 0.20121  0.94598  0.77386  Biso   1.000  C
  H188     1.0000 0.13182  0.02839  0.75772  Biso   1.000  H
  H189     1.0000 0.23240  0.01466  0.74290  Biso   1.000  H
  C158     1.0000 0.07426  0.16845  0.66480  Biso   1.000  C
  C159     1.0000 0.82075  0.08347  0.61672  Biso   1.000  C
  C160     1.0000 0.11425  0.16986  0.54767  Biso   1.000  C
  H190     1.0000 0.07975  0.16656  0.60390  Biso   1.000  H
  C161     1.0000 0.16110  0.17069  0.64579  Biso   1.000  C
  O30      1.0000 0.27102  0.17704  0.69151  Biso   1.000  O
  H191     1.0000 0.24929  0.91619  0.76671  Biso   1.000  H
  H192     1.0000 0.14259  0.92220  0.77831  Biso   1.000  H
  H193     1.0000 0.23065  0.96768  0.79261  Biso   1.000  H
  H194     1.0000 0.01770  0.19170  0.65361  Biso   1.000  H
  H195     1.0000 0.09249  0.19068  0.68471  Biso   1.000  H
  H196     1.0000 0.78029  0.07459  0.63370  Biso   1.000  H
  H197     1.0000 0.82537  0.04348  0.60470  Biso   1.000  H
  C162     1.0000 0.77368  0.13560  0.59633  Biso   1.000  C
  H198     1.0000 0.08653  0.21296  0.55110  Biso   1.000  H
  H199     1.0000 0.07068  0.13720  0.55541  Biso   1.000  H
  C163     1.0000 0.12154  0.15967  0.51410  Biso   1.000  C
  C164     1.0000 0.36176  0.19578  0.70689  Biso   1.000  C
  H200     1.0000 0.81416  0.14409  0.57961  Biso   1.000  H
  H201     1.0000 0.76860  0.17476  0.60852  Biso   1.000  H
  H202     1.0000 0.70764  0.12186  0.58760  Biso   1.000  H
  H203     1.0000 0.05512  0.15846  0.50290  Biso   1.000  H
  H204     1.0000 0.15523  0.11885  0.51122  Biso   1.000  H
  H205     1.0000 0.15913  0.19495  0.50621  Biso   1.000  H
  H206     1.0000 0.41326  0.18389  0.69361  Biso   1.000  H
  H207     1.0000 0.37359  0.16957  0.72590  Biso   1.000  H
  C165     1.0000 0.37857  0.26450  0.71611  Biso   1.000  C
  H208     1.0000 0.38222  0.23718  0.69832  Biso   1.000  H
  H209     1.0000 0.41250  0.16316  0.70360  Biso   1.000  H
  C166     1.0000 0.35498  0.20315  0.74062  Biso   1.000  C
  H210     1.0000 0.37452  0.29139  0.69750  Biso   1.000  H
  H211     1.0000 0.44413  0.26896  0.72760  Biso   1.000  H
  H212     1.0000 0.32812  0.27809  0.72902  Biso   1.000  H
  H213     1.0000 0.29472  0.22679  0.74360  Biso   1.000  H
  H214     1.0000 0.41263  0.22689  0.75010  Biso   1.000  H
  H215     1.0000 0.35322  0.16059  0.75010  Biso   1.000  H
  C167     1.0000 0.77542  0.23528  0.46908  Biso   1.000  C
  O31      1.0000 0.76011  0.24179  0.43714  Biso   1.000  O
  H216     1.0000 0.71764  0.25188  0.47851  Biso   1.000  H
  H217     1.0000 0.78457  0.18952  0.47471  Biso   1.000  H
  C168     1.0000 0.86743  0.27338  0.48079  Biso   1.000  C
  C169     1.0000 0.67813  0.21330  0.42037  Biso   1.000  C
  H218     1.0000 0.88145  0.26790  0.50320  Biso   1.000  H
  H219     1.0000 0.92364  0.25790  0.47071  Biso   1.000  H
  H220     1.0000 0.85651  0.31910  0.47600  Biso   1.000  H
  C170     1.0000 0.61154  0.17331  0.43372  Biso   1.000  C
  C171     1.0000 0.66448  0.22635  0.38874  Biso   1.000  C
  C172     1.0000 0.53109  0.14511  0.41566  Biso   1.000  C
  H221     1.0000 0.62104  0.16520  0.45531  Biso   1.000  H
  C173     1.0000 0.58381  0.19922  0.37089  Biso   1.000  C
  C174     1.0000 0.73841  0.26751  0.37315  Biso   1.000  C
  C175     1.0000 0.51725  0.15894  0.38389  Biso   1.000  C
  C176     1.0000 0.46365  0.09818  0.43013  Biso   1.000  C
  H222     1.0000 0.57361  0.20830  0.34941  Biso   1.000  H
  C177     1.0000 0.81158  0.22630  0.35754  Biso   1.000  C
  H223     1.0000 0.77532  0.29541  0.38880  Biso   1.000  H
  H224     1.0000 0.70171  0.29561  0.35750  Biso   1.000  H
  O32      1.0000 0.43507  0.13157  0.36721  Biso   1.000  O
  C178     1.0000 0.49472  0.02771  0.42612  Biso   1.000  C
  H225     1.0000 0.46525  0.10779  0.45240  Biso   1.000  H
  H226     1.0000 0.39499  0.10410  0.42051  Biso   1.000  H
  C179     1.0000 0.89589  0.20223  0.37501  Biso   1.000  C
  C180     1.0000 0.79595  0.21092  0.32617  Biso   1.000  C
  C181     1.0000 0.42318  0.13929  0.33448  Biso   1.000  C
  C182     1.0000 0.56186  0.99651  0.44793  Biso   1.000  C
  C183     1.0000 0.45789  0.99350  0.39961  Biso   1.000  C
  C184     1.0000 0.96379  0.16316  0.36181  Biso   1.000  C
  H227     1.0000 0.90758  0.21262  0.39631  Biso   1.000  H
  O33      1.0000 0.71178  0.23684  0.30928  Biso   1.000  O
  C185     1.0000 0.86507  0.17195  0.31284  Biso   1.000  C
  C186     1.0000 0.32826  0.10711  0.32148  Biso   1.000  C
  H228     1.0000 0.42083  0.18559  0.32919  Biso   1.000  H
  H229     1.0000 0.47968  0.11968  0.32561  Biso   1.000  H
  O34      1.0000 0.59622  0.03150  0.47416  Biso   1.000  O
  C187     1.0000 0.59049  0.93259  0.44271  Biso   1.000  C
  H230     1.0000 0.41162  0.01349  0.38471  Biso   1.000  H
  C188     1.0000 0.48823  0.93036  0.39461  Biso   1.000  C
  C189     1.0000 0.94837  0.14826  0.33020  Biso   1.000  C
  O35      1.0000 0.04908  0.13900  0.37790  Biso   1.000  O
  C190     1.0000 0.67849  0.21320  0.28130  Biso   1.000  C
  H231     1.0000 0.85388  0.16190  0.29150  Biso   1.000  H
  H232     1.0000 0.27293  0.12618  0.33071  Biso   1.000  H
  H233     1.0000 0.31847  0.11308  0.29910  Biso   1.000  H
  H234     1.0000 0.33197  0.06110  0.32621  Biso   1.000  H
  C191     1.0000 0.65692  0.99922  0.49824  Biso   1.000  C
  C192     1.0000 0.55475  0.89925  0.41573  Biso   1.000  C
  H235     1.0000 0.63513  0.91172  0.45780  Biso   1.000  H
  O36      1.0000 0.45077  0.89444  0.36863  Biso   1.000  O
  C193     1.0000 0.02166  0.10502  0.31531  Biso   1.000  C
  C194     1.0000 0.06441  0.14894  0.41070  Biso   1.000  C
  H236     1.0000 0.73029  0.21699  0.26721  Biso   1.000  H
  H237     1.0000 0.66170  0.16710  0.28300  Biso   1.000  H
  C195     1.0000 0.58688  0.25110  0.26844  Biso   1.000  C
  C196     1.0000 0.68428  0.04751  0.52396  Biso   1.000  C
  H238     1.0000 0.62076  0.96258  0.50600  Biso   1.000  H
  H239     1.0000 0.71731  0.98248  0.49030  Biso   1.000  H
  C197     1.0000 0.59160  0.83062  0.41010  Biso   1.000  C
  C198     1.0000 0.42108  0.92681  0.34077  Biso   1.000  C
  H240     1.0000 0.08957  0.11458  0.32470  Biso   1.000  H
  H241     1.0000 0.01805  0.11521  0.29300  Biso   1.000  H
  C199     1.0000 0.00091  0.03334  0.31918  Biso   1.000  C
  H242     1.0000 0.06752  0.19549  0.41541  Biso   1.000  H
  H243     1.0000 0.00940  0.12992  0.42060  Biso   1.000  H
  C200     1.0000 0.16052  0.11701  0.42270  Biso   1.000  C
  H244     1.0000 0.53165  0.23999  0.28000  Biso   1.000  H
  H245     1.0000 0.60059  0.29721  0.27049  Biso   1.000  H
  H246     1.0000 0.56973  0.24028  0.24659  Biso   1.000  H
  H247     1.0000 0.72373  0.02621  0.54110  Biso   1.000  H
  H248     1.0000 0.72252  0.08260  0.51620  Biso   1.000  H
  H249     1.0000 0.62398  0.06489  0.53111  Biso   1.000  H
  C201     1.0000 0.67831  0.82946  0.39053  Biso   1.000  C
  H250     1.0000 0.53641  0.80519  0.39961  Biso   1.000  H
  H251     1.0000 0.61234  0.81000  0.43020  Biso   1.000  H
  H252     1.0000 0.36921  0.95860  0.34380  Biso   1.000  H
  H253     1.0000 0.47782  0.94972  0.33360  Biso   1.000  H
  C202     1.0000 0.38248  0.87818  0.31778  Biso   1.000  C
  C203     1.0000 0.92848  0.00165  0.29933  Biso   1.000  C
  C204     1.0000 0.05297  0.99762  0.34273  Biso   1.000  C
  H254     1.0000 0.17355  0.12400  0.44501  Biso   1.000  H
  H255     1.0000 0.15601  0.07081  0.41841  Biso   1.000  H
  H256     1.0000 0.21425  0.13560  0.41250  Biso   1.000  H
  C205     1.0000 0.77684  0.83223  0.40471  Biso   1.000  C
  C206     1.0000 0.66333  0.82562  0.35848  Biso   1.000  C
  H257     1.0000 0.32406  0.85761  0.32461  Biso   1.000  H
  H258     1.0000 0.36460  0.89910  0.29779  Biso   1.000  H
  H259     1.0000 0.43336  0.84572  0.31571  Biso   1.000  H
  O37      1.0000 0.88171  0.03747  0.27545  Biso   1.000  O
  C207     1.0000 0.90645  0.93579  0.30457  Biso   1.000  C
  C208     1.0000 0.03237  0.93206  0.34722  Biso   1.000  C
  H260     1.0000 0.10362  0.01791  0.35601  Biso   1.000  H
  O38      1.0000 0.78853  0.83528  0.43665  Biso   1.000  O
  C209     1.0000 0.85472  0.83189  0.38634  Biso   1.000  C
  H261     1.0000 0.59780  0.82281  0.34851  Biso   1.000  H
  C210     1.0000 0.74211  0.82587  0.34054  Biso   1.000  C
  C211     1.0000 0.82755  0.00548  0.25039  Biso   1.000  C
  C212     1.0000 0.95718  0.90119  0.32894  Biso   1.000  C
  H262     1.0000 0.85640  0.91502  0.29130  Biso   1.000  H
  O39      1.0000 0.08249  0.89556  0.37091  Biso   1.000  O
  C213     1.0000 0.88605  0.83009  0.45235  Biso   1.000  C
  H263     1.0000 0.92054  0.83339  0.39610  Biso   1.000  H
  C214     1.0000 0.83919  0.82931  0.35421  Biso   1.000  C
  O40      1.0000 0.72927  0.82296  0.30849  Biso   1.000  O
  C215     1.0000 0.79909  0.05402  0.22614  Biso   1.000  C
  H264     1.0000 0.86848  0.97161  0.24231  Biso   1.000  H
  H265     1.0000 0.76790  0.98529  0.25710  Biso   1.000  H
  C216     1.0000 0.92597  0.83155  0.33523  Biso   1.000  C
  C217     1.0000 0.17947  0.91653  0.38328  Biso   1.000  C
  H266     1.0000 0.91369  0.78699  0.44890  Biso   1.000  H
  H267     1.0000 0.92962  0.86280  0.44459  Biso   1.000  H
  C218     1.0000 0.87876  0.84028  0.48590  Biso   1.000  C
  C219     1.0000 0.63846  0.80422  0.29311  Biso   1.000  C
  H268     1.0000 0.75093  0.08381  0.23329  Biso   1.000  H
  H269     1.0000 0.85763  0.07780  0.22169  Biso   1.000  H
  H270     1.0000 0.76965  0.03232  0.20741  Biso   1.000  H
  H271     1.0000 0.98260  0.80830  0.34641  Biso   1.000  H
  H272     1.0000 0.90781  0.80932  0.31531  Biso   1.000  H
  H273     1.0000 0.22001  0.92541  0.36630  Biso   1.000  H
  H274     1.0000 0.17492  0.95652  0.39530  Biso   1.000  H
  C220     1.0000 0.22661  0.86440  0.40367  Biso   1.000  C
  H275     1.0000 0.94517  0.84149  0.49710  Biso   1.000  H
  H276     1.0000 0.84507  0.88110  0.48881  Biso   1.000  H
  H277     1.0000 0.84117  0.80500  0.49382  Biso   1.000  H
  H278     1.0000 0.58697  0.81611  0.30641  Biso   1.000  H
  H279     1.0000 0.62671  0.83038  0.27410  Biso   1.000  H
  C221     1.0000 0.62165  0.73550  0.28391  Biso   1.000  C
  H280     1.0000 0.61808  0.76282  0.30171  Biso   1.000  H
  H281     1.0000 0.58779  0.83679  0.29640  Biso   1.000  H
  C222     1.0000 0.64525  0.79680  0.25941  Biso   1.000  C
  H282     1.0000 0.18614  0.85591  0.42042  Biso   1.000  H
  H283     1.0000 0.23170  0.82519  0.39151  Biso   1.000  H
  H284     1.0000 0.29258  0.87809  0.41240  Biso   1.000  H
  H285     1.0000 0.62578  0.70861  0.30250  Biso   1.000  H
  H286     1.0000 0.55617  0.73099  0.27240  Biso   1.000  H
  H287     1.0000 0.67218  0.72191  0.27101  Biso   1.000  H
  H288     1.0000 0.70557  0.77321  0.25640  Biso   1.000  H
  H289     1.0000 0.58767  0.77311  0.24990  Biso   1.000  H
  H290     1.0000 0.64707  0.83941  0.24990  Biso   1.000  H
  C223     1.0000 0.70107  0.55399  0.27387  Biso   1.000  C
  C224     1.0000 0.67260  0.50551  0.24962  Biso   1.000  C
  H291     1.0000 0.74914  0.58379  0.26670  Biso   1.000  H
  H292     1.0000 0.64244  0.57777  0.27830  Biso   1.000  H
  H293     1.0000 0.73050  0.53230  0.29260  Biso   1.000  H
  O41      1.0000 0.61844  0.53744  0.22456  Biso   1.000  O
  H294     1.0000 0.63167  0.47158  0.25770  Biso   1.000  H
  H295     1.0000 0.73225  0.48527  0.24291  Biso   1.000  H
  C225     1.0000 0.57167  0.50163  0.20068  Biso   1.000  C
  C226     1.0000 0.59362  0.43577  0.19542  Biso   1.000  C
  C227     1.0000 0.49924  0.53332  0.18083  Biso   1.000  C
  C228     1.0000 0.54297  0.40116  0.17107  Biso   1.000  C
  H296     1.0000 0.64375  0.41500  0.20869  Biso   1.000  H
  C229     1.0000 0.44718  0.49760  0.15728  Biso   1.000  C
  C230     1.0000 0.47849  0.60500  0.18470  Biso   1.000  C
  C231     1.0000 0.57418  0.33152  0.16478  Biso   1.000  C
  C232     1.0000 0.46778  0.43203  0.15279  Biso   1.000  C
  H297     1.0000 0.39653  0.51788  0.14401  Biso   1.000  H
  C233     1.0000 0.55177  0.64824  0.16979  Biso   1.000  C
  H298     1.0000 0.41058  0.61461  0.17531  Biso   1.000  H
  H299     1.0000 0.48202  0.61519  0.20699  Biso   1.000  H
  C234     1.0000 0.66096  0.32929  0.14580  Biso   1.000  C
  H300     1.0000 0.51755  0.30827  0.15360  Biso   1.000  H
  H301     1.0000 0.59234  0.30929  0.18470  Biso   1.000  H
  O42      1.0000 0.41766  0.39558  0.12907  Biso   1.000  O
  C235     1.0000 0.53636  0.66314  0.13821  Biso   1.000  C
  C236     1.0000 0.63508  0.67192  0.18717  Biso   1.000  C
  C237     1.0000 0.64542  0.33186  0.11365  Biso   1.000  C
  C238     1.0000 0.75804  0.32584  0.15947  Biso   1.000  C
  C239     1.0000 0.32060  0.41650  0.11673  Biso   1.000  C
  O43      1.0000 0.45099  0.63902  0.12211  Biso   1.000  O
  C240     1.0000 0.60425  0.70221  0.12497  Biso   1.000  C
  C241     1.0000 0.70411  0.71090  0.17382  Biso   1.000  C
  H302     1.0000 0.64627  0.66188  0.20851  Biso   1.000  H
  H303     1.0000 0.57960  0.33341  0.10389  Biso   1.000  H
  C242     1.0000 0.72331  0.33220  0.09530  Biso   1.000  C
  O44      1.0000 0.77087  0.32293  0.19150  Biso   1.000  O
  C243     1.0000 0.83682  0.32565  0.14151  Biso   1.000  C
  H304     1.0000 0.28015  0.42538  0.13371  Biso   1.000  H
  H305     1.0000 0.32523  0.45649  0.10471  Biso   1.000  H
  C244     1.0000 0.27353  0.36438  0.09632  Biso   1.000  C
  C245     1.0000 0.43574  0.64892  0.08931  Biso   1.000  C
  H306     1.0000 0.59257  0.71259  0.10371  Biso   1.000  H
  C246     1.0000 0.68857  0.72628  0.14247  Biso   1.000  C
  O45      1.0000 0.78836  0.73681  0.19071  Biso   1.000  O
  O46      1.0000 0.71163  0.33526  0.06336  Biso   1.000  O
  C247     1.0000 0.82184  0.32943  0.10948  Biso   1.000  C
  C248     1.0000 0.86169  0.30420  0.20690  Biso   1.000  C
  H307     1.0000 0.90235  0.32279  0.15151  Biso   1.000  H
  H308     1.0000 0.31401  0.35588  0.07960  Biso   1.000  H
  H309     1.0000 0.26845  0.32521  0.10850  Biso   1.000  H
  H310     1.0000 0.20749  0.37811  0.08761  Biso   1.000  H
  H311     1.0000 0.43263  0.69546  0.08460  Biso   1.000  H
  H312     1.0000 0.49076  0.62990  0.07941  Biso   1.000  H
  C249     1.0000 0.33962  0.61699  0.07729  Biso   1.000  C
  C250     1.0000 0.76175  0.76748  0.12686  Biso   1.000  C
  C251     1.0000 0.82166  0.71318  0.21871  Biso   1.000  C
  C252     1.0000 0.61410  0.33011  0.04766  Biso   1.000  C
  C253     1.0000 0.90854  0.33060  0.08989  Biso   1.000  C
  H313     1.0000 0.91318  0.31609  0.19360  Biso   1.000  H
  H314     1.0000 0.87345  0.33041  0.22591  Biso   1.000  H
  C254     1.0000 0.87850  0.23548  0.21610  Biso   1.000  C
  H315     1.0000 0.88207  0.26280  0.19830  Biso   1.000  H
  H316     1.0000 0.91235  0.33681  0.20359  Biso   1.000  H
  C255     1.0000 0.85490  0.29677  0.24061  Biso   1.000  C
  H317     1.0000 0.32660  0.62397  0.05500  Biso   1.000  H
  H318     1.0000 0.34414  0.57078  0.08160  Biso   1.000  H
  H319     1.0000 0.28590  0.63557  0.08749  Biso   1.000  H
  C256     1.0000 0.83566  0.72633  0.11125  Biso   1.000  C
  H320     1.0000 0.72483  0.79539  0.11121  Biso   1.000  H
  H321     1.0000 0.79843  0.79558  0.14249  Biso   1.000  H
  H322     1.0000 0.76986  0.71696  0.23280  Biso   1.000  H
  H323     1.0000 0.83845  0.66707  0.21701  Biso   1.000  H
  C257     1.0000 0.91326  0.75108  0.23155  Biso   1.000  C
  H324     1.0000 0.58639  0.28702  0.05111  Biso   1.000  H
  H325     1.0000 0.57053  0.36278  0.05539  Biso   1.000  H
  C258     1.0000 0.62139  0.34031  0.01412  Biso   1.000  C
  C259     1.0000 0.94540  0.39927  0.08428  Biso   1.000  C
  H326     1.0000 0.96374  0.30522  0.10040  Biso   1.000  H
  H327     1.0000 0.88780  0.30997  0.06979  Biso   1.000  H
  H328     1.0000 0.87437  0.20859  0.19751  Biso   1.000  H
  H329     1.0000 0.94399  0.23101  0.22761  Biso   1.000  H
  H330     1.0000 0.82797  0.22189  0.22901  Biso   1.000  H
  H331     1.0000 0.79458  0.27319  0.24361  Biso   1.000  H
  H332     1.0000 0.91248  0.27309  0.25011  Biso   1.000  H
  H333     1.0000 0.85308  0.33938  0.25011  Biso   1.000  H
  C260     1.0000 0.82202  0.71327  0.07964  Biso   1.000  C
  C261     1.0000 0.91634  0.69920  0.12912  Biso   1.000  C
  H334     1.0000 0.96849  0.73997  0.21999  Biso   1.000  H
  H335     1.0000 0.89956  0.79719  0.22950  Biso   1.000  H
  H336     1.0000 0.93034  0.74031  0.25340  Biso   1.000  H
  H337     1.0000 0.55497  0.34147  0.00289  Biso   1.000  H
  H338     1.0000 0.65508  0.38107  0.01120  Biso   1.000  H
  H339     1.0000 0.65898  0.30497  0.00620  Biso   1.000  H
  C262     1.0000 0.90959  0.43261  0.05730  Biso   1.000  C
  C263     1.0000 0.01191  0.43033  0.10538  Biso   1.000  C
  C264     1.0000 0.88860  0.67328  0.06627  Biso   1.000  C
  O47      1.0000 0.74004  0.74176  0.06287  Biso   1.000  O
  C265     1.0000 0.98290  0.65892  0.11612  Biso   1.000  C
  H340     1.0000 0.92654  0.70827  0.15060  Biso   1.000  H
  H341     1.0000 0.86502  0.41170  0.04221  Biso   1.000  H
  C266     1.0000 0.93829  0.49648  0.05206  Biso   1.000  C
  O48      1.0000 0.04930  0.39442  0.13138  Biso   1.000  O
  C267     1.0000 0.04226  0.49347  0.10040  Biso   1.000  C
  C268     1.0000 0.96905  0.64509  0.08433  Biso   1.000  C
  H342     1.0000 0.87911  0.66518  0.04470  Biso   1.000  H
  C269     1.0000 0.72472  0.73531  0.03091  Biso   1.000  C
  O49      1.0000 0.06508  0.63155  0.13280  Biso   1.000  O
  O50      1.0000 0.90393  0.53147  0.02586  Biso   1.000  O
  C270     1.0000 0.00543  0.52769  0.07389  Biso   1.000  C
  C271     1.0000 0.07907  0.42679  0.15924  Biso   1.000  C
  H343     1.0000 0.08854  0.51347  0.11531  Biso   1.000  H
  C272     1.0000 0.03650  0.59816  0.06988  Biso   1.000  C
  H344     1.0000 0.78251  0.75190  0.02150  Biso   1.000  H
  H345     1.0000 0.71558  0.68949  0.02530  Biso   1.000  H
  C273     1.0000 0.63272  0.77340  0.01922  Biso   1.000  C
  C274     1.0000 0.07696  0.63931  0.16551  Biso   1.000  C
  C275     1.0000 0.84323  0.49920  0.00177  Biso   1.000  C
  H346     1.0000 0.13094  0.45858  0.15621  Biso   1.000  H
  H347     1.0000 0.02232  0.44970  0.16639  Biso   1.000  H
  C276     1.0000 0.11767  0.37821  0.18223  Biso   1.000  C
  H348     1.0000 0.03489  0.60777  0.04759  Biso   1.000  H
  H349     1.0000 0.10516  0.60408  0.07950  Biso   1.000  H
  H350     1.0000 0.57651  0.75787  0.02930  Biso   1.000  H
  H351     1.0000 0.64363  0.81907  0.02399  Biso   1.000  H
  H352     1.0000 0.61900  0.76787  0.99681  Biso   1.000  H
  H353     1.0000 0.07932  0.68561  0.17079  Biso   1.000  H
  H354     1.0000 0.02047  0.61970  0.17440  Biso   1.000  H
  C277     1.0000 0.17189  0.60709  0.17853  Biso   1.000  C
  H355     1.0000 0.78283  0.48250  0.00969  Biso   1.000  H
  H356     1.0000 0.87968  0.46261  0.99399  Biso   1.000  H
  C278     1.0000 0.81617  0.54749  0.97605  Biso   1.000  C
  H357     1.0000 0.17602  0.35758  0.17541  Biso   1.000  H
  H358     1.0000 0.13555  0.39908  0.20219  Biso   1.000  H
  H359     1.0000 0.06679  0.34569  0.18430  Biso   1.000  H
  H360     1.0000 0.22722  0.62621  0.16930  Biso   1.000  H
  H361     1.0000 0.18168  0.61310  0.20091  Biso   1.000  H
  H362     1.0000 0.16818  0.56108  0.17380  Biso   1.000  H
  H363     1.0000 0.77671  0.52618  0.95891  Biso   1.000  H
  H364     1.0000 0.77793  0.58258  0.98381  Biso   1.000  H
  H365     1.0000 0.87647  0.56491  0.96890  Biso   1.000  H
  C279     1.0000 0.29924  0.44601  0.72615  Biso   1.000  C
  C280     1.0000 0.32769  0.49449  0.75038  Biso   1.000  C
  H366     1.0000 0.25108  0.41621  0.73330  Biso   1.000  H
  H367     1.0000 0.35778  0.42218  0.72170  Biso   1.000  H
  H368     1.0000 0.26980  0.46770  0.70740  Biso   1.000  H
  O51      1.0000 0.38179  0.46251  0.77547  Biso   1.000  O
  H369     1.0000 0.36862  0.52837  0.74230  Biso   1.000  H
  H370     1.0000 0.26805  0.51468  0.75711  Biso   1.000  H
  C281     1.0000 0.42863  0.49837  0.79934  Biso   1.000  C
  C282     1.0000 0.50105  0.46668  0.81917  Biso   1.000  C
  C283     1.0000 0.40660  0.56423  0.80458  Biso   1.000  C
  C284     1.0000 0.52181  0.39495  0.81530  Biso   1.000  C
  C285     1.0000 0.55312  0.50235  0.84274  Biso   1.000  C
  C286     1.0000 0.45733  0.59884  0.82895  Biso   1.000  C
  H371     1.0000 0.35655  0.58500  0.79131  Biso   1.000  H
  C287     1.0000 0.44852  0.35171  0.83021  Biso   1.000  C
  H372     1.0000 0.58972  0.38539  0.82471  Biso   1.000  H
  H373     1.0000 0.51820  0.38481  0.79301  Biso   1.000  H
  H374     1.0000 0.60377  0.48207  0.85602  Biso   1.000  H
  C288     1.0000 0.53253  0.56797  0.84724  Biso   1.000  C
  C289     1.0000 0.42611  0.66848  0.83522  Biso   1.000  C
  C290     1.0000 0.46394  0.33686  0.86182  Biso   1.000  C
  C291     1.0000 0.36522  0.32803  0.81285  Biso   1.000  C
  O52      1.0000 0.58264  0.60442  0.87093  Biso   1.000  O
  C292     1.0000 0.33935  0.67066  0.85422  Biso   1.000  C
  H375     1.0000 0.48274  0.69168  0.84640  Biso   1.000  H
  H376     1.0000 0.40795  0.69071  0.81530  Biso   1.000  H
  O53      1.0000 0.54923  0.36098  0.87789  Biso   1.000  O
  C293     1.0000 0.39604  0.29774  0.87503  Biso   1.000  C
  C294     1.0000 0.29610  0.28906  0.82618  Biso   1.000  C
  H377     1.0000 0.35403  0.33807  0.79152  Biso   1.000  H
  C295     1.0000 0.67962  0.58350  0.88330  Biso   1.000  C
  C296     1.0000 0.35487  0.66814  0.88635  Biso   1.000  C
  C297     1.0000 0.24225  0.67411  0.84053  Biso   1.000  C
  C298     1.0000 0.56456  0.35108  0.91071  Biso   1.000  C
  H378     1.0000 0.40773  0.28741  0.89632  Biso   1.000  H
  C299     1.0000 0.31173  0.27367  0.85756  Biso   1.000  C
  O54      1.0000 0.21193  0.26314  0.80929  Biso   1.000  O
  H379     1.0000 0.72016  0.57457  0.86631  Biso   1.000  H
  H380     1.0000 0.67508  0.54351  0.89532  Biso   1.000  H
  C300     1.0000 0.72676  0.63557  0.90368  Biso   1.000  C
  H381     1.0000 0.42062  0.66659  0.89611  Biso   1.000  H
  C301     1.0000 0.27699  0.66780  0.90473  Biso   1.000  C
  O55      1.0000 0.22942  0.67707  0.80850  Biso   1.000  O
  C302     1.0000 0.16348  0.67435  0.85849  Biso   1.000  C
  H382     1.0000 0.56767  0.30449  0.91542  Biso   1.000  H
  H383     1.0000 0.50955  0.37010  0.92061  Biso   1.000  H
  C303     1.0000 0.66067  0.38301  0.92271  Biso   1.000  C
  C304     1.0000 0.23855  0.23252  0.87314  Biso   1.000  C
  C305     1.0000 0.17863  0.28678  0.78129  Biso   1.000  C
  H384     1.0000 0.68629  0.64407  0.92040  Biso   1.000  H
  H385     1.0000 0.73185  0.67479  0.89152  Biso   1.000  H
  H386     1.0000 0.79273  0.62189  0.91241  Biso   1.000  H
  O56      1.0000 0.28868  0.66469  0.93666  Biso   1.000  O
  C306     1.0000 0.17845  0.67052  0.89052  Biso   1.000  C
  C307     1.0000 0.13861  0.69580  0.79312  Biso   1.000  C
  H387     1.0000 0.09795  0.67717  0.84852  Biso   1.000  H
  H388     1.0000 0.67369  0.37598  0.94500  Biso   1.000  H
  H389     1.0000 0.65615  0.42917  0.91840  Biso   1.000  H
  H390     1.0000 0.71432  0.36438  0.91251  Biso   1.000  H
  C308     1.0000 0.16463  0.27362  0.88875  Biso   1.000  C
  H391     1.0000 0.27547  0.20461  0.88882  Biso   1.000  H
  H392     1.0000 0.20187  0.20442  0.85751  Biso   1.000  H
  H393     1.0000 0.23043  0.28299  0.76720  Biso   1.000  H
  H394     1.0000 0.16185  0.33288  0.78301  Biso   1.000  H
  C309     1.0000 0.08703  0.24887  0.76846  Biso   1.000  C
  C310     1.0000 0.38619  0.66989  0.95234  Biso   1.000  C
  C311     1.0000 0.09175  0.66935  0.91011  Biso   1.000  C
  H395     1.0000 0.08711  0.68386  0.80640  Biso   1.000  H
  H396     1.0000 0.12686  0.66959  0.77412  Biso   1.000  H
  C312     1.0000 0.12180  0.76447  0.78390  Biso   1.000  C
  H397     1.0000 0.11823  0.73720  0.80172  Biso   1.000  H
  H398     1.0000 0.08794  0.66319  0.79641  Biso   1.000  H
  C313     1.0000 0.14540  0.70318  0.75942  Biso   1.000  C
  C314     1.0000 0.17828  0.28668  0.92038  Biso   1.000  C
  C315     1.0000 0.08395  0.30075  0.87088  Biso   1.000  C
  H399     1.0000 0.03180  0.25999  0.78001  Biso   1.000  H
  H400     1.0000 0.10074  0.20281  0.77051  Biso   1.000  H
  H401     1.0000 0.06988  0.25969  0.74661  Biso   1.000  H
  H402     1.0000 0.41384  0.71298  0.94892  Biso   1.000  H
  H403     1.0000 0.42977  0.63718  0.94461  Biso   1.000  H
  C316     1.0000 0.37891  0.65969  0.98591  Biso   1.000  C
  C317     1.0000 0.05482  0.60073  0.91575  Biso   1.000  C
  H404     1.0000 0.03655  0.69478  0.89960  Biso   1.000  H
  H405     1.0000 0.11249  0.68998  0.93021  Biso   1.000  H
  H406     1.0000 0.12593  0.79136  0.80251  Biso   1.000  H
  H407     1.0000 0.05632  0.76899  0.77242  Biso   1.000  H
  H408     1.0000 0.17233  0.77806  0.77102  Biso   1.000  H
  H409     1.0000 0.20572  0.72677  0.75641  Biso   1.000  H
  H410     1.0000 0.08782  0.72686  0.74991  Biso   1.000  H
  H411     1.0000 0.14723  0.66057  0.74991  Biso   1.000  H
  O57      1.0000 0.26026  0.25824  0.93715  Biso   1.000  O
  C318     1.0000 0.11169  0.32672  0.93373  Biso   1.000  C
  H412     1.0000 0.07375  0.29168  0.84940  Biso   1.000  H
  C319     1.0000 0.01732  0.34108  0.88388  Biso   1.000  C
  H413     1.0000 0.44525  0.65848  0.99711  Biso   1.000  H
  H414     1.0000 0.34522  0.61888  0.98882  Biso   1.000  H
  H415     1.0000 0.34124  0.69498  0.99380  Biso   1.000  H
  C320     1.0000 0.09064  0.56739  0.94272  Biso   1.000  C
  C321     1.0000 0.98838  0.56962  0.89462  Biso   1.000  C
  C322     1.0000 0.27557  0.26469  0.96909  Biso   1.000  C
  C323     1.0000 0.03124  0.35491  0.91568  Biso   1.000  C
  H416     1.0000 0.12119  0.33477  0.95530  Biso   1.000  H
  O58      1.0000 0.93522  0.36841  0.86720  Biso   1.000  O
  H417     1.0000 0.13528  0.58830  0.95781  Biso   1.000  H
  C324     1.0000 0.06193  0.50352  0.94794  Biso   1.000  C
  O59      1.0000 0.95092  0.60558  0.86864  Biso   1.000  O
  C325     1.0000 0.95804  0.50648  0.89963  Biso   1.000  C
  H418     1.0000 0.21779  0.24810  0.97850  Biso   1.000  H
  H419     1.0000 0.28464  0.31051  0.97470  Biso   1.000  H
  C326     1.0000 0.36758  0.22660  0.98081  Biso   1.000  C
  C327     1.0000 0.96379  0.40180  0.93012  Biso   1.000  C
  C328     1.0000 0.92333  0.36069  0.83449  Biso   1.000  C
  O60      1.0000 0.09637  0.46853  0.97417  Biso   1.000  O
  C329     1.0000 0.99487  0.47226  0.92611  Biso   1.000  C
  C330     1.0000 0.92123  0.57321  0.84078  Biso   1.000  C
  H420     1.0000 0.91177  0.48648  0.88472  Biso   1.000  H
  H421     1.0000 0.42379  0.24208  0.97072  Biso   1.000  H
  H422     1.0000 0.35666  0.18088  0.97601  Biso   1.000  H
  H423     1.0000 0.38131  0.23208  0.00322  Biso   1.000  H
  H424     1.0000 0.96540  0.39219  0.95241  Biso   1.000  H
  H425     1.0000 0.89514  0.39587  0.92052  Biso   1.000  H
  H426     1.0000 0.92090  0.31439  0.82921  Biso   1.000  H
  H427     1.0000 0.97983  0.38030  0.82562  Biso   1.000  H
  C331     1.0000 0.82841  0.39291  0.82150  Biso   1.000  C
  C332     1.0000 0.15706  0.50080  0.99823  Biso   1.000  C
  H428     1.0000 0.86936  0.54137  0.84381  Biso   1.000  H
  H429     1.0000 0.97790  0.55030  0.83361  Biso   1.000  H
  C333     1.0000 0.88263  0.62179  0.81779  Biso   1.000  C
  H430     1.0000 0.77300  0.37379  0.83070  Biso   1.000  H
  H431     1.0000 0.81862  0.38690  0.79911  Biso   1.000  H
  H432     1.0000 0.83211  0.43887  0.82620  Biso   1.000  H
  H433     1.0000 0.21746  0.51750  0.99031  Biso   1.000  H
  H434     1.0000 0.12061  0.53739  0.00601  Biso   1.000  H
  C334     1.0000 0.18406  0.45251  0.02397  Biso   1.000  C
  H435     1.0000 0.82421  0.64237  0.82462  Biso   1.000  H
  H436     1.0000 0.86475  0.60087  0.79781  Biso   1.000  H
  H437     1.0000 0.93351  0.65431  0.81572  Biso   1.000  H
  H438     1.0000 0.22359  0.47377  0.04111  Biso   1.000  H
  H439     1.0000 0.22237  0.41737  0.01621  Biso   1.000  H
  H440     1.0000 0.12383  0.43509  0.03112  Biso   1.000  H
  C335     1.0000 0.33996  0.74579  0.23513  Biso   1.000  C
  C336     1.0000 0.25026  0.78199  0.22099  Biso   1.000  C
  H441     1.0000 0.33338  0.70032  0.22961  Biso   1.000  H
  H442     1.0000 0.39917  0.76350  0.22740  Biso   1.000  H
  H443     1.0000 0.34579  0.75021  0.25761  Biso   1.000  H
  O61      1.0000 0.25018  0.78209  0.18878  Biso   1.000  O
  H444     1.0000 0.25197  0.82669  0.22880  Biso   1.000  H
  H445     1.0000 0.18955  0.76113  0.22661  Biso   1.000  H
  C337     1.0000 0.17116  0.80922  0.17014  Biso   1.000  C
  C338     1.0000 0.16443  0.79486  0.13860  Biso   1.000  C
  C339     1.0000 0.10064  0.84950  0.18123  Biso   1.000  C
  C340     1.0000 0.08711  0.82135  0.11894  Biso   1.000  C
  C341     1.0000 0.24201  0.75258  0.12532  Biso   1.000  C
  C342     1.0000 0.02336  0.87644  0.16148  Biso   1.000  C
  H446     1.0000 0.10532  0.85872  0.20259  Biso   1.000  H
  C343     1.0000 0.01670  0.86198  0.12991  Biso   1.000  C
  H447     1.0000 0.08203  0.81160  0.09751  Biso   1.000  H
  C344     1.0000 0.31996  0.79306  0.11167  Biso   1.000  C
  H448     1.0000 0.20882  0.72429  0.10911  Biso   1.000  H
  H449     1.0000 0.27466  0.72492  0.14191  Biso   1.000  H
  C345     1.0000 0.94868  0.92206  0.17375  Biso   1.000  C
  O62      1.0000 0.93795  0.88833  0.11123  Biso   1.000  O
  C346     1.0000 0.40133  0.81655  0.13084  Biso   1.000  C
  C347     1.0000 0.31091  0.80893  0.08046  Biso   1.000  C
  H450     1.0000 0.88254  0.91410  0.16250  Biso   1.000  H
  H451     1.0000 0.94509  0.91269  0.19581  Biso   1.000  H
  C348     1.0000 0.97555  0.99316  0.17021  Biso   1.000  C
  C349     1.0000 0.93033  0.87571  0.07864  Biso   1.000  C
  C350     1.0000 0.47196  0.85581  0.11945  Biso   1.000  C
  H452     1.0000 0.40864  0.80558  0.15211  Biso   1.000  H
  O63      1.0000 0.22953  0.78394  0.06229  Biso   1.000  O
  C351     1.0000 0.38221  0.84805  0.06888  Biso   1.000  C
  C352     1.0000 0.93446  0.02854  0.14484  Biso   1.000  C
  C353     1.0000 0.04302  0.02378  0.19213  Biso   1.000  C
  H453     1.0000 0.98965  0.89192  0.07000  Biso   1.000  H
  H454     1.0000 0.92494  0.82893  0.07480  Biso   1.000  H
  C354     1.0000 0.83933  0.90959  0.06378  Biso   1.000  C
  O64      1.0000 0.55418  0.88066  0.13730  Biso   1.000  O
  C355     1.0000 0.46290  0.87231  0.08801  Biso   1.000  C
  C356     1.0000 0.22338  0.78942  0.03047  Biso   1.000  C
  H455     1.0000 0.37541  0.85829  0.04759  Biso   1.000  H
  H456     1.0000 0.88811  0.00859  0.12991  Biso   1.000  H
  C357     1.0000 0.96056  0.09367  0.14081  Biso   1.000  C
  O65      1.0000 0.08034  0.98685  0.21752  Biso   1.000  O
  C358     1.0000 0.06994  0.08847  0.18810  Biso   1.000  C
  H457     1.0000 0.83051  0.90012  0.04160  Biso   1.000  H
  H458     1.0000 0.78155  0.89469  0.07319  Biso   1.000  H
  H459     1.0000 0.84694  0.95598  0.06681  Biso   1.000  H
  C359     1.0000 0.56653  0.86668  0.16965  Biso   1.000  C
  C360     1.0000 0.53755  0.91784  0.07526  Biso   1.000  C
  H460     1.0000 0.21803  0.83519  0.02430  Biso   1.000  H
  H461     1.0000 0.28331  0.77122  0.02290  Biso   1.000  H
  C361     1.0000 0.13258  0.75292  0.01677  Biso   1.000  C
  O66      1.0000 0.92063  0.13094  0.11598  Biso   1.000  O
  C362     1.0000 0.02994  0.12337  0.16227  Biso   1.000  C
  C363     1.0000 0.13759  0.01786  0.24273  Biso   1.000  C
  H462     1.0000 0.11573  0.10861  0.20310  Biso   1.000  H
  H463     1.0000 0.50876  0.88231  0.17930  Biso   1.000  H
  H464     1.0000 0.57249  0.81970  0.17301  Biso   1.000  H
  C364     1.0000 0.65894  0.90002  0.18370  Biso   1.000  C
  H465     1.0000 0.54202  0.90730  0.05339  Biso   1.000  H
  H466     1.0000 0.60350  0.91109  0.08679  Biso   1.000  H
  C365     1.0000 0.50813  0.98874  0.07787  Biso   1.000  C
  H467     1.0000 0.13968  0.70740  0.02229  Biso   1.000  H
  H468     1.0000 0.07400  0.77049  0.02481  Biso   1.000  H
  H469     1.0000 0.12579  0.75719  0.99429  Biso   1.000  H
  C366     1.0000 0.84310  0.10827  0.09574  Biso   1.000  C
  C367     1.0000 0.06565  0.19228  0.15717  Biso   1.000  C
  C368     1.0000 0.16589  0.96700  0.26714  Biso   1.000  C
  H470     1.0000 0.19747  0.03718  0.23581  Biso   1.000  H
  H471     1.0000 0.09858  0.05232  0.25121  Biso   1.000  H
  H472     1.0000 0.71497  0.88619  0.17310  Biso   1.000  H
  H473     1.0000 0.65052  0.94661  0.18151  Biso   1.000  H
  H474     1.0000 0.67137  0.88891  0.20560  Biso   1.000  H
  C369     1.0000 0.44150  0.01776  0.05521  Biso   1.000  C
  C370     1.0000 0.54601  0.02572  0.10319  Biso   1.000  C
  H475     1.0000 0.86642  0.07328  0.08300  Biso   1.000  H
  H476     1.0000 0.79094  0.09090  0.10741  Biso   1.000  H
  C371     1.0000 0.80172  0.16258  0.07510  Biso   1.000  C
  C372     1.0000 0.15603  0.19345  0.13953  Biso   1.000  C
  H477     1.0000 0.08208  0.21349  0.17741  Biso   1.000  H
  H478     1.0000 0.01166  0.21699  0.14550  Biso   1.000  H
  H479     1.0000 0.20670  0.93409  0.25871  Biso   1.000  H
  H480     1.0000 0.20319  0.98709  0.28510  Biso   1.000  H
  H481     1.0000 0.10597  0.94710  0.27331  Biso   1.000  H
  O67      1.0000 0.40691  0.97957  0.03021  Biso   1.000  O
  C373     1.0000 0.41280  0.08216  0.05840  Biso   1.000  C
  H482     1.0000 0.59147  0.00679  0.11871  Biso   1.000  H
  C374     1.0000 0.51837  0.09027  0.10622  Biso   1.000  C
  H483     1.0000 0.74354  0.14739  0.06189  Biso   1.000  H
  H484     1.0000 0.78290  0.19830  0.08780  Biso   1.000  H
  H485     1.0000 0.85184  0.17709  0.06231  Biso   1.000  H
  C375     1.0000 0.14541  0.19000  0.10727  Biso   1.000  C
  C376     1.0000 0.25203  0.19670  0.15472  Biso   1.000  C
  C377     1.0000 0.35392  0.00840  0.00387  Biso   1.000  C
  H486     1.0000 0.36742  0.10099  0.04291  Biso   1.000  H
  C378     1.0000 0.44959  0.11900  0.08398  Biso   1.000  C
  O68      1.0000 0.55454  0.12914  0.13091  Biso   1.000  O
  H487     1.0000 0.08093  0.18869  0.09651  Biso   1.000  H
  C379     1.0000 0.22741  0.18840  0.09045  Biso   1.000  C
  O69      1.0000 0.26108  0.19782  0.18696  Biso   1.000  O
  C380     1.0000 0.33344  0.19534  0.13772  Biso   1.000  C
  C381     1.0000 0.33140  0.95661  0.97987  Biso   1.000  C
  H488     1.0000 0.39437  0.04271  0.99569  Biso   1.000  H
  H489     1.0000 0.29199  0.02781  0.00941  Biso   1.000  H
  C382     1.0000 0.41329  0.18835  0.08787  Biso   1.000  C
  C383     1.0000 0.62485  0.10478  0.15370  Biso   1.000  C
  O70      1.0000 0.21861  0.18350  0.05828  Biso   1.000  O
  C384     1.0000 0.32290  0.19083  0.10564  Biso   1.000  C
  C385     1.0000 0.35047  0.22067  0.20373  Biso   1.000  C
  H490     1.0000 0.39797  0.19757  0.14841  Biso   1.000  H
  H491     1.0000 0.29721  0.97559  0.96110  Biso   1.000  H
  H492     1.0000 0.39297  0.93671  0.97519  Biso   1.000  H
  H493     1.0000 0.28907  0.92390  0.98779  Biso   1.000  H
  H494     1.0000 0.39653  0.20791  0.06730  Biso   1.000  H
  H495     1.0000 0.46724  0.21398  0.09900  Biso   1.000  H
  H496     1.0000 0.59578  0.07052  0.16551  Biso   1.000  H
  H497     1.0000 0.68168  0.08668  0.14431  Biso   1.000  H
  C386     1.0000 0.65797  0.16117  0.17466  Biso   1.000  C
  C387     1.0000 0.12780  0.19908  0.04007  Biso   1.000  C
  H498     1.0000 0.35296  0.20621  0.22540  Biso   1.000  H
  H499     1.0000 0.40728  0.20131  0.19490  Biso   1.000  H
  C388     1.0000 0.36044  0.29187  0.20324  Biso   1.000  C
  H500     1.0000 0.69617  0.19141  0.16350  Biso   1.000  H
  H501     1.0000 0.59982  0.18301  0.18100  Biso   1.000  H
  H502     1.0000 0.69904  0.14530  0.19299  Biso   1.000  H
  H503     1.0000 0.12942  0.18258  0.01889  Biso   1.000  H
  H504     1.0000 0.07247  0.17777  0.04889  Biso   1.000  H
  C389     1.0000 0.11037  0.27251  0.03897  Biso   1.000  C
  H505     1.0000 0.35896  0.30667  0.18191  Biso   1.000  H
  H506     1.0000 0.30586  0.31148  0.21270  Biso   1.000  H
  H507     1.0000 0.42325  0.30439  0.21491  Biso   1.000  H
  H508     1.0000 0.04843  0.28178  0.02621  Biso   1.000  H
  H509     1.0000 0.10682  0.28857  0.05989  Biso   1.000  H
  H510     1.0000 0.16513  0.29347  0.03019  Biso   1.000  H
  C390     1.0000 0.66033  0.25416  0.76487  Biso   1.000  C
  C391     1.0000 0.75003  0.21796  0.77901  Biso   1.000  C
  H511     1.0000 0.66693  0.29968  0.77041  Biso   1.000  H
  H512     1.0000 0.60112  0.23650  0.77260  Biso   1.000  H
  H513     1.0000 0.65452  0.24979  0.74241  Biso   1.000  H
  O71      1.0000 0.75011  0.21791  0.81122  Biso   1.000  O
  H514     1.0000 0.74832  0.17326  0.77120  Biso   1.000  H
  H515     1.0000 0.81075  0.23887  0.77342  Biso   1.000  H
  C392     1.0000 0.82914  0.19078  0.82986  Biso   1.000  C
  C393     1.0000 0.89965  0.15050  0.81877  Biso   1.000  C
  C394     1.0000 0.83586  0.20510  0.86140  Biso   1.000  C
  C395     1.0000 0.97693  0.12356  0.83852  Biso   1.000  C
  H516     1.0000 0.89490  0.14128  0.79741  Biso   1.000  H
  C396     1.0000 0.91312  0.17865  0.88108  Biso   1.000  C
  C397     1.0000 0.75821  0.24742  0.87468  Biso   1.000  C
  C398     1.0000 0.05161  0.07789  0.82625  Biso   1.000  C
  C399     1.0000 0.98352  0.13802  0.87009  Biso   1.000  C
  H517     1.0000 0.91827  0.18840  0.90251  Biso   1.000  H
  C400     1.0000 0.68033  0.20694  0.88833  Biso   1.000  C
  H518     1.0000 0.79149  0.27566  0.89091  Biso   1.000  H
  H519     1.0000 0.72564  0.27508  0.85812  Biso   1.000  H
  C401     1.0000 0.02474  0.00679  0.82979  Biso   1.000  C
  H520     1.0000 0.11775  0.08590  0.83750  Biso   1.000  H
  H521     1.0000 0.05521  0.08726  0.80421  Biso   1.000  H
  O72      1.0000 0.06235  0.11167  0.88879  Biso   1.000  O
  C402     1.0000 0.59897  0.18340  0.86918  Biso   1.000  C
  C403     1.0000 0.68939  0.19107  0.91957  Biso   1.000  C
  C404     1.0000 0.95720  0.97622  0.80787  Biso   1.000  C
  C405     1.0000 0.06583  0.97146  0.85516  Biso   1.000  C
  C406     1.0000 0.06996  0.12429  0.92136  Biso   1.000  C
  C407     1.0000 0.52833  0.14419  0.88055  Biso   1.000  C
  H522     1.0000 0.59166  0.19437  0.84791  Biso   1.000  H
  O73      1.0000 0.77077  0.21602  0.93773  Biso   1.000  O
  C408     1.0000 0.61808  0.15190  0.93112  Biso   1.000  C
  O74      1.0000 0.91995  0.01310  0.78248  Biso   1.000  O
  C409     1.0000 0.93035  0.91148  0.81190  Biso   1.000  C
  C410     1.0000 0.03973  0.90633  0.85919  Biso   1.000  C
  H523     1.0000 0.11212  0.99136  0.87011  Biso   1.000  H
  H524     1.0000 0.01064  0.10808  0.93000  Biso   1.000  H
  H525     1.0000 0.07535  0.17107  0.92520  Biso   1.000  H
  C411     1.0000 0.16096  0.09037  0.93622  Biso   1.000  C
  O75      1.0000 0.44611  0.11929  0.86270  Biso   1.000  O
  C412     1.0000 0.53732  0.12764  0.91199  Biso   1.000  C
  C413     1.0000 0.77684  0.21058  0.96953  Biso   1.000  C
  H526     1.0000 0.62488  0.14166  0.95241  Biso   1.000  H
  C414     1.0000 0.86271  0.98214  0.75730  Biso   1.000  C
  C415     1.0000 0.97036  0.87663  0.83776  Biso   1.000  C
  H527     1.0000 0.88449  0.89139  0.79690  Biso   1.000  H
  O76      1.0000 0.07967  0.86901  0.88404  Biso   1.000  O
  H528     1.0000 0.16979  0.09988  0.95842  Biso   1.000  H
  H529     1.0000 0.21875  0.10527  0.92681  Biso   1.000  H
  H530     1.0000 0.15336  0.04397  0.93322  Biso   1.000  H
  C416     1.0000 0.43377  0.13327  0.83037  Biso   1.000  C
  C417     1.0000 0.46274  0.08212  0.92474  Biso   1.000  C
  H531     1.0000 0.78226  0.16477  0.97570  Biso   1.000  H
  H532     1.0000 0.71699  0.22878  0.97710  Biso   1.000  H
  C418     1.0000 0.86764  0.24708  0.98323  Biso   1.000  C
  C419     1.0000 0.83440  0.03300  0.73286  Biso   1.000  C
  H533     1.0000 0.80284  0.96278  0.76422  Biso   1.000  H
  H534     1.0000 0.90172  0.94768  0.74882  Biso   1.000  H
  C420     1.0000 0.93465  0.80767  0.84286  Biso   1.000  C
  C421     1.0000 0.15712  0.89168  0.90426  Biso   1.000  C
  H535     1.0000 0.49153  0.11769  0.82070  Biso   1.000  H
  H536     1.0000 0.42782  0.18030  0.82702  Biso   1.000  H
  C422     1.0000 0.34135  0.09998  0.81630  Biso   1.000  C
  C423     1.0000 0.49217  0.01126  0.92213  Biso   1.000  C
  H537     1.0000 0.45827  0.09270  0.94661  Biso   1.000  H
  H538     1.0000 0.39672  0.08886  0.91321  Biso   1.000  H
  H539     1.0000 0.86054  0.29260  0.97771  Biso   1.000  H
  H540     1.0000 0.92630  0.22946  0.97522  Biso   1.000  H
  H541     1.0000 0.87450  0.24276  0.00571  Biso   1.000  H
  H542     1.0000 0.79360  0.06586  0.74132  Biso   1.000  H
  H543     1.0000 0.79710  0.01286  0.71490  Biso   1.000  H
  H544     1.0000 0.89433  0.05290  0.72671  Biso   1.000  H
  C424     1.0000 0.84427  0.80650  0.86047  Biso   1.000  C
  H545     1.0000 0.91822  0.78651  0.82261  Biso   1.000  H
  H546     1.0000 0.98863  0.78297  0.85450  Biso   1.000  H
  H547     1.0000 0.13387  0.92667  0.91700  Biso   1.000  H
  H548     1.0000 0.20936  0.90910  0.89261  Biso   1.000  H
  C425     1.0000 0.19858  0.83737  0.92490  Biso   1.000  C
  H549     1.0000 0.28533  0.11376  0.82690  Biso   1.000  H
  H550     1.0000 0.34971  0.05339  0.81851  Biso   1.000  H
  H551     1.0000 0.32893  0.11109  0.79441  Biso   1.000  H
  C426     1.0000 0.55880  0.98224  0.94479  Biso   1.000  C
  C427     1.0000 0.45428  0.97428  0.89681  Biso   1.000  C
  C428     1.0000 0.85488  0.81000  0.89273  Biso   1.000  C
  C429     1.0000 0.74826  0.80325  0.84528  Biso   1.000  C
  H552     1.0000 0.25675  0.85256  0.93811  Biso   1.000  H
  H553     1.0000 0.21732  0.80170  0.91220  Biso   1.000  H
  H554     1.0000 0.14846  0.82291  0.93771  Biso   1.000  H
  C430     1.0000 0.58750  0.91779  0.94160  Biso   1.000  C
  O77      1.0000 0.59338  0.02043  0.96979  Biso   1.000  O
  C431     1.0000 0.48193  0.90968  0.89378  Biso   1.000  C
  H555     1.0000 0.40883  0.99316  0.88132  Biso   1.000  H
  H556     1.0000 0.91937  0.81131  0.90352  Biso   1.000  H
  C432     1.0000 0.77288  0.81160  0.90955  Biso   1.000  C
  O78      1.0000 0.73921  0.80214  0.81304  Biso   1.000  O
  C433     1.0000 0.66686  0.80466  0.86231  Biso   1.000  C
  C434     1.0000 0.55063  0.88100  0.91602  Biso   1.000  C
  H557     1.0000 0.63288  0.89901  0.95712  Biso   1.000  H
  C435     1.0000 0.64638  0.99160  0.99613  Biso   1.000  C
  O79      1.0000 0.44575  0.87086  0.86909  Biso   1.000  O
  O80      1.0000 0.78169  0.81645  0.94172  Biso   1.000  O
  C436     1.0000 0.67733  0.80917  0.89438  Biso   1.000  C
  C437     1.0000 0.64982  0.77928  0.79627  Biso   1.000  C
  H558     1.0000 0.60233  0.80238  0.85162  Biso   1.000  H
  C438     1.0000 0.58694  0.81165  0.91216  Biso   1.000  C
  H559     1.0000 0.70831  0.97219  0.99061  Biso   1.000  H
  H560     1.0000 0.60585  0.95729  0.00431  Biso   1.000  H
  C439     1.0000 0.66890  0.04339  0.02015  Biso   1.000  C
  C440     1.0000 0.37546  0.89517  0.84633  Biso   1.000  C
  C441     1.0000 0.87249  0.80087  0.95993  Biso   1.000  C
  H561     1.0000 0.64733  0.79379  0.77461  Biso   1.000  H
  H562     1.0000 0.59301  0.79869  0.80510  Biso   1.000  H
  C442     1.0000 0.63985  0.70808  0.79676  Biso   1.000  C
  H563     1.0000 0.60376  0.79209  0.93270  Biso   1.000  H
  H564     1.0000 0.53305  0.78597  0.90100  Biso   1.000  H
  H565     1.0000 0.70308  0.02436  0.03890  Biso   1.000  H
  H566     1.0000 0.60733  0.06329  0.02481  Biso   1.000  H
  H567     1.0000 0.71122  0.07610  0.01221  Biso   1.000  H
  H568     1.0000 0.40452  0.92948  0.83452  Biso   1.000  H
  H569     1.0000 0.31862  0.91327  0.85572  Biso   1.000  H
  C443     1.0000 0.34232  0.83878  0.82534  Biso   1.000  C
  H570     1.0000 0.87088  0.81737  0.98111  Biso   1.000  H
  H571     1.0000 0.92774  0.82218  0.95111  Biso   1.000  H
  C444     1.0000 0.88985  0.72749  0.96103  Biso   1.000  C
  H572     1.0000 0.64134  0.69328  0.81812  Biso   1.000  H
  H573     1.0000 0.69443  0.68847  0.78730  Biso   1.000  H
  H574     1.0000 0.57705  0.69561  0.78511  Biso   1.000  H
  H575     1.0000 0.30413  0.80859  0.83650  Biso   1.000  H
  H576     1.0000 0.40040  0.81699  0.81900  Biso   1.000  H
  H577     1.0000 0.30125  0.85470  0.80701  Biso   1.000  H
  H578     1.0000 0.95187  0.71818  0.97382  Biso   1.000  H
  H579     1.0000 0.89348  0.71138  0.94011  Biso   1.000  H
  H580     1.0000 0.83517  0.70648  0.96981  Biso   1.000  H
