data_image0
_cell_length_a       17.804
_cell_length_b       17.804
_cell_length_c       47.626
_cell_angle_alpha    90
_cell_angle_beta     90
_cell_angle_gamma    120

_symmetry_space_group_name_H-M    "P 1"
_symmetry_int_tables_number       1

loop_
  _symmetry_equiv_pos_as_xyz
  'x, y, z'

loop_
  _atom_site_label
  _atom_site_occupancy
  _atom_site_fract_x
  _atom_site_fract_y
  _atom_site_fract_z
  _atom_site_thermal_displace_type
  _atom_site_B_iso_or_equiv
  _atom_site_type_symbol
  C1       1.0000 0.31946  0.27058  0.49994  Biso   1.000  C
  C2       1.0000 0.37374  0.27389  0.52137  Biso   1.000  C
  C3       1.0000 0.23964  0.26079  0.50512  Biso   1.000  C
  H1       1.0000 0.33833  0.27519  0.48096  Biso   1.000  H
  N1       1.0000 0.45555  0.28978  0.51631  Biso   1.000  N
  C4       1.0000 0.34374  0.26578  0.54888  Biso   1.000  C
  C5       1.0000 0.21334  0.25605  0.53187  Biso   1.000  C
  H2       1.0000 0.20316  0.25748  0.48996  Biso   1.000  H
  C6       1.0000 0.48714  0.29555  0.48860  Biso   1.000  C
  H3       1.0000 0.48982  0.29665  0.53057  Biso   1.000  H
  C7       1.0000 0.26451  0.25437  0.55405  Biso   1.000  C
  S1       1.0000 0.41204  0.26993  0.57746  Biso   1.000  S
  H4       1.0000 0.15985  0.25365  0.53576  Biso   1.000  H
  C8       1.0000 0.58022  0.31468  0.48881  Biso   1.000  C
  H5       1.0000 0.45023  0.24016  0.47856  Biso   1.000  H
  H6       1.0000 0.48371  0.34205  0.47827  Biso   1.000  H
  H7       1.0000 0.24302  0.24496  0.57267  Biso   1.000  H
  S2       1.0000 0.47544  0.39673  0.58922  Biso   1.000  S
  C9       1.0000 0.64863  0.40185  0.48919  Biso   1.000  C
  C10      1.0000 0.59817  0.24678  0.48919  Biso   1.000  C
  C11      1.0000 0.41129  0.40088  0.61777  Biso   1.000  C
  C12      1.0000 0.62896  0.47507  0.49114  Biso   1.000  C
  C13      1.0000 0.73442  0.41975  0.48881  Biso   1.000  C
  C14      1.0000 0.68537  0.26559  0.48881  Biso   1.000  C
  C15      1.0000 0.52491  0.15384  0.49114  Biso   1.000  C
  C16      1.0000 0.34347  0.41229  0.61261  Biso   1.000  C
  C17      1.0000 0.43322  0.39283  0.64528  Biso   1.000  C
  C18      1.0000 0.61983  0.50646  0.46491  Biso   1.000  C
  H8       1.0000 0.67614  0.52358  0.50166  Biso   1.000  H
  H9       1.0000 0.57460  0.45464  0.50187  Biso   1.000  H
  C19      1.0000 0.80845  0.51288  0.48860  Biso   1.000  C
  C20      1.0000 0.75326  0.35139  0.48919  Biso   1.000  C
  C21      1.0000 0.70448  0.19159  0.48860  Biso   1.000  C
  H10      1.0000 0.47641  0.15254  0.50166  Biso   1.000  H
  H11      1.0000 0.54533  0.11998  0.50187  Biso   1.000  H
  C22      1.0000 0.49355  0.11337  0.46491  Biso   1.000  C
  H12      1.0000 0.33138  0.42170  0.59400  Biso   1.000  H
  C23      1.0000 0.29062  0.41060  0.63478  Biso   1.000  C
  C24      1.0000 0.38221  0.39608  0.66672  Biso   1.000  C
  N2       1.0000 0.49910  0.37688  0.65034  Biso   1.000  N
  H13      1.0000 0.60564  0.55245  0.46777  Biso   1.000  H
  H14      1.0000 0.67433  0.52975  0.45437  Biso   1.000  H
  H15      1.0000 0.57312  0.45899  0.45416  Biso   1.000  H
  H16      1.0000 0.78995  0.54979  0.47856  Biso   1.000  H
  H17      1.0000 0.85833  0.51626  0.47827  Biso   1.000  H
  N3       1.0000 0.83424  0.54447  0.51631  Biso   1.000  N
  C25      1.0000 0.84610  0.37104  0.49114  Biso   1.000  C
  H18      1.0000 0.75983  0.21007  0.47856  Biso   1.000  H
  H19      1.0000 0.65794  0.14165  0.47827  Biso   1.000  H
  N4       1.0000 0.71022  0.16577  0.51631  Biso   1.000  N
  H20      1.0000 0.44756  0.05318  0.46777  Biso   1.000  H
  H21      1.0000 0.47023  0.14456  0.45437  Biso   1.000  H
  H22      1.0000 0.54101  0.11415  0.45416  Biso   1.000  H
  H23      1.0000 0.23953  0.41300  0.63089  Biso   1.000  H
  C26      1.0000 0.31221  0.40594  0.66155  Biso   1.000  C
  H24      1.0000 0.39648  0.39147  0.68570  Biso   1.000  H
  C27      1.0000 0.52492  0.37111  0.67808  Biso   1.000  C
  H25      1.0000 0.52650  0.37000  0.63610  Biso   1.000  H
  C28      1.0000 0.90013  0.62625  0.52137  Biso   1.000  C
  H26      1.0000 0.80681  0.51016  0.53057  Biso   1.000  H
  H27      1.0000 0.84747  0.32389  0.50166  Biso   1.000  H
  H28      1.0000 0.88007  0.42539  0.50187  Biso   1.000  H
  C29      1.0000 0.88668  0.38019  0.46491  Biso   1.000  C
  C30      1.0000 0.72614  0.09988  0.52137  Biso   1.000  C
  H29      1.0000 0.70334  0.19314  0.53057  Biso   1.000  H
  H30      1.0000 0.27901  0.40918  0.67669  Biso   1.000  H
  H31      1.0000 0.54340  0.42649  0.68809  Biso   1.000  H
  H32      1.0000 0.47499  0.32461  0.68841  Biso   1.000  H
  C31      1.0000 0.59887  0.35197  0.67784  Biso   1.000  C
  C32      1.0000 0.92205  0.65628  0.54888  Biso   1.000  C
  C33      1.0000 0.95117  0.68060  0.49994  Biso   1.000  C
  H33      1.0000 0.94686  0.39439  0.46777  Biso   1.000  H
  H34      1.0000 0.85542  0.32564  0.45437  Biso   1.000  H
  H35      1.0000 0.88588  0.42688  0.45416  Biso   1.000  H
  C34      1.0000 0.73422  0.07796  0.54888  Biso   1.000  C
  C35      1.0000 0.72943  0.04884  0.49994  Biso   1.000  C
  C36      1.0000 0.58011  0.26481  0.67747  Biso   1.000  C
  C37      1.0000 0.68472  0.41988  0.67747  Biso   1.000  C
  C38      1.0000 0.98984  0.73547  0.55405  Biso   1.000  C
  S3       1.0000 0.85788  0.58792  0.57746  Biso   1.000  S
  H36      1.0000 0.93682  0.66166  0.48096  Biso   1.000  H
  C39      1.0000 0.02111  0.76037  0.50512  Biso   1.000  C
  C40      1.0000 0.74566  0.01018  0.55405  Biso   1.000  C
  S4       1.0000 0.73006  0.14210  0.57746  Biso   1.000  S
  H37      1.0000 0.72486  0.06317  0.48096  Biso   1.000  H
  C41      1.0000 0.73920  0.97886  0.50512  Biso   1.000  C
  C42      1.0000 0.64800  0.24691  0.67784  Biso   1.000  C
  C43      1.0000 0.48722  0.19159  0.67553  Biso   1.000  C
  C44      1.0000 0.75314  0.40114  0.67784  Biso   1.000  C
  C45      1.0000 0.70440  0.51282  0.67553  Biso   1.000  C
  H38      1.0000 0.00196  0.75700  0.57267  Biso   1.000  H
  C46      1.0000 0.04276  0.78671  0.53187  Biso   1.000  C
  S5       1.0000 0.92129  0.52456  0.58922  Biso   1.000  S
  H39      1.0000 0.05436  0.79689  0.48996  Biso   1.000  H
  H40      1.0000 0.75504  0.99805  0.57267  Biso   1.000  H
  C47      1.0000 0.74391  0.95726  0.53187  Biso   1.000  C
  S6       1.0000 0.60329  0.07874  0.58922  Biso   1.000  S
  H41      1.0000 0.74254  0.94565  0.48996  Biso   1.000  H
  C48      1.0000 0.62890  0.15377  0.67808  Biso   1.000  C
  C49      1.0000 0.73523  0.31533  0.67747  Biso   1.000  C
  H42      1.0000 0.48588  0.14307  0.66499  Biso   1.000  H
  H43      1.0000 0.45329  0.21202  0.66480  Biso   1.000  H
  C50      1.0000 0.44670  0.16019  0.70176  Biso   1.000  C
  C51      1.0000 0.84625  0.47514  0.67808  Biso   1.000  C
  H44      1.0000 0.65719  0.51412  0.66499  Biso   1.000  H
  H45      1.0000 0.75871  0.54674  0.66480  Biso   1.000  H
  C52      1.0000 0.71351  0.55329  0.70176  Biso   1.000  C
  H46      1.0000 0.09380  0.84015  0.53576  Biso   1.000  H
  C53      1.0000 0.98959  0.58870  0.61777  Biso   1.000  C
  H47      1.0000 0.74633  0.90615  0.53576  Biso   1.000  H
  C54      1.0000 0.59910  0.01038  0.61777  Biso   1.000  C
  N5       1.0000 0.62310  0.12219  0.65034  Biso   1.000  N
  H48      1.0000 0.57349  0.11687  0.68809  Biso   1.000  H
  H49      1.0000 0.67540  0.15040  0.68841  Biso   1.000  H
  C55      1.0000 0.80839  0.29561  0.67553  Biso   1.000  C
  H50      1.0000 0.38653  0.11421  0.69890  Biso   1.000  H
  H51      1.0000 0.47791  0.13691  0.71230  Biso   1.000  H
  H52      1.0000 0.44750  0.20773  0.71249  Biso   1.000  H
  N6       1.0000 0.87777  0.50088  0.65034  Biso   1.000  N
  H53      1.0000 0.88309  0.45659  0.68809  Biso   1.000  H
  H54      1.0000 0.84962  0.52501  0.68841  Biso   1.000  H
  H55      1.0000 0.72771  0.61348  0.69890  Biso   1.000  H
  H56      1.0000 0.65899  0.52209  0.71230  Biso   1.000  H
  H57      1.0000 0.76019  0.55251  0.71249  Biso   1.000  H
  C56      1.0000 0.95959  0.56678  0.64528  Biso   1.000  C
  C57      1.0000 0.06883  0.65654  0.61261  Biso   1.000  C
  C58      1.0000 0.60721  0.04041  0.64528  Biso   1.000  C
  C59      1.0000 0.58770  0.93119  0.61261  Biso   1.000  C
  H58      1.0000 0.62998  0.15650  0.63610  Biso   1.000  H
  H59      1.0000 0.85694  0.34283  0.66499  Biso   1.000  H
  H60      1.0000 0.78804  0.24133  0.66480  Biso   1.000  H
  C60      1.0000 0.83985  0.28653  0.70176  Biso   1.000  C
  H61      1.0000 0.84353  0.47352  0.63610  Biso   1.000  H
  C61      1.0000 0.01392  0.61782  0.66672  Biso   1.000  C
  H62      1.0000 0.09031  0.66860  0.59400  Biso   1.000  H
  C62      1.0000 0.11998  0.70940  0.63478  Biso   1.000  C
  C63      1.0000 0.60393  0.98612  0.66672  Biso   1.000  C
  H63      1.0000 0.57832  0.90972  0.59400  Biso   1.000  H
  C64      1.0000 0.58941  0.88002  0.63478  Biso   1.000  C
  H64      1.0000 0.88583  0.27233  0.69890  Biso   1.000  H
  H65      1.0000 0.86310  0.34101  0.71230  Biso   1.000  H
  H66      1.0000 0.79232  0.23977  0.71249  Biso   1.000  H
  H67      1.0000 0.99501  0.60349  0.68570  Biso   1.000  H
  C65      1.0000 0.09368  0.68780  0.66155  Biso   1.000  C
  H68      1.0000 0.17350  0.76050  0.63089  Biso   1.000  H
  H69      1.0000 0.60848  0.00499  0.68570  Biso   1.000  H
  C66      1.0000 0.59412  0.90628  0.66155  Biso   1.000  C
  H70      1.0000 0.58698  0.82651  0.63089  Biso   1.000  H
  H71      1.0000 0.13022  0.72101  0.67669  Biso   1.000  H
  H72      1.0000 0.59080  0.86977  0.67669  Biso   1.000  H
  C67      1.0000 0.38017  0.49356  0.53509  Biso   1.000  C
  C68      1.0000 0.37110  0.52495  0.50886  Biso   1.000  C
  H73      1.0000 0.39433  0.44751  0.53223  Biso   1.000  H
  H74      1.0000 0.32565  0.47021  0.54563  Biso   1.000  H
  H75      1.0000 0.42688  0.54103  0.54584  Biso   1.000  H
  C69      1.0000 0.35138  0.59817  0.51079  Biso   1.000  C
  H76      1.0000 0.32387  0.47643  0.49832  Biso   1.000  H
  H77      1.0000 0.42537  0.54531  0.49813  Biso   1.000  H
  C70      1.0000 0.41979  0.68534  0.51117  Biso   1.000  C
  C71      1.0000 0.26559  0.58027  0.51117  Biso   1.000  C
  C72      1.0000 0.51287  0.70447  0.51140  Biso   1.000  C
  C73      1.0000 0.40190  0.75324  0.51079  Biso   1.000  C
  C74      1.0000 0.19156  0.48714  0.51140  Biso   1.000  C
  C75      1.0000 0.24675  0.64863  0.51079  Biso   1.000  C
  N7       1.0000 0.54446  0.71024  0.48369  Biso   1.000  N
  H78      1.0000 0.54978  0.75986  0.52144  Biso   1.000  H
  H79      1.0000 0.51630  0.65797  0.52173  Biso   1.000  H
  C76      1.0000 0.31464  0.73443  0.51117  Biso   1.000  C
  C77      1.0000 0.47507  0.84611  0.50886  Biso   1.000  C
  N8       1.0000 0.16577  0.45555  0.48369  Biso   1.000  N
  H80      1.0000 0.21006  0.45023  0.52144  Biso   1.000  H
  H81      1.0000 0.14168  0.48376  0.52173  Biso   1.000  H
  C78      1.0000 0.15387  0.62891  0.50886  Biso   1.000  C
  C79      1.0000 0.62626  0.72613  0.47860  Biso   1.000  C
  H82      1.0000 0.51019  0.70337  0.46943  Biso   1.000  H
  C80      1.0000 0.29559  0.80843  0.51140  Biso   1.000  C
  H83      1.0000 0.52357  0.84741  0.49832  Biso   1.000  H
  H84      1.0000 0.45468  0.88003  0.49813  Biso   1.000  H
  C81      1.0000 0.50646  0.88665  0.53509  Biso   1.000  C
  C82      1.0000 0.09988  0.37377  0.47860  Biso   1.000  C
  H85      1.0000 0.19320  0.48986  0.46943  Biso   1.000  H
  H86      1.0000 0.15254  0.67613  0.49832  Biso   1.000  H
  H87      1.0000 0.11994  0.57463  0.49813  Biso   1.000  H
  C83      1.0000 0.11339  0.61983  0.53509  Biso   1.000  C
  C84      1.0000 0.65627  0.73424  0.45112  Biso   1.000  C
  C85      1.0000 0.68055  0.72944  0.50006  Biso   1.000  C
  N9       1.0000 0.28979  0.83425  0.48369  Biso   1.000  N
  H88      1.0000 0.24018  0.78995  0.52144  Biso   1.000  H
  H89      1.0000 0.34207  0.85837  0.52173  Biso   1.000  H
  H90      1.0000 0.55245  0.94684  0.53223  Biso   1.000  H
  H91      1.0000 0.52978  0.85545  0.54563  Biso   1.000  H
  H92      1.0000 0.45900  0.88587  0.54584  Biso   1.000  H
  C86      1.0000 0.07796  0.34374  0.45112  Biso   1.000  C
  C87      1.0000 0.04883  0.31942  0.50006  Biso   1.000  C
  H93      1.0000 0.05315  0.60563  0.53223  Biso   1.000  H
  H94      1.0000 0.14456  0.67431  0.54563  Biso   1.000  H
  H95      1.0000 0.11419  0.57313  0.54584  Biso   1.000  H
  S7       1.0000 0.58797  0.73009  0.42254  Biso   1.000  S
  C88      1.0000 0.73550  0.74565  0.44593  Biso   1.000  C
  C89      1.0000 0.76037  0.73923  0.49488  Biso   1.000  C
  H96      1.0000 0.66168  0.72483  0.51902  Biso   1.000  H
  C90      1.0000 0.27387  0.90014  0.47860  Biso   1.000  C
  H97      1.0000 0.29663  0.80681  0.46943  Biso   1.000  H
  S8       1.0000 0.14213  0.41210  0.42254  Biso   1.000  S
  C91      1.0000 0.01017  0.26455  0.44593  Biso   1.000  C
  C92      1.0000 0.97890  0.23964  0.49488  Biso   1.000  C
  H98      1.0000 0.06319  0.33836  0.51902  Biso   1.000  H
  S9       1.0000 0.52457  0.60329  0.41078  Biso   1.000  S
  H99      1.0000 0.75699  0.75506  0.42733  Biso   1.000  H
  C93      1.0000 0.78667  0.74397  0.46813  Biso   1.000  C
  H100     1.0000 0.79685  0.74254  0.51004  Biso   1.000  H
  C94      1.0000 0.26579  0.92206  0.45112  Biso   1.000  C
  C95      1.0000 0.27055  0.95112  0.50006  Biso   1.000  C
  S10      1.0000 0.07872  0.47546  0.41078  Biso   1.000  S
  H101     1.0000 0.99805  0.24302  0.42733  Biso   1.000  H
  C96      1.0000 0.95725  0.21331  0.46813  Biso   1.000  C
  H102     1.0000 0.94570  0.20313  0.51004  Biso   1.000  H
  C97      1.0000 0.58869  0.59908  0.38221  Biso   1.000  C
  H103     1.0000 0.84021  0.74637  0.46422  Biso   1.000  H
  S11      1.0000 0.26995  0.85792  0.42254  Biso   1.000  S
  C98      1.0000 0.25435  0.98984  0.44593  Biso   1.000  C
  C99      1.0000 0.26081  0.02116  0.49488  Biso   1.000  C
  H104     1.0000 0.27515  0.93685  0.51902  Biso   1.000  H
  C100     1.0000 0.01042  0.41132  0.38221  Biso   1.000  C
  H105     1.0000 0.90618  0.15981  0.46422  Biso   1.000  H
  C101     1.0000 0.56679  0.60718  0.35472  Biso   1.000  C
  C102     1.0000 0.65653  0.58773  0.38739  Biso   1.000  C
  S12      1.0000 0.39672  0.92128  0.41078  Biso   1.000  S
  H106     1.0000 0.24497  0.00196  0.42733  Biso   1.000  H
  C103     1.0000 0.25610  0.04276  0.46813  Biso   1.000  C
  H107     1.0000 0.25747  0.05437  0.51004  Biso   1.000  H
  C104     1.0000 0.04039  0.43317  0.35472  Biso   1.000  C
  C105     1.0000 0.93118  0.34348  0.38739  Biso   1.000  C
  N10      1.0000 0.50091  0.62314  0.34964  Biso   1.000  N
  C106     1.0000 0.61777  0.60388  0.33326  Biso   1.000  C
  H108     1.0000 0.66863  0.57832  0.40600  Biso   1.000  H
  C107     1.0000 0.70939  0.58941  0.36520  Biso   1.000  C
  C108     1.0000 0.40091  0.98964  0.38221  Biso   1.000  C
  H109     1.0000 0.25368  0.09387  0.46422  Biso   1.000  H
  N11      1.0000 0.12224  0.49913  0.34964  Biso   1.000  N
  C109     1.0000 0.98609  0.38220  0.33326  Biso   1.000  C
  H110     1.0000 0.90970  0.33142  0.40600  Biso   1.000  H
  C110     1.0000 0.88003  0.29062  0.36520  Biso   1.000  C
  C111     1.0000 0.47509  0.62891  0.32192  Biso   1.000  C
  H111     1.0000 0.47351  0.63001  0.36390  Biso   1.000  H
  C112     1.0000 0.68780  0.59408  0.33845  Biso   1.000  C
  H112     1.0000 0.60350  0.60848  0.31430  Biso   1.000  H
  H113     1.0000 0.76054  0.58701  0.36911  Biso   1.000  H
  C113     1.0000 0.39280  0.95961  0.35472  Biso   1.000  C
  C114     1.0000 0.41231  0.06883  0.38739  Biso   1.000  C
  C115     1.0000 0.15381  0.52488  0.32192  Biso   1.000  C
  H114     1.0000 0.15648  0.52650  0.36390  Biso   1.000  H
  H115     1.0000 0.00499  0.39653  0.31430  Biso   1.000  H
  C116     1.0000 0.90633  0.31222  0.33845  Biso   1.000  C
  H116     1.0000 0.82651  0.23951  0.36911  Biso   1.000  H
  C117     1.0000 0.40111  0.64798  0.32216  Biso   1.000  C
  H117     1.0000 0.45661  0.57352  0.31189  Biso   1.000  H
  H118     1.0000 0.52502  0.67541  0.31159  Biso   1.000  H
  H119     1.0000 0.72097  0.59078  0.32329  Biso   1.000  H
  N12      1.0000 0.37691  0.87783  0.34964  Biso   1.000  N
  C118     1.0000 0.39613  0.01390  0.33326  Biso   1.000  C
  H120     1.0000 0.42169  0.09030  0.40600  Biso   1.000  H
  C119     1.0000 0.41060  0.12000  0.36520  Biso   1.000  C
  C120     1.0000 0.24687  0.59888  0.32216  Biso   1.000  C
  H121     1.0000 0.11692  0.54343  0.31189  Biso   1.000  H
  H122     1.0000 0.15039  0.47501  0.31159  Biso   1.000  H
  H123     1.0000 0.86979  0.27901  0.32329  Biso   1.000  H
  C121     1.0000 0.31531  0.58007  0.32253  Biso   1.000  C
  C122     1.0000 0.41990  0.73521  0.32253  Biso   1.000  C
  C123     1.0000 0.37108  0.84618  0.32192  Biso   1.000  C
  H124     1.0000 0.37003  0.84352  0.36390  Biso   1.000  H
  H125     1.0000 0.39152  0.99502  0.31430  Biso   1.000  H
  C124     1.0000 0.40594  0.09374  0.33845  Biso   1.000  C
  H126     1.0000 0.41303  0.17351  0.36911  Biso   1.000  H
  C125     1.0000 0.26478  0.68469  0.32253  Biso   1.000  C
  C126     1.0000 0.29561  0.48720  0.32447  Biso   1.000  C
  C127     1.0000 0.35201  0.75311  0.32216  Biso   1.000  C
  C128     1.0000 0.51284  0.80843  0.32447  Biso   1.000  C
  H127     1.0000 0.42649  0.88308  0.31189  Biso   1.000  H
  H128     1.0000 0.32461  0.84962  0.31159  Biso   1.000  H
  H129     1.0000 0.40920  0.13025  0.32329  Biso   1.000  H
  C129     1.0000 0.19162  0.70440  0.32447  Biso   1.000  C
  C130     1.0000 0.28650  0.44673  0.29824  Biso   1.000  C
  H130     1.0000 0.34282  0.48590  0.33501  Biso   1.000  H
  H131     1.0000 0.24130  0.45328  0.33520  Biso   1.000  H
  H132     1.0000 0.51410  0.85688  0.33501  Biso   1.000  H
  H133     1.0000 0.54672  0.78800  0.33520  Biso   1.000  H
  C131     1.0000 0.55331  0.83982  0.29824  Biso   1.000  C
  H134     1.0000 0.14307  0.65719  0.33501  Biso   1.000  H
  H135     1.0000 0.21197  0.75869  0.33520  Biso   1.000  H
  C132     1.0000 0.16021  0.71348  0.29824  Biso   1.000  C
  H136     1.0000 0.27227  0.38648  0.30110  Biso   1.000  H
  H137     1.0000 0.34102  0.47793  0.28770  Biso   1.000  H
  H138     1.0000 0.23982  0.44751  0.28749  Biso   1.000  H
  H139     1.0000 0.61348  0.88581  0.30110  Biso   1.000  H
  H140     1.0000 0.52209  0.86311  0.28770  Biso   1.000  H
  H141     1.0000 0.55251  0.79228  0.28749  Biso   1.000  H
  H142     1.0000 0.11418  0.72769  0.30110  Biso   1.000  H
  H143     1.0000 0.13690  0.65900  0.28770  Biso   1.000  H
  H144     1.0000 0.20771  0.76018  0.28749  Biso   1.000  H
  C133     1.0000 0.21998  0.17317  0.63157  Biso   1.000  C
  C134     1.0000 0.17948  0.14171  0.65779  Biso   1.000  C
  H145     1.0000 0.28015  0.21915  0.63442  Biso   1.000  H
  H146     1.0000 0.18877  0.19645  0.62103  Biso   1.000  H
  H147     1.0000 0.21918  0.12563  0.62084  Biso   1.000  H
  C135     1.0000 0.08657  0.06855  0.65586  Biso   1.000  C
  H148     1.0000 0.18077  0.19022  0.66833  Biso   1.000  H
  H149     1.0000 0.21339  0.12135  0.66852  Biso   1.000  H
  C136     1.0000 0.01868  0.08645  0.65548  Biso   1.000  C
  C137     1.0000 0.06778  0.98132  0.65548  Biso   1.000  C
  C138     1.0000 0.03775  0.17952  0.65525  Biso   1.000  C
  C139     1.0000 0.93145  0.01803  0.65586  Biso   1.000  C
  C140     1.0000 0.98198  0.91342  0.65586  Biso   1.000  C
  C141     1.0000 0.14176  0.96225  0.65525  Biso   1.000  C
  H150     1.0000 0.09316  0.21643  0.64524  Biso   1.000  H
  N13      1.0000 0.04354  0.21111  0.68299  Biso   1.000  N
  H151     1.0000 0.99128  0.18296  0.64492  Biso   1.000  H
  C142     1.0000 0.91354  0.93223  0.65548  Biso   1.000  C
  C143     1.0000 0.85829  0.03775  0.65779  Biso   1.000  C
  C144     1.0000 0.96228  0.82054  0.65779  Biso   1.000  C
  H152     1.0000 0.19170  0.00876  0.64492  Biso   1.000  H
  H153     1.0000 0.12325  0.90680  0.64524  Biso   1.000  H
  N14      1.0000 0.16755  0.95642  0.68299  Biso   1.000  N
  C145     1.0000 0.05947  0.29296  0.68805  Biso   1.000  C
  H154     1.0000 0.03670  0.17686  0.69722  Biso   1.000  H
  C146     1.0000 0.82048  0.85822  0.65525  Biso   1.000  C
  H155     1.0000 0.80975  0.99053  0.66833  Biso   1.000  H
  H156     1.0000 0.87869  0.09203  0.66852  Biso   1.000  H
  C147     1.0000 0.82688  0.04683  0.63157  Biso   1.000  C
  H157     1.0000 0.90797  0.78662  0.66852  Biso   1.000  H
  C148     1.0000 0.95314  0.78001  0.63157  Biso   1.000  C
  H158     1.0000 0.00949  0.81925  0.66833  Biso   1.000  H
  C149     1.0000 0.23346  0.94053  0.68805  Biso   1.000  C
  H159     1.0000 0.14018  0.96336  0.69722  Biso   1.000  H
  C150     1.0000 0.06755  0.32292  0.71555  Biso   1.000  C
  C151     1.0000 0.06275  0.34724  0.66659  Biso   1.000  C
  H160     1.0000 0.78356  0.87671  0.64524  Biso   1.000  H
  H161     1.0000 0.81706  0.80835  0.64492  Biso   1.000  H
  N15      1.0000 0.78887  0.83241  0.68299  Biso   1.000  N
  H162     1.0000 0.80358  0.99235  0.62103  Biso   1.000  H
  H163     1.0000 0.78085  0.06103  0.63442  Biso   1.000  H
  H164     1.0000 0.87438  0.09352  0.62084  Biso   1.000  H
  H165     1.0000 0.93899  0.71982  0.63442  Biso   1.000  H
  H166     1.0000 0.90649  0.78085  0.62084  Biso   1.000  H
  H167     1.0000 0.00766  0.81120  0.62103  Biso   1.000  H
  C152     1.0000 0.25536  0.93242  0.71555  Biso   1.000  C
  C153     1.0000 0.28444  0.93722  0.66659  Biso   1.000  C
  C154     1.0000 0.07895  0.40211  0.72072  Biso   1.000  C
  S13      1.0000 0.06339  0.25463  0.74411  Biso   1.000  S
  C155     1.0000 0.07253  0.42701  0.67178  Biso   1.000  C
  H168     1.0000 0.05820  0.32837  0.64763  Biso   1.000  H
  C156     1.0000 0.70706  0.76652  0.68805  Biso   1.000  C
  H169     1.0000 0.82321  0.85985  0.69722  Biso   1.000  H
  C157     1.0000 0.32317  0.92101  0.72072  Biso   1.000  C
  S14      1.0000 0.19125  0.93664  0.74411  Biso   1.000  S
  C158     1.0000 0.35447  0.92743  0.67178  Biso   1.000  C
  H170     1.0000 0.27017  0.94182  0.64763  Biso   1.000  H
  H171     1.0000 0.08837  0.42364  0.73932  Biso   1.000  H
  C159     1.0000 0.07727  0.45335  0.69855  Biso   1.000  C
  S15      1.0000 0.93659  0.19120  0.75587  Biso   1.000  S
  H172     1.0000 0.07584  0.46353  0.65664  Biso   1.000  H
  C160     1.0000 0.67706  0.74460  0.71555  Biso   1.000  C
  C161     1.0000 0.65276  0.71554  0.66659  Biso   1.000  C
  H173     1.0000 0.33527  0.91160  0.73932  Biso   1.000  H
  C162     1.0000 0.37606  0.92276  0.69855  Biso   1.000  C
  S16      1.0000 0.25461  0.06336  0.75587  Biso   1.000  S
  H174     1.0000 0.38764  0.92412  0.65664  Biso   1.000  H
  H175     1.0000 0.07970  0.50685  0.70243  Biso   1.000  H
  C163     1.0000 0.93243  0.25534  0.78445  Biso   1.000  C
  C164     1.0000 0.59785  0.67682  0.72072  Biso   1.000  C
  S17      1.0000 0.74539  0.80880  0.74411  Biso   1.000  S
  C165     1.0000 0.57297  0.64550  0.67178  Biso   1.000  C
  H176     1.0000 0.67163  0.72981  0.64763  Biso   1.000  H
  H177     1.0000 0.42715  0.92036  0.70243  Biso   1.000  H
  C166     1.0000 0.32294  0.06758  0.78445  Biso   1.000  C
  C167     1.0000 0.92103  0.32318  0.77928  Biso   1.000  C
  C168     1.0000 0.94054  0.23348  0.81195  Biso   1.000  C
  H178     1.0000 0.57634  0.66469  0.73932  Biso   1.000  H
  C169     1.0000 0.54667  0.62390  0.69855  Biso   1.000  C
  S18      1.0000 0.80877  0.74537  0.75587  Biso   1.000  S
  H179     1.0000 0.53646  0.61235  0.65664  Biso   1.000  H
  C170     1.0000 0.40217  0.07899  0.77928  Biso   1.000  C
  C171     1.0000 0.29294  0.05947  0.81195  Biso   1.000  C
  H180     1.0000 0.91161  0.33524  0.76066  Biso   1.000  H
  C172     1.0000 0.92277  0.37610  0.80145  Biso   1.000  C
  C173     1.0000 0.93722  0.28446  0.83339  Biso   1.000  C
  N16      1.0000 0.95646  0.16759  0.81701  Biso   1.000  N
  H181     1.0000 0.49315  0.57279  0.70243  Biso   1.000  H
  C174     1.0000 0.74463  0.67708  0.78445  Biso   1.000  C
  H182     1.0000 0.42366  0.08840  0.76066  Biso   1.000  H
  C175     1.0000 0.45330  0.07724  0.80145  Biso   1.000  C
  C176     1.0000 0.34722  0.06278  0.83339  Biso   1.000  C
  N17      1.0000 0.21113  0.04358  0.81701  Biso   1.000  N
  H183     1.0000 0.92032  0.42714  0.79757  Biso   1.000  H
  C177     1.0000 0.92744  0.35444  0.82820  Biso   1.000  C
  H184     1.0000 0.94188  0.27019  0.85237  Biso   1.000  H
  C178     1.0000 0.96226  0.14178  0.84473  Biso   1.000  C
  H185     1.0000 0.96336  0.14015  0.80275  Biso   1.000  H
  C179     1.0000 0.67681  0.59783  0.77928  Biso   1.000  C
  C180     1.0000 0.76652  0.70704  0.81195  Biso   1.000  C
  H186     1.0000 0.50685  0.07964  0.79757  Biso   1.000  H
  C181     1.0000 0.42704  0.07257  0.82820  Biso   1.000  C
  H187     1.0000 0.32835  0.05818  0.85237  Biso   1.000  H
  C182     1.0000 0.17951  0.03775  0.84473  Biso   1.000  C
  H188     1.0000 0.17683  0.03664  0.80275  Biso   1.000  H
  H189     1.0000 0.92411  0.38765  0.84336  Biso   1.000  H
  H190     1.0000 0.00871  0.19165  0.85506  Biso   1.000  H
  H191     1.0000 0.90685  0.12329  0.85476  Biso   1.000  H
  C183     1.0000 0.98137  0.06777  0.84452  Biso   1.000  C
  H192     1.0000 0.66472  0.57636  0.76066  Biso   1.000  H
  C184     1.0000 0.62392  0.54665  0.80145  Biso   1.000  C
  C185     1.0000 0.71556  0.65276  0.83339  Biso   1.000  C
  N18      1.0000 0.83241  0.78883  0.81701  Biso   1.000  N
  H193     1.0000 0.46352  0.07588  0.84336  Biso   1.000  H
  H194     1.0000 0.21645  0.09320  0.85476  Biso   1.000  H
  C186     1.0000 0.08646  0.01868  0.84452  Biso   1.000  C
  H195     1.0000 0.18294  0.99124  0.85506  Biso   1.000  H
  C187     1.0000 0.06857  0.08658  0.84414  Biso   1.000  C
  C188     1.0000 0.91342  0.98197  0.84414  Biso   1.000  C
  H196     1.0000 0.57285  0.49315  0.79757  Biso   1.000  H
  C189     1.0000 0.64557  0.57299  0.82820  Biso   1.000  C
  H197     1.0000 0.72983  0.67163  0.85237  Biso   1.000  H
  C190     1.0000 0.85823  0.82048  0.84473  Biso   1.000  C
  H198     1.0000 0.85984  0.82314  0.80275  Biso   1.000  H
  C191     1.0000 0.01802  0.93145  0.84414  Biso   1.000  C
  C192     1.0000 0.14174  0.17946  0.84219  Biso   1.000  C
  C193     1.0000 0.93223  0.91355  0.84452  Biso   1.000  C
  C194     1.0000 0.82054  0.96225  0.84219  Biso   1.000  C
  H199     1.0000 0.61232  0.53647  0.84336  Biso   1.000  H
  H200     1.0000 0.87673  0.78357  0.85476  Biso   1.000  H
  H201     1.0000 0.80832  0.81704  0.85506  Biso   1.000  H
  C195     1.0000 0.03772  0.85829  0.84219  Biso   1.000  C
  H202     1.0000 0.19024  0.18075  0.83167  Biso   1.000  H
  H203     1.0000 0.12135  0.21338  0.83146  Biso   1.000  H
  C196     1.0000 0.17313  0.21999  0.86841  Biso   1.000  C
  H204     1.0000 0.78666  0.90797  0.83146  Biso   1.000  H
  C197     1.0000 0.78006  0.95317  0.86841  Biso   1.000  C
  H205     1.0000 0.81927  0.00947  0.83167  Biso   1.000  H
  H206     1.0000 0.99054  0.80978  0.83167  Biso   1.000  H
  H207     1.0000 0.09205  0.87865  0.83146  Biso   1.000  H
  C198     1.0000 0.04681  0.82683  0.86841  Biso   1.000  C
  H208     1.0000 0.21912  0.28018  0.86556  Biso   1.000  H
  H209     1.0000 0.19645  0.18880  0.87895  Biso   1.000  H
  H210     1.0000 0.12564  0.21915  0.87916  Biso   1.000  H
  H211     1.0000 0.71982  0.93897  0.86556  Biso   1.000  H
  H212     1.0000 0.78086  0.90648  0.87916  Biso   1.000  H
  H213     1.0000 0.81123  0.00765  0.87895  Biso   1.000  H
  H214     1.0000 0.99232  0.80355  0.87895  Biso   1.000  H
  H215     1.0000 0.06101  0.78085  0.86556  Biso   1.000  H
  H216     1.0000 0.09356  0.87437  0.87916  Biso   1.000  H
  C199     1.0000 0.04686  0.21999  0.36843  Biso   1.000  C
  C200     1.0000 0.03772  0.17946  0.34219  Biso   1.000  C
  H217     1.0000 0.06106  0.28018  0.36556  Biso   1.000  H
  H218     1.0000 0.09351  0.21915  0.37916  Biso   1.000  H
  H219     1.0000 0.99234  0.18880  0.37897  Biso   1.000  H
  C201     1.0000 0.01802  0.08658  0.34414  Biso   1.000  C
  H220     1.0000 0.09203  0.21338  0.33146  Biso   1.000  H
  H221     1.0000 0.99051  0.18075  0.33167  Biso   1.000  H
  C202     1.0000 0.08646  0.06777  0.34452  Biso   1.000  C
  C203     1.0000 0.93222  0.01868  0.34452  Biso   1.000  C
  C204     1.0000 0.17952  0.14178  0.34473  Biso   1.000  C
  C205     1.0000 0.06855  0.98197  0.34414  Biso   1.000  C
  C206     1.0000 0.91343  0.93145  0.34414  Biso   1.000  C
  C207     1.0000 0.85824  0.03775  0.34473  Biso   1.000  C
  N19      1.0000 0.21113  0.16759  0.31701  Biso   1.000  N
  H222     1.0000 0.21644  0.12329  0.35476  Biso   1.000  H
  H223     1.0000 0.18294  0.19165  0.35506  Biso   1.000  H
  C208     1.0000 0.98132  0.91355  0.34452  Biso   1.000  C
  C209     1.0000 0.14171  0.96225  0.34219  Biso   1.000  C
  C210     1.0000 0.82057  0.85829  0.34219  Biso   1.000  C
  H224     1.0000 0.80830  0.99124  0.35506  Biso   1.000  H
  H225     1.0000 0.87675  0.09320  0.35476  Biso   1.000  H
  N20      1.0000 0.83245  0.04358  0.31701  Biso   1.000  N
  C211     1.0000 0.29294  0.23348  0.31195  Biso   1.000  C
  H226     1.0000 0.17685  0.14015  0.30275  Biso   1.000  H
  C212     1.0000 0.96225  0.82048  0.34473  Biso   1.000  C
  H227     1.0000 0.19025  0.00947  0.33167  Biso   1.000  H
  H228     1.0000 0.12131  0.90797  0.33146  Biso   1.000  H
  C213     1.0000 0.17312  0.95317  0.36843  Biso   1.000  C
  H229     1.0000 0.81923  0.80978  0.33167  Biso   1.000  H
  H230     1.0000 0.78661  0.87865  0.33146  Biso   1.000  H
  C214     1.0000 0.78002  0.82683  0.36843  Biso   1.000  C
  C215     1.0000 0.76654  0.05947  0.31195  Biso   1.000  C
  H231     1.0000 0.85982  0.03664  0.30275  Biso   1.000  H
  C216     1.0000 0.32291  0.25534  0.28445  Biso   1.000  C
  C217     1.0000 0.34724  0.28446  0.33339  Biso   1.000  C
  H232     1.0000 0.90684  0.78357  0.35476  Biso   1.000  H
  N21      1.0000 0.95642  0.78883  0.31701  Biso   1.000  N
  H233     1.0000 0.00872  0.81704  0.35506  Biso   1.000  H
  H234     1.0000 0.19642  0.00765  0.37897  Biso   1.000  H
  H235     1.0000 0.21915  0.93897  0.36556  Biso   1.000  H
  H236     1.0000 0.12562  0.90648  0.37916  Biso   1.000  H
  H237     1.0000 0.71985  0.78085  0.36556  Biso   1.000  H
  H238     1.0000 0.81123  0.80355  0.37897  Biso   1.000  H
  H239     1.0000 0.78082  0.87437  0.37916  Biso   1.000  H
  C218     1.0000 0.74464  0.06758  0.28445  Biso   1.000  C
  C219     1.0000 0.71556  0.06278  0.33339  Biso   1.000  C
  S19      1.0000 0.25461  0.19120  0.25587  Biso   1.000  S
  C220     1.0000 0.40215  0.32318  0.27928  Biso   1.000  C
  C221     1.0000 0.42700  0.35444  0.32822  Biso   1.000  C
  H240     1.0000 0.32837  0.27019  0.35237  Biso   1.000  H
  C222     1.0000 0.94053  0.70704  0.31195  Biso   1.000  C
  H241     1.0000 0.96330  0.82314  0.30275  Biso   1.000  H
  C223     1.0000 0.67688  0.07899  0.27928  Biso   1.000  C
  S20      1.0000 0.80875  0.06336  0.25587  Biso   1.000  S
  C224     1.0000 0.64553  0.07257  0.32822  Biso   1.000  C
  H242     1.0000 0.72983  0.05818  0.35237  Biso   1.000  H
  S21      1.0000 0.19123  0.25463  0.24413  Biso   1.000  S
  H243     1.0000 0.42363  0.33524  0.26066  Biso   1.000  H
  C225     1.0000 0.45333  0.37610  0.30145  Biso   1.000  C
  H244     1.0000 0.46354  0.38765  0.34336  Biso   1.000  H
  C226     1.0000 0.93245  0.67708  0.28445  Biso   1.000  C
  C227     1.0000 0.93725  0.65276  0.33339  Biso   1.000  C
  H245     1.0000 0.66473  0.08840  0.26066  Biso   1.000  H
  C228     1.0000 0.62394  0.07724  0.30145  Biso   1.000  C
  S22      1.0000 0.74539  0.93664  0.24413  Biso   1.000  S
  H246     1.0000 0.61236  0.07588  0.34336  Biso   1.000  H
  C229     1.0000 0.25537  0.32292  0.21555  Biso   1.000  C
  H247     1.0000 0.50682  0.42714  0.29757  Biso   1.000  H
  C230     1.0000 0.92102  0.59783  0.27928  Biso   1.000  C
  S23      1.0000 0.93661  0.74537  0.25587  Biso   1.000  S
  C231     1.0000 0.92747  0.57299  0.32822  Biso   1.000  C
  H248     1.0000 0.94180  0.67163  0.35237  Biso   1.000  H
  H249     1.0000 0.57285  0.07964  0.29757  Biso   1.000  H
  C232     1.0000 0.67706  0.93242  0.21555  Biso   1.000  C
  C233     1.0000 0.32316  0.40211  0.22072  Biso   1.000  C
  C234     1.0000 0.23348  0.29296  0.18805  Biso   1.000  C
  H250     1.0000 0.91163  0.57636  0.26066  Biso   1.000  H
  C235     1.0000 0.92273  0.54665  0.30145  Biso   1.000  C
  S24      1.0000 0.06341  0.80880  0.24413  Biso   1.000  S
  H251     1.0000 0.92416  0.53647  0.34336  Biso   1.000  H
  C236     1.0000 0.70706  0.94053  0.18805  Biso   1.000  C
  C237     1.0000 0.59783  0.92101  0.22072  Biso   1.000  C
  H252     1.0000 0.33528  0.42364  0.23932  Biso   1.000  H
  C238     1.0000 0.37608  0.45335  0.19855  Biso   1.000  C
  C239     1.0000 0.28449  0.34724  0.16661  Biso   1.000  C
  N22      1.0000 0.16756  0.21111  0.18299  Biso   1.000  N
  H253     1.0000 0.92036  0.49315  0.29757  Biso   1.000  H
  C240     1.0000 0.06754  0.74460  0.21555  Biso   1.000  C
  N23      1.0000 0.78887  0.95642  0.18299  Biso   1.000  N
  C241     1.0000 0.65278  0.93722  0.16661  Biso   1.000  C
  H254     1.0000 0.57634  0.91160  0.23932  Biso   1.000  H
  C242     1.0000 0.54670  0.92276  0.19855  Biso   1.000  C
  H255     1.0000 0.42715  0.50685  0.20243  Biso   1.000  H
  C243     1.0000 0.35449  0.42701  0.17178  Biso   1.000  C
  H256     1.0000 0.27017  0.32837  0.14763  Biso   1.000  H
  C244     1.0000 0.14177  0.17952  0.15527  Biso   1.000  C
  H257     1.0000 0.14016  0.17686  0.19722  Biso   1.000  H
  C245     1.0000 0.05946  0.76652  0.18805  Biso   1.000  C
  C246     1.0000 0.07897  0.67682  0.22072  Biso   1.000  C
  C247     1.0000 0.82049  0.96225  0.15527  Biso   1.000  C
  H258     1.0000 0.82317  0.96336  0.19722  Biso   1.000  H
  C248     1.0000 0.57296  0.92743  0.17178  Biso   1.000  C
  H259     1.0000 0.67165  0.94182  0.14763  Biso   1.000  H
  H260     1.0000 0.49320  0.92036  0.20243  Biso   1.000  H
  H261     1.0000 0.38768  0.46353  0.15664  Biso   1.000  H
  H262     1.0000 0.12327  0.21643  0.14524  Biso   1.000  H
  H263     1.0000 0.19168  0.18296  0.14494  Biso   1.000  H
  C249     1.0000 0.06777  0.08645  0.15548  Biso   1.000  C
  N24      1.0000 0.04354  0.83241  0.18299  Biso   1.000  N
  C250     1.0000 0.06278  0.71554  0.16661  Biso   1.000  C
  H264     1.0000 0.08836  0.66469  0.23932  Biso   1.000  H
  C251     1.0000 0.07723  0.62390  0.19855  Biso   1.000  C
  C252     1.0000 0.91354  0.98132  0.15548  Biso   1.000  C
  H265     1.0000 0.78355  0.90680  0.14524  Biso   1.000  H
  H266     1.0000 0.81706  0.00876  0.14494  Biso   1.000  H
  H267     1.0000 0.53648  0.92412  0.15664  Biso   1.000  H
  C253     1.0000 0.08658  0.01803  0.15586  Biso   1.000  C
  C254     1.0000 0.98198  0.06855  0.15586  Biso   1.000  C
  C255     1.0000 0.03774  0.85822  0.15527  Biso   1.000  C
  H268     1.0000 0.03664  0.85985  0.19722  Biso   1.000  H
  C256     1.0000 0.07252  0.64550  0.17178  Biso   1.000  C
  H269     1.0000 0.05818  0.72981  0.14763  Biso   1.000  H
  H270     1.0000 0.07964  0.57279  0.20243  Biso   1.000  H
  C257     1.0000 0.93149  0.91342  0.15586  Biso   1.000  C
  C258     1.0000 0.17946  0.03775  0.15779  Biso   1.000  C
  C259     1.0000 0.01869  0.93223  0.15548  Biso   1.000  C
  C260     1.0000 0.96228  0.14171  0.15779  Biso   1.000  C
  H271     1.0000 0.99129  0.80835  0.14494  Biso   1.000  H
  H272     1.0000 0.09315  0.87671  0.14524  Biso   1.000  H
  H273     1.0000 0.07589  0.61235  0.15664  Biso   1.000  H
  C261     1.0000 0.85826  0.82054  0.15779  Biso   1.000  C
  H274     1.0000 0.21339  0.09203  0.16854  Biso   1.000  H
  C262     1.0000 0.21994  0.04683  0.13157  Biso   1.000  C
  H275     1.0000 0.18079  0.99053  0.16833  Biso   1.000  H
  H276     1.0000 0.00946  0.19022  0.16833  Biso   1.000  H
  H277     1.0000 0.90795  0.12135  0.16854  Biso   1.000  H
  C263     1.0000 0.95319  0.17317  0.13157  Biso   1.000  C
  H278     1.0000 0.80976  0.81925  0.16833  Biso   1.000  H
  H279     1.0000 0.87865  0.78662  0.16854  Biso   1.000  H
  C264     1.0000 0.82687  0.78001  0.13157  Biso   1.000  C
  H280     1.0000 0.28018  0.06103  0.13442  Biso   1.000  H
  H281     1.0000 0.21914  0.09352  0.12084  Biso   1.000  H
  H282     1.0000 0.18877  0.99235  0.12103  Biso   1.000  H
  H283     1.0000 0.00768  0.19645  0.12103  Biso   1.000  H
  H284     1.0000 0.93899  0.21915  0.13442  Biso   1.000  H
  H285     1.0000 0.90650  0.12563  0.12084  Biso   1.000  H
  H286     1.0000 0.78088  0.71982  0.13442  Biso   1.000  H
  H287     1.0000 0.80355  0.81120  0.12103  Biso   1.000  H
  H288     1.0000 0.87436  0.78085  0.12084  Biso   1.000  H
  C265     1.0000 0.44674  0.28653  0.20176  Biso   1.000  C
  C266     1.0000 0.48723  0.29561  0.17553  Biso   1.000  C
  H289     1.0000 0.38650  0.27233  0.19890  Biso   1.000  H
  H290     1.0000 0.47791  0.34101  0.21230  Biso   1.000  H
  H291     1.0000 0.44751  0.23977  0.21249  Biso   1.000  H
  C267     1.0000 0.58010  0.31533  0.17747  Biso   1.000  C
  H292     1.0000 0.48589  0.34283  0.16499  Biso   1.000  H
  H293     1.0000 0.45334  0.24133  0.16480  Biso   1.000  H
  C268     1.0000 0.64800  0.40114  0.17784  Biso   1.000  C
  C269     1.0000 0.59891  0.24691  0.17784  Biso   1.000  C
  C270     1.0000 0.62894  0.47514  0.17808  Biso   1.000  C
  C271     1.0000 0.73521  0.41988  0.17747  Biso   1.000  C
  C272     1.0000 0.52488  0.15377  0.17808  Biso   1.000  C
  C273     1.0000 0.68470  0.26481  0.17747  Biso   1.000  C
  H294     1.0000 0.57350  0.45659  0.18809  Biso   1.000  H
  H295     1.0000 0.67539  0.52501  0.18841  Biso   1.000  H
  N25      1.0000 0.62311  0.50088  0.15036  Biso   1.000  N
  C274     1.0000 0.75310  0.35197  0.17784  Biso   1.000  C
  C275     1.0000 0.80842  0.51282  0.17553  Biso   1.000  C
  H296     1.0000 0.54338  0.11687  0.18809  Biso   1.000  H
  H297     1.0000 0.47500  0.15040  0.18841  Biso   1.000  H
  N26      1.0000 0.49909  0.12219  0.15036  Biso   1.000  N
  C276     1.0000 0.70442  0.19159  0.17553  Biso   1.000  C
  C277     1.0000 0.60719  0.56678  0.14528  Biso   1.000  C
  H298     1.0000 0.63004  0.47352  0.13610  Biso   1.000  H
  C278     1.0000 0.84619  0.37111  0.17808  Biso   1.000  C
  H299     1.0000 0.85692  0.51412  0.16499  Biso   1.000  H
  H300     1.0000 0.78803  0.54674  0.16480  Biso   1.000  H
  C279     1.0000 0.83978  0.55329  0.20176  Biso   1.000  C
  C280     1.0000 0.43320  0.04041  0.14528  Biso   1.000  C
  H301     1.0000 0.52652  0.15650  0.13610  Biso   1.000  H
  H302     1.0000 0.65719  0.14307  0.16499  Biso   1.000  H
  H303     1.0000 0.75873  0.21202  0.16480  Biso   1.000  H
  C281     1.0000 0.71349  0.16019  0.20176  Biso   1.000  C
  C282     1.0000 0.59911  0.58870  0.11777  Biso   1.000  C
  C283     1.0000 0.60390  0.61782  0.16674  Biso   1.000  C
  H304     1.0000 0.88310  0.42649  0.18809  Biso   1.000  H
  H305     1.0000 0.84962  0.32461  0.18841  Biso   1.000  H
  N27      1.0000 0.87778  0.37688  0.15036  Biso   1.000  N
  H306     1.0000 0.88582  0.61348  0.19890  Biso   1.000  H
  H307     1.0000 0.86310  0.52209  0.21230  Biso   1.000  H
  H308     1.0000 0.79232  0.55251  0.21249  Biso   1.000  H
  C284     1.0000 0.41128  0.01038  0.11777  Biso   1.000  C
  C285     1.0000 0.38219  0.98612  0.16674  Biso   1.000  C
  H309     1.0000 0.72769  0.11421  0.19890  Biso   1.000  H
  H310     1.0000 0.65900  0.13691  0.21230  Biso   1.000  H
  H311     1.0000 0.76024  0.20773  0.21249  Biso   1.000  H
  C286     1.0000 0.58771  0.65654  0.11261  Biso   1.000  C
  S25      1.0000 0.60327  0.52456  0.08922  Biso   1.000  S
  C287     1.0000 0.59412  0.68780  0.16155  Biso   1.000  C
  H312     1.0000 0.60847  0.60349  0.18570  Biso   1.000  H
  C288     1.0000 0.95962  0.39283  0.14528  Biso   1.000  C
  H313     1.0000 0.84351  0.37000  0.13610  Biso   1.000  H
  S26      1.0000 0.47545  0.07874  0.08922  Biso   1.000  S
  C289     1.0000 0.34349  0.93119  0.11261  Biso   1.000  C
  H314     1.0000 0.39651  0.00499  0.18570  Biso   1.000  H
  C290     1.0000 0.31216  0.90628  0.16155  Biso   1.000  C
  H315     1.0000 0.57829  0.66860  0.09400  Biso   1.000  H
  C291     1.0000 0.58942  0.70940  0.13478  Biso   1.000  C
  S27      1.0000 0.73004  0.58792  0.07746  Biso   1.000  S
  H316     1.0000 0.59079  0.72101  0.17669  Biso   1.000  H
  C292     1.0000 0.98959  0.40088  0.11777  Biso   1.000  C
  C293     1.0000 0.01387  0.39608  0.16674  Biso   1.000  C
  S28      1.0000 0.41204  0.14210  0.07746  Biso   1.000  S
  H317     1.0000 0.33140  0.90972  0.09400  Biso   1.000  H
  C294     1.0000 0.29060  0.88002  0.13478  Biso   1.000  C
  H318     1.0000 0.27896  0.86977  0.17669  Biso   1.000  H
  H319     1.0000 0.58700  0.76050  0.13089  Biso   1.000  H
  C295     1.0000 0.73423  0.65628  0.04888  Biso   1.000  C
  S29      1.0000 0.92129  0.39673  0.08922  Biso   1.000  S
  C296     1.0000 0.06882  0.41229  0.11261  Biso   1.000  C
  H320     1.0000 0.99499  0.39147  0.18570  Biso   1.000  H
  C297     1.0000 0.09372  0.40594  0.16155  Biso   1.000  C
  C298     1.0000 0.34374  0.07796  0.04888  Biso   1.000  C
  H321     1.0000 0.23953  0.82651  0.13089  Biso   1.000  H
  C299     1.0000 0.74563  0.73547  0.05405  Biso   1.000  C
  C300     1.0000 0.72612  0.62625  0.02140  Biso   1.000  C
  S30      1.0000 0.85789  0.26993  0.07746  Biso   1.000  S
  H322     1.0000 0.09031  0.42170  0.09400  Biso   1.000  H
  C301     1.0000 0.11998  0.41060  0.13478  Biso   1.000  C
  H323     1.0000 0.13017  0.40918  0.17669  Biso   1.000  H
  C302     1.0000 0.26453  0.01018  0.05405  Biso   1.000  C
  C303     1.0000 0.37374  0.09988  0.02140  Biso   1.000  C
  H324     1.0000 0.75505  0.75700  0.07267  Biso   1.000  H
  C304     1.0000 0.74395  0.78671  0.03187  Biso   1.000  C
  N28      1.0000 0.71023  0.54447  0.01631  Biso   1.000  N
  C305     1.0000 0.72948  0.68060  0.99994  Biso   1.000  C
  C306     1.0000 0.92204  0.26578  0.04888  Biso   1.000  C
  H325     1.0000 0.17348  0.41300  0.13089  Biso   1.000  H
  H326     1.0000 0.24302  0.99805  0.07267  Biso   1.000  H
  C307     1.0000 0.21335  0.95726  0.03187  Biso   1.000  C
  N29      1.0000 0.45556  0.16577  0.01631  Biso   1.000  N
  C308     1.0000 0.31941  0.04884  0.99994  Biso   1.000  C
  H327     1.0000 0.74635  0.84015  0.03576  Biso   1.000  H
  C309     1.0000 0.73926  0.76037  0.00512  Biso   1.000  C
  H328     1.0000 0.70335  0.51016  0.03057  Biso   1.000  H
  C310     1.0000 0.70443  0.51288  0.98860  Biso   1.000  C
  H329     1.0000 0.72484  0.66166  0.98096  Biso   1.000  H
  C311     1.0000 0.98985  0.25437  0.05405  Biso   1.000  C
  C312     1.0000 0.90014  0.27389  0.02140  Biso   1.000  C
  H330     1.0000 0.15983  0.90615  0.03576  Biso   1.000  H
  C313     1.0000 0.23965  0.97886  0.00512  Biso   1.000  C
  H331     1.0000 0.48985  0.19314  0.03057  Biso   1.000  H
  C314     1.0000 0.48717  0.19159  0.98860  Biso   1.000  C
  H332     1.0000 0.33831  0.06317  0.98096  Biso   1.000  H
  H333     1.0000 0.74252  0.79689  0.98996  Biso   1.000  H
  H334     1.0000 0.75984  0.54979  0.97856  Biso   1.000  H
  H335     1.0000 0.65793  0.51626  0.97827  Biso   1.000  H
  C315     1.0000 0.68533  0.41975  0.98881  Biso   1.000  C
  H336     1.0000 0.00195  0.24496  0.07267  Biso   1.000  H
  C316     1.0000 0.04271  0.25605  0.03187  Biso   1.000  C
  N30      1.0000 0.83423  0.28978  0.01631  Biso   1.000  N
  C317     1.0000 0.95117  0.27058  0.99994  Biso   1.000  C
  H337     1.0000 0.20311  0.94565  0.98996  Biso   1.000  H
  H338     1.0000 0.45024  0.21007  0.97856  Biso   1.000  H
  H339     1.0000 0.48371  0.14165  0.97827  Biso   1.000  H
  C318     1.0000 0.58022  0.26559  0.98881  Biso   1.000  C
  C319     1.0000 0.75322  0.40185  0.98919  Biso   1.000  C
  C320     1.0000 0.59813  0.35139  0.98919  Biso   1.000  C
  H340     1.0000 0.09380  0.25365  0.03576  Biso   1.000  H
  C321     1.0000 0.02115  0.26079  0.00512  Biso   1.000  C
  H341     1.0000 0.80683  0.29665  0.03057  Biso   1.000  H
  C322     1.0000 0.80841  0.29555  0.98860  Biso   1.000  C
  H342     1.0000 0.93685  0.27519  0.98096  Biso   1.000  H
  C323     1.0000 0.64866  0.24678  0.98919  Biso   1.000  C
  C324     1.0000 0.73446  0.31468  0.98881  Biso   1.000  C
  C325     1.0000 0.84616  0.47507  0.99114  Biso   1.000  C
  C326     1.0000 0.52494  0.37104  0.99114  Biso   1.000  C
  H343     1.0000 0.05432  0.25748  0.98996  Biso   1.000  H
  H344     1.0000 0.78993  0.24016  0.97856  Biso   1.000  H
  H345     1.0000 0.85834  0.34205  0.97827  Biso   1.000  H
  C327     1.0000 0.62893  0.15384  0.99114  Biso   1.000  C
  H346     1.0000 0.84745  0.52358  0.00166  Biso   1.000  H
  H347     1.0000 0.88004  0.45464  0.00187  Biso   1.000  H
  C328     1.0000 0.88663  0.50646  0.96489  Biso   1.000  C
  H348     1.0000 0.47643  0.32389  0.00166  Biso   1.000  H
  H349     1.0000 0.54537  0.42539  0.00187  Biso   1.000  H
  C329     1.0000 0.49356  0.38019  0.96489  Biso   1.000  C
  H350     1.0000 0.67614  0.15254  0.00166  Biso   1.000  H
  H351     1.0000 0.57465  0.11998  0.00187  Biso   1.000  H
  C330     1.0000 0.61982  0.11337  0.96489  Biso   1.000  C
  H352     1.0000 0.94680  0.55245  0.96777  Biso   1.000  H
  H353     1.0000 0.85541  0.52975  0.95435  Biso   1.000  H
  H354     1.0000 0.88586  0.45899  0.95416  Biso   1.000  H
  H355     1.0000 0.44753  0.39439  0.96777  Biso   1.000  H
  H356     1.0000 0.47022  0.32564  0.95435  Biso   1.000  H
  H357     1.0000 0.54106  0.42688  0.95416  Biso   1.000  H
  H358     1.0000 0.60567  0.05318  0.96777  Biso   1.000  H
  H359     1.0000 0.67434  0.14456  0.95435  Biso   1.000  H
  H360     1.0000 0.57314  0.11415  0.95416  Biso   1.000  H
  C331     1.0000 0.16023  0.44673  0.79824  Biso   1.000  C
  C332     1.0000 0.19159  0.48720  0.82447  Biso   1.000  C
  H361     1.0000 0.11421  0.38648  0.80110  Biso   1.000  H
  H362     1.0000 0.13691  0.47793  0.78770  Biso   1.000  H
  H363     1.0000 0.20769  0.44751  0.78749  Biso   1.000  H
  C333     1.0000 0.26476  0.58007  0.82253  Biso   1.000  C
  H364     1.0000 0.14309  0.48590  0.83499  Biso   1.000  H
  H365     1.0000 0.21198  0.45328  0.83520  Biso   1.000  H
  C334     1.0000 0.24687  0.64798  0.82213  Biso   1.000  C
  C335     1.0000 0.35201  0.59888  0.82213  Biso   1.000  C
  C336     1.0000 0.15382  0.62891  0.82192  Biso   1.000  C
  C337     1.0000 0.31531  0.73521  0.82253  Biso   1.000  C
  C338     1.0000 0.37107  0.52488  0.82192  Biso   1.000  C
  C339     1.0000 0.41991  0.68469  0.82253  Biso   1.000  C
  H366     1.0000 0.11691  0.57352  0.81189  Biso   1.000  H
  H367     1.0000 0.15039  0.67541  0.81159  Biso   1.000  H
  N31      1.0000 0.12223  0.62314  0.84964  Biso   1.000  N
  C340     1.0000 0.40110  0.75311  0.82213  Biso   1.000  C
  C341     1.0000 0.29559  0.80843  0.82447  Biso   1.000  C
  H368     1.0000 0.42651  0.54343  0.81189  Biso   1.000  H
  H369     1.0000 0.32462  0.47501  0.81159  Biso   1.000  H
  N32      1.0000 0.37690  0.49913  0.84964  Biso   1.000  N
  C342     1.0000 0.51278  0.70440  0.82447  Biso   1.000  C
  C343     1.0000 0.04039  0.60718  0.85472  Biso   1.000  C
  H370     1.0000 0.15650  0.63001  0.86390  Biso   1.000  H
  C344     1.0000 0.47510  0.84618  0.82192  Biso   1.000  C
  H371     1.0000 0.34279  0.85688  0.83499  Biso   1.000  H
  H372     1.0000 0.24128  0.78800  0.83520  Biso   1.000  H
  C345     1.0000 0.28651  0.83982  0.79824  Biso   1.000  C
  C346     1.0000 0.39278  0.43317  0.85472  Biso   1.000  C
  H373     1.0000 0.37003  0.52650  0.86390  Biso   1.000  H
  H374     1.0000 0.51411  0.65719  0.83499  Biso   1.000  H
  H375     1.0000 0.54672  0.75869  0.83520  Biso   1.000  H
  C347     1.0000 0.55327  0.71348  0.79824  Biso   1.000  C
  C348     1.0000 0.01039  0.59908  0.88221  Biso   1.000  C
  C349     1.0000 0.98611  0.60388  0.83326  Biso   1.000  C
  H376     1.0000 0.45659  0.88308  0.81189  Biso   1.000  H
  H377     1.0000 0.52501  0.84962  0.81159  Biso   1.000  H
  N33      1.0000 0.50092  0.87783  0.84964  Biso   1.000  N
  H378     1.0000 0.27232  0.88581  0.80110  Biso   1.000  H
  H379     1.0000 0.34101  0.86311  0.78770  Biso   1.000  H
  H380     1.0000 0.23977  0.79228  0.78749  Biso   1.000  H
  C350     1.0000 0.40090  0.41132  0.88221  Biso   1.000  C
  C351     1.0000 0.39611  0.38220  0.83326  Biso   1.000  C
  H381     1.0000 0.61351  0.72769  0.80110  Biso   1.000  H
  H382     1.0000 0.52210  0.65900  0.78770  Biso   1.000  H
  H383     1.0000 0.55247  0.76018  0.78749  Biso   1.000  H
  S31      1.0000 0.07872  0.60329  0.91078  Biso   1.000  S
  C352     1.0000 0.93125  0.58773  0.88739  Biso   1.000  C
  H384     1.0000 0.00498  0.60848  0.81430  Biso   1.000  H
  C353     1.0000 0.90629  0.59408  0.83845  Biso   1.000  C
  C354     1.0000 0.56681  0.95961  0.85472  Biso   1.000  C
  H385     1.0000 0.47349  0.84352  0.86390  Biso   1.000  H
  C355     1.0000 0.41230  0.34348  0.88739  Biso   1.000  C
  S32      1.0000 0.39674  0.47546  0.91078  Biso   1.000  S
  C356     1.0000 0.40588  0.31222  0.83845  Biso   1.000  C
  H386     1.0000 0.39154  0.39653  0.81430  Biso   1.000  H
  S33      1.0000 0.14212  0.73009  0.92254  Biso   1.000  S
  H387     1.0000 0.90970  0.57832  0.90600  Biso   1.000  H
  C357     1.0000 0.88002  0.58941  0.86520  Biso   1.000  C
  H388     1.0000 0.86981  0.59078  0.82329  Biso   1.000  H
  C358     1.0000 0.58873  0.98964  0.88221  Biso   1.000  C
  C359     1.0000 0.61782  0.01390  0.83326  Biso   1.000  C
  H389     1.0000 0.42172  0.33142  0.90600  Biso   1.000  H
  C360     1.0000 0.41059  0.29062  0.86520  Biso   1.000  C
  S34      1.0000 0.26997  0.41210  0.92254  Biso   1.000  S
  H390     1.0000 0.40922  0.27901  0.82329  Biso   1.000  H
  C361     1.0000 0.07797  0.73424  0.95110  Biso   1.000  C
  H391     1.0000 0.82653  0.58701  0.86908  Biso   1.000  H
  S35      1.0000 0.52456  0.92128  0.91078  Biso   1.000  S
  C362     1.0000 0.65652  0.06883  0.88739  Biso   1.000  C
  H392     1.0000 0.60350  0.99502  0.81430  Biso   1.000  H
  C363     1.0000 0.68785  0.09374  0.83845  Biso   1.000  C
  H393     1.0000 0.41301  0.23951  0.86908  Biso   1.000  H
  C364     1.0000 0.26578  0.34374  0.95110  Biso   1.000  C
  C365     1.0000 0.01015  0.74565  0.94593  Biso   1.000  C
  C366     1.0000 0.09987  0.72613  0.97860  Biso   1.000  C
  S36      1.0000 0.58797  0.85792  0.92254  Biso   1.000  S
  H394     1.0000 0.66860  0.09030  0.90600  Biso   1.000  H
  C367     1.0000 0.70941  0.12000  0.86520  Biso   1.000  C
  H395     1.0000 0.72104  0.13025  0.82329  Biso   1.000  H
  C368     1.0000 0.25438  0.26455  0.94593  Biso   1.000  C
  C369     1.0000 0.27389  0.37377  0.97860  Biso   1.000  C
  H396     1.0000 0.99806  0.75506  0.92733  Biso   1.000  H
  C370     1.0000 0.95730  0.74397  0.96813  Biso   1.000  C
  N34      1.0000 0.16578  0.71024  0.98369  Biso   1.000  N
  C371     1.0000 0.04889  0.72944  0.00006  Biso   1.000  C
  C372     1.0000 0.65627  0.92206  0.95110  Biso   1.000  C
  H397     1.0000 0.76054  0.17351  0.86908  Biso   1.000  H
  H398     1.0000 0.24496  0.24302  0.92733  Biso   1.000  H
  C373     1.0000 0.25606  0.21331  0.96813  Biso   1.000  C
  N35      1.0000 0.28978  0.45555  0.98369  Biso   1.000  N
  C374     1.0000 0.27058  0.31942  0.00006  Biso   1.000  C
  H399     1.0000 0.90621  0.74637  0.96422  Biso   1.000  H
  C375     1.0000 0.97886  0.73923  0.99488  Biso   1.000  C
  H400     1.0000 0.19318  0.70337  0.96943  Biso   1.000  H
  C376     1.0000 0.19160  0.70447  0.01140  Biso   1.000  C
  H401     1.0000 0.06316  0.72483  0.01902  Biso   1.000  H
  C377     1.0000 0.73548  0.98984  0.94593  Biso   1.000  C
  C378     1.0000 0.62627  0.90014  0.97860  Biso   1.000  C
  H402     1.0000 0.25363  0.15981  0.96422  Biso   1.000  H
  C379     1.0000 0.26080  0.23964  0.99488  Biso   1.000  C
  H403     1.0000 0.29666  0.48986  0.96943  Biso   1.000  H
  C380     1.0000 0.29558  0.48714  0.01140  Biso   1.000  C
  H404     1.0000 0.27516  0.33836  0.01902  Biso   1.000  H
  H405     1.0000 0.94569  0.74254  0.01004  Biso   1.000  H
  H406     1.0000 0.21008  0.75986  0.02144  Biso   1.000  H
  H407     1.0000 0.14167  0.65797  0.02173  Biso   1.000  H
  C381     1.0000 0.26555  0.68534  0.01119  Biso   1.000  C
  H408     1.0000 0.75699  0.00196  0.92733  Biso   1.000  H
  C382     1.0000 0.78671  0.04276  0.96813  Biso   1.000  C
  N36      1.0000 0.54445  0.83425  0.98369  Biso   1.000  N
  C383     1.0000 0.68057  0.95112  0.00006  Biso   1.000  C
  H409     1.0000 0.25748  0.20313  0.01004  Biso   1.000  H
  H410     1.0000 0.24017  0.45023  0.02144  Biso   1.000  H
  H411     1.0000 0.34208  0.48376  0.02173  Biso   1.000  H
  C384     1.0000 0.31468  0.58027  0.01119  Biso   1.000  C
  C385     1.0000 0.24679  0.59817  0.01081  Biso   1.000  C
  C386     1.0000 0.35134  0.75324  0.01081  Biso   1.000  C
  H412     1.0000 0.84018  0.09387  0.96422  Biso   1.000  H
  C387     1.0000 0.76041  0.02116  0.99488  Biso   1.000  C
  H413     1.0000 0.51018  0.80681  0.96943  Biso   1.000  H
  C388     1.0000 0.51284  0.80843  0.01140  Biso   1.000  C
  H414     1.0000 0.66170  0.93685  0.01902  Biso   1.000  H
  C389     1.0000 0.40188  0.64863  0.01081  Biso   1.000  C
  C390     1.0000 0.15385  0.52495  0.00886  Biso   1.000  C
  C391     1.0000 0.41979  0.73443  0.01119  Biso   1.000  C
  C392     1.0000 0.37105  0.84611  0.00886  Biso   1.000  C
  H415     1.0000 0.79690  0.05437  0.01004  Biso   1.000  H
  H416     1.0000 0.54977  0.78995  0.02144  Biso   1.000  H
  H417     1.0000 0.51630  0.85837  0.02173  Biso   1.000  H
  C393     1.0000 0.47504  0.62891  0.00886  Biso   1.000  C
  H418     1.0000 0.15256  0.47643  0.99832  Biso   1.000  H
  H419     1.0000 0.11994  0.54531  0.99813  Biso   1.000  H
  C394     1.0000 0.11338  0.49356  0.03509  Biso   1.000  C
  H420     1.0000 0.32384  0.84741  0.99832  Biso   1.000  H
  H421     1.0000 0.42536  0.88003  0.99813  Biso   1.000  H
  C395     1.0000 0.38019  0.88665  0.03509  Biso   1.000  C
  H422     1.0000 0.52358  0.67613  0.99832  Biso   1.000  H
  H423     1.0000 0.45469  0.57463  0.99813  Biso   1.000  H
  C396     1.0000 0.50644  0.61983  0.03509  Biso   1.000  C
  H424     1.0000 0.05317  0.44751  0.03223  Biso   1.000  H
  H425     1.0000 0.14456  0.47021  0.04563  Biso   1.000  H
  H426     1.0000 0.11415  0.54103  0.04584  Biso   1.000  H
  H427     1.0000 0.39439  0.94684  0.03223  Biso   1.000  H
  H428     1.0000 0.32567  0.85545  0.04563  Biso   1.000  H
  H429     1.0000 0.42687  0.88587  0.04584  Biso   1.000  H
  H430     1.0000 0.55248  0.60563  0.03223  Biso   1.000  H
  H431     1.0000 0.52975  0.67431  0.04563  Biso   1.000  H
  H432     1.0000 0.45894  0.57313  0.04584  Biso   1.000  H
