data_image0
_cell_length_a       17.804
_cell_length_b       17.804
_cell_length_c       47.626
_cell_angle_alpha    90
_cell_angle_beta     90
_cell_angle_gamma    120

_symmetry_space_group_name_H-M    "P 1"
_symmetry_int_tables_number       1

loop_
  _symmetry_equiv_pos_as_xyz
  'x, y, z'

loop_
  _atom_site_label
  _atom_site_occupancy
  _atom_site_fract_x
  _atom_site_fract_y
  _atom_site_fract_z
  _atom_site_thermal_displace_type
  _atom_site_B_iso_or_equiv
  _atom_site_type_symbol
  C1       1.0000 0.47507  0.84611  0.50886  Biso   1.000  C
  C2       1.0000 0.40190  0.75324  0.51079  Biso   1.000  C
  H1       1.0000 0.52357  0.84741  0.49832  Biso   1.000  H
  H2       1.0000 0.45468  0.88003  0.49813  Biso   1.000  H
  C3       1.0000 0.50646  0.88665  0.53509  Biso   1.000  C
  C4       1.0000 0.41979  0.68534  0.51117  Biso   1.000  C
  C5       1.0000 0.31464  0.73443  0.51117  Biso   1.000  C
  H3       1.0000 0.55245  0.94684  0.53223  Biso   1.000  H
  H4       1.0000 0.52978  0.85545  0.54563  Biso   1.000  H
  H5       1.0000 0.45900  0.88587  0.54584  Biso   1.000  H
  C6       1.0000 0.51287  0.70447  0.51140  Biso   1.000  C
  C7       1.0000 0.35138  0.59817  0.51079  Biso   1.000  C
  C8       1.0000 0.24675  0.64863  0.51079  Biso   1.000  C
  C9       1.0000 0.29559  0.80843  0.51140  Biso   1.000  C
  N1       1.0000 0.54446  0.71024  0.48369  Biso   1.000  N
  H6       1.0000 0.54978  0.75986  0.52144  Biso   1.000  H
  H7       1.0000 0.51630  0.65797  0.52173  Biso   1.000  H
  C10      1.0000 0.26559  0.58027  0.51117  Biso   1.000  C
  C11      1.0000 0.37110  0.52495  0.50886  Biso   1.000  C
  C12      1.0000 0.15387  0.62891  0.50886  Biso   1.000  C
  N2       1.0000 0.28979  0.83425  0.48369  Biso   1.000  N
  H8       1.0000 0.24018  0.78995  0.52144  Biso   1.000  H
  H9       1.0000 0.34207  0.85837  0.52173  Biso   1.000  H
  C13      1.0000 0.62626  0.72613  0.47860  Biso   1.000  C
  H10      1.0000 0.51019  0.70337  0.46943  Biso   1.000  H
  C14      1.0000 0.19156  0.48714  0.51140  Biso   1.000  C
  H11      1.0000 0.32387  0.47643  0.49832  Biso   1.000  H
  H12      1.0000 0.42537  0.54531  0.49813  Biso   1.000  H
  C15      1.0000 0.38017  0.49356  0.53509  Biso   1.000  C
  H13      1.0000 0.15254  0.67613  0.49832  Biso   1.000  H
  H14      1.0000 0.11994  0.57463  0.49813  Biso   1.000  H
  C16      1.0000 0.11339  0.61983  0.53509  Biso   1.000  C
  C17      1.0000 0.27387  0.90014  0.47860  Biso   1.000  C
  H15      1.0000 0.29663  0.80681  0.46943  Biso   1.000  H
  C18      1.0000 0.65627  0.73424  0.45112  Biso   1.000  C
  C19      1.0000 0.68055  0.72944  0.50006  Biso   1.000  C
  N3       1.0000 0.16577  0.45555  0.48369  Biso   1.000  N
  H16      1.0000 0.21006  0.45023  0.52144  Biso   1.000  H
  H17      1.0000 0.14168  0.48376  0.52173  Biso   1.000  H
  H18      1.0000 0.39433  0.44751  0.53223  Biso   1.000  H
  H19      1.0000 0.32565  0.47021  0.54563  Biso   1.000  H
  H20      1.0000 0.42688  0.54103  0.54584  Biso   1.000  H
  H21      1.0000 0.05315  0.60563  0.53223  Biso   1.000  H
  H22      1.0000 0.14456  0.67431  0.54563  Biso   1.000  H
  H23      1.0000 0.11419  0.57313  0.54584  Biso   1.000  H
  C20      1.0000 0.26579  0.92206  0.45112  Biso   1.000  C
  C21      1.0000 0.27055  0.95112  0.50006  Biso   1.000  C
  S1       1.0000 0.58797  0.73009  0.42254  Biso   1.000  S
  C22      1.0000 0.73550  0.74565  0.44593  Biso   1.000  C
  C23      1.0000 0.76037  0.73923  0.49488  Biso   1.000  C
  H24      1.0000 0.66168  0.72483  0.51902  Biso   1.000  H
  C24      1.0000 0.09988  0.37377  0.47860  Biso   1.000  C
  H25      1.0000 0.19320  0.48986  0.46943  Biso   1.000  H
  S2       1.0000 0.26995  0.85792  0.42254  Biso   1.000  S
  C25      1.0000 0.25435  0.98984  0.44593  Biso   1.000  C
  C26      1.0000 0.26081  0.02116  0.49488  Biso   1.000  C
  H26      1.0000 0.27515  0.93685  0.51902  Biso   1.000  H
  S3       1.0000 0.52457  0.60329  0.41078  Biso   1.000  S
  H27      1.0000 0.75699  0.75506  0.42733  Biso   1.000  H
  C27      1.0000 0.78667  0.74397  0.46813  Biso   1.000  C
  H28      1.0000 0.79685  0.74254  0.51004  Biso   1.000  H
  C28      1.0000 0.07796  0.34374  0.45112  Biso   1.000  C
  C29      1.0000 0.04883  0.31942  0.50006  Biso   1.000  C
  S4       1.0000 0.39672  0.92128  0.41078  Biso   1.000  S
  H29      1.0000 0.24497  0.00196  0.42733  Biso   1.000  H
  C30      1.0000 0.25610  0.04276  0.46813  Biso   1.000  C
  H30      1.0000 0.25747  0.05437  0.51004  Biso   1.000  H
  C31      1.0000 0.58869  0.59908  0.38221  Biso   1.000  C
  H31      1.0000 0.84021  0.74637  0.46422  Biso   1.000  H
  S5       1.0000 0.14213  0.41210  0.42254  Biso   1.000  S
  C32      1.0000 0.01017  0.26455  0.44593  Biso   1.000  C
  C33      1.0000 0.97884  0.23964  0.49488  Biso   1.000  C
  H32      1.0000 0.06319  0.33836  0.51902  Biso   1.000  H
  C34      1.0000 0.40091  0.98964  0.38221  Biso   1.000  C
  H33      1.0000 0.25368  0.09387  0.46422  Biso   1.000  H
  C35      1.0000 0.56679  0.60718  0.35472  Biso   1.000  C
  C36      1.0000 0.65653  0.58773  0.38739  Biso   1.000  C
  S6       1.0000 0.07872  0.47546  0.41078  Biso   1.000  S
  H34      1.0000 0.99805  0.24302  0.42733  Biso   1.000  H
  C37      1.0000 0.95725  0.21331  0.46813  Biso   1.000  C
  H35      1.0000 0.94564  0.20313  0.51004  Biso   1.000  H
  C38      1.0000 0.39280  0.95961  0.35472  Biso   1.000  C
  C39      1.0000 0.41231  0.06883  0.38739  Biso   1.000  C
  N4       1.0000 0.50091  0.62314  0.34964  Biso   1.000  N
  C40      1.0000 0.61777  0.60388  0.33326  Biso   1.000  C
  H36      1.0000 0.66863  0.57832  0.40600  Biso   1.000  H
  C41      1.0000 0.70939  0.58941  0.36520  Biso   1.000  C
  C42      1.0000 0.01042  0.41132  0.38221  Biso   1.000  C
  H37      1.0000 0.90618  0.15981  0.46422  Biso   1.000  H
  N5       1.0000 0.37691  0.87783  0.34964  Biso   1.000  N
  C43      1.0000 0.39607  0.01390  0.33326  Biso   1.000  C
  H38      1.0000 0.42169  0.09030  0.40600  Biso   1.000  H
  C44      1.0000 0.41060  0.12000  0.36520  Biso   1.000  C
  C45      1.0000 0.47509  0.62891  0.32192  Biso   1.000  C
  H39      1.0000 0.47351  0.63001  0.36390  Biso   1.000  H
  C46      1.0000 0.68780  0.59408  0.33845  Biso   1.000  C
  H40      1.0000 0.60350  0.60848  0.31430  Biso   1.000  H
  H41      1.0000 0.76054  0.58701  0.36911  Biso   1.000  H
  C47      1.0000 0.04039  0.43317  0.35472  Biso   1.000  C
  C48      1.0000 0.93118  0.34348  0.38739  Biso   1.000  C
  C49      1.0000 0.37108  0.84618  0.32192  Biso   1.000  C
  H42      1.0000 0.37003  0.84352  0.36390  Biso   1.000  H
  H43      1.0000 0.39152  0.99502  0.31430  Biso   1.000  H
  C50      1.0000 0.40589  0.09374  0.33845  Biso   1.000  C
  H44      1.0000 0.41303  0.17351  0.36911  Biso   1.000  H
  C51      1.0000 0.40111  0.64798  0.32216  Biso   1.000  C
  H45      1.0000 0.45661  0.57352  0.31189  Biso   1.000  H
  H46      1.0000 0.52502  0.67541  0.31159  Biso   1.000  H
  H47      1.0000 0.72097  0.59078  0.32329  Biso   1.000  H
  N6       1.0000 0.12224  0.49913  0.34964  Biso   1.000  N
  C52      1.0000 0.98609  0.38220  0.33326  Biso   1.000  C
  H48      1.0000 0.90970  0.33142  0.40600  Biso   1.000  H
  C53      1.0000 0.88003  0.29062  0.36520  Biso   1.000  C
  C54      1.0000 0.35201  0.75311  0.32216  Biso   1.000  C
  H49      1.0000 0.42649  0.88308  0.31189  Biso   1.000  H
  H50      1.0000 0.32461  0.84962  0.31159  Biso   1.000  H
  H51      1.0000 0.40917  0.13018  0.32329  Biso   1.000  H
  C55      1.0000 0.31531  0.58007  0.32253  Biso   1.000  C
  C56      1.0000 0.41990  0.73521  0.32253  Biso   1.000  C
  C57      1.0000 0.15381  0.52488  0.32192  Biso   1.000  C
  H52      1.0000 0.15648  0.52650  0.36390  Biso   1.000  H
  H53      1.0000 0.00499  0.39653  0.31430  Biso   1.000  H
  C58      1.0000 0.90633  0.31222  0.33845  Biso   1.000  C
  H54      1.0000 0.82651  0.23951  0.36911  Biso   1.000  H
  C59      1.0000 0.26478  0.68469  0.32253  Biso   1.000  C
  C60      1.0000 0.29561  0.48720  0.32447  Biso   1.000  C
  C61      1.0000 0.24687  0.59888  0.32216  Biso   1.000  C
  C62      1.0000 0.51284  0.80843  0.32447  Biso   1.000  C
  H55      1.0000 0.11692  0.54343  0.31189  Biso   1.000  H
  H56      1.0000 0.15039  0.47501  0.31159  Biso   1.000  H
  H57      1.0000 0.86979  0.27901  0.32329  Biso   1.000  H
  C63      1.0000 0.19162  0.70440  0.32447  Biso   1.000  C
  C64      1.0000 0.28650  0.44673  0.29824  Biso   1.000  C
  H58      1.0000 0.34282  0.48590  0.33501  Biso   1.000  H
  H59      1.0000 0.24130  0.45328  0.33520  Biso   1.000  H
  H60      1.0000 0.51410  0.85688  0.33501  Biso   1.000  H
  H61      1.0000 0.54672  0.78800  0.33520  Biso   1.000  H
  C65      1.0000 0.55331  0.83982  0.29824  Biso   1.000  C
  H62      1.0000 0.14307  0.65719  0.33501  Biso   1.000  H
  H63      1.0000 0.21197  0.75869  0.33520  Biso   1.000  H
  C66      1.0000 0.16021  0.71348  0.29824  Biso   1.000  C
  H64      1.0000 0.27227  0.38648  0.30110  Biso   1.000  H
  H65      1.0000 0.34102  0.47793  0.28770  Biso   1.000  H
  H66      1.0000 0.23982  0.44751  0.28749  Biso   1.000  H
  H67      1.0000 0.61348  0.88581  0.30110  Biso   1.000  H
  H68      1.0000 0.52209  0.86311  0.28770  Biso   1.000  H
  H69      1.0000 0.55251  0.79228  0.28749  Biso   1.000  H
  H70      1.0000 0.11418  0.72769  0.30110  Biso   1.000  H
  H71      1.0000 0.13690  0.65900  0.28770  Biso   1.000  H
  H72      1.0000 0.20771  0.76018  0.28749  Biso   1.000  H
  C67      1.0000 0.61983  0.50646  0.46491  Biso   1.000  C
  C68      1.0000 0.62896  0.47507  0.49114  Biso   1.000  C
  H73      1.0000 0.60564  0.55245  0.46777  Biso   1.000  H
  H74      1.0000 0.67433  0.52975  0.45437  Biso   1.000  H
  H75      1.0000 0.57312  0.45899  0.45416  Biso   1.000  H
  C69      1.0000 0.64863  0.40185  0.48919  Biso   1.000  C
  H76      1.0000 0.67614  0.52358  0.50166  Biso   1.000  H
  H77      1.0000 0.57460  0.45464  0.50187  Biso   1.000  H
  C70      1.0000 0.73442  0.41975  0.48881  Biso   1.000  C
  C71      1.0000 0.58022  0.31468  0.48881  Biso   1.000  C
  C72      1.0000 0.80845  0.51288  0.48860  Biso   1.000  C
  C73      1.0000 0.75326  0.35139  0.48919  Biso   1.000  C
  C74      1.0000 0.48714  0.29555  0.48860  Biso   1.000  C
  C75      1.0000 0.59817  0.24678  0.48919  Biso   1.000  C
  H78      1.0000 0.78995  0.54979  0.47856  Biso   1.000  H
  H79      1.0000 0.85833  0.51626  0.47827  Biso   1.000  H
  N7       1.0000 0.83424  0.54447  0.51631  Biso   1.000  N
  C76      1.0000 0.68537  0.26559  0.48881  Biso   1.000  C
  C77      1.0000 0.84610  0.37104  0.49114  Biso   1.000  C
  H80      1.0000 0.45023  0.24016  0.47856  Biso   1.000  H
  H81      1.0000 0.48371  0.34205  0.47827  Biso   1.000  H
  N8       1.0000 0.45555  0.28978  0.51631  Biso   1.000  N
  C78      1.0000 0.52491  0.15384  0.49114  Biso   1.000  C
  C79      1.0000 0.90013  0.62625  0.52137  Biso   1.000  C
  H82      1.0000 0.80681  0.51016  0.53057  Biso   1.000  H
  C80      1.0000 0.70448  0.19159  0.48860  Biso   1.000  C
  H83      1.0000 0.84747  0.32389  0.50166  Biso   1.000  H
  H84      1.0000 0.88007  0.42539  0.50187  Biso   1.000  H
  C81      1.0000 0.88668  0.38019  0.46491  Biso   1.000  C
  C82      1.0000 0.37374  0.27389  0.52137  Biso   1.000  C
  H85      1.0000 0.48982  0.29665  0.53057  Biso   1.000  H
  H86      1.0000 0.47641  0.15254  0.50166  Biso   1.000  H
  H87      1.0000 0.54533  0.11998  0.50187  Biso   1.000  H
  C83      1.0000 0.49355  0.11337  0.46491  Biso   1.000  C
  C84      1.0000 0.92205  0.65628  0.54888  Biso   1.000  C
  C85      1.0000 0.95117  0.68060  0.49994  Biso   1.000  C
  H88      1.0000 0.75983  0.21007  0.47856  Biso   1.000  H
  H89      1.0000 0.65794  0.14165  0.47827  Biso   1.000  H
  N9       1.0000 0.71022  0.16577  0.51631  Biso   1.000  N
  H90      1.0000 0.94686  0.39439  0.46777  Biso   1.000  H
  H91      1.0000 0.85542  0.32564  0.45437  Biso   1.000  H
  H92      1.0000 0.88588  0.42688  0.45416  Biso   1.000  H
  C86      1.0000 0.34374  0.26578  0.54888  Biso   1.000  C
  C87      1.0000 0.31946  0.27058  0.49994  Biso   1.000  C
  H93      1.0000 0.44756  0.05318  0.46777  Biso   1.000  H
  H94      1.0000 0.47023  0.14456  0.45437  Biso   1.000  H
  H95      1.0000 0.54101  0.11415  0.45416  Biso   1.000  H
  C88      1.0000 0.98984  0.73547  0.55405  Biso   1.000  C
  S7       1.0000 0.85788  0.58792  0.57746  Biso   1.000  S
  H96      1.0000 0.93682  0.66166  0.48096  Biso   1.000  H
  C89      1.0000 0.02117  0.76037  0.50512  Biso   1.000  C
  C90      1.0000 0.72614  0.09988  0.52137  Biso   1.000  C
  H97      1.0000 0.70334  0.19314  0.53057  Biso   1.000  H
  C91      1.0000 0.26451  0.25437  0.55405  Biso   1.000  C
  S8       1.0000 0.41204  0.26993  0.57746  Biso   1.000  S
  C92      1.0000 0.23964  0.26079  0.50512  Biso   1.000  C
  H98      1.0000 0.33833  0.27519  0.48096  Biso   1.000  H
  H99      1.0000 0.00196  0.75700  0.57267  Biso   1.000  H
  C93      1.0000 0.04276  0.78671  0.53187  Biso   1.000  C
  S9       1.0000 0.92129  0.52456  0.58922  Biso   1.000  S
  H100     1.0000 0.05436  0.79689  0.48996  Biso   1.000  H
  C94      1.0000 0.73422  0.07796  0.54888  Biso   1.000  C
  C95      1.0000 0.72943  0.04884  0.49994  Biso   1.000  C
  H101     1.0000 0.24302  0.24496  0.57267  Biso   1.000  H
  C96      1.0000 0.21334  0.25605  0.53187  Biso   1.000  C
  S10      1.0000 0.47544  0.39673  0.58922  Biso   1.000  S
  H102     1.0000 0.20316  0.25748  0.48996  Biso   1.000  H
  H103     1.0000 0.09386  0.84015  0.53576  Biso   1.000  H
  C97      1.0000 0.98959  0.58870  0.61777  Biso   1.000  C
  C98      1.0000 0.74566  0.01018  0.55405  Biso   1.000  C
  S11      1.0000 0.73006  0.14210  0.57746  Biso   1.000  S
  H104     1.0000 0.72486  0.06317  0.48096  Biso   1.000  H
  C99      1.0000 0.73926  0.97886  0.50512  Biso   1.000  C
  H105     1.0000 0.15985  0.25365  0.53576  Biso   1.000  H
  C100     1.0000 0.41129  0.40088  0.61777  Biso   1.000  C
  C101     1.0000 0.95959  0.56678  0.64528  Biso   1.000  C
  C102     1.0000 0.06883  0.65654  0.61261  Biso   1.000  C
  H106     1.0000 0.75504  0.99805  0.57267  Biso   1.000  H
  C103     1.0000 0.74396  0.95726  0.53187  Biso   1.000  C
  S12      1.0000 0.60329  0.07874  0.58922  Biso   1.000  S
  H107     1.0000 0.74254  0.94565  0.48996  Biso   1.000  H
  C104     1.0000 0.34347  0.41229  0.61261  Biso   1.000  C
  C105     1.0000 0.43322  0.39283  0.64528  Biso   1.000  C
  N10      1.0000 0.87777  0.50088  0.65034  Biso   1.000  N
  C106     1.0000 0.01392  0.61782  0.66672  Biso   1.000  C
  H108     1.0000 0.09031  0.66860  0.59400  Biso   1.000  H
  C107     1.0000 0.12003  0.70940  0.63478  Biso   1.000  C
  H109     1.0000 0.74633  0.90615  0.53576  Biso   1.000  H
  C108     1.0000 0.59910  0.01038  0.61777  Biso   1.000  C
  H110     1.0000 0.33138  0.42170  0.59400  Biso   1.000  H
  C109     1.0000 0.29062  0.41060  0.63478  Biso   1.000  C
  C110     1.0000 0.38221  0.39608  0.66672  Biso   1.000  C
  N11      1.0000 0.49910  0.37688  0.65034  Biso   1.000  N
  C111     1.0000 0.84625  0.47514  0.67808  Biso   1.000  C
  H111     1.0000 0.84353  0.47352  0.63610  Biso   1.000  H
  H112     1.0000 0.99501  0.60349  0.68570  Biso   1.000  H
  C112     1.0000 0.09373  0.68780  0.66155  Biso   1.000  C
  H113     1.0000 0.17350  0.76050  0.63089  Biso   1.000  H
  C113     1.0000 0.60721  0.04041  0.64528  Biso   1.000  C
  C114     1.0000 0.58770  0.93119  0.61261  Biso   1.000  C
  H114     1.0000 0.23953  0.41300  0.63089  Biso   1.000  H
  C115     1.0000 0.31221  0.40594  0.66155  Biso   1.000  C
  H115     1.0000 0.39648  0.39147  0.68570  Biso   1.000  H
  C116     1.0000 0.52492  0.37111  0.67808  Biso   1.000  C
  H116     1.0000 0.52650  0.37000  0.63610  Biso   1.000  H
  H117     1.0000 0.88309  0.45659  0.68809  Biso   1.000  H
  H118     1.0000 0.84962  0.52501  0.68841  Biso   1.000  H
  C117     1.0000 0.75314  0.40114  0.67784  Biso   1.000  C
  H119     1.0000 0.13022  0.72101  0.67669  Biso   1.000  H
  N12      1.0000 0.62310  0.12219  0.65034  Biso   1.000  N
  C118     1.0000 0.60393  0.98612  0.66672  Biso   1.000  C
  H120     1.0000 0.57832  0.90972  0.59400  Biso   1.000  H
  C119     1.0000 0.58941  0.88002  0.63478  Biso   1.000  C
  H121     1.0000 0.27901  0.40918  0.67669  Biso   1.000  H
  H122     1.0000 0.54340  0.42649  0.68809  Biso   1.000  H
  H123     1.0000 0.47499  0.32461  0.68841  Biso   1.000  H
  C120     1.0000 0.59887  0.35197  0.67784  Biso   1.000  C
  C121     1.0000 0.73523  0.31533  0.67747  Biso   1.000  C
  C122     1.0000 0.68472  0.41988  0.67747  Biso   1.000  C
  C123     1.0000 0.62890  0.15377  0.67808  Biso   1.000  C
  H124     1.0000 0.62998  0.15650  0.63610  Biso   1.000  H
  H125     1.0000 0.60848  0.00499  0.68570  Biso   1.000  H
  C124     1.0000 0.59412  0.90628  0.66155  Biso   1.000  C
  H126     1.0000 0.58704  0.82651  0.63089  Biso   1.000  H
  C125     1.0000 0.58011  0.26481  0.67747  Biso   1.000  C
  C126     1.0000 0.64800  0.24691  0.67784  Biso   1.000  C
  C127     1.0000 0.80839  0.29561  0.67553  Biso   1.000  C
  C128     1.0000 0.70440  0.51282  0.67553  Biso   1.000  C
  H127     1.0000 0.57349  0.11687  0.68809  Biso   1.000  H
  H128     1.0000 0.67540  0.15040  0.68841  Biso   1.000  H
  H129     1.0000 0.59080  0.86977  0.67669  Biso   1.000  H
  C129     1.0000 0.48722  0.19159  0.67553  Biso   1.000  C
  H130     1.0000 0.85694  0.34283  0.66499  Biso   1.000  H
  H131     1.0000 0.78804  0.24133  0.66480  Biso   1.000  H
  C130     1.0000 0.83985  0.28653  0.70176  Biso   1.000  C
  H132     1.0000 0.65719  0.51412  0.66499  Biso   1.000  H
  H133     1.0000 0.75871  0.54674  0.66480  Biso   1.000  H
  C131     1.0000 0.71351  0.55329  0.70176  Biso   1.000  C
  H134     1.0000 0.48588  0.14307  0.66499  Biso   1.000  H
  H135     1.0000 0.45329  0.21202  0.66480  Biso   1.000  H
  C132     1.0000 0.44670  0.16019  0.70176  Biso   1.000  C
  H136     1.0000 0.88583  0.27233  0.69890  Biso   1.000  H
  H137     1.0000 0.86310  0.34101  0.71230  Biso   1.000  H
  H138     1.0000 0.79232  0.23977  0.71249  Biso   1.000  H
  H139     1.0000 0.72771  0.61348  0.69890  Biso   1.000  H
  H140     1.0000 0.65899  0.52209  0.71230  Biso   1.000  H
  H141     1.0000 0.76019  0.55251  0.71249  Biso   1.000  H
  H142     1.0000 0.38653  0.11421  0.69890  Biso   1.000  H
  H143     1.0000 0.47791  0.13691  0.71230  Biso   1.000  H
  H144     1.0000 0.44750  0.20773  0.71249  Biso   1.000  H
  C133     1.0000 0.82684  0.04684  0.63157  Biso   1.000  C
  C134     1.0000 0.85830  0.03776  0.65779  Biso   1.000  C
  H145     1.0000 0.80359  0.99237  0.62103  Biso   1.000  H
  H146     1.0000 0.78086  0.06105  0.63442  Biso   1.000  H
  H147     1.0000 0.87439  0.09354  0.62084  Biso   1.000  H
  H148     1.0000 0.87434  0.09354  0.62084  Biso   1.000  H
  C135     1.0000 0.93146  0.01805  0.65586  Biso   1.000  C
  H149     1.0000 0.80975  0.99055  0.66833  Biso   1.000  H
  H150     1.0000 0.80981  0.99055  0.66833  Biso   1.000  H
  H151     1.0000 0.87865  0.09205  0.66852  Biso   1.000  H
  C136     1.0000 0.82689  0.04684  0.63157  Biso   1.000  C
  H152     1.0000 0.87870  0.09205  0.66852  Biso   1.000  H
  C137     1.0000 0.91355  0.93224  0.65548  Biso   1.000  C
  C138     1.0000 0.91361  0.93224  0.65548  Biso   1.000  C
  C139     1.0000 0.01869  0.08647  0.65548  Biso   1.000  C
  C140     1.0000 0.82049  0.85824  0.65525  Biso   1.000  C
  C141     1.0000 0.82044  0.85824  0.65525  Biso   1.000  C
  C142     1.0000 0.98199  0.91344  0.65586  Biso   1.000  C
  C143     1.0000 0.98194  0.91344  0.65586  Biso   1.000  C
  C144     1.0000 0.08658  0.06857  0.65586  Biso   1.000  C
  C145     1.0000 0.03776  0.17954  0.65525  Biso   1.000  C
  N13      1.0000 0.78888  0.83243  0.68299  Biso   1.000  N
  H153     1.0000 0.78357  0.87673  0.64524  Biso   1.000  H
  H154     1.0000 0.81707  0.80837  0.64492  Biso   1.000  H
  C146     1.0000 0.96229  0.82056  0.65779  Biso   1.000  C
  C147     1.0000 0.06779  0.98134  0.65548  Biso   1.000  C
  C148     1.0000 0.17949  0.14173  0.65779  Biso   1.000  C
  C149     1.0000 0.17944  0.14173  0.65779  Biso   1.000  C
  H155     1.0000 0.99129  0.18298  0.64492  Biso   1.000  H
  H156     1.0000 0.09317  0.21644  0.64524  Biso   1.000  H
  N14      1.0000 0.04355  0.21113  0.68299  Biso   1.000  N
  C150     1.0000 0.70707  0.76654  0.68805  Biso   1.000  C
  H157     1.0000 0.82316  0.85986  0.69722  Biso   1.000  H
  H158     1.0000 0.82321  0.85986  0.69722  Biso   1.000  H
  H159     1.0000 0.90798  0.78664  0.66852  Biso   1.000  H
  C151     1.0000 0.95314  0.78003  0.63157  Biso   1.000  C
  C152     1.0000 0.95320  0.78003  0.63157  Biso   1.000  C
  H160     1.0000 0.00950  0.81926  0.66833  Biso   1.000  H
  C153     1.0000 0.14177  0.96227  0.65525  Biso   1.000  C
  H161     1.0000 0.18078  0.19024  0.66833  Biso   1.000  H
  H162     1.0000 0.21340  0.12136  0.66852  Biso   1.000  H
  C154     1.0000 0.21999  0.17318  0.63157  Biso   1.000  C
  C155     1.0000 0.21996  0.17312  0.63157  Biso   1.000  C
  C156     1.0000 0.05948  0.29297  0.68805  Biso   1.000  C
  H163     1.0000 0.03671  0.17688  0.69722  Biso   1.000  H
  H164     1.0000 0.03668  0.17682  0.69722  Biso   1.000  H
  C157     1.0000 0.65277  0.71556  0.66659  Biso   1.000  C
  C158     1.0000 0.67710  0.74468  0.71555  Biso   1.000  C
  C159     1.0000 0.67707  0.74461  0.71555  Biso   1.000  C
  H165     1.0000 0.93895  0.71984  0.63442  Biso   1.000  H
  H166     1.0000 0.90650  0.78087  0.62084  Biso   1.000  H
  H167     1.0000 0.93900  0.71984  0.63442  Biso   1.000  H
  H168     1.0000 0.00767  0.81122  0.62103  Biso   1.000  H
  H169     1.0000 0.12326  0.90682  0.64524  Biso   1.000  H
  N15      1.0000 0.16756  0.95644  0.68299  Biso   1.000  N
  H170     1.0000 0.19170  0.00877  0.64492  Biso   1.000  H
  H171     1.0000 0.28016  0.21917  0.63442  Biso   1.000  H
  H172     1.0000 0.18878  0.19647  0.62103  Biso   1.000  H
  H173     1.0000 0.21919  0.12564  0.62084  Biso   1.000  H
  H174     1.0000 0.28022  0.21917  0.63442  Biso   1.000  H
  C160     1.0000 0.06756  0.32294  0.71555  Biso   1.000  C
  C161     1.0000 0.06276  0.34726  0.66659  Biso   1.000  C
  C162     1.0000 0.06281  0.34726  0.66659  Biso   1.000  C
  C163     1.0000 0.57293  0.64551  0.67178  Biso   1.000  C
  C164     1.0000 0.57301  0.64558  0.67178  Biso   1.000  C
  C165     1.0000 0.57298  0.64551  0.67178  Biso   1.000  C
  H175     1.0000 0.67164  0.72983  0.64763  Biso   1.000  H
  H176     1.0000 0.67170  0.72983  0.64763  Biso   1.000  H
  C166     1.0000 0.59786  0.67684  0.72072  Biso   1.000  C
  S13      1.0000 0.74540  0.80882  0.74411  Biso   1.000  S
  C167     1.0000 0.23347  0.94055  0.68805  Biso   1.000  C
  H177     1.0000 0.14019  0.96337  0.69722  Biso   1.000  H
  C168     1.0000 0.07896  0.40213  0.72072  Biso   1.000  C
  S14      1.0000 0.06340  0.25464  0.74411  Biso   1.000  S
  C169     1.0000 0.07254  0.42703  0.67178  Biso   1.000  C
  H178     1.0000 0.05821  0.32839  0.64763  Biso   1.000  H
  H179     1.0000 0.05817  0.32832  0.64763  Biso   1.000  H
  C170     1.0000 0.07259  0.42703  0.67178  Biso   1.000  C
  C171     1.0000 0.54668  0.62392  0.69855  Biso   1.000  C
  H180     1.0000 0.53647  0.61237  0.65664  Biso   1.000  H
  C172     1.0000 0.54662  0.62392  0.69855  Biso   1.000  C
  H181     1.0000 0.57638  0.66478  0.73932  Biso   1.000  H
  H182     1.0000 0.57635  0.66471  0.73932  Biso   1.000  H
  S15      1.0000 0.80878  0.74539  0.75587  Biso   1.000  S
  C173     1.0000 0.25537  0.93244  0.71555  Biso   1.000  C
  C174     1.0000 0.28445  0.93724  0.66659  Biso   1.000  C
  C175     1.0000 0.28450  0.93724  0.66659  Biso   1.000  C
  H183     1.0000 0.08837  0.42366  0.73932  Biso   1.000  H
  C176     1.0000 0.07728  0.45336  0.69855  Biso   1.000  C
  S16      1.0000 0.93660  0.19121  0.75587  Biso   1.000  S
  H184     1.0000 0.07585  0.46355  0.65664  Biso   1.000  H
  H185     1.0000 0.07591  0.46355  0.65664  Biso   1.000  H
  H186     1.0000 0.49319  0.57288  0.70243  Biso   1.000  H
  H187     1.0000 0.49316  0.57281  0.70243  Biso   1.000  H
  C177     1.0000 0.74464  0.67710  0.78445  Biso   1.000  C
  C178     1.0000 0.32318  0.92102  0.72072  Biso   1.000  C
  S17      1.0000 0.19125  0.93665  0.74411  Biso   1.000  S
  C179     1.0000 0.35448  0.92744  0.67178  Biso   1.000  C
  H188     1.0000 0.27018  0.94184  0.64763  Biso   1.000  H
  H189     1.0000 0.07971  0.50687  0.70243  Biso   1.000  H
  H190     1.0000 0.07965  0.50687  0.70243  Biso   1.000  H
  C180     1.0000 0.93244  0.25536  0.78445  Biso   1.000  C
  C181     1.0000 0.67685  0.59791  0.77928  Biso   1.000  C
  C182     1.0000 0.76653  0.70706  0.81195  Biso   1.000  C
  C183     1.0000 0.67682  0.59784  0.77928  Biso   1.000  C
  H191     1.0000 0.33527  0.91162  0.73932  Biso   1.000  H
  C184     1.0000 0.37607  0.92277  0.69855  Biso   1.000  C
  C185     1.0000 0.37613  0.92277  0.69855  Biso   1.000  C
  S18      1.0000 0.25462  0.06338  0.75587  Biso   1.000  S
  H192     1.0000 0.38765  0.92414  0.65664  Biso   1.000  H
  H193     1.0000 0.38770  0.92414  0.65664  Biso   1.000  H
  C186     1.0000 0.94055  0.23350  0.81195  Biso   1.000  C
  C187     1.0000 0.92103  0.32320  0.77928  Biso   1.000  C
  H194     1.0000 0.66473  0.57638  0.76066  Biso   1.000  H
  C188     1.0000 0.62393  0.54667  0.80145  Biso   1.000  C
  C189     1.0000 0.71552  0.65278  0.83339  Biso   1.000  C
  N16      1.0000 0.83245  0.78891  0.81701  Biso   1.000  N
  N17      1.0000 0.83241  0.78885  0.81701  Biso   1.000  N
  C190     1.0000 0.71557  0.65278  0.83339  Biso   1.000  C
  H195     1.0000 0.42722  0.92037  0.70243  Biso   1.000  H
  H196     1.0000 0.42716  0.92037  0.70243  Biso   1.000  H
  C191     1.0000 0.32295  0.06760  0.78445  Biso   1.000  C
  N18      1.0000 0.95647  0.16761  0.81701  Biso   1.000  N
  C192     1.0000 0.93723  0.28448  0.83339  Biso   1.000  C
  H197     1.0000 0.91162  0.33526  0.76066  Biso   1.000  H
  C193     1.0000 0.92278  0.37612  0.80145  Biso   1.000  C
  C194     1.0000 0.92269  0.37605  0.80145  Biso   1.000  C
  C195     1.0000 0.92275  0.37605  0.80145  Biso   1.000  C
  H198     1.0000 0.57286  0.49317  0.79757  Biso   1.000  H
  C196     1.0000 0.64552  0.57300  0.82820  Biso   1.000  C
  H199     1.0000 0.57280  0.49317  0.79757  Biso   1.000  H
  C197     1.0000 0.64558  0.57300  0.82820  Biso   1.000  C
  H200     1.0000 0.72984  0.67165  0.85237  Biso   1.000  H
  C198     1.0000 0.85824  0.82050  0.84473  Biso   1.000  C
  H201     1.0000 0.85985  0.82316  0.80275  Biso   1.000  H
  C199     1.0000 0.29295  0.05949  0.81195  Biso   1.000  C
  C200     1.0000 0.40218  0.07901  0.77928  Biso   1.000  C
  C201     1.0000 0.40215  0.07895  0.77928  Biso   1.000  C
  C202     1.0000 0.96227  0.14179  0.84473  Biso   1.000  C
  C203     1.0000 0.96221  0.14179  0.84473  Biso   1.000  C
  H202     1.0000 0.96331  0.14017  0.80275  Biso   1.000  H
  H203     1.0000 0.96337  0.14017  0.80275  Biso   1.000  H
  C204     1.0000 0.92745  0.35446  0.82820  Biso   1.000  C
  H204     1.0000 0.94183  0.27021  0.85237  Biso   1.000  H
  C205     1.0000 0.92740  0.35446  0.82820  Biso   1.000  C
  H205     1.0000 0.94189  0.27021  0.85237  Biso   1.000  H
  H206     1.0000 0.92033  0.42716  0.79757  Biso   1.000  H
  H207     1.0000 0.61233  0.53649  0.84336  Biso   1.000  H
  H208     1.0000 0.61238  0.53649  0.84336  Biso   1.000  H
  H209     1.0000 0.87674  0.78359  0.85476  Biso   1.000  H
  H210     1.0000 0.80833  0.81706  0.85506  Biso   1.000  H
  C206     1.0000 0.93224  0.91357  0.84452  Biso   1.000  C
  N19      1.0000 0.21114  0.04360  0.81701  Biso   1.000  N
  C207     1.0000 0.34723  0.06280  0.83339  Biso   1.000  C
  C208     1.0000 0.34728  0.06280  0.83339  Biso   1.000  C
  H211     1.0000 0.42367  0.08842  0.76066  Biso   1.000  H
  C209     1.0000 0.45331  0.07726  0.80145  Biso   1.000  C
  H212     1.0000 0.42364  0.08835  0.76066  Biso   1.000  H
  C210     1.0000 0.45337  0.07726  0.80145  Biso   1.000  C
  C211     1.0000 0.98132  0.06779  0.84452  Biso   1.000  C
  C212     1.0000 0.98138  0.06779  0.84452  Biso   1.000  C
  H213     1.0000 0.90686  0.12331  0.85476  Biso   1.000  H
  H214     1.0000 0.00872  0.19167  0.85506  Biso   1.000  H
  H215     1.0000 0.92412  0.38766  0.84336  Biso   1.000  H
  C213     1.0000 0.91343  0.98199  0.84414  Biso   1.000  C
  C214     1.0000 0.01802  0.93147  0.84414  Biso   1.000  C
  C215     1.0000 0.17952  0.03776  0.84473  Biso   1.000  C
  H216     1.0000 0.17683  0.03666  0.80275  Biso   1.000  H
  C216     1.0000 0.42705  0.07259  0.82820  Biso   1.000  C
  H217     1.0000 0.32836  0.05819  0.85237  Biso   1.000  H
  H218     1.0000 0.50686  0.07966  0.79757  Biso   1.000  H
  H219     1.0000 0.50680  0.07966  0.79757  Biso   1.000  H
  C217     1.0000 0.06858  0.08660  0.84414  Biso   1.000  C
  C218     1.0000 0.06852  0.08660  0.84414  Biso   1.000  C
  C219     1.0000 0.82055  0.96227  0.84219  Biso   1.000  C
  C220     1.0000 0.03778  0.85831  0.84219  Biso   1.000  C
  C221     1.0000 0.03772  0.85831  0.84219  Biso   1.000  C
  C222     1.0000 0.08647  0.01870  0.84452  Biso   1.000  C
  H220     1.0000 0.18295  0.99126  0.85506  Biso   1.000  H
  H221     1.0000 0.21646  0.09322  0.85476  Biso   1.000  H
  H222     1.0000 0.21643  0.09315  0.85476  Biso   1.000  H
  H223     1.0000 0.46353  0.07590  0.84336  Biso   1.000  H
  H224     1.0000 0.46358  0.07590  0.84336  Biso   1.000  H
  C223     1.0000 0.14175  0.17948  0.84219  Biso   1.000  C
  H225     1.0000 0.78662  0.90799  0.83146  Biso   1.000  H
  C224     1.0000 0.78007  0.95319  0.86841  Biso   1.000  C
  C225     1.0000 0.78001  0.95319  0.86841  Biso   1.000  C
  H226     1.0000 0.78667  0.90799  0.83146  Biso   1.000  H
  H227     1.0000 0.81922  0.00949  0.83167  Biso   1.000  H
  H228     1.0000 0.81928  0.00949  0.83167  Biso   1.000  H
  H229     1.0000 0.99055  0.80980  0.83167  Biso   1.000  H
  H230     1.0000 0.09205  0.87867  0.83146  Biso   1.000  H
  C226     1.0000 0.04682  0.82685  0.86841  Biso   1.000  C
  H231     1.0000 0.19025  0.18077  0.83167  Biso   1.000  H
  H232     1.0000 0.12136  0.21340  0.83146  Biso   1.000  H
  C227     1.0000 0.17314  0.22001  0.86841  Biso   1.000  C
  C228     1.0000 0.17319  0.22001  0.86841  Biso   1.000  C
  H233     1.0000 0.71983  0.93899  0.86556  Biso   1.000  H
  H234     1.0000 0.78087  0.90650  0.87916  Biso   1.000  H
  H235     1.0000 0.78081  0.90650  0.87916  Biso   1.000  H
  H236     1.0000 0.81124  0.00767  0.87895  Biso   1.000  H
  H237     1.0000 0.99233  0.80357  0.87895  Biso   1.000  H
  H238     1.0000 0.06101  0.78087  0.86556  Biso   1.000  H
  H239     1.0000 0.09357  0.87439  0.87916  Biso   1.000  H
  H240     1.0000 0.06107  0.78087  0.86556  Biso   1.000  H
  H241     1.0000 0.21913  0.28020  0.86556  Biso   1.000  H
  H242     1.0000 0.19646  0.18881  0.87895  Biso   1.000  H
  H243     1.0000 0.12565  0.21917  0.87916  Biso   1.000  H
  H244     1.0000 0.19643  0.18875  0.87895  Biso   1.000  H
  H245     1.0000 0.21918  0.28020  0.86556  Biso   1.000  H
  C229     1.0000 0.82684  0.04684  0.63157  Biso   1.000  C
  C230     1.0000 0.85830  0.03776  0.65779  Biso   1.000  C
  H246     1.0000 0.80359  0.99237  0.62103  Biso   1.000  H
  H247     1.0000 0.78086  0.06105  0.63442  Biso   1.000  H
  H248     1.0000 0.87439  0.09354  0.62084  Biso   1.000  H
  H249     1.0000 0.87434  0.09354  0.62084  Biso   1.000  H
  C231     1.0000 0.93146  0.01805  0.65586  Biso   1.000  C
  H250     1.0000 0.80975  0.99055  0.66833  Biso   1.000  H
  H251     1.0000 0.80981  0.99055  0.66833  Biso   1.000  H
  H252     1.0000 0.87865  0.09205  0.66852  Biso   1.000  H
  C232     1.0000 0.82689  0.04684  0.63157  Biso   1.000  C
  H253     1.0000 0.87870  0.09205  0.66852  Biso   1.000  H
  C233     1.0000 0.91355  0.93224  0.65548  Biso   1.000  C
  C234     1.0000 0.91361  0.93224  0.65548  Biso   1.000  C
  C235     1.0000 0.01869  0.08647  0.65548  Biso   1.000  C
  C236     1.0000 0.82049  0.85824  0.65525  Biso   1.000  C
  C237     1.0000 0.82044  0.85824  0.65525  Biso   1.000  C
  C238     1.0000 0.98199  0.91344  0.65586  Biso   1.000  C
  C239     1.0000 0.98194  0.91344  0.65586  Biso   1.000  C
  C240     1.0000 0.08658  0.06857  0.65586  Biso   1.000  C
  C241     1.0000 0.03776  0.17954  0.65525  Biso   1.000  C
  N20      1.0000 0.78888  0.83243  0.68299  Biso   1.000  N
  H254     1.0000 0.78357  0.87673  0.64524  Biso   1.000  H
  H255     1.0000 0.81707  0.80837  0.64492  Biso   1.000  H
  C242     1.0000 0.96229  0.82056  0.65779  Biso   1.000  C
  C243     1.0000 0.06779  0.98134  0.65548  Biso   1.000  C
  C244     1.0000 0.17949  0.14173  0.65779  Biso   1.000  C
  C245     1.0000 0.17944  0.14173  0.65779  Biso   1.000  C
  H256     1.0000 0.99129  0.18298  0.64492  Biso   1.000  H
  H257     1.0000 0.09317  0.21644  0.64524  Biso   1.000  H
  N21      1.0000 0.04355  0.21113  0.68299  Biso   1.000  N
  C246     1.0000 0.70707  0.76654  0.68805  Biso   1.000  C
  H258     1.0000 0.82316  0.85986  0.69722  Biso   1.000  H
  H259     1.0000 0.82321  0.85986  0.69722  Biso   1.000  H
  H260     1.0000 0.90798  0.78664  0.66852  Biso   1.000  H
  C247     1.0000 0.95314  0.78003  0.63157  Biso   1.000  C
  C248     1.0000 0.95320  0.78003  0.63157  Biso   1.000  C
  H261     1.0000 0.00950  0.81926  0.66833  Biso   1.000  H
  C249     1.0000 0.14177  0.96227  0.65525  Biso   1.000  C
  H262     1.0000 0.18078  0.19024  0.66833  Biso   1.000  H
  H263     1.0000 0.21340  0.12136  0.66852  Biso   1.000  H
  C250     1.0000 0.21999  0.17318  0.63157  Biso   1.000  C
  C251     1.0000 0.21996  0.17312  0.63157  Biso   1.000  C
  C252     1.0000 0.05948  0.29297  0.68805  Biso   1.000  C
  H264     1.0000 0.03671  0.17688  0.69722  Biso   1.000  H
  H265     1.0000 0.03668  0.17682  0.69722  Biso   1.000  H
  C253     1.0000 0.65277  0.71556  0.66659  Biso   1.000  C
  C254     1.0000 0.67710  0.74468  0.71555  Biso   1.000  C
  C255     1.0000 0.67707  0.74461  0.71555  Biso   1.000  C
  H266     1.0000 0.93895  0.71984  0.63442  Biso   1.000  H
  H267     1.0000 0.90650  0.78087  0.62084  Biso   1.000  H
  H268     1.0000 0.93900  0.71984  0.63442  Biso   1.000  H
  H269     1.0000 0.00767  0.81122  0.62103  Biso   1.000  H
  H270     1.0000 0.12326  0.90682  0.64524  Biso   1.000  H
  N22      1.0000 0.16756  0.95644  0.68299  Biso   1.000  N
  H271     1.0000 0.19170  0.00877  0.64492  Biso   1.000  H
  H272     1.0000 0.28016  0.21917  0.63442  Biso   1.000  H
  H273     1.0000 0.18878  0.19647  0.62103  Biso   1.000  H
  H274     1.0000 0.21919  0.12564  0.62084  Biso   1.000  H
  H275     1.0000 0.28022  0.21917  0.63442  Biso   1.000  H
  C256     1.0000 0.06756  0.32294  0.71555  Biso   1.000  C
  C257     1.0000 0.06276  0.34726  0.66659  Biso   1.000  C
  C258     1.0000 0.06281  0.34726  0.66659  Biso   1.000  C
  C259     1.0000 0.57301  0.64558  0.67178  Biso   1.000  C
  H276     1.0000 0.67164  0.72983  0.64763  Biso   1.000  H
  C260     1.0000 0.57293  0.64551  0.67178  Biso   1.000  C
  H277     1.0000 0.67170  0.72983  0.64763  Biso   1.000  H
  C261     1.0000 0.57298  0.64551  0.67178  Biso   1.000  C
  C262     1.0000 0.59786  0.67684  0.72072  Biso   1.000  C
  S19      1.0000 0.74540  0.80882  0.74411  Biso   1.000  S
  C263     1.0000 0.23347  0.94055  0.68805  Biso   1.000  C
  H278     1.0000 0.14019  0.96337  0.69722  Biso   1.000  H
  C264     1.0000 0.07896  0.40213  0.72072  Biso   1.000  C
  S20      1.0000 0.06340  0.25464  0.74411  Biso   1.000  S
  C265     1.0000 0.07254  0.42703  0.67178  Biso   1.000  C
  H279     1.0000 0.05821  0.32839  0.64763  Biso   1.000  H
  H280     1.0000 0.05817  0.32832  0.64763  Biso   1.000  H
  C266     1.0000 0.07259  0.42703  0.67178  Biso   1.000  C
  H281     1.0000 0.53647  0.61237  0.65664  Biso   1.000  H
  C267     1.0000 0.54668  0.62392  0.69855  Biso   1.000  C
  C268     1.0000 0.54662  0.62392  0.69855  Biso   1.000  C
  H282     1.0000 0.57638  0.66478  0.73932  Biso   1.000  H
  H283     1.0000 0.57635  0.66471  0.73932  Biso   1.000  H
  S21      1.0000 0.80878  0.74539  0.75587  Biso   1.000  S
  C269     1.0000 0.25537  0.93244  0.71555  Biso   1.000  C
  C270     1.0000 0.28445  0.93724  0.66659  Biso   1.000  C
  C271     1.0000 0.28450  0.93724  0.66659  Biso   1.000  C
  H284     1.0000 0.08837  0.42366  0.73932  Biso   1.000  H
  C272     1.0000 0.07728  0.45336  0.69855  Biso   1.000  C
  S22      1.0000 0.93660  0.19121  0.75587  Biso   1.000  S
  H285     1.0000 0.07585  0.46355  0.65664  Biso   1.000  H
  H286     1.0000 0.07591  0.46355  0.65664  Biso   1.000  H
  H287     1.0000 0.49319  0.57288  0.70243  Biso   1.000  H
  H288     1.0000 0.49316  0.57281  0.70243  Biso   1.000  H
  C273     1.0000 0.74464  0.67710  0.78445  Biso   1.000  C
  C274     1.0000 0.32318  0.92102  0.72072  Biso   1.000  C
  S23      1.0000 0.19125  0.93665  0.74411  Biso   1.000  S
  C275     1.0000 0.35448  0.92744  0.67178  Biso   1.000  C
  H289     1.0000 0.27018  0.94184  0.64763  Biso   1.000  H
  H290     1.0000 0.07971  0.50687  0.70243  Biso   1.000  H
  H291     1.0000 0.07965  0.50687  0.70243  Biso   1.000  H
  C276     1.0000 0.93244  0.25536  0.78445  Biso   1.000  C
  C277     1.0000 0.76653  0.70706  0.81195  Biso   1.000  C
  C278     1.0000 0.67685  0.59791  0.77928  Biso   1.000  C
  C279     1.0000 0.67682  0.59784  0.77928  Biso   1.000  C
  H292     1.0000 0.33527  0.91162  0.73932  Biso   1.000  H
  C280     1.0000 0.37607  0.92277  0.69855  Biso   1.000  C
  C281     1.0000 0.37613  0.92277  0.69855  Biso   1.000  C
  S24      1.0000 0.25462  0.06338  0.75587  Biso   1.000  S
  H293     1.0000 0.38765  0.92414  0.65664  Biso   1.000  H
  H294     1.0000 0.38770  0.92414  0.65664  Biso   1.000  H
  C282     1.0000 0.92103  0.32320  0.77928  Biso   1.000  C
  C283     1.0000 0.94055  0.23350  0.81195  Biso   1.000  C
  C284     1.0000 0.71552  0.65278  0.83339  Biso   1.000  C
  N23      1.0000 0.83245  0.78891  0.81701  Biso   1.000  N
  C285     1.0000 0.71557  0.65278  0.83339  Biso   1.000  C
  N24      1.0000 0.83241  0.78885  0.81701  Biso   1.000  N
  H295     1.0000 0.66473  0.57638  0.76066  Biso   1.000  H
  C286     1.0000 0.62393  0.54667  0.80145  Biso   1.000  C
  H296     1.0000 0.42722  0.92037  0.70243  Biso   1.000  H
  H297     1.0000 0.42716  0.92037  0.70243  Biso   1.000  H
  C287     1.0000 0.32295  0.06760  0.78445  Biso   1.000  C
  H298     1.0000 0.91162  0.33526  0.76066  Biso   1.000  H
  C288     1.0000 0.92278  0.37612  0.80145  Biso   1.000  C
  C289     1.0000 0.92269  0.37605  0.80145  Biso   1.000  C
  C290     1.0000 0.92275  0.37605  0.80145  Biso   1.000  C
  N25      1.0000 0.95647  0.16761  0.81701  Biso   1.000  N
  C291     1.0000 0.93723  0.28448  0.83339  Biso   1.000  C
  C292     1.0000 0.64552  0.57300  0.82820  Biso   1.000  C
  H299     1.0000 0.72984  0.67165  0.85237  Biso   1.000  H
  C293     1.0000 0.64558  0.57300  0.82820  Biso   1.000  C
  C294     1.0000 0.85824  0.82050  0.84473  Biso   1.000  C
  H300     1.0000 0.85985  0.82316  0.80275  Biso   1.000  H
  H301     1.0000 0.57286  0.49317  0.79757  Biso   1.000  H
  H302     1.0000 0.57280  0.49317  0.79757  Biso   1.000  H
  C295     1.0000 0.40218  0.07901  0.77928  Biso   1.000  C
  C296     1.0000 0.29295  0.05949  0.81195  Biso   1.000  C
  C297     1.0000 0.40215  0.07895  0.77928  Biso   1.000  C
  H303     1.0000 0.92033  0.42716  0.79757  Biso   1.000  H
  C298     1.0000 0.92745  0.35446  0.82820  Biso   1.000  C
  C299     1.0000 0.92740  0.35446  0.82820  Biso   1.000  C
  C300     1.0000 0.96227  0.14179  0.84473  Biso   1.000  C
  C301     1.0000 0.96221  0.14179  0.84473  Biso   1.000  C
  H304     1.0000 0.96331  0.14017  0.80275  Biso   1.000  H
  H305     1.0000 0.96337  0.14017  0.80275  Biso   1.000  H
  H306     1.0000 0.94183  0.27021  0.85237  Biso   1.000  H
  H307     1.0000 0.94189  0.27021  0.85237  Biso   1.000  H
  H308     1.0000 0.61233  0.53649  0.84336  Biso   1.000  H
  H309     1.0000 0.61238  0.53649  0.84336  Biso   1.000  H
  H310     1.0000 0.87674  0.78359  0.85476  Biso   1.000  H
  H311     1.0000 0.80833  0.81706  0.85506  Biso   1.000  H
  C302     1.0000 0.93224  0.91357  0.84452  Biso   1.000  C
  H312     1.0000 0.42367  0.08842  0.76066  Biso   1.000  H
  C303     1.0000 0.45331  0.07726  0.80145  Biso   1.000  C
  H313     1.0000 0.42364  0.08835  0.76066  Biso   1.000  H
  C304     1.0000 0.45337  0.07726  0.80145  Biso   1.000  C
  N26      1.0000 0.21114  0.04360  0.81701  Biso   1.000  N
  C305     1.0000 0.34723  0.06280  0.83339  Biso   1.000  C
  C306     1.0000 0.34728  0.06280  0.83339  Biso   1.000  C
  H314     1.0000 0.92412  0.38766  0.84336  Biso   1.000  H
  C307     1.0000 0.98132  0.06779  0.84452  Biso   1.000  C
  C308     1.0000 0.98138  0.06779  0.84452  Biso   1.000  C
  H315     1.0000 0.90686  0.12331  0.85476  Biso   1.000  H
  H316     1.0000 0.00872  0.19167  0.85506  Biso   1.000  H
  C309     1.0000 0.91343  0.98199  0.84414  Biso   1.000  C
  C310     1.0000 0.01802  0.93147  0.84414  Biso   1.000  C
  H317     1.0000 0.50686  0.07966  0.79757  Biso   1.000  H
  C311     1.0000 0.42705  0.07259  0.82820  Biso   1.000  C
  H318     1.0000 0.50680  0.07966  0.79757  Biso   1.000  H
  C312     1.0000 0.17952  0.03776  0.84473  Biso   1.000  C
  H319     1.0000 0.17683  0.03666  0.80275  Biso   1.000  H
  H320     1.0000 0.32836  0.05819  0.85237  Biso   1.000  H
  C313     1.0000 0.06858  0.08660  0.84414  Biso   1.000  C
  C314     1.0000 0.06852  0.08660  0.84414  Biso   1.000  C
  C315     1.0000 0.82055  0.96227  0.84219  Biso   1.000  C
  C316     1.0000 0.03778  0.85831  0.84219  Biso   1.000  C
  C317     1.0000 0.03772  0.85831  0.84219  Biso   1.000  C
  C318     1.0000 0.08647  0.01870  0.84452  Biso   1.000  C
  H321     1.0000 0.46353  0.07590  0.84336  Biso   1.000  H
  H322     1.0000 0.46358  0.07590  0.84336  Biso   1.000  H
  H323     1.0000 0.18295  0.99126  0.85506  Biso   1.000  H
  H324     1.0000 0.21646  0.09322  0.85476  Biso   1.000  H
  H325     1.0000 0.21643  0.09315  0.85476  Biso   1.000  H
  C319     1.0000 0.14175  0.17948  0.84219  Biso   1.000  C
  H326     1.0000 0.78662  0.90799  0.83146  Biso   1.000  H
  C320     1.0000 0.78007  0.95319  0.86841  Biso   1.000  C
  H327     1.0000 0.78667  0.90799  0.83146  Biso   1.000  H
  C321     1.0000 0.78001  0.95319  0.86841  Biso   1.000  C
  H328     1.0000 0.81922  0.00949  0.83167  Biso   1.000  H
  H329     1.0000 0.81928  0.00949  0.83167  Biso   1.000  H
  H330     1.0000 0.99055  0.80980  0.83167  Biso   1.000  H
  H331     1.0000 0.09205  0.87867  0.83146  Biso   1.000  H
  C322     1.0000 0.04682  0.82685  0.86841  Biso   1.000  C
  H332     1.0000 0.19025  0.18077  0.83167  Biso   1.000  H
  H333     1.0000 0.12136  0.21340  0.83146  Biso   1.000  H
  C323     1.0000 0.17314  0.22001  0.86841  Biso   1.000  C
  C324     1.0000 0.17319  0.22001  0.86841  Biso   1.000  C
  H334     1.0000 0.71983  0.93899  0.86556  Biso   1.000  H
  H335     1.0000 0.78087  0.90650  0.87916  Biso   1.000  H
  H336     1.0000 0.78081  0.90650  0.87916  Biso   1.000  H
  H337     1.0000 0.81124  0.00767  0.87895  Biso   1.000  H
  H338     1.0000 0.99233  0.80357  0.87895  Biso   1.000  H
  H339     1.0000 0.06101  0.78087  0.86556  Biso   1.000  H
  H340     1.0000 0.09357  0.87439  0.87916  Biso   1.000  H
  H341     1.0000 0.06107  0.78087  0.86556  Biso   1.000  H
  H342     1.0000 0.21913  0.28020  0.86556  Biso   1.000  H
  H343     1.0000 0.19646  0.18881  0.87895  Biso   1.000  H
  H344     1.0000 0.12565  0.21917  0.87916  Biso   1.000  H
  H345     1.0000 0.19643  0.18875  0.87895  Biso   1.000  H
  H346     1.0000 0.21918  0.28020  0.86556  Biso   1.000  H
  C325     1.0000 0.82684  0.04684  0.63157  Biso   1.000  C
  C326     1.0000 0.85830  0.03776  0.65779  Biso   1.000  C
  H347     1.0000 0.80359  0.99237  0.62103  Biso   1.000  H
  H348     1.0000 0.78086  0.06105  0.63442  Biso   1.000  H
  H349     1.0000 0.87439  0.09354  0.62084  Biso   1.000  H
  H350     1.0000 0.87434  0.09354  0.62084  Biso   1.000  H
  C327     1.0000 0.93146  0.01805  0.65586  Biso   1.000  C
  H351     1.0000 0.80975  0.99055  0.66833  Biso   1.000  H
  H352     1.0000 0.80981  0.99055  0.66833  Biso   1.000  H
  H353     1.0000 0.87865  0.09205  0.66852  Biso   1.000  H
  C328     1.0000 0.82689  0.04684  0.63157  Biso   1.000  C
  H354     1.0000 0.87870  0.09205  0.66852  Biso   1.000  H
  C329     1.0000 0.91355  0.93224  0.65548  Biso   1.000  C
  C330     1.0000 0.91361  0.93224  0.65548  Biso   1.000  C
  C331     1.0000 0.01869  0.08647  0.65548  Biso   1.000  C
  C332     1.0000 0.82049  0.85824  0.65525  Biso   1.000  C
  C333     1.0000 0.82044  0.85824  0.65525  Biso   1.000  C
  C334     1.0000 0.98199  0.91344  0.65586  Biso   1.000  C
  C335     1.0000 0.98194  0.91344  0.65586  Biso   1.000  C
  C336     1.0000 0.08658  0.06857  0.65586  Biso   1.000  C
  C337     1.0000 0.03776  0.17954  0.65525  Biso   1.000  C
  N27      1.0000 0.78888  0.83243  0.68299  Biso   1.000  N
  H355     1.0000 0.78357  0.87673  0.64524  Biso   1.000  H
  H356     1.0000 0.81707  0.80837  0.64492  Biso   1.000  H
  C338     1.0000 0.96229  0.82056  0.65779  Biso   1.000  C
  C339     1.0000 0.06779  0.98134  0.65548  Biso   1.000  C
  C340     1.0000 0.17949  0.14173  0.65779  Biso   1.000  C
  C341     1.0000 0.17944  0.14173  0.65779  Biso   1.000  C
  H357     1.0000 0.99129  0.18298  0.64492  Biso   1.000  H
  H358     1.0000 0.09317  0.21644  0.64524  Biso   1.000  H
  N28      1.0000 0.04355  0.21113  0.68299  Biso   1.000  N
  C342     1.0000 0.70707  0.76654  0.68805  Biso   1.000  C
  H359     1.0000 0.82316  0.85986  0.69722  Biso   1.000  H
  H360     1.0000 0.82321  0.85986  0.69722  Biso   1.000  H
  H361     1.0000 0.90798  0.78664  0.66852  Biso   1.000  H
  C343     1.0000 0.95314  0.78003  0.63157  Biso   1.000  C
  C344     1.0000 0.95320  0.78003  0.63157  Biso   1.000  C
  H362     1.0000 0.00950  0.81926  0.66833  Biso   1.000  H
  C345     1.0000 0.14177  0.96227  0.65525  Biso   1.000  C
  H363     1.0000 0.18078  0.19024  0.66833  Biso   1.000  H
  H364     1.0000 0.21340  0.12136  0.66852  Biso   1.000  H
  C346     1.0000 0.21999  0.17318  0.63157  Biso   1.000  C
  C347     1.0000 0.21996  0.17312  0.63157  Biso   1.000  C
  C348     1.0000 0.05948  0.29297  0.68805  Biso   1.000  C
  H365     1.0000 0.03671  0.17688  0.69722  Biso   1.000  H
  H366     1.0000 0.03668  0.17682  0.69722  Biso   1.000  H
  C349     1.0000 0.65277  0.71556  0.66659  Biso   1.000  C
  C350     1.0000 0.67710  0.74468  0.71555  Biso   1.000  C
  C351     1.0000 0.67707  0.74461  0.71555  Biso   1.000  C
  H367     1.0000 0.90650  0.78087  0.62084  Biso   1.000  H
  H368     1.0000 0.93895  0.71984  0.63442  Biso   1.000  H
  H369     1.0000 0.93900  0.71984  0.63442  Biso   1.000  H
  H370     1.0000 0.00767  0.81122  0.62103  Biso   1.000  H
  H371     1.0000 0.12326  0.90682  0.64524  Biso   1.000  H
  N29      1.0000 0.16756  0.95644  0.68299  Biso   1.000  N
  H372     1.0000 0.19170  0.00877  0.64492  Biso   1.000  H
  H373     1.0000 0.28016  0.21917  0.63442  Biso   1.000  H
  H374     1.0000 0.18878  0.19647  0.62103  Biso   1.000  H
  H375     1.0000 0.21919  0.12564  0.62084  Biso   1.000  H
  H376     1.0000 0.28022  0.21917  0.63442  Biso   1.000  H
  C352     1.0000 0.06756  0.32294  0.71555  Biso   1.000  C
  C353     1.0000 0.06276  0.34726  0.66659  Biso   1.000  C
  C354     1.0000 0.06281  0.34726  0.66659  Biso   1.000  C
  H377     1.0000 0.67164  0.72983  0.64763  Biso   1.000  H
  C355     1.0000 0.57301  0.64558  0.67178  Biso   1.000  C
  C356     1.0000 0.57293  0.64551  0.67178  Biso   1.000  C
  H378     1.0000 0.67170  0.72983  0.64763  Biso   1.000  H
  C357     1.0000 0.57298  0.64551  0.67178  Biso   1.000  C
  C358     1.0000 0.59786  0.67684  0.72072  Biso   1.000  C
  S25      1.0000 0.74540  0.80882  0.74411  Biso   1.000  S
  C359     1.0000 0.23347  0.94055  0.68805  Biso   1.000  C
  H379     1.0000 0.14019  0.96337  0.69722  Biso   1.000  H
  C360     1.0000 0.07896  0.40213  0.72072  Biso   1.000  C
  S26      1.0000 0.06340  0.25464  0.74411  Biso   1.000  S
  C361     1.0000 0.07254  0.42703  0.67178  Biso   1.000  C
  H380     1.0000 0.05821  0.32839  0.64763  Biso   1.000  H
  H381     1.0000 0.05817  0.32832  0.64763  Biso   1.000  H
  C362     1.0000 0.07259  0.42703  0.67178  Biso   1.000  C
  H382     1.0000 0.53647  0.61237  0.65664  Biso   1.000  H
  C363     1.0000 0.54668  0.62392  0.69855  Biso   1.000  C
  C364     1.0000 0.54662  0.62392  0.69855  Biso   1.000  C
  H383     1.0000 0.57638  0.66478  0.73932  Biso   1.000  H
  H384     1.0000 0.57635  0.66471  0.73932  Biso   1.000  H
  S27      1.0000 0.80878  0.74539  0.75587  Biso   1.000  S
  C365     1.0000 0.25537  0.93244  0.71555  Biso   1.000  C
  C366     1.0000 0.28445  0.93724  0.66659  Biso   1.000  C
  C367     1.0000 0.28450  0.93724  0.66659  Biso   1.000  C
  H385     1.0000 0.08837  0.42366  0.73932  Biso   1.000  H
  C368     1.0000 0.07728  0.45336  0.69855  Biso   1.000  C
  S28      1.0000 0.93660  0.19121  0.75587  Biso   1.000  S
  H386     1.0000 0.07585  0.46355  0.65664  Biso   1.000  H
  H387     1.0000 0.07591  0.46355  0.65664  Biso   1.000  H
  H388     1.0000 0.49319  0.57288  0.70243  Biso   1.000  H
  H389     1.0000 0.49316  0.57281  0.70243  Biso   1.000  H
  C369     1.0000 0.74464  0.67710  0.78445  Biso   1.000  C
  C370     1.0000 0.32318  0.92102  0.72072  Biso   1.000  C
  S29      1.0000 0.19125  0.93665  0.74411  Biso   1.000  S
  C371     1.0000 0.35448  0.92744  0.67178  Biso   1.000  C
  H390     1.0000 0.27018  0.94184  0.64763  Biso   1.000  H
  H391     1.0000 0.07971  0.50687  0.70243  Biso   1.000  H
  H392     1.0000 0.07965  0.50687  0.70243  Biso   1.000  H
  C372     1.0000 0.93244  0.25536  0.78445  Biso   1.000  C
  C373     1.0000 0.76653  0.70706  0.81195  Biso   1.000  C
  C374     1.0000 0.67685  0.59791  0.77928  Biso   1.000  C
  C375     1.0000 0.67682  0.59784  0.77928  Biso   1.000  C
  H393     1.0000 0.33527  0.91162  0.73932  Biso   1.000  H
  C376     1.0000 0.37607  0.92277  0.69855  Biso   1.000  C
  C377     1.0000 0.37613  0.92277  0.69855  Biso   1.000  C
  S30      1.0000 0.25462  0.06338  0.75587  Biso   1.000  S
  H394     1.0000 0.38765  0.92414  0.65664  Biso   1.000  H
  H395     1.0000 0.38770  0.92414  0.65664  Biso   1.000  H
  C378     1.0000 0.92103  0.32320  0.77928  Biso   1.000  C
  C379     1.0000 0.94055  0.23350  0.81195  Biso   1.000  C
  C380     1.0000 0.71552  0.65278  0.83339  Biso   1.000  C
  N30      1.0000 0.83245  0.78891  0.81701  Biso   1.000  N
  N31      1.0000 0.83241  0.78885  0.81701  Biso   1.000  N
  C381     1.0000 0.71557  0.65278  0.83339  Biso   1.000  C
  H396     1.0000 0.66473  0.57638  0.76066  Biso   1.000  H
  C382     1.0000 0.62393  0.54667  0.80145  Biso   1.000  C
  H397     1.0000 0.42722  0.92037  0.70243  Biso   1.000  H
  H398     1.0000 0.42716  0.92037  0.70243  Biso   1.000  H
  C383     1.0000 0.32295  0.06760  0.78445  Biso   1.000  C
  H399     1.0000 0.91162  0.33526  0.76066  Biso   1.000  H
  C384     1.0000 0.92278  0.37612  0.80145  Biso   1.000  C
  C385     1.0000 0.92269  0.37605  0.80145  Biso   1.000  C
  C386     1.0000 0.92275  0.37605  0.80145  Biso   1.000  C
  N32      1.0000 0.95647  0.16761  0.81701  Biso   1.000  N
  C387     1.0000 0.93723  0.28448  0.83339  Biso   1.000  C
  H400     1.0000 0.72984  0.67165  0.85237  Biso   1.000  H
  C388     1.0000 0.64552  0.57300  0.82820  Biso   1.000  C
  C389     1.0000 0.64558  0.57300  0.82820  Biso   1.000  C
  C390     1.0000 0.85824  0.82050  0.84473  Biso   1.000  C
  H401     1.0000 0.85985  0.82316  0.80275  Biso   1.000  H
  H402     1.0000 0.57286  0.49317  0.79757  Biso   1.000  H
  H403     1.0000 0.57280  0.49317  0.79757  Biso   1.000  H
  C391     1.0000 0.40218  0.07901  0.77928  Biso   1.000  C
  C392     1.0000 0.29295  0.05949  0.81195  Biso   1.000  C
  C393     1.0000 0.40215  0.07895  0.77928  Biso   1.000  C
  H404     1.0000 0.92033  0.42716  0.79757  Biso   1.000  H
  C394     1.0000 0.92745  0.35446  0.82820  Biso   1.000  C
  C395     1.0000 0.92740  0.35446  0.82820  Biso   1.000  C
  C396     1.0000 0.96227  0.14179  0.84473  Biso   1.000  C
  C397     1.0000 0.96221  0.14179  0.84473  Biso   1.000  C
  H405     1.0000 0.96331  0.14017  0.80275  Biso   1.000  H
  H406     1.0000 0.96337  0.14017  0.80275  Biso   1.000  H
  H407     1.0000 0.94183  0.27021  0.85237  Biso   1.000  H
  H408     1.0000 0.94189  0.27021  0.85237  Biso   1.000  H
  H409     1.0000 0.61233  0.53649  0.84336  Biso   1.000  H
  H410     1.0000 0.61238  0.53649  0.84336  Biso   1.000  H
  H411     1.0000 0.87674  0.78359  0.85476  Biso   1.000  H
  H412     1.0000 0.80833  0.81706  0.85506  Biso   1.000  H
  C398     1.0000 0.93224  0.91357  0.84452  Biso   1.000  C
  H413     1.0000 0.42367  0.08842  0.76066  Biso   1.000  H
  C399     1.0000 0.45331  0.07726  0.80145  Biso   1.000  C
  H414     1.0000 0.42364  0.08835  0.76066  Biso   1.000  H
  C400     1.0000 0.45337  0.07726  0.80145  Biso   1.000  C
  N33      1.0000 0.21114  0.04360  0.81701  Biso   1.000  N
  C401     1.0000 0.34723  0.06280  0.83339  Biso   1.000  C
  C402     1.0000 0.34728  0.06280  0.83339  Biso   1.000  C
  H415     1.0000 0.92412  0.38766  0.84336  Biso   1.000  H
  C403     1.0000 0.98132  0.06779  0.84452  Biso   1.000  C
  C404     1.0000 0.98138  0.06779  0.84452  Biso   1.000  C
  H416     1.0000 0.90686  0.12331  0.85476  Biso   1.000  H
  H417     1.0000 0.00872  0.19167  0.85506  Biso   1.000  H
  C405     1.0000 0.91343  0.98199  0.84414  Biso   1.000  C
  C406     1.0000 0.01802  0.93147  0.84414  Biso   1.000  C
  H418     1.0000 0.50686  0.07966  0.79757  Biso   1.000  H
  C407     1.0000 0.42705  0.07259  0.82820  Biso   1.000  C
  H419     1.0000 0.50680  0.07966  0.79757  Biso   1.000  H
  C408     1.0000 0.17952  0.03776  0.84473  Biso   1.000  C
  H420     1.0000 0.17683  0.03666  0.80275  Biso   1.000  H
  H421     1.0000 0.32836  0.05819  0.85237  Biso   1.000  H
  C409     1.0000 0.06858  0.08660  0.84414  Biso   1.000  C
  C410     1.0000 0.06852  0.08660  0.84414  Biso   1.000  C
  C411     1.0000 0.82055  0.96227  0.84219  Biso   1.000  C
  C412     1.0000 0.03778  0.85831  0.84219  Biso   1.000  C
  C413     1.0000 0.03772  0.85831  0.84219  Biso   1.000  C
  C414     1.0000 0.08647  0.01870  0.84452  Biso   1.000  C
  H422     1.0000 0.46353  0.07590  0.84336  Biso   1.000  H
  H423     1.0000 0.46358  0.07590  0.84336  Biso   1.000  H
  H424     1.0000 0.18295  0.99126  0.85506  Biso   1.000  H
  H425     1.0000 0.21646  0.09322  0.85476  Biso   1.000  H
  H426     1.0000 0.21643  0.09315  0.85476  Biso   1.000  H
  C415     1.0000 0.14175  0.17948  0.84219  Biso   1.000  C
  C416     1.0000 0.78007  0.95319  0.86841  Biso   1.000  C
  H427     1.0000 0.78662  0.90799  0.83146  Biso   1.000  H
  C417     1.0000 0.78001  0.95319  0.86841  Biso   1.000  C
  H428     1.0000 0.78667  0.90799  0.83146  Biso   1.000  H
  H429     1.0000 0.81922  0.00949  0.83167  Biso   1.000  H
  H430     1.0000 0.81928  0.00949  0.83167  Biso   1.000  H
  H431     1.0000 0.99055  0.80980  0.83167  Biso   1.000  H
  H432     1.0000 0.09205  0.87867  0.83146  Biso   1.000  H
  C418     1.0000 0.04682  0.82685  0.86841  Biso   1.000  C
  H433     1.0000 0.19025  0.18077  0.83167  Biso   1.000  H
  H434     1.0000 0.12136  0.21340  0.83146  Biso   1.000  H
  C419     1.0000 0.17314  0.22001  0.86841  Biso   1.000  C
  C420     1.0000 0.17319  0.22001  0.86841  Biso   1.000  C
  H435     1.0000 0.71983  0.93899  0.86556  Biso   1.000  H
  H436     1.0000 0.78087  0.90650  0.87916  Biso   1.000  H
  H437     1.0000 0.78081  0.90650  0.87916  Biso   1.000  H
  H438     1.0000 0.81124  0.00767  0.87895  Biso   1.000  H
  H439     1.0000 0.99233  0.80357  0.87895  Biso   1.000  H
  H440     1.0000 0.06101  0.78087  0.86556  Biso   1.000  H
  H441     1.0000 0.09357  0.87439  0.87916  Biso   1.000  H
  H442     1.0000 0.06107  0.78087  0.86556  Biso   1.000  H
  H443     1.0000 0.21913  0.28020  0.86556  Biso   1.000  H
  H444     1.0000 0.19646  0.18881  0.87895  Biso   1.000  H
  H445     1.0000 0.12565  0.21917  0.87916  Biso   1.000  H
  H446     1.0000 0.19643  0.18875  0.87895  Biso   1.000  H
  H447     1.0000 0.21918  0.28020  0.86556  Biso   1.000  H
  C421     1.0000 0.82684  0.04684  0.63157  Biso   1.000  C
  C422     1.0000 0.85830  0.03776  0.65779  Biso   1.000  C
  H448     1.0000 0.80359  0.99237  0.62103  Biso   1.000  H
  H449     1.0000 0.78086  0.06105  0.63442  Biso   1.000  H
  H450     1.0000 0.87439  0.09354  0.62084  Biso   1.000  H
  H451     1.0000 0.87434  0.09354  0.62084  Biso   1.000  H
  C423     1.0000 0.93146  0.01805  0.65586  Biso   1.000  C
  H452     1.0000 0.80975  0.99055  0.66833  Biso   1.000  H
  H453     1.0000 0.80981  0.99055  0.66833  Biso   1.000  H
  H454     1.0000 0.87865  0.09205  0.66852  Biso   1.000  H
  C424     1.0000 0.82689  0.04684  0.63157  Biso   1.000  C
  H455     1.0000 0.87870  0.09205  0.66852  Biso   1.000  H
  C425     1.0000 0.91355  0.93224  0.65548  Biso   1.000  C
  C426     1.0000 0.91361  0.93224  0.65548  Biso   1.000  C
  C427     1.0000 0.01869  0.08647  0.65548  Biso   1.000  C
  C428     1.0000 0.82049  0.85824  0.65525  Biso   1.000  C
  C429     1.0000 0.82044  0.85824  0.65525  Biso   1.000  C
  C430     1.0000 0.98199  0.91344  0.65586  Biso   1.000  C
  C431     1.0000 0.98194  0.91344  0.65586  Biso   1.000  C
  C432     1.0000 0.08658  0.06857  0.65586  Biso   1.000  C
  C433     1.0000 0.03776  0.17954  0.65525  Biso   1.000  C
  N34      1.0000 0.78888  0.83243  0.68299  Biso   1.000  N
  H456     1.0000 0.78357  0.87673  0.64524  Biso   1.000  H
  H457     1.0000 0.81707  0.80837  0.64492  Biso   1.000  H
  C434     1.0000 0.96229  0.82056  0.65779  Biso   1.000  C
  C435     1.0000 0.06779  0.98134  0.65548  Biso   1.000  C
  C436     1.0000 0.17949  0.14173  0.65779  Biso   1.000  C
  C437     1.0000 0.17944  0.14173  0.65779  Biso   1.000  C
  H458     1.0000 0.99129  0.18298  0.64492  Biso   1.000  H
  H459     1.0000 0.09317  0.21644  0.64524  Biso   1.000  H
  N35      1.0000 0.04355  0.21113  0.68299  Biso   1.000  N
  C438     1.0000 0.70707  0.76654  0.68805  Biso   1.000  C
  H460     1.0000 0.82316  0.85986  0.69722  Biso   1.000  H
  H461     1.0000 0.82321  0.85986  0.69722  Biso   1.000  H
  H462     1.0000 0.90798  0.78664  0.66852  Biso   1.000  H
  C439     1.0000 0.95314  0.78003  0.63157  Biso   1.000  C
  C440     1.0000 0.95320  0.78003  0.63157  Biso   1.000  C
  H463     1.0000 0.00950  0.81926  0.66833  Biso   1.000  H
  C441     1.0000 0.14177  0.96227  0.65525  Biso   1.000  C
  H464     1.0000 0.18078  0.19024  0.66833  Biso   1.000  H
  H465     1.0000 0.21340  0.12136  0.66852  Biso   1.000  H
  C442     1.0000 0.21999  0.17318  0.63157  Biso   1.000  C
  C443     1.0000 0.21996  0.17312  0.63157  Biso   1.000  C
  C444     1.0000 0.05948  0.29297  0.68805  Biso   1.000  C
  H466     1.0000 0.03671  0.17688  0.69722  Biso   1.000  H
  H467     1.0000 0.03668  0.17682  0.69722  Biso   1.000  H
  C445     1.0000 0.65277  0.71556  0.66659  Biso   1.000  C
  C446     1.0000 0.67710  0.74468  0.71555  Biso   1.000  C
  C447     1.0000 0.67707  0.74461  0.71555  Biso   1.000  C
  H468     1.0000 0.90650  0.78087  0.62084  Biso   1.000  H
  H469     1.0000 0.93895  0.71984  0.63442  Biso   1.000  H
  H470     1.0000 0.93900  0.71984  0.63442  Biso   1.000  H
  H471     1.0000 0.00767  0.81122  0.62103  Biso   1.000  H
  H472     1.0000 0.12326  0.90682  0.64524  Biso   1.000  H
  N36      1.0000 0.16756  0.95644  0.68299  Biso   1.000  N
  H473     1.0000 0.19170  0.00877  0.64492  Biso   1.000  H
  H474     1.0000 0.28016  0.21917  0.63442  Biso   1.000  H
  H475     1.0000 0.18878  0.19647  0.62103  Biso   1.000  H
  H476     1.0000 0.21919  0.12564  0.62084  Biso   1.000  H
  H477     1.0000 0.28022  0.21917  0.63442  Biso   1.000  H
  C448     1.0000 0.06756  0.32294  0.71555  Biso   1.000  C
  C449     1.0000 0.06276  0.34726  0.66659  Biso   1.000  C
  C450     1.0000 0.06281  0.34726  0.66659  Biso   1.000  C
  C451     1.0000 0.57301  0.64558  0.67178  Biso   1.000  C
  H478     1.0000 0.67164  0.72983  0.64763  Biso   1.000  H
  C452     1.0000 0.57293  0.64551  0.67178  Biso   1.000  C
  H479     1.0000 0.67170  0.72983  0.64763  Biso   1.000  H
  C453     1.0000 0.57298  0.64551  0.67178  Biso   1.000  C
  C454     1.0000 0.59786  0.67684  0.72072  Biso   1.000  C
  S31      1.0000 0.74540  0.80882  0.74411  Biso   1.000  S
  C455     1.0000 0.23347  0.94055  0.68805  Biso   1.000  C
  H480     1.0000 0.14019  0.96337  0.69722  Biso   1.000  H
  C456     1.0000 0.07896  0.40213  0.72072  Biso   1.000  C
  S32      1.0000 0.06340  0.25464  0.74411  Biso   1.000  S
  C457     1.0000 0.07254  0.42703  0.67178  Biso   1.000  C
  H481     1.0000 0.05821  0.32839  0.64763  Biso   1.000  H
  H482     1.0000 0.05817  0.32832  0.64763  Biso   1.000  H
  C458     1.0000 0.07259  0.42703  0.67178  Biso   1.000  C
  H483     1.0000 0.53647  0.61237  0.65664  Biso   1.000  H
  C459     1.0000 0.54668  0.62392  0.69855  Biso   1.000  C
  C460     1.0000 0.54662  0.62392  0.69855  Biso   1.000  C
  H484     1.0000 0.57638  0.66478  0.73932  Biso   1.000  H
  H485     1.0000 0.57635  0.66471  0.73932  Biso   1.000  H
  S33      1.0000 0.80878  0.74539  0.75587  Biso   1.000  S
  C461     1.0000 0.25537  0.93244  0.71555  Biso   1.000  C
  C462     1.0000 0.28445  0.93724  0.66659  Biso   1.000  C
  C463     1.0000 0.28450  0.93724  0.66659  Biso   1.000  C
  H486     1.0000 0.08837  0.42366  0.73932  Biso   1.000  H
  C464     1.0000 0.07728  0.45336  0.69855  Biso   1.000  C
  S34      1.0000 0.93660  0.19121  0.75587  Biso   1.000  S
  H487     1.0000 0.07585  0.46355  0.65664  Biso   1.000  H
  H488     1.0000 0.07591  0.46355  0.65664  Biso   1.000  H
  H489     1.0000 0.49319  0.57288  0.70243  Biso   1.000  H
  H490     1.0000 0.49316  0.57281  0.70243  Biso   1.000  H
  C465     1.0000 0.74464  0.67710  0.78445  Biso   1.000  C
  C466     1.0000 0.32318  0.92102  0.72072  Biso   1.000  C
  S35      1.0000 0.19125  0.93665  0.74411  Biso   1.000  S
  C467     1.0000 0.35448  0.92744  0.67178  Biso   1.000  C
  H491     1.0000 0.27018  0.94184  0.64763  Biso   1.000  H
  H492     1.0000 0.07971  0.50687  0.70243  Biso   1.000  H
  H493     1.0000 0.07965  0.50687  0.70243  Biso   1.000  H
  C468     1.0000 0.93244  0.25536  0.78445  Biso   1.000  C
  C469     1.0000 0.76653  0.70706  0.81195  Biso   1.000  C
  C470     1.0000 0.67685  0.59791  0.77928  Biso   1.000  C
  C471     1.0000 0.67682  0.59784  0.77928  Biso   1.000  C
  H494     1.0000 0.33527  0.91162  0.73932  Biso   1.000  H
  C472     1.0000 0.37607  0.92277  0.69855  Biso   1.000  C
  C473     1.0000 0.37613  0.92277  0.69855  Biso   1.000  C
  S36      1.0000 0.25462  0.06338  0.75587  Biso   1.000  S
  H495     1.0000 0.38765  0.92414  0.65664  Biso   1.000  H
  H496     1.0000 0.38770  0.92414  0.65664  Biso   1.000  H
  C474     1.0000 0.92103  0.32320  0.77928  Biso   1.000  C
  C475     1.0000 0.94055  0.23350  0.81195  Biso   1.000  C
  C476     1.0000 0.71552  0.65278  0.83339  Biso   1.000  C
  N37      1.0000 0.83245  0.78891  0.81701  Biso   1.000  N
  N38      1.0000 0.83241  0.78885  0.81701  Biso   1.000  N
  C477     1.0000 0.71557  0.65278  0.83339  Biso   1.000  C
  H497     1.0000 0.66473  0.57638  0.76066  Biso   1.000  H
  C478     1.0000 0.62393  0.54667  0.80145  Biso   1.000  C
  H498     1.0000 0.42722  0.92037  0.70243  Biso   1.000  H
  H499     1.0000 0.42716  0.92037  0.70243  Biso   1.000  H
  C479     1.0000 0.32295  0.06760  0.78445  Biso   1.000  C
  H500     1.0000 0.91162  0.33526  0.76066  Biso   1.000  H
  C480     1.0000 0.92278  0.37612  0.80145  Biso   1.000  C
  C481     1.0000 0.92269  0.37605  0.80145  Biso   1.000  C
  C482     1.0000 0.92275  0.37605  0.80145  Biso   1.000  C
  N39      1.0000 0.95647  0.16761  0.81701  Biso   1.000  N
  C483     1.0000 0.93723  0.28448  0.83339  Biso   1.000  C
  H501     1.0000 0.72984  0.67165  0.85237  Biso   1.000  H
  C484     1.0000 0.64552  0.57300  0.82820  Biso   1.000  C
  C485     1.0000 0.64558  0.57300  0.82820  Biso   1.000  C
  C486     1.0000 0.85824  0.82050  0.84473  Biso   1.000  C
  H502     1.0000 0.85985  0.82316  0.80275  Biso   1.000  H
  H503     1.0000 0.57286  0.49317  0.79757  Biso   1.000  H
  H504     1.0000 0.57280  0.49317  0.79757  Biso   1.000  H
  C487     1.0000 0.40218  0.07901  0.77928  Biso   1.000  C
  C488     1.0000 0.29295  0.05949  0.81195  Biso   1.000  C
  C489     1.0000 0.40215  0.07895  0.77928  Biso   1.000  C
  H505     1.0000 0.92033  0.42716  0.79757  Biso   1.000  H
  C490     1.0000 0.92745  0.35446  0.82820  Biso   1.000  C
  C491     1.0000 0.92740  0.35446  0.82820  Biso   1.000  C
  C492     1.0000 0.96227  0.14179  0.84473  Biso   1.000  C
  C493     1.0000 0.96221  0.14179  0.84473  Biso   1.000  C
  H506     1.0000 0.96331  0.14017  0.80275  Biso   1.000  H
  H507     1.0000 0.96337  0.14017  0.80275  Biso   1.000  H
  H508     1.0000 0.94183  0.27021  0.85237  Biso   1.000  H
  H509     1.0000 0.94189  0.27021  0.85237  Biso   1.000  H
  H510     1.0000 0.61233  0.53649  0.84336  Biso   1.000  H
  H511     1.0000 0.61238  0.53649  0.84336  Biso   1.000  H
  H512     1.0000 0.87674  0.78359  0.85476  Biso   1.000  H
  H513     1.0000 0.80833  0.81706  0.85506  Biso   1.000  H
  C494     1.0000 0.93224  0.91357  0.84452  Biso   1.000  C
  H514     1.0000 0.42367  0.08842  0.76066  Biso   1.000  H
  C495     1.0000 0.45331  0.07726  0.80145  Biso   1.000  C
  H515     1.0000 0.42364  0.08835  0.76066  Biso   1.000  H
  C496     1.0000 0.45337  0.07726  0.80145  Biso   1.000  C
  N40      1.0000 0.21114  0.04360  0.81701  Biso   1.000  N
  C497     1.0000 0.34723  0.06280  0.83339  Biso   1.000  C
  C498     1.0000 0.34728  0.06280  0.83339  Biso   1.000  C
  H516     1.0000 0.92412  0.38766  0.84336  Biso   1.000  H
  C499     1.0000 0.98132  0.06779  0.84452  Biso   1.000  C
  C500     1.0000 0.98138  0.06779  0.84452  Biso   1.000  C
  H517     1.0000 0.90686  0.12331  0.85476  Biso   1.000  H
  H518     1.0000 0.00872  0.19167  0.85506  Biso   1.000  H
  C501     1.0000 0.91343  0.98199  0.84414  Biso   1.000  C
  C502     1.0000 0.01802  0.93147  0.84414  Biso   1.000  C
  H519     1.0000 0.50686  0.07966  0.79757  Biso   1.000  H
  C503     1.0000 0.42705  0.07259  0.82820  Biso   1.000  C
  H520     1.0000 0.50680  0.07966  0.79757  Biso   1.000  H
  C504     1.0000 0.17952  0.03776  0.84473  Biso   1.000  C
  H521     1.0000 0.17683  0.03666  0.80275  Biso   1.000  H
  H522     1.0000 0.32836  0.05819  0.85237  Biso   1.000  H
  C505     1.0000 0.06858  0.08660  0.84414  Biso   1.000  C
  C506     1.0000 0.06852  0.08660  0.84414  Biso   1.000  C
  C507     1.0000 0.82055  0.96227  0.84219  Biso   1.000  C
  C508     1.0000 0.03778  0.85831  0.84219  Biso   1.000  C
  C509     1.0000 0.03772  0.85831  0.84219  Biso   1.000  C
  C510     1.0000 0.08647  0.01870  0.84452  Biso   1.000  C
  H523     1.0000 0.46353  0.07590  0.84336  Biso   1.000  H
  H524     1.0000 0.46358  0.07590  0.84336  Biso   1.000  H
  H525     1.0000 0.18295  0.99126  0.85506  Biso   1.000  H
  H526     1.0000 0.21646  0.09322  0.85476  Biso   1.000  H
  H527     1.0000 0.21643  0.09315  0.85476  Biso   1.000  H
  C511     1.0000 0.14175  0.17948  0.84219  Biso   1.000  C
  H528     1.0000 0.78662  0.90799  0.83146  Biso   1.000  H
  C512     1.0000 0.78007  0.95319  0.86841  Biso   1.000  C
  C513     1.0000 0.78001  0.95319  0.86841  Biso   1.000  C
  H529     1.0000 0.78667  0.90799  0.83146  Biso   1.000  H
  H530     1.0000 0.81922  0.00949  0.83167  Biso   1.000  H
  H531     1.0000 0.81928  0.00949  0.83167  Biso   1.000  H
  H532     1.0000 0.99055  0.80980  0.83167  Biso   1.000  H
  H533     1.0000 0.09205  0.87867  0.83146  Biso   1.000  H
  C514     1.0000 0.04682  0.82685  0.86841  Biso   1.000  C
  H534     1.0000 0.19025  0.18077  0.83167  Biso   1.000  H
  H535     1.0000 0.12136  0.21340  0.83146  Biso   1.000  H
  C515     1.0000 0.17314  0.22001  0.86841  Biso   1.000  C
  C516     1.0000 0.17319  0.22001  0.86841  Biso   1.000  C
  H536     1.0000 0.71983  0.93899  0.86556  Biso   1.000  H
  H537     1.0000 0.78087  0.90650  0.87916  Biso   1.000  H
  H538     1.0000 0.78081  0.90650  0.87916  Biso   1.000  H
  H539     1.0000 0.81124  0.00767  0.87895  Biso   1.000  H
  H540     1.0000 0.99233  0.80357  0.87895  Biso   1.000  H
  H541     1.0000 0.06101  0.78087  0.86556  Biso   1.000  H
  H542     1.0000 0.09357  0.87439  0.87916  Biso   1.000  H
  H543     1.0000 0.06107  0.78087  0.86556  Biso   1.000  H
  H544     1.0000 0.21913  0.28020  0.86556  Biso   1.000  H
  H545     1.0000 0.19646  0.18881  0.87895  Biso   1.000  H
  H546     1.0000 0.12565  0.21917  0.87916  Biso   1.000  H
  H547     1.0000 0.19643  0.18875  0.87895  Biso   1.000  H
  H548     1.0000 0.21918  0.28020  0.86556  Biso   1.000  H
  C517     1.0000 0.17318  0.95319  0.36843  Biso   1.000  C
  C518     1.0000 0.14172  0.96227  0.34219  Biso   1.000  C
  C519     1.0000 0.14177  0.96227  0.34219  Biso   1.000  C
  H549     1.0000 0.21916  0.93899  0.36556  Biso   1.000  H
  H550     1.0000 0.12562  0.90650  0.37916  Biso   1.000  H
  H551     1.0000 0.12568  0.90650  0.37916  Biso   1.000  H
  H552     1.0000 0.19643  0.00767  0.37897  Biso   1.000  H
  C520     1.0000 0.06856  0.98199  0.34414  Biso   1.000  C
  H553     1.0000 0.12137  0.90799  0.33146  Biso   1.000  H
  C521     1.0000 0.17312  0.95319  0.36843  Biso   1.000  C
  H554     1.0000 0.12132  0.90799  0.33146  Biso   1.000  H
  H555     1.0000 0.19026  0.00949  0.33167  Biso   1.000  H
  C522     1.0000 0.98133  0.91357  0.34452  Biso   1.000  C
  C523     1.0000 0.08647  0.06779  0.34452  Biso   1.000  C
  C524     1.0000 0.96226  0.82050  0.34473  Biso   1.000  C
  C525     1.0000 0.91344  0.93147  0.34414  Biso   1.000  C
  C526     1.0000 0.17952  0.14179  0.34473  Biso   1.000  C
  C527     1.0000 0.01803  0.08660  0.34414  Biso   1.000  C
  C528     1.0000 0.17958  0.14179  0.34473  Biso   1.000  C
  C529     1.0000 0.01808  0.08660  0.34414  Biso   1.000  C
  N41      1.0000 0.95646  0.78891  0.31701  Biso   1.000  N
  N42      1.0000 0.95643  0.78885  0.31701  Biso   1.000  N
  H556     1.0000 0.00873  0.81706  0.35506  Biso   1.000  H
  H557     1.0000 0.90685  0.78359  0.35476  Biso   1.000  H
  C530     1.0000 0.82053  0.85831  0.34219  Biso   1.000  C
  C531     1.0000 0.82058  0.85831  0.34219  Biso   1.000  C
  C532     1.0000 0.93223  0.01870  0.34452  Biso   1.000  C
  H558     1.0000 0.21645  0.12331  0.35476  Biso   1.000  H
  H559     1.0000 0.18295  0.19167  0.35506  Biso   1.000  H
  N43      1.0000 0.21113  0.16761  0.31701  Biso   1.000  N
  N44      1.0000 0.21119  0.16761  0.31701  Biso   1.000  N
  C533     1.0000 0.03773  0.17948  0.34219  Biso   1.000  C
  C534     1.0000 0.94053  0.70706  0.31195  Biso   1.000  C
  H560     1.0000 0.96331  0.82316  0.30275  Biso   1.000  H
  H561     1.0000 0.96336  0.82316  0.30275  Biso   1.000  H
  H562     1.0000 0.81924  0.80980  0.33167  Biso   1.000  H
  H563     1.0000 0.78662  0.87867  0.33146  Biso   1.000  H
  C535     1.0000 0.78003  0.82685  0.36843  Biso   1.000  C
  C536     1.0000 0.85824  0.03776  0.34473  Biso   1.000  C
  C537     1.0000 0.29295  0.23350  0.31195  Biso   1.000  C
  H564     1.0000 0.17686  0.14017  0.30275  Biso   1.000  H
  H565     1.0000 0.17680  0.14017  0.30275  Biso   1.000  H
  H566     1.0000 0.99052  0.18077  0.33167  Biso   1.000  H
  H567     1.0000 0.09204  0.21340  0.33146  Biso   1.000  H
  C538     1.0000 0.04687  0.22001  0.36843  Biso   1.000  C
  C539     1.0000 0.93246  0.67710  0.28445  Biso   1.000  C
  C540     1.0000 0.93726  0.65278  0.33339  Biso   1.000  C
  C541     1.0000 0.93721  0.65278  0.33339  Biso   1.000  C
  H568     1.0000 0.71985  0.78087  0.36556  Biso   1.000  H
  H569     1.0000 0.81124  0.80357  0.37897  Biso   1.000  H
  H570     1.0000 0.78083  0.87439  0.37916  Biso   1.000  H
  H571     1.0000 0.78088  0.87439  0.37916  Biso   1.000  H
  H572     1.0000 0.80831  0.99126  0.35506  Biso   1.000  H
  H573     1.0000 0.87676  0.09322  0.35476  Biso   1.000  H
  N45      1.0000 0.83246  0.04360  0.31701  Biso   1.000  N
  H574     1.0000 0.87673  0.09315  0.35476  Biso   1.000  H
  C542     1.0000 0.32292  0.25536  0.28445  Biso   1.000  C
  C543     1.0000 0.34725  0.28448  0.33339  Biso   1.000  C
  H575     1.0000 0.99235  0.18881  0.37897  Biso   1.000  H
  H576     1.0000 0.99232  0.18875  0.37897  Biso   1.000  H
  H577     1.0000 0.06107  0.28020  0.36556  Biso   1.000  H
  H578     1.0000 0.09352  0.21917  0.37916  Biso   1.000  H
  H579     1.0000 0.06102  0.28020  0.36556  Biso   1.000  H
  S37      1.0000 0.93661  0.74539  0.25587  Biso   1.000  S
  C544     1.0000 0.92106  0.59791  0.27928  Biso   1.000  C
  C545     1.0000 0.92103  0.59784  0.27928  Biso   1.000  C
  C546     1.0000 0.92748  0.57300  0.32822  Biso   1.000  C
  C547     1.0000 0.92743  0.57300  0.32822  Biso   1.000  C
  H580     1.0000 0.94181  0.67165  0.35237  Biso   1.000  H
  C548     1.0000 0.76655  0.05949  0.31195  Biso   1.000  C
  H581     1.0000 0.85983  0.03666  0.30275  Biso   1.000  H
  S38      1.0000 0.25462  0.19121  0.25587  Biso   1.000  S
  C549     1.0000 0.40216  0.32320  0.27928  Biso   1.000  C
  C550     1.0000 0.42700  0.35446  0.32822  Biso   1.000  C
  H582     1.0000 0.32838  0.27021  0.35237  Biso   1.000  H
  C551     1.0000 0.42706  0.35446  0.32822  Biso   1.000  C
  S39      1.0000 0.06342  0.80882  0.24413  Biso   1.000  S
  H583     1.0000 0.91164  0.57638  0.26066  Biso   1.000  H
  C552     1.0000 0.92274  0.54667  0.30145  Biso   1.000  C
  H584     1.0000 0.92417  0.53649  0.34336  Biso   1.000  H
  C553     1.0000 0.74465  0.06760  0.28445  Biso   1.000  C
  C554     1.0000 0.71557  0.06280  0.33339  Biso   1.000  C
  C555     1.0000 0.71552  0.06280  0.33339  Biso   1.000  C
  S40      1.0000 0.19124  0.25464  0.24413  Biso   1.000  S
  H585     1.0000 0.42364  0.33526  0.26066  Biso   1.000  H
  C556     1.0000 0.45334  0.37612  0.30145  Biso   1.000  C
  C557     1.0000 0.45330  0.37605  0.30145  Biso   1.000  C
  C558     1.0000 0.45339  0.37612  0.30145  Biso   1.000  C
  C559     1.0000 0.45336  0.37605  0.30145  Biso   1.000  C
  H586     1.0000 0.46355  0.38766  0.34336  Biso   1.000  H
  C560     1.0000 0.06758  0.74468  0.21555  Biso   1.000  C
  C561     1.0000 0.06754  0.74461  0.21555  Biso   1.000  C
  H587     1.0000 0.92031  0.49317  0.29757  Biso   1.000  H
  H588     1.0000 0.92036  0.49317  0.29757  Biso   1.000  H
  S41      1.0000 0.80876  0.06338  0.25587  Biso   1.000  S
  C562     1.0000 0.67684  0.07901  0.27928  Biso   1.000  C
  C563     1.0000 0.67680  0.07895  0.27928  Biso   1.000  C
  C564     1.0000 0.67689  0.07901  0.27928  Biso   1.000  C
  C565     1.0000 0.64554  0.07259  0.32822  Biso   1.000  C
  H589     1.0000 0.72984  0.05819  0.35237  Biso   1.000  H
  C566     1.0000 0.25538  0.32294  0.21555  Biso   1.000  C
  H590     1.0000 0.50683  0.42716  0.29757  Biso   1.000  H
  C567     1.0000 0.07898  0.67684  0.22072  Biso   1.000  C
  C568     1.0000 0.05946  0.76654  0.18805  Biso   1.000  C
  S42      1.0000 0.74540  0.93665  0.24413  Biso   1.000  S
  H591     1.0000 0.66474  0.08842  0.26066  Biso   1.000  H
  C569     1.0000 0.62395  0.07726  0.30145  Biso   1.000  C
  H592     1.0000 0.66471  0.08835  0.26066  Biso   1.000  H
  C570     1.0000 0.62389  0.07726  0.30145  Biso   1.000  C
  H593     1.0000 0.61237  0.07590  0.34336  Biso   1.000  H
  H594     1.0000 0.61232  0.07590  0.34336  Biso   1.000  H
  C571     1.0000 0.23349  0.29297  0.18805  Biso   1.000  C
  C572     1.0000 0.32317  0.40213  0.22072  Biso   1.000  C
  C573     1.0000 0.07729  0.62392  0.19855  Biso   1.000  C
  H595     1.0000 0.08840  0.66478  0.23932  Biso   1.000  H
  C574     1.0000 0.07724  0.62392  0.19855  Biso   1.000  C
  H596     1.0000 0.08837  0.66471  0.23932  Biso   1.000  H
  C575     1.0000 0.06279  0.71556  0.16661  Biso   1.000  C
  N46      1.0000 0.04355  0.83243  0.18299  Biso   1.000  N
  N47      1.0000 0.04360  0.83243  0.18299  Biso   1.000  N
  C576     1.0000 0.67707  0.93244  0.21555  Biso   1.000  C
  H597     1.0000 0.57280  0.07966  0.29757  Biso   1.000  H
  H598     1.0000 0.57286  0.07966  0.29757  Biso   1.000  H
  N48      1.0000 0.16757  0.21113  0.18299  Biso   1.000  N
  C577     1.0000 0.28450  0.34726  0.16661  Biso   1.000  C
  C578     1.0000 0.28445  0.34726  0.16661  Biso   1.000  C
  H599     1.0000 0.33529  0.42366  0.23932  Biso   1.000  H
  C579     1.0000 0.37609  0.45336  0.19855  Biso   1.000  C
  H600     1.0000 0.07969  0.57288  0.20243  Biso   1.000  H
  C580     1.0000 0.07256  0.64558  0.17178  Biso   1.000  C
  H601     1.0000 0.07965  0.57281  0.20243  Biso   1.000  H
  C581     1.0000 0.07253  0.64551  0.17178  Biso   1.000  C
  C582     1.0000 0.07262  0.64558  0.17178  Biso   1.000  C
  C583     1.0000 0.07259  0.64551  0.17178  Biso   1.000  C
  H602     1.0000 0.05818  0.72983  0.14763  Biso   1.000  H
  C584     1.0000 0.03775  0.85824  0.15527  Biso   1.000  C
  H603     1.0000 0.03671  0.85986  0.19722  Biso   1.000  H
  H604     1.0000 0.03665  0.85986  0.19722  Biso   1.000  H
  C585     1.0000 0.03780  0.85824  0.15527  Biso   1.000  C
  C586     1.0000 0.70707  0.94055  0.18805  Biso   1.000  C
  C587     1.0000 0.59784  0.92102  0.22072  Biso   1.000  C
  C588     1.0000 0.59790  0.92102  0.22072  Biso   1.000  C
  C589     1.0000 0.14178  0.17954  0.15527  Biso   1.000  C
  H605     1.0000 0.14017  0.17688  0.19722  Biso   1.000  H
  H606     1.0000 0.14014  0.17682  0.19722  Biso   1.000  H
  H607     1.0000 0.14023  0.17688  0.19722  Biso   1.000  H
  C590     1.0000 0.35450  0.42703  0.17178  Biso   1.000  C
  H608     1.0000 0.27018  0.32839  0.14763  Biso   1.000  H
  C591     1.0000 0.35444  0.42703  0.17178  Biso   1.000  C
  H609     1.0000 0.27015  0.32832  0.14763  Biso   1.000  H
  H610     1.0000 0.42716  0.50687  0.20243  Biso   1.000  H
  H611     1.0000 0.42722  0.50687  0.20243  Biso   1.000  H
  H612     1.0000 0.07590  0.61237  0.15664  Biso   1.000  H
  H613     1.0000 0.09316  0.87673  0.14524  Biso   1.000  H
  C592     1.0000 0.01869  0.93224  0.15548  Biso   1.000  C
  H614     1.0000 0.99130  0.80837  0.14494  Biso   1.000  H
  N49      1.0000 0.78888  0.95644  0.18299  Biso   1.000  N
  C593     1.0000 0.65279  0.93724  0.16661  Biso   1.000  C
  C594     1.0000 0.65273  0.93724  0.16661  Biso   1.000  C
  H615     1.0000 0.57634  0.91162  0.23932  Biso   1.000  H
  C595     1.0000 0.54671  0.92277  0.19855  Biso   1.000  C
  C596     1.0000 0.54665  0.92277  0.19855  Biso   1.000  C
  C597     1.0000 0.06778  0.08647  0.15548  Biso   1.000  C
  H616     1.0000 0.12327  0.21644  0.14524  Biso   1.000  H
  H617     1.0000 0.19169  0.18298  0.14494  Biso   1.000  H
  H618     1.0000 0.38769  0.46355  0.15664  Biso   1.000  H
  C598     1.0000 0.93144  0.91344  0.15586  Biso   1.000  C
  C599     1.0000 0.93150  0.91344  0.15586  Biso   1.000  C
  C600     1.0000 0.08659  0.01805  0.15586  Biso   1.000  C
  C601     1.0000 0.82050  0.96227  0.15527  Biso   1.000  C
  H619     1.0000 0.82318  0.96337  0.19722  Biso   1.000  H
  C602     1.0000 0.57297  0.92744  0.17178  Biso   1.000  C
  H620     1.0000 0.67166  0.94184  0.14763  Biso   1.000  H
  H621     1.0000 0.49316  0.92037  0.20243  Biso   1.000  H
  H622     1.0000 0.49321  0.92037  0.20243  Biso   1.000  H
  C603     1.0000 0.98199  0.06857  0.15586  Biso   1.000  C
  C604     1.0000 0.91355  0.98134  0.15548  Biso   1.000  C
  C605     1.0000 0.85827  0.82056  0.15779  Biso   1.000  C
  C606     1.0000 0.17946  0.03776  0.15779  Biso   1.000  C
  C607     1.0000 0.17952  0.03776  0.15779  Biso   1.000  C
  H623     1.0000 0.78356  0.90682  0.14524  Biso   1.000  H
  H624     1.0000 0.81707  0.00877  0.14494  Biso   1.000  H
  H625     1.0000 0.53649  0.92414  0.15664  Biso   1.000  H
  H626     1.0000 0.53643  0.92414  0.15664  Biso   1.000  H
  C608     1.0000 0.96224  0.14173  0.15779  Biso   1.000  C
  C609     1.0000 0.96229  0.14173  0.15779  Biso   1.000  C
  H627     1.0000 0.80977  0.81926  0.16833  Biso   1.000  H
  H628     1.0000 0.87866  0.78664  0.16854  Biso   1.000  H
  C610     1.0000 0.82688  0.78003  0.13157  Biso   1.000  C
  H629     1.0000 0.18079  0.99055  0.16833  Biso   1.000  H
  H630     1.0000 0.21340  0.09205  0.16854  Biso   1.000  H
  C611     1.0000 0.21995  0.04684  0.13157  Biso   1.000  C
  H631     1.0000 0.21335  0.09205  0.16854  Biso   1.000  H
  C612     1.0000 0.22001  0.04684  0.13157  Biso   1.000  C
  H632     1.0000 0.90796  0.12136  0.16854  Biso   1.000  H
  C613     1.0000 0.95320  0.17318  0.13157  Biso   1.000  C
  C614     1.0000 0.95316  0.17312  0.13157  Biso   1.000  C
  H633     1.0000 0.00947  0.19024  0.16833  Biso   1.000  H
  H634     1.0000 0.78089  0.71984  0.13442  Biso   1.000  H
  H635     1.0000 0.80356  0.81122  0.12103  Biso   1.000  H
  H636     1.0000 0.87437  0.78087  0.12084  Biso   1.000  H
  H637     1.0000 0.78084  0.71984  0.13442  Biso   1.000  H
  H638     1.0000 0.18878  0.99237  0.12103  Biso   1.000  H
  H639     1.0000 0.28019  0.06105  0.13442  Biso   1.000  H
  H640     1.0000 0.21915  0.09354  0.12084  Biso   1.000  H
  H641     1.0000 0.21920  0.09354  0.12084  Biso   1.000  H
  H642     1.0000 0.93900  0.21917  0.13442  Biso   1.000  H
  H643     1.0000 0.90645  0.12564  0.12084  Biso   1.000  H
  H644     1.0000 0.90651  0.12564  0.12084  Biso   1.000  H
  H645     1.0000 0.00769  0.19647  0.12103  Biso   1.000  H
  C615     1.0000 0.17318  0.95319  0.36843  Biso   1.000  C
  C616     1.0000 0.14172  0.96227  0.34219  Biso   1.000  C
  C617     1.0000 0.14177  0.96227  0.34219  Biso   1.000  C
  H646     1.0000 0.21916  0.93899  0.36556  Biso   1.000  H
  H647     1.0000 0.12562  0.90650  0.37916  Biso   1.000  H
  H648     1.0000 0.12568  0.90650  0.37916  Biso   1.000  H
  H649     1.0000 0.19643  0.00767  0.37897  Biso   1.000  H
  C618     1.0000 0.06856  0.98199  0.34414  Biso   1.000  C
  C619     1.0000 0.17312  0.95319  0.36843  Biso   1.000  C
  H650     1.0000 0.12137  0.90799  0.33146  Biso   1.000  H
  H651     1.0000 0.12132  0.90799  0.33146  Biso   1.000  H
  H652     1.0000 0.19026  0.00949  0.33167  Biso   1.000  H
  C620     1.0000 0.98133  0.91357  0.34452  Biso   1.000  C
  C621     1.0000 0.08647  0.06779  0.34452  Biso   1.000  C
  C622     1.0000 0.96226  0.82050  0.34473  Biso   1.000  C
  C623     1.0000 0.91344  0.93147  0.34414  Biso   1.000  C
  C624     1.0000 0.17952  0.14179  0.34473  Biso   1.000  C
  C625     1.0000 0.01803  0.08660  0.34414  Biso   1.000  C
  C626     1.0000 0.17958  0.14179  0.34473  Biso   1.000  C
  C627     1.0000 0.01808  0.08660  0.34414  Biso   1.000  C
  N50      1.0000 0.95646  0.78891  0.31701  Biso   1.000  N
  N51      1.0000 0.95643  0.78885  0.31701  Biso   1.000  N
  H653     1.0000 0.00873  0.81706  0.35506  Biso   1.000  H
  H654     1.0000 0.90685  0.78359  0.35476  Biso   1.000  H
  C628     1.0000 0.82053  0.85831  0.34219  Biso   1.000  C
  C629     1.0000 0.82058  0.85831  0.34219  Biso   1.000  C
  C630     1.0000 0.93223  0.01870  0.34452  Biso   1.000  C
  H655     1.0000 0.21645  0.12331  0.35476  Biso   1.000  H
  H656     1.0000 0.18295  0.19167  0.35506  Biso   1.000  H
  N52      1.0000 0.21113  0.16761  0.31701  Biso   1.000  N
  N53      1.0000 0.21119  0.16761  0.31701  Biso   1.000  N
  C631     1.0000 0.03773  0.17948  0.34219  Biso   1.000  C
  C632     1.0000 0.94053  0.70706  0.31195  Biso   1.000  C
  H657     1.0000 0.96331  0.82316  0.30275  Biso   1.000  H
  H658     1.0000 0.96336  0.82316  0.30275  Biso   1.000  H
  H659     1.0000 0.81924  0.80980  0.33167  Biso   1.000  H
  H660     1.0000 0.78662  0.87867  0.33146  Biso   1.000  H
  C633     1.0000 0.78003  0.82685  0.36843  Biso   1.000  C
  C634     1.0000 0.85824  0.03776  0.34473  Biso   1.000  C
  C635     1.0000 0.29295  0.23350  0.31195  Biso   1.000  C
  H661     1.0000 0.17686  0.14017  0.30275  Biso   1.000  H
  H662     1.0000 0.17680  0.14017  0.30275  Biso   1.000  H
  H663     1.0000 0.99052  0.18077  0.33167  Biso   1.000  H
  H664     1.0000 0.09204  0.21340  0.33146  Biso   1.000  H
  C636     1.0000 0.04687  0.22001  0.36843  Biso   1.000  C
  C637     1.0000 0.93246  0.67710  0.28445  Biso   1.000  C
  C638     1.0000 0.93726  0.65278  0.33339  Biso   1.000  C
  C639     1.0000 0.93721  0.65278  0.33339  Biso   1.000  C
  H665     1.0000 0.71985  0.78087  0.36556  Biso   1.000  H
  H666     1.0000 0.81124  0.80357  0.37897  Biso   1.000  H
  H667     1.0000 0.78083  0.87439  0.37916  Biso   1.000  H
  H668     1.0000 0.78088  0.87439  0.37916  Biso   1.000  H
  H669     1.0000 0.80831  0.99126  0.35506  Biso   1.000  H
  H670     1.0000 0.87676  0.09322  0.35476  Biso   1.000  H
  N54      1.0000 0.83246  0.04360  0.31701  Biso   1.000  N
  H671     1.0000 0.87673  0.09315  0.35476  Biso   1.000  H
  C640     1.0000 0.32292  0.25536  0.28445  Biso   1.000  C
  C641     1.0000 0.34725  0.28448  0.33339  Biso   1.000  C
  H672     1.0000 0.99235  0.18881  0.37897  Biso   1.000  H
  H673     1.0000 0.99232  0.18875  0.37897  Biso   1.000  H
  H674     1.0000 0.06107  0.28020  0.36556  Biso   1.000  H
  H675     1.0000 0.09352  0.21917  0.37916  Biso   1.000  H
  H676     1.0000 0.06102  0.28020  0.36556  Biso   1.000  H
  S43      1.0000 0.93661  0.74539  0.25587  Biso   1.000  S
  C642     1.0000 0.92106  0.59791  0.27928  Biso   1.000  C
  C643     1.0000 0.92103  0.59784  0.27928  Biso   1.000  C
  C644     1.0000 0.92748  0.57300  0.32822  Biso   1.000  C
  C645     1.0000 0.92743  0.57300  0.32822  Biso   1.000  C
  H677     1.0000 0.94181  0.67165  0.35237  Biso   1.000  H
  C646     1.0000 0.76655  0.05949  0.31195  Biso   1.000  C
  H678     1.0000 0.85983  0.03666  0.30275  Biso   1.000  H
  S44      1.0000 0.25462  0.19121  0.25587  Biso   1.000  S
  C647     1.0000 0.40216  0.32320  0.27928  Biso   1.000  C
  C648     1.0000 0.42700  0.35446  0.32822  Biso   1.000  C
  H679     1.0000 0.32838  0.27021  0.35237  Biso   1.000  H
  C649     1.0000 0.42706  0.35446  0.32822  Biso   1.000  C
  S45      1.0000 0.06342  0.80882  0.24413  Biso   1.000  S
  H680     1.0000 0.91164  0.57638  0.26066  Biso   1.000  H
  C650     1.0000 0.92274  0.54667  0.30145  Biso   1.000  C
  H681     1.0000 0.92417  0.53649  0.34336  Biso   1.000  H
  C651     1.0000 0.74465  0.06760  0.28445  Biso   1.000  C
  C652     1.0000 0.71557  0.06280  0.33339  Biso   1.000  C
  C653     1.0000 0.71552  0.06280  0.33339  Biso   1.000  C
  S46      1.0000 0.19124  0.25464  0.24413  Biso   1.000  S
  H682     1.0000 0.42364  0.33526  0.26066  Biso   1.000  H
  C654     1.0000 0.45334  0.37612  0.30145  Biso   1.000  C
  C655     1.0000 0.45330  0.37605  0.30145  Biso   1.000  C
  C656     1.0000 0.45339  0.37612  0.30145  Biso   1.000  C
  C657     1.0000 0.45336  0.37605  0.30145  Biso   1.000  C
  H683     1.0000 0.46355  0.38766  0.34336  Biso   1.000  H
  C658     1.0000 0.06758  0.74468  0.21555  Biso   1.000  C
  C659     1.0000 0.06754  0.74461  0.21555  Biso   1.000  C
  H684     1.0000 0.92031  0.49317  0.29757  Biso   1.000  H
  H685     1.0000 0.92036  0.49317  0.29757  Biso   1.000  H
  S47      1.0000 0.80876  0.06338  0.25587  Biso   1.000  S
  C660     1.0000 0.67684  0.07901  0.27928  Biso   1.000  C
  C661     1.0000 0.67680  0.07895  0.27928  Biso   1.000  C
  C662     1.0000 0.67689  0.07901  0.27928  Biso   1.000  C
  C663     1.0000 0.64554  0.07259  0.32822  Biso   1.000  C
  H686     1.0000 0.72984  0.05819  0.35237  Biso   1.000  H
  C664     1.0000 0.25538  0.32294  0.21555  Biso   1.000  C
  H687     1.0000 0.50683  0.42716  0.29757  Biso   1.000  H
  C665     1.0000 0.07898  0.67684  0.22072  Biso   1.000  C
  C666     1.0000 0.05946  0.76654  0.18805  Biso   1.000  C
  S48      1.0000 0.74540  0.93665  0.24413  Biso   1.000  S
  H688     1.0000 0.66474  0.08842  0.26066  Biso   1.000  H
  C667     1.0000 0.62395  0.07726  0.30145  Biso   1.000  C
  H689     1.0000 0.66471  0.08835  0.26066  Biso   1.000  H
  C668     1.0000 0.62389  0.07726  0.30145  Biso   1.000  C
  H690     1.0000 0.61237  0.07590  0.34336  Biso   1.000  H
  H691     1.0000 0.61232  0.07590  0.34336  Biso   1.000  H
  C669     1.0000 0.23349  0.29297  0.18805  Biso   1.000  C
  C670     1.0000 0.32317  0.40213  0.22072  Biso   1.000  C
  C671     1.0000 0.07729  0.62392  0.19855  Biso   1.000  C
  C672     1.0000 0.07724  0.62392  0.19855  Biso   1.000  C
  H692     1.0000 0.08840  0.66478  0.23932  Biso   1.000  H
  H693     1.0000 0.08837  0.66471  0.23932  Biso   1.000  H
  C673     1.0000 0.06279  0.71556  0.16661  Biso   1.000  C
  N55      1.0000 0.04355  0.83243  0.18299  Biso   1.000  N
  N56      1.0000 0.04360  0.83243  0.18299  Biso   1.000  N
  C674     1.0000 0.67707  0.93244  0.21555  Biso   1.000  C
  H694     1.0000 0.57280  0.07966  0.29757  Biso   1.000  H
  H695     1.0000 0.57286  0.07966  0.29757  Biso   1.000  H
  N57      1.0000 0.16757  0.21113  0.18299  Biso   1.000  N
  C675     1.0000 0.28450  0.34726  0.16661  Biso   1.000  C
  C676     1.0000 0.28445  0.34726  0.16661  Biso   1.000  C
  H696     1.0000 0.33529  0.42366  0.23932  Biso   1.000  H
  C677     1.0000 0.37609  0.45336  0.19855  Biso   1.000  C
  H697     1.0000 0.07969  0.57288  0.20243  Biso   1.000  H
  H698     1.0000 0.07965  0.57281  0.20243  Biso   1.000  H
  C678     1.0000 0.07256  0.64558  0.17178  Biso   1.000  C
  C679     1.0000 0.07253  0.64551  0.17178  Biso   1.000  C
  C680     1.0000 0.07262  0.64558  0.17178  Biso   1.000  C
  C681     1.0000 0.07259  0.64551  0.17178  Biso   1.000  C
  H699     1.0000 0.05818  0.72983  0.14763  Biso   1.000  H
  C682     1.0000 0.03775  0.85824  0.15527  Biso   1.000  C
  H700     1.0000 0.03671  0.85986  0.19722  Biso   1.000  H
  C683     1.0000 0.03780  0.85824  0.15527  Biso   1.000  C
  H701     1.0000 0.03665  0.85986  0.19722  Biso   1.000  H
  C684     1.0000 0.70707  0.94055  0.18805  Biso   1.000  C
  C685     1.0000 0.59784  0.92102  0.22072  Biso   1.000  C
  C686     1.0000 0.59790  0.92102  0.22072  Biso   1.000  C
  C687     1.0000 0.14178  0.17954  0.15527  Biso   1.000  C
  H702     1.0000 0.14017  0.17688  0.19722  Biso   1.000  H
  H703     1.0000 0.14014  0.17682  0.19722  Biso   1.000  H
  H704     1.0000 0.14023  0.17688  0.19722  Biso   1.000  H
  C688     1.0000 0.35450  0.42703  0.17178  Biso   1.000  C
  H705     1.0000 0.27018  0.32839  0.14763  Biso   1.000  H
  C689     1.0000 0.35444  0.42703  0.17178  Biso   1.000  C
  H706     1.0000 0.27015  0.32832  0.14763  Biso   1.000  H
  H707     1.0000 0.42716  0.50687  0.20243  Biso   1.000  H
  H708     1.0000 0.42722  0.50687  0.20243  Biso   1.000  H
  H709     1.0000 0.07590  0.61237  0.15664  Biso   1.000  H
  H710     1.0000 0.09316  0.87673  0.14524  Biso   1.000  H
  C690     1.0000 0.01869  0.93224  0.15548  Biso   1.000  C
  H711     1.0000 0.99130  0.80837  0.14494  Biso   1.000  H
  N58      1.0000 0.78888  0.95644  0.18299  Biso   1.000  N
  C691     1.0000 0.65279  0.93724  0.16661  Biso   1.000  C
  C692     1.0000 0.65273  0.93724  0.16661  Biso   1.000  C
  H712     1.0000 0.57634  0.91162  0.23932  Biso   1.000  H
  C693     1.0000 0.54671  0.92277  0.19855  Biso   1.000  C
  C694     1.0000 0.54665  0.92277  0.19855  Biso   1.000  C
  C695     1.0000 0.06778  0.08647  0.15548  Biso   1.000  C
  H713     1.0000 0.12327  0.21644  0.14524  Biso   1.000  H
  H714     1.0000 0.19169  0.18298  0.14494  Biso   1.000  H
  H715     1.0000 0.38769  0.46355  0.15664  Biso   1.000  H
  C696     1.0000 0.93144  0.91344  0.15586  Biso   1.000  C
  C697     1.0000 0.93150  0.91344  0.15586  Biso   1.000  C
  C698     1.0000 0.08659  0.01805  0.15586  Biso   1.000  C
  C699     1.0000 0.82050  0.96227  0.15527  Biso   1.000  C
  H716     1.0000 0.82318  0.96337  0.19722  Biso   1.000  H
  C700     1.0000 0.57297  0.92744  0.17178  Biso   1.000  C
  H717     1.0000 0.67166  0.94184  0.14763  Biso   1.000  H
  H718     1.0000 0.49316  0.92037  0.20243  Biso   1.000  H
  H719     1.0000 0.49321  0.92037  0.20243  Biso   1.000  H
  C701     1.0000 0.98199  0.06857  0.15586  Biso   1.000  C
  C702     1.0000 0.91355  0.98134  0.15548  Biso   1.000  C
  C703     1.0000 0.85827  0.82056  0.15779  Biso   1.000  C
  C704     1.0000 0.17946  0.03776  0.15779  Biso   1.000  C
  C705     1.0000 0.17952  0.03776  0.15779  Biso   1.000  C
  H720     1.0000 0.78356  0.90682  0.14524  Biso   1.000  H
  H721     1.0000 0.81707  0.00877  0.14494  Biso   1.000  H
  H722     1.0000 0.53649  0.92414  0.15664  Biso   1.000  H
  H723     1.0000 0.53643  0.92414  0.15664  Biso   1.000  H
  C706     1.0000 0.96224  0.14173  0.15779  Biso   1.000  C
  C707     1.0000 0.96229  0.14173  0.15779  Biso   1.000  C
  H724     1.0000 0.80977  0.81926  0.16833  Biso   1.000  H
  H725     1.0000 0.87866  0.78664  0.16854  Biso   1.000  H
  C708     1.0000 0.82688  0.78003  0.13157  Biso   1.000  C
  H726     1.0000 0.18079  0.99055  0.16833  Biso   1.000  H
  H727     1.0000 0.21340  0.09205  0.16854  Biso   1.000  H
  C709     1.0000 0.21995  0.04684  0.13157  Biso   1.000  C
  H728     1.0000 0.21335  0.09205  0.16854  Biso   1.000  H
  C710     1.0000 0.22001  0.04684  0.13157  Biso   1.000  C
  H729     1.0000 0.90796  0.12136  0.16854  Biso   1.000  H
  C711     1.0000 0.95320  0.17318  0.13157  Biso   1.000  C
  C712     1.0000 0.95316  0.17312  0.13157  Biso   1.000  C
  H730     1.0000 0.00947  0.19024  0.16833  Biso   1.000  H
  H731     1.0000 0.78089  0.71984  0.13442  Biso   1.000  H
  H732     1.0000 0.80356  0.81122  0.12103  Biso   1.000  H
  H733     1.0000 0.87437  0.78087  0.12084  Biso   1.000  H
  H734     1.0000 0.78084  0.71984  0.13442  Biso   1.000  H
  H735     1.0000 0.18878  0.99237  0.12103  Biso   1.000  H
  H736     1.0000 0.28019  0.06105  0.13442  Biso   1.000  H
  H737     1.0000 0.21915  0.09354  0.12084  Biso   1.000  H
  H738     1.0000 0.21920  0.09354  0.12084  Biso   1.000  H
  H739     1.0000 0.93900  0.21917  0.13442  Biso   1.000  H
  H740     1.0000 0.90645  0.12564  0.12084  Biso   1.000  H
  H741     1.0000 0.90651  0.12564  0.12084  Biso   1.000  H
  H742     1.0000 0.00769  0.19647  0.12103  Biso   1.000  H
  C713     1.0000 0.17318  0.95319  0.36843  Biso   1.000  C
  C714     1.0000 0.14172  0.96227  0.34219  Biso   1.000  C
  C715     1.0000 0.14177  0.96227  0.34219  Biso   1.000  C
  H743     1.0000 0.21916  0.93899  0.36556  Biso   1.000  H
  H744     1.0000 0.12562  0.90650  0.37916  Biso   1.000  H
  H745     1.0000 0.12568  0.90650  0.37916  Biso   1.000  H
  H746     1.0000 0.19643  0.00767  0.37897  Biso   1.000  H
  C716     1.0000 0.06856  0.98199  0.34414  Biso   1.000  C
  H747     1.0000 0.12137  0.90799  0.33146  Biso   1.000  H
  C717     1.0000 0.17312  0.95319  0.36843  Biso   1.000  C
  H748     1.0000 0.12132  0.90799  0.33146  Biso   1.000  H
  H749     1.0000 0.19026  0.00949  0.33167  Biso   1.000  H
  C718     1.0000 0.98133  0.91357  0.34452  Biso   1.000  C
  C719     1.0000 0.08647  0.06779  0.34452  Biso   1.000  C
  C720     1.0000 0.96226  0.82050  0.34473  Biso   1.000  C
  C721     1.0000 0.91344  0.93147  0.34414  Biso   1.000  C
  C722     1.0000 0.17952  0.14179  0.34473  Biso   1.000  C
  C723     1.0000 0.01803  0.08660  0.34414  Biso   1.000  C
  C724     1.0000 0.17958  0.14179  0.34473  Biso   1.000  C
  C725     1.0000 0.01808  0.08660  0.34414  Biso   1.000  C
  N59      1.0000 0.95646  0.78891  0.31701  Biso   1.000  N
  N60      1.0000 0.95643  0.78885  0.31701  Biso   1.000  N
  H750     1.0000 0.00873  0.81706  0.35506  Biso   1.000  H
  H751     1.0000 0.90685  0.78359  0.35476  Biso   1.000  H
  C726     1.0000 0.82053  0.85831  0.34219  Biso   1.000  C
  C727     1.0000 0.82058  0.85831  0.34219  Biso   1.000  C
  C728     1.0000 0.93223  0.01870  0.34452  Biso   1.000  C
  H752     1.0000 0.21645  0.12331  0.35476  Biso   1.000  H
  H753     1.0000 0.18295  0.19167  0.35506  Biso   1.000  H
  N61      1.0000 0.21113  0.16761  0.31701  Biso   1.000  N
  N62      1.0000 0.21119  0.16761  0.31701  Biso   1.000  N
  C729     1.0000 0.03773  0.17948  0.34219  Biso   1.000  C
  C730     1.0000 0.94053  0.70706  0.31195  Biso   1.000  C
  H754     1.0000 0.96331  0.82316  0.30275  Biso   1.000  H
  H755     1.0000 0.96336  0.82316  0.30275  Biso   1.000  H
  H756     1.0000 0.81924  0.80980  0.33167  Biso   1.000  H
  H757     1.0000 0.78662  0.87867  0.33146  Biso   1.000  H
  C731     1.0000 0.78003  0.82685  0.36843  Biso   1.000  C
  C732     1.0000 0.85824  0.03776  0.34473  Biso   1.000  C
  C733     1.0000 0.29295  0.23350  0.31195  Biso   1.000  C
  H758     1.0000 0.17686  0.14017  0.30275  Biso   1.000  H
  H759     1.0000 0.17680  0.14017  0.30275  Biso   1.000  H
  H760     1.0000 0.99052  0.18077  0.33167  Biso   1.000  H
  H761     1.0000 0.09204  0.21340  0.33146  Biso   1.000  H
  C734     1.0000 0.04687  0.22001  0.36843  Biso   1.000  C
  C735     1.0000 0.93246  0.67710  0.28445  Biso   1.000  C
  C736     1.0000 0.93726  0.65278  0.33339  Biso   1.000  C
  C737     1.0000 0.93721  0.65278  0.33339  Biso   1.000  C
  H762     1.0000 0.71985  0.78087  0.36556  Biso   1.000  H
  H763     1.0000 0.81124  0.80357  0.37897  Biso   1.000  H
  H764     1.0000 0.78083  0.87439  0.37916  Biso   1.000  H
  H765     1.0000 0.78088  0.87439  0.37916  Biso   1.000  H
  H766     1.0000 0.80831  0.99126  0.35506  Biso   1.000  H
  H767     1.0000 0.87676  0.09322  0.35476  Biso   1.000  H
  N63      1.0000 0.83246  0.04360  0.31701  Biso   1.000  N
  H768     1.0000 0.87673  0.09315  0.35476  Biso   1.000  H
  C738     1.0000 0.32292  0.25536  0.28445  Biso   1.000  C
  C739     1.0000 0.34725  0.28448  0.33339  Biso   1.000  C
  H769     1.0000 0.99235  0.18881  0.37897  Biso   1.000  H
  H770     1.0000 0.99232  0.18875  0.37897  Biso   1.000  H
  H771     1.0000 0.06107  0.28020  0.36556  Biso   1.000  H
  H772     1.0000 0.09352  0.21917  0.37916  Biso   1.000  H
  H773     1.0000 0.06102  0.28020  0.36556  Biso   1.000  H
  S49      1.0000 0.93661  0.74539  0.25587  Biso   1.000  S
  C740     1.0000 0.92106  0.59791  0.27928  Biso   1.000  C
  C741     1.0000 0.92103  0.59784  0.27928  Biso   1.000  C
  C742     1.0000 0.92748  0.57300  0.32822  Biso   1.000  C
  C743     1.0000 0.92743  0.57300  0.32822  Biso   1.000  C
  H774     1.0000 0.94181  0.67165  0.35237  Biso   1.000  H
  C744     1.0000 0.76655  0.05949  0.31195  Biso   1.000  C
  H775     1.0000 0.85983  0.03666  0.30275  Biso   1.000  H
  S50      1.0000 0.25462  0.19121  0.25587  Biso   1.000  S
  C745     1.0000 0.40216  0.32320  0.27928  Biso   1.000  C
  C746     1.0000 0.42700  0.35446  0.32822  Biso   1.000  C
  H776     1.0000 0.32838  0.27021  0.35237  Biso   1.000  H
  C747     1.0000 0.42706  0.35446  0.32822  Biso   1.000  C
  S51      1.0000 0.06342  0.80882  0.24413  Biso   1.000  S
  H777     1.0000 0.91164  0.57638  0.26066  Biso   1.000  H
  C748     1.0000 0.92274  0.54667  0.30145  Biso   1.000  C
  H778     1.0000 0.92417  0.53649  0.34336  Biso   1.000  H
  C749     1.0000 0.74465  0.06760  0.28445  Biso   1.000  C
  C750     1.0000 0.71557  0.06280  0.33339  Biso   1.000  C
  C751     1.0000 0.71552  0.06280  0.33339  Biso   1.000  C
  S52      1.0000 0.19124  0.25464  0.24413  Biso   1.000  S
  H779     1.0000 0.42364  0.33526  0.26066  Biso   1.000  H
  C752     1.0000 0.45334  0.37612  0.30145  Biso   1.000  C
  C753     1.0000 0.45330  0.37605  0.30145  Biso   1.000  C
  C754     1.0000 0.45339  0.37612  0.30145  Biso   1.000  C
  C755     1.0000 0.45336  0.37605  0.30145  Biso   1.000  C
  H780     1.0000 0.46355  0.38766  0.34336  Biso   1.000  H
  C756     1.0000 0.06758  0.74468  0.21555  Biso   1.000  C
  C757     1.0000 0.06754  0.74461  0.21555  Biso   1.000  C
  H781     1.0000 0.92031  0.49317  0.29757  Biso   1.000  H
  H782     1.0000 0.92036  0.49317  0.29757  Biso   1.000  H
  S53      1.0000 0.80876  0.06338  0.25587  Biso   1.000  S
  C758     1.0000 0.67684  0.07901  0.27928  Biso   1.000  C
  C759     1.0000 0.67680  0.07895  0.27928  Biso   1.000  C
  C760     1.0000 0.67689  0.07901  0.27928  Biso   1.000  C
  C761     1.0000 0.64554  0.07259  0.32822  Biso   1.000  C
  H783     1.0000 0.72984  0.05819  0.35237  Biso   1.000  H
  C762     1.0000 0.25538  0.32294  0.21555  Biso   1.000  C
  H784     1.0000 0.50683  0.42716  0.29757  Biso   1.000  H
  C763     1.0000 0.07898  0.67684  0.22072  Biso   1.000  C
  C764     1.0000 0.05946  0.76654  0.18805  Biso   1.000  C
  S54      1.0000 0.74540  0.93665  0.24413  Biso   1.000  S
  H785     1.0000 0.66474  0.08842  0.26066  Biso   1.000  H
  C765     1.0000 0.62395  0.07726  0.30145  Biso   1.000  C
  H786     1.0000 0.66471  0.08835  0.26066  Biso   1.000  H
  C766     1.0000 0.62389  0.07726  0.30145  Biso   1.000  C
  H787     1.0000 0.61237  0.07590  0.34336  Biso   1.000  H
  H788     1.0000 0.61232  0.07590  0.34336  Biso   1.000  H
  C767     1.0000 0.23349  0.29297  0.18805  Biso   1.000  C
  C768     1.0000 0.32317  0.40213  0.22072  Biso   1.000  C
  H789     1.0000 0.08840  0.66478  0.23932  Biso   1.000  H
  C769     1.0000 0.07724  0.62392  0.19855  Biso   1.000  C
  H790     1.0000 0.08837  0.66471  0.23932  Biso   1.000  H
  C770     1.0000 0.07729  0.62392  0.19855  Biso   1.000  C
  C771     1.0000 0.06279  0.71556  0.16661  Biso   1.000  C
  N64      1.0000 0.04355  0.83243  0.18299  Biso   1.000  N
  N65      1.0000 0.04360  0.83243  0.18299  Biso   1.000  N
  C772     1.0000 0.67707  0.93244  0.21555  Biso   1.000  C
  H791     1.0000 0.57280  0.07966  0.29757  Biso   1.000  H
  H792     1.0000 0.57286  0.07966  0.29757  Biso   1.000  H
  N66      1.0000 0.16757  0.21113  0.18299  Biso   1.000  N
  C773     1.0000 0.28450  0.34726  0.16661  Biso   1.000  C
  C774     1.0000 0.28445  0.34726  0.16661  Biso   1.000  C
  H793     1.0000 0.33529  0.42366  0.23932  Biso   1.000  H
  C775     1.0000 0.37609  0.45336  0.19855  Biso   1.000  C
  H794     1.0000 0.07969  0.57288  0.20243  Biso   1.000  H
  C776     1.0000 0.07256  0.64558  0.17178  Biso   1.000  C
  H795     1.0000 0.07965  0.57281  0.20243  Biso   1.000  H
  C777     1.0000 0.07253  0.64551  0.17178  Biso   1.000  C
  C778     1.0000 0.07262  0.64558  0.17178  Biso   1.000  C
  C779     1.0000 0.07259  0.64551  0.17178  Biso   1.000  C
  H796     1.0000 0.05818  0.72983  0.14763  Biso   1.000  H
  H797     1.0000 0.03671  0.85986  0.19722  Biso   1.000  H
  C780     1.0000 0.03775  0.85824  0.15527  Biso   1.000  C
  H798     1.0000 0.03665  0.85986  0.19722  Biso   1.000  H
  C781     1.0000 0.03780  0.85824  0.15527  Biso   1.000  C
  C782     1.0000 0.70707  0.94055  0.18805  Biso   1.000  C
  C783     1.0000 0.59784  0.92102  0.22072  Biso   1.000  C
  C784     1.0000 0.59790  0.92102  0.22072  Biso   1.000  C
  C785     1.0000 0.14178  0.17954  0.15527  Biso   1.000  C
  H799     1.0000 0.14017  0.17688  0.19722  Biso   1.000  H
  H800     1.0000 0.14014  0.17682  0.19722  Biso   1.000  H
  H801     1.0000 0.14023  0.17688  0.19722  Biso   1.000  H
  C786     1.0000 0.35450  0.42703  0.17178  Biso   1.000  C
  H802     1.0000 0.27018  0.32839  0.14763  Biso   1.000  H
  C787     1.0000 0.35444  0.42703  0.17178  Biso   1.000  C
  H803     1.0000 0.27015  0.32832  0.14763  Biso   1.000  H
  H804     1.0000 0.42716  0.50687  0.20243  Biso   1.000  H
  H805     1.0000 0.42722  0.50687  0.20243  Biso   1.000  H
  H806     1.0000 0.07590  0.61237  0.15664  Biso   1.000  H
  H807     1.0000 0.09316  0.87673  0.14524  Biso   1.000  H
  C788     1.0000 0.01869  0.93224  0.15548  Biso   1.000  C
  H808     1.0000 0.99130  0.80837  0.14494  Biso   1.000  H
  N67      1.0000 0.78888  0.95644  0.18299  Biso   1.000  N
  C789     1.0000 0.65279  0.93724  0.16661  Biso   1.000  C
  C790     1.0000 0.65273  0.93724  0.16661  Biso   1.000  C
  H809     1.0000 0.57634  0.91162  0.23932  Biso   1.000  H
  C791     1.0000 0.54671  0.92277  0.19855  Biso   1.000  C
  C792     1.0000 0.54665  0.92277  0.19855  Biso   1.000  C
  C793     1.0000 0.06778  0.08647  0.15548  Biso   1.000  C
  H810     1.0000 0.12327  0.21644  0.14524  Biso   1.000  H
  H811     1.0000 0.19169  0.18298  0.14494  Biso   1.000  H
  H812     1.0000 0.38769  0.46355  0.15664  Biso   1.000  H
  C794     1.0000 0.93144  0.91344  0.15586  Biso   1.000  C
  C795     1.0000 0.93150  0.91344  0.15586  Biso   1.000  C
  C796     1.0000 0.08659  0.01805  0.15586  Biso   1.000  C
  C797     1.0000 0.82050  0.96227  0.15527  Biso   1.000  C
  H813     1.0000 0.82318  0.96337  0.19722  Biso   1.000  H
  C798     1.0000 0.57297  0.92744  0.17178  Biso   1.000  C
  H814     1.0000 0.67166  0.94184  0.14763  Biso   1.000  H
  H815     1.0000 0.49316  0.92037  0.20243  Biso   1.000  H
  H816     1.0000 0.49321  0.92037  0.20243  Biso   1.000  H
  C799     1.0000 0.98199  0.06857  0.15586  Biso   1.000  C
  C800     1.0000 0.91355  0.98134  0.15548  Biso   1.000  C
  C801     1.0000 0.85827  0.82056  0.15779  Biso   1.000  C
  C802     1.0000 0.17946  0.03776  0.15779  Biso   1.000  C
  C803     1.0000 0.17952  0.03776  0.15779  Biso   1.000  C
  H817     1.0000 0.78356  0.90682  0.14524  Biso   1.000  H
  H818     1.0000 0.81707  0.00877  0.14494  Biso   1.000  H
  H819     1.0000 0.53649  0.92414  0.15664  Biso   1.000  H
  H820     1.0000 0.53643  0.92414  0.15664  Biso   1.000  H
  C804     1.0000 0.96224  0.14173  0.15779  Biso   1.000  C
  C805     1.0000 0.96229  0.14173  0.15779  Biso   1.000  C
  H821     1.0000 0.80977  0.81926  0.16833  Biso   1.000  H
  H822     1.0000 0.87866  0.78664  0.16854  Biso   1.000  H
  C806     1.0000 0.82688  0.78003  0.13157  Biso   1.000  C
  H823     1.0000 0.18079  0.99055  0.16833  Biso   1.000  H
  H824     1.0000 0.21340  0.09205  0.16854  Biso   1.000  H
  C807     1.0000 0.21995  0.04684  0.13157  Biso   1.000  C
  H825     1.0000 0.21335  0.09205  0.16854  Biso   1.000  H
  C808     1.0000 0.22001  0.04684  0.13157  Biso   1.000  C
  H826     1.0000 0.90796  0.12136  0.16854  Biso   1.000  H
  C809     1.0000 0.95320  0.17318  0.13157  Biso   1.000  C
  C810     1.0000 0.95316  0.17312  0.13157  Biso   1.000  C
  H827     1.0000 0.00947  0.19024  0.16833  Biso   1.000  H
  H828     1.0000 0.78089  0.71984  0.13442  Biso   1.000  H
  H829     1.0000 0.80356  0.81122  0.12103  Biso   1.000  H
  H830     1.0000 0.87437  0.78087  0.12084  Biso   1.000  H
  H831     1.0000 0.78084  0.71984  0.13442  Biso   1.000  H
  H832     1.0000 0.18878  0.99237  0.12103  Biso   1.000  H
  H833     1.0000 0.28019  0.06105  0.13442  Biso   1.000  H
  H834     1.0000 0.21915  0.09354  0.12084  Biso   1.000  H
  H835     1.0000 0.21920  0.09354  0.12084  Biso   1.000  H
  H836     1.0000 0.93900  0.21917  0.13442  Biso   1.000  H
  H837     1.0000 0.90645  0.12564  0.12084  Biso   1.000  H
  H838     1.0000 0.90651  0.12564  0.12084  Biso   1.000  H
  H839     1.0000 0.00769  0.19647  0.12103  Biso   1.000  H
  C811     1.0000 0.17318  0.95319  0.36843  Biso   1.000  C
  C812     1.0000 0.14172  0.96227  0.34219  Biso   1.000  C
  C813     1.0000 0.14177  0.96227  0.34219  Biso   1.000  C
  H840     1.0000 0.21916  0.93899  0.36556  Biso   1.000  H
  H841     1.0000 0.12562  0.90650  0.37916  Biso   1.000  H
  H842     1.0000 0.12568  0.90650  0.37916  Biso   1.000  H
  H843     1.0000 0.19643  0.00767  0.37897  Biso   1.000  H
  C814     1.0000 0.06856  0.98199  0.34414  Biso   1.000  C
  H844     1.0000 0.12137  0.90799  0.33146  Biso   1.000  H
  C815     1.0000 0.17312  0.95319  0.36843  Biso   1.000  C
  H845     1.0000 0.12132  0.90799  0.33146  Biso   1.000  H
  H846     1.0000 0.19026  0.00949  0.33167  Biso   1.000  H
  C816     1.0000 0.98133  0.91357  0.34452  Biso   1.000  C
  C817     1.0000 0.08647  0.06779  0.34452  Biso   1.000  C
  C818     1.0000 0.96226  0.82050  0.34473  Biso   1.000  C
  C819     1.0000 0.91344  0.93147  0.34414  Biso   1.000  C
  C820     1.0000 0.17952  0.14179  0.34473  Biso   1.000  C
  C821     1.0000 0.01803  0.08660  0.34414  Biso   1.000  C
  C822     1.0000 0.17958  0.14179  0.34473  Biso   1.000  C
  C823     1.0000 0.01808  0.08660  0.34414  Biso   1.000  C
  N68      1.0000 0.95646  0.78891  0.31701  Biso   1.000  N
  N69      1.0000 0.95643  0.78885  0.31701  Biso   1.000  N
  H847     1.0000 0.00873  0.81706  0.35506  Biso   1.000  H
  H848     1.0000 0.90685  0.78359  0.35476  Biso   1.000  H
  C824     1.0000 0.82053  0.85831  0.34219  Biso   1.000  C
  C825     1.0000 0.82058  0.85831  0.34219  Biso   1.000  C
  C826     1.0000 0.93223  0.01870  0.34452  Biso   1.000  C
  H849     1.0000 0.21645  0.12331  0.35476  Biso   1.000  H
  H850     1.0000 0.18295  0.19167  0.35506  Biso   1.000  H
  N70      1.0000 0.21113  0.16761  0.31701  Biso   1.000  N
  N71      1.0000 0.21119  0.16761  0.31701  Biso   1.000  N
  C827     1.0000 0.03773  0.17948  0.34219  Biso   1.000  C
  C828     1.0000 0.94053  0.70706  0.31195  Biso   1.000  C
  H851     1.0000 0.96331  0.82316  0.30275  Biso   1.000  H
  H852     1.0000 0.96336  0.82316  0.30275  Biso   1.000  H
  H853     1.0000 0.81924  0.80980  0.33167  Biso   1.000  H
  H854     1.0000 0.78662  0.87867  0.33146  Biso   1.000  H
  C829     1.0000 0.78003  0.82685  0.36843  Biso   1.000  C
  C830     1.0000 0.85824  0.03776  0.34473  Biso   1.000  C
  C831     1.0000 0.29295  0.23350  0.31195  Biso   1.000  C
  H855     1.0000 0.17686  0.14017  0.30275  Biso   1.000  H
  H856     1.0000 0.17680  0.14017  0.30275  Biso   1.000  H
  H857     1.0000 0.99052  0.18077  0.33167  Biso   1.000  H
  H858     1.0000 0.09204  0.21340  0.33146  Biso   1.000  H
  C832     1.0000 0.04687  0.22001  0.36843  Biso   1.000  C
  C833     1.0000 0.93246  0.67710  0.28445  Biso   1.000  C
  C834     1.0000 0.93726  0.65278  0.33339  Biso   1.000  C
  C835     1.0000 0.93721  0.65278  0.33339  Biso   1.000  C
  H859     1.0000 0.71985  0.78087  0.36556  Biso   1.000  H
  H860     1.0000 0.81124  0.80357  0.37897  Biso   1.000  H
  H861     1.0000 0.78083  0.87439  0.37916  Biso   1.000  H
  H862     1.0000 0.78088  0.87439  0.37916  Biso   1.000  H
  H863     1.0000 0.80831  0.99126  0.35506  Biso   1.000  H
  H864     1.0000 0.87676  0.09322  0.35476  Biso   1.000  H
  N72      1.0000 0.83246  0.04360  0.31701  Biso   1.000  N
  H865     1.0000 0.87673  0.09315  0.35476  Biso   1.000  H
  C836     1.0000 0.32292  0.25536  0.28445  Biso   1.000  C
  C837     1.0000 0.34725  0.28448  0.33339  Biso   1.000  C
  H866     1.0000 0.99235  0.18881  0.37897  Biso   1.000  H
  H867     1.0000 0.99232  0.18875  0.37897  Biso   1.000  H
  H868     1.0000 0.06107  0.28020  0.36556  Biso   1.000  H
  H869     1.0000 0.09352  0.21917  0.37916  Biso   1.000  H
  H870     1.0000 0.06102  0.28020  0.36556  Biso   1.000  H
  S55      1.0000 0.93661  0.74539  0.25587  Biso   1.000  S
  C838     1.0000 0.92106  0.59791  0.27928  Biso   1.000  C
  C839     1.0000 0.92103  0.59784  0.27928  Biso   1.000  C
  C840     1.0000 0.92748  0.57300  0.32822  Biso   1.000  C
  C841     1.0000 0.92743  0.57300  0.32822  Biso   1.000  C
  H871     1.0000 0.94181  0.67165  0.35237  Biso   1.000  H
  C842     1.0000 0.76655  0.05949  0.31195  Biso   1.000  C
  H872     1.0000 0.85983  0.03666  0.30275  Biso   1.000  H
  S56      1.0000 0.25462  0.19121  0.25587  Biso   1.000  S
  C843     1.0000 0.40216  0.32320  0.27928  Biso   1.000  C
  C844     1.0000 0.42700  0.35446  0.32822  Biso   1.000  C
  H873     1.0000 0.32838  0.27021  0.35237  Biso   1.000  H
  C845     1.0000 0.42706  0.35446  0.32822  Biso   1.000  C
  S57      1.0000 0.06342  0.80882  0.24413  Biso   1.000  S
  H874     1.0000 0.91164  0.57638  0.26066  Biso   1.000  H
  C846     1.0000 0.92274  0.54667  0.30145  Biso   1.000  C
  H875     1.0000 0.92417  0.53649  0.34336  Biso   1.000  H
  C847     1.0000 0.74465  0.06760  0.28445  Biso   1.000  C
  C848     1.0000 0.71557  0.06280  0.33339  Biso   1.000  C
  C849     1.0000 0.71552  0.06280  0.33339  Biso   1.000  C
  S58      1.0000 0.19124  0.25464  0.24413  Biso   1.000  S
  H876     1.0000 0.42364  0.33526  0.26066  Biso   1.000  H
  C850     1.0000 0.45334  0.37612  0.30145  Biso   1.000  C
  C851     1.0000 0.45330  0.37605  0.30145  Biso   1.000  C
  C852     1.0000 0.45339  0.37612  0.30145  Biso   1.000  C
  C853     1.0000 0.45336  0.37605  0.30145  Biso   1.000  C
  H877     1.0000 0.46355  0.38766  0.34336  Biso   1.000  H
  C854     1.0000 0.06758  0.74468  0.21555  Biso   1.000  C
  C855     1.0000 0.06754  0.74461  0.21555  Biso   1.000  C
  H878     1.0000 0.92031  0.49317  0.29757  Biso   1.000  H
  H879     1.0000 0.92036  0.49317  0.29757  Biso   1.000  H
  S59      1.0000 0.80876  0.06338  0.25587  Biso   1.000  S
  C856     1.0000 0.67684  0.07901  0.27928  Biso   1.000  C
  C857     1.0000 0.67680  0.07895  0.27928  Biso   1.000  C
  C858     1.0000 0.67689  0.07901  0.27928  Biso   1.000  C
  C859     1.0000 0.64554  0.07259  0.32822  Biso   1.000  C
  H880     1.0000 0.72984  0.05819  0.35237  Biso   1.000  H
  C860     1.0000 0.25538  0.32294  0.21555  Biso   1.000  C
  H881     1.0000 0.50683  0.42716  0.29757  Biso   1.000  H
  C861     1.0000 0.07898  0.67684  0.22072  Biso   1.000  C
  C862     1.0000 0.05946  0.76654  0.18805  Biso   1.000  C
  S60      1.0000 0.74540  0.93665  0.24413  Biso   1.000  S
  H882     1.0000 0.66474  0.08842  0.26066  Biso   1.000  H
  C863     1.0000 0.62395  0.07726  0.30145  Biso   1.000  C
  H883     1.0000 0.66471  0.08835  0.26066  Biso   1.000  H
  C864     1.0000 0.62389  0.07726  0.30145  Biso   1.000  C
  H884     1.0000 0.61237  0.07590  0.34336  Biso   1.000  H
  H885     1.0000 0.61232  0.07590  0.34336  Biso   1.000  H
  C865     1.0000 0.23349  0.29297  0.18805  Biso   1.000  C
  C866     1.0000 0.32317  0.40213  0.22072  Biso   1.000  C
  H886     1.0000 0.08840  0.66478  0.23932  Biso   1.000  H
  C867     1.0000 0.07724  0.62392  0.19855  Biso   1.000  C
  H887     1.0000 0.08837  0.66471  0.23932  Biso   1.000  H
  C868     1.0000 0.07729  0.62392  0.19855  Biso   1.000  C
  C869     1.0000 0.06279  0.71556  0.16661  Biso   1.000  C
  N73      1.0000 0.04355  0.83243  0.18299  Biso   1.000  N
  N74      1.0000 0.04360  0.83243  0.18299  Biso   1.000  N
  C870     1.0000 0.67707  0.93244  0.21555  Biso   1.000  C
  H888     1.0000 0.57280  0.07966  0.29757  Biso   1.000  H
  H889     1.0000 0.57286  0.07966  0.29757  Biso   1.000  H
  N75      1.0000 0.16757  0.21113  0.18299  Biso   1.000  N
  C871     1.0000 0.28450  0.34726  0.16661  Biso   1.000  C
  C872     1.0000 0.28445  0.34726  0.16661  Biso   1.000  C
  H890     1.0000 0.33529  0.42366  0.23932  Biso   1.000  H
  C873     1.0000 0.37609  0.45336  0.19855  Biso   1.000  C
  H891     1.0000 0.07969  0.57288  0.20243  Biso   1.000  H
  C874     1.0000 0.07256  0.64558  0.17178  Biso   1.000  C
  H892     1.0000 0.07965  0.57281  0.20243  Biso   1.000  H
  C875     1.0000 0.07253  0.64551  0.17178  Biso   1.000  C
  C876     1.0000 0.07262  0.64558  0.17178  Biso   1.000  C
  C877     1.0000 0.07259  0.64551  0.17178  Biso   1.000  C
  H893     1.0000 0.05818  0.72983  0.14763  Biso   1.000  H
  C878     1.0000 0.03775  0.85824  0.15527  Biso   1.000  C
  H894     1.0000 0.03671  0.85986  0.19722  Biso   1.000  H
  H895     1.0000 0.03665  0.85986  0.19722  Biso   1.000  H
  C879     1.0000 0.03780  0.85824  0.15527  Biso   1.000  C
  C880     1.0000 0.70707  0.94055  0.18805  Biso   1.000  C
  C881     1.0000 0.59784  0.92102  0.22072  Biso   1.000  C
  C882     1.0000 0.59790  0.92102  0.22072  Biso   1.000  C
  C883     1.0000 0.14178  0.17954  0.15527  Biso   1.000  C
  H896     1.0000 0.14017  0.17688  0.19722  Biso   1.000  H
  H897     1.0000 0.14014  0.17682  0.19722  Biso   1.000  H
  H898     1.0000 0.14023  0.17688  0.19722  Biso   1.000  H
  C884     1.0000 0.35450  0.42703  0.17178  Biso   1.000  C
  H899     1.0000 0.27018  0.32839  0.14763  Biso   1.000  H
  C885     1.0000 0.35444  0.42703  0.17178  Biso   1.000  C
  H900     1.0000 0.27015  0.32832  0.14763  Biso   1.000  H
  H901     1.0000 0.42716  0.50687  0.20243  Biso   1.000  H
  H902     1.0000 0.42722  0.50687  0.20243  Biso   1.000  H
  H903     1.0000 0.07590  0.61237  0.15664  Biso   1.000  H
  H904     1.0000 0.09316  0.87673  0.14524  Biso   1.000  H
  C886     1.0000 0.01869  0.93224  0.15548  Biso   1.000  C
  H905     1.0000 0.99130  0.80837  0.14494  Biso   1.000  H
  N76      1.0000 0.78888  0.95644  0.18299  Biso   1.000  N
  C887     1.0000 0.65279  0.93724  0.16661  Biso   1.000  C
  C888     1.0000 0.65273  0.93724  0.16661  Biso   1.000  C
  H906     1.0000 0.57634  0.91162  0.23932  Biso   1.000  H
  C889     1.0000 0.54671  0.92277  0.19855  Biso   1.000  C
  C890     1.0000 0.54665  0.92277  0.19855  Biso   1.000  C
  C891     1.0000 0.06778  0.08647  0.15548  Biso   1.000  C
  H907     1.0000 0.12327  0.21644  0.14524  Biso   1.000  H
  H908     1.0000 0.19169  0.18298  0.14494  Biso   1.000  H
  H909     1.0000 0.38769  0.46355  0.15664  Biso   1.000  H
  C892     1.0000 0.93144  0.91344  0.15586  Biso   1.000  C
  C893     1.0000 0.93150  0.91344  0.15586  Biso   1.000  C
  C894     1.0000 0.08659  0.01805  0.15586  Biso   1.000  C
  C895     1.0000 0.82050  0.96227  0.15527  Biso   1.000  C
  H910     1.0000 0.82318  0.96337  0.19722  Biso   1.000  H
  C896     1.0000 0.57297  0.92744  0.17178  Biso   1.000  C
  H911     1.0000 0.67166  0.94184  0.14763  Biso   1.000  H
  H912     1.0000 0.49316  0.92037  0.20243  Biso   1.000  H
  H913     1.0000 0.49321  0.92037  0.20243  Biso   1.000  H
  C897     1.0000 0.98199  0.06857  0.15586  Biso   1.000  C
  C898     1.0000 0.91355  0.98134  0.15548  Biso   1.000  C
  C899     1.0000 0.85827  0.82056  0.15779  Biso   1.000  C
  C900     1.0000 0.17946  0.03776  0.15779  Biso   1.000  C
  C901     1.0000 0.17952  0.03776  0.15779  Biso   1.000  C
  H914     1.0000 0.78356  0.90682  0.14524  Biso   1.000  H
  H915     1.0000 0.81707  0.00877  0.14494  Biso   1.000  H
  H916     1.0000 0.53649  0.92414  0.15664  Biso   1.000  H
  H917     1.0000 0.53643  0.92414  0.15664  Biso   1.000  H
  C902     1.0000 0.96224  0.14173  0.15779  Biso   1.000  C
  C903     1.0000 0.96229  0.14173  0.15779  Biso   1.000  C
  H918     1.0000 0.80977  0.81926  0.16833  Biso   1.000  H
  H919     1.0000 0.87866  0.78664  0.16854  Biso   1.000  H
  C904     1.0000 0.82688  0.78003  0.13157  Biso   1.000  C
  H920     1.0000 0.18079  0.99055  0.16833  Biso   1.000  H
  H921     1.0000 0.21340  0.09205  0.16854  Biso   1.000  H
  C905     1.0000 0.21995  0.04684  0.13157  Biso   1.000  C
  H922     1.0000 0.21335  0.09205  0.16854  Biso   1.000  H
  C906     1.0000 0.22001  0.04684  0.13157  Biso   1.000  C
  H923     1.0000 0.90796  0.12136  0.16854  Biso   1.000  H
  C907     1.0000 0.95320  0.17318  0.13157  Biso   1.000  C
  C908     1.0000 0.95316  0.17312  0.13157  Biso   1.000  C
  H924     1.0000 0.00947  0.19024  0.16833  Biso   1.000  H
  H925     1.0000 0.78089  0.71984  0.13442  Biso   1.000  H
  H926     1.0000 0.80356  0.81122  0.12103  Biso   1.000  H
  H927     1.0000 0.87437  0.78087  0.12084  Biso   1.000  H
  H928     1.0000 0.78084  0.71984  0.13442  Biso   1.000  H
  H929     1.0000 0.18878  0.99237  0.12103  Biso   1.000  H
  H930     1.0000 0.28019  0.06105  0.13442  Biso   1.000  H
  H931     1.0000 0.21915  0.09354  0.12084  Biso   1.000  H
  H932     1.0000 0.21920  0.09354  0.12084  Biso   1.000  H
  H933     1.0000 0.93900  0.21917  0.13442  Biso   1.000  H
  H934     1.0000 0.90645  0.12564  0.12084  Biso   1.000  H
  H935     1.0000 0.90651  0.12564  0.12084  Biso   1.000  H
  H936     1.0000 0.00769  0.19647  0.12103  Biso   1.000  H
  C909     1.0000 0.55327  0.71348  0.79824  Biso   1.000  C
  C910     1.0000 0.51278  0.70440  0.82447  Biso   1.000  C
  H937     1.0000 0.61351  0.72769  0.80110  Biso   1.000  H
  H938     1.0000 0.52210  0.65900  0.78770  Biso   1.000  H
  H939     1.0000 0.55247  0.76018  0.78749  Biso   1.000  H
  C911     1.0000 0.41991  0.68469  0.82253  Biso   1.000  C
  H940     1.0000 0.51411  0.65719  0.83499  Biso   1.000  H
  H941     1.0000 0.54672  0.75869  0.83520  Biso   1.000  H
  C912     1.0000 0.35201  0.59888  0.82213  Biso   1.000  C
  C913     1.0000 0.40110  0.75311  0.82213  Biso   1.000  C
  C914     1.0000 0.26476  0.58007  0.82253  Biso   1.000  C
  C915     1.0000 0.37107  0.52488  0.82192  Biso   1.000  C
  C916     1.0000 0.31531  0.73521  0.82253  Biso   1.000  C
  C917     1.0000 0.47510  0.84618  0.82192  Biso   1.000  C
  C918     1.0000 0.19159  0.48720  0.82447  Biso   1.000  C
  C919     1.0000 0.24687  0.64798  0.82213  Biso   1.000  C
  H942     1.0000 0.42651  0.54343  0.81189  Biso   1.000  H
  H943     1.0000 0.32462  0.47501  0.81159  Biso   1.000  H
  N77      1.0000 0.37690  0.49913  0.84964  Biso   1.000  N
  C920     1.0000 0.29559  0.80843  0.82447  Biso   1.000  C
  H944     1.0000 0.45659  0.88308  0.81189  Biso   1.000  H
  H945     1.0000 0.52501  0.84962  0.81159  Biso   1.000  H
  N78      1.0000 0.50092  0.87783  0.84964  Biso   1.000  N
  C921     1.0000 0.16023  0.44673  0.79824  Biso   1.000  C
  H946     1.0000 0.14309  0.48590  0.83499  Biso   1.000  H
  H947     1.0000 0.21198  0.45328  0.83520  Biso   1.000  H
  C922     1.0000 0.15382  0.62891  0.82192  Biso   1.000  C
  C923     1.0000 0.39278  0.43317  0.85472  Biso   1.000  C
  H948     1.0000 0.37003  0.52650  0.86390  Biso   1.000  H
  H949     1.0000 0.34279  0.85688  0.83499  Biso   1.000  H
  H950     1.0000 0.24128  0.78800  0.83520  Biso   1.000  H
  C924     1.0000 0.28651  0.83982  0.79824  Biso   1.000  C
  C925     1.0000 0.56681  0.95961  0.85472  Biso   1.000  C
  H951     1.0000 0.47349  0.84352  0.86390  Biso   1.000  H
  H952     1.0000 0.11421  0.38648  0.80110  Biso   1.000  H
  H953     1.0000 0.13691  0.47793  0.78770  Biso   1.000  H
  H954     1.0000 0.20769  0.44751  0.78749  Biso   1.000  H
  H955     1.0000 0.11691  0.57352  0.81189  Biso   1.000  H
  H956     1.0000 0.15039  0.67541  0.81159  Biso   1.000  H
  N79      1.0000 0.12223  0.62314  0.84964  Biso   1.000  N
  C926     1.0000 0.40090  0.41132  0.88221  Biso   1.000  C
  C927     1.0000 0.39611  0.38220  0.83326  Biso   1.000  C
  H957     1.0000 0.27232  0.88581  0.80110  Biso   1.000  H
  H958     1.0000 0.34101  0.86311  0.78770  Biso   1.000  H
  H959     1.0000 0.23977  0.79228  0.78749  Biso   1.000  H
  C928     1.0000 0.58873  0.98964  0.88221  Biso   1.000  C
  C929     1.0000 0.61782  0.01390  0.83326  Biso   1.000  C
  C930     1.0000 0.04039  0.60718  0.85472  Biso   1.000  C
  H960     1.0000 0.15650  0.63001  0.86390  Biso   1.000  H
  C931     1.0000 0.41230  0.34348  0.88739  Biso   1.000  C
  S61      1.0000 0.39674  0.47546  0.91078  Biso   1.000  S
  C932     1.0000 0.40588  0.31222  0.83845  Biso   1.000  C
  H961     1.0000 0.39154  0.39653  0.81430  Biso   1.000  H
  S62      1.0000 0.52456  0.92128  0.91078  Biso   1.000  S
  C933     1.0000 0.65652  0.06883  0.88739  Biso   1.000  C
  H962     1.0000 0.60350  0.99502  0.81430  Biso   1.000  H
  C934     1.0000 0.68785  0.09374  0.83845  Biso   1.000  C
  C935     1.0000 0.01039  0.59908  0.88221  Biso   1.000  C
  C936     1.0000 0.98611  0.60388  0.83326  Biso   1.000  C
  H963     1.0000 0.42172  0.33142  0.90600  Biso   1.000  H
  C937     1.0000 0.41059  0.29062  0.86520  Biso   1.000  C
  S63      1.0000 0.26997  0.41210  0.92254  Biso   1.000  S
  H964     1.0000 0.40922  0.27901  0.82329  Biso   1.000  H
  S64      1.0000 0.58797  0.85792  0.92254  Biso   1.000  S
  H965     1.0000 0.66860  0.09030  0.90600  Biso   1.000  H
  C938     1.0000 0.70941  0.12000  0.86520  Biso   1.000  C
  H966     1.0000 0.72101  0.13018  0.82329  Biso   1.000  H
  S65      1.0000 0.07872  0.60329  0.91078  Biso   1.000  S
  C939     1.0000 0.93119  0.58773  0.88739  Biso   1.000  C
  H967     1.0000 0.00498  0.60848  0.81430  Biso   1.000  H
  C940     1.0000 0.90629  0.59408  0.83845  Biso   1.000  C
  H968     1.0000 0.41301  0.23951  0.86908  Biso   1.000  H
  C941     1.0000 0.26578  0.34374  0.95110  Biso   1.000  C
  C942     1.0000 0.65627  0.92206  0.95110  Biso   1.000  C
  H969     1.0000 0.76048  0.17351  0.86908  Biso   1.000  H
  S66      1.0000 0.14212  0.73009  0.92254  Biso   1.000  S
  H970     1.0000 0.90970  0.57832  0.90600  Biso   1.000  H
  C943     1.0000 0.88002  0.58941  0.86520  Biso   1.000  C
  H971     1.0000 0.86981  0.59078  0.82329  Biso   1.000  H
  C944     1.0000 0.25438  0.26455  0.94593  Biso   1.000  C
  C945     1.0000 0.27389  0.37377  0.97860  Biso   1.000  C
  C946     1.0000 0.73548  0.98984  0.94593  Biso   1.000  C
  C947     1.0000 0.62627  0.90014  0.97860  Biso   1.000  C
  C948     1.0000 0.07797  0.73424  0.95110  Biso   1.000  C
  H972     1.0000 0.82648  0.58701  0.86908  Biso   1.000  H
  H973     1.0000 0.24496  0.24302  0.92733  Biso   1.000  H
  C949     1.0000 0.25606  0.21331  0.96813  Biso   1.000  C
  N80      1.0000 0.28978  0.45555  0.98369  Biso   1.000  N
  C950     1.0000 0.27058  0.31942  0.00006  Biso   1.000  C
  H974     1.0000 0.75699  0.00196  0.92733  Biso   1.000  H
  C951     1.0000 0.78666  0.04276  0.96813  Biso   1.000  C
  N81      1.0000 0.54445  0.83425  0.98369  Biso   1.000  N
  C952     1.0000 0.68057  0.95112  0.00006  Biso   1.000  C
  C953     1.0000 0.01015  0.74565  0.94593  Biso   1.000  C
  C954     1.0000 0.09987  0.72613  0.97860  Biso   1.000  C
  H975     1.0000 0.25363  0.15981  0.96422  Biso   1.000  H
  C955     1.0000 0.26080  0.23964  0.99488  Biso   1.000  C
  H976     1.0000 0.29666  0.48986  0.96943  Biso   1.000  H
  C956     1.0000 0.29558  0.48714  0.01140  Biso   1.000  C
  H977     1.0000 0.27516  0.33836  0.01902  Biso   1.000  H
  H978     1.0000 0.84018  0.09387  0.96422  Biso   1.000  H
  C957     1.0000 0.76036  0.02116  0.99488  Biso   1.000  C
  H979     1.0000 0.51018  0.80681  0.96943  Biso   1.000  H
  C958     1.0000 0.51284  0.80843  0.01140  Biso   1.000  C
  H980     1.0000 0.66170  0.93685  0.01902  Biso   1.000  H
  H981     1.0000 0.99806  0.75506  0.92733  Biso   1.000  H
  C959     1.0000 0.95730  0.74397  0.96813  Biso   1.000  C
  N82      1.0000 0.16578  0.71024  0.98369  Biso   1.000  N
  C960     1.0000 0.04889  0.72944  0.00006  Biso   1.000  C
  H982     1.0000 0.25748  0.20313  0.01004  Biso   1.000  H
  H983     1.0000 0.24017  0.45023  0.02142  Biso   1.000  H
  H984     1.0000 0.34208  0.48376  0.02173  Biso   1.000  H
  C961     1.0000 0.31468  0.58027  0.01117  Biso   1.000  C
  H985     1.0000 0.79690  0.05437  0.01004  Biso   1.000  H
  C962     1.0000 0.41979  0.73443  0.01117  Biso   1.000  C
  H986     1.0000 0.54977  0.78995  0.02142  Biso   1.000  H
  H987     1.0000 0.51630  0.85837  0.02173  Biso   1.000  H
  H988     1.0000 0.90615  0.74637  0.96422  Biso   1.000  H
  C963     1.0000 0.97886  0.73923  0.99488  Biso   1.000  C
  H989     1.0000 0.19318  0.70337  0.96943  Biso   1.000  H
  C964     1.0000 0.19160  0.70447  0.01140  Biso   1.000  C
  H990     1.0000 0.06316  0.72483  0.01902  Biso   1.000  H
  C965     1.0000 0.24679  0.59817  0.01079  Biso   1.000  C
  C966     1.0000 0.40188  0.64863  0.01079  Biso   1.000  C
  C967     1.0000 0.35134  0.75324  0.01079  Biso   1.000  C
  H991     1.0000 0.94569  0.74254  0.01004  Biso   1.000  H
  H992     1.0000 0.21008  0.75986  0.02142  Biso   1.000  H
  H993     1.0000 0.14167  0.65797  0.02173  Biso   1.000  H
  C968     1.0000 0.26555  0.68534  0.01117  Biso   1.000  C
  C969     1.0000 0.15385  0.52495  0.00886  Biso   1.000  C
  C970     1.0000 0.47504  0.62891  0.00886  Biso   1.000  C
  C971     1.0000 0.37105  0.84611  0.00886  Biso   1.000  C
  H994     1.0000 0.15256  0.47643  0.99832  Biso   1.000  H
  H995     1.0000 0.11994  0.54531  0.99813  Biso   1.000  H
  C972     1.0000 0.11338  0.49356  0.03509  Biso   1.000  C
  H996     1.0000 0.52358  0.67613  0.99832  Biso   1.000  H
  H997     1.0000 0.45469  0.57463  0.99813  Biso   1.000  H
  C973     1.0000 0.50644  0.61983  0.03509  Biso   1.000  C
  H998     1.0000 0.32384  0.84741  0.99832  Biso   1.000  H
  H999     1.0000 0.42536  0.88003  0.99813  Biso   1.000  H
  C974     1.0000 0.38019  0.88665  0.03509  Biso   1.000  C
  H1000    1.0000 0.05317  0.44751  0.03223  Biso   1.000  H
  H1001    1.0000 0.14456  0.47021  0.04563  Biso   1.000  H
  H1002    1.0000 0.11415  0.54103  0.04584  Biso   1.000  H
  H1003    1.0000 0.55248  0.60563  0.03223  Biso   1.000  H
  H1004    1.0000 0.52975  0.67431  0.04563  Biso   1.000  H
  H1005    1.0000 0.45894  0.57313  0.04584  Biso   1.000  H
  H1006    1.0000 0.39439  0.94684  0.03223  Biso   1.000  H
  H1007    1.0000 0.32567  0.85545  0.04563  Biso   1.000  H
  H1008    1.0000 0.42687  0.88587  0.04584  Biso   1.000  H
  C975     1.0000 0.59412  0.68780  0.16155  Biso   1.000  C
  C976     1.0000 0.60390  0.61782  0.16674  Biso   1.000  C
  C977     1.0000 0.58942  0.70940  0.13478  Biso   1.000  C
  H1009    1.0000 0.59079  0.72101  0.17669  Biso   1.000  H
  C978     1.0000 0.60719  0.56678  0.14528  Biso   1.000  C
  H1010    1.0000 0.60847  0.60349  0.18570  Biso   1.000  H
  C979     1.0000 0.58771  0.65654  0.11261  Biso   1.000  C
  H1011    1.0000 0.58700  0.76050  0.13089  Biso   1.000  H
  N83      1.0000 0.62311  0.50088  0.15036  Biso   1.000  N
  C980     1.0000 0.59911  0.58870  0.11777  Biso   1.000  C
  H1012    1.0000 0.57829  0.66860  0.09400  Biso   1.000  H
  C981     1.0000 0.62894  0.47514  0.17808  Biso   1.000  C
  H1013    1.0000 0.63004  0.47352  0.13610  Biso   1.000  H
  S67      1.0000 0.60327  0.52456  0.08922  Biso   1.000  S
  C982     1.0000 0.64800  0.40114  0.17784  Biso   1.000  C
  H1014    1.0000 0.57350  0.45659  0.18809  Biso   1.000  H
  H1015    1.0000 0.67539  0.52501  0.18841  Biso   1.000  H
  S68      1.0000 0.73004  0.58792  0.07746  Biso   1.000  S
  C983     1.0000 0.58010  0.31533  0.17747  Biso   1.000  C
  C984     1.0000 0.73521  0.41988  0.17747  Biso   1.000  C
  C985     1.0000 0.73423  0.65628  0.04888  Biso   1.000  C
  C986     1.0000 0.48723  0.29561  0.17553  Biso   1.000  C
  C987     1.0000 0.59891  0.24691  0.17784  Biso   1.000  C
  C988     1.0000 0.75310  0.35197  0.17784  Biso   1.000  C
  C989     1.0000 0.80842  0.51282  0.17553  Biso   1.000  C
  C990     1.0000 0.74563  0.73547  0.05405  Biso   1.000  C
  C991     1.0000 0.72612  0.62625  0.02140  Biso   1.000  C
  C992     1.0000 0.44674  0.28653  0.20176  Biso   1.000  C
  H1016    1.0000 0.48589  0.34283  0.16499  Biso   1.000  H
  H1017    1.0000 0.45334  0.24133  0.16480  Biso   1.000  H
  C993     1.0000 0.52488  0.15377  0.17808  Biso   1.000  C
  C994     1.0000 0.68470  0.26481  0.17747  Biso   1.000  C
  C995     1.0000 0.84619  0.37111  0.17808  Biso   1.000  C
  H1018    1.0000 0.85692  0.51412  0.16499  Biso   1.000  H
  H1019    1.0000 0.78803  0.54674  0.16480  Biso   1.000  H
  C996     1.0000 0.83978  0.55329  0.20176  Biso   1.000  C
  H1020    1.0000 0.75505  0.75700  0.07267  Biso   1.000  H
  C997     1.0000 0.74395  0.78671  0.03187  Biso   1.000  C
  N84      1.0000 0.71023  0.54447  0.01631  Biso   1.000  N
  C998     1.0000 0.72948  0.68060  0.99994  Biso   1.000  C
  H1021    1.0000 0.38650  0.27233  0.19890  Biso   1.000  H
  H1022    1.0000 0.47791  0.34101  0.21230  Biso   1.000  H
  H1023    1.0000 0.44751  0.23977  0.21249  Biso   1.000  H
  H1024    1.0000 0.54338  0.11687  0.18809  Biso   1.000  H
  H1025    1.0000 0.47500  0.15040  0.18841  Biso   1.000  H
  N85      1.0000 0.49909  0.12219  0.15036  Biso   1.000  N
  C999     1.0000 0.70442  0.19159  0.17553  Biso   1.000  C
  H1026    1.0000 0.88310  0.42649  0.18809  Biso   1.000  H
  H1027    1.0000 0.84962  0.32461  0.18841  Biso   1.000  H
  N86      1.0000 0.87778  0.37688  0.15036  Biso   1.000  N
  H1028    1.0000 0.88582  0.61348  0.19890  Biso   1.000  H
  H1029    1.0000 0.86310  0.52209  0.21230  Biso   1.000  H
  H1030    1.0000 0.79232  0.55251  0.21249  Biso   1.000  H
  H1031    1.0000 0.74635  0.84015  0.03576  Biso   1.000  H
  C1000    1.0000 0.73926  0.76037  0.00512  Biso   1.000  C
  H1032    1.0000 0.70335  0.51016  0.03057  Biso   1.000  H
  C1001    1.0000 0.70443  0.51288  0.98860  Biso   1.000  C
  H1033    1.0000 0.72484  0.66166  0.98098  Biso   1.000  H
  C1002    1.0000 0.43320  0.04041  0.14528  Biso   1.000  C
  H1034    1.0000 0.52652  0.15650  0.13610  Biso   1.000  H
  H1035    1.0000 0.65719  0.14307  0.16499  Biso   1.000  H
  H1036    1.0000 0.75873  0.21202  0.16480  Biso   1.000  H
  C1003    1.0000 0.71349  0.16019  0.20176  Biso   1.000  C
  C1004    1.0000 0.95962  0.39283  0.14528  Biso   1.000  C
  H1037    1.0000 0.84351  0.37000  0.13610  Biso   1.000  H
  H1038    1.0000 0.74252  0.79689  0.98996  Biso   1.000  H
  H1039    1.0000 0.75984  0.54979  0.97856  Biso   1.000  H
  H1040    1.0000 0.65793  0.51626  0.97827  Biso   1.000  H
  C1005    1.0000 0.68533  0.41975  0.98881  Biso   1.000  C
  C1006    1.0000 0.41128  0.01038  0.11777  Biso   1.000  C
  C1007    1.0000 0.38224  0.98612  0.16674  Biso   1.000  C
  H1041    1.0000 0.72769  0.11421  0.19890  Biso   1.000  H
  H1042    1.0000 0.65900  0.13691  0.21230  Biso   1.000  H
  H1043    1.0000 0.76024  0.20773  0.21249  Biso   1.000  H
  C1008    1.0000 0.98959  0.40088  0.11777  Biso   1.000  C
  C1009    1.0000 0.01392  0.39608  0.16674  Biso   1.000  C
  C1010    1.0000 0.59813  0.35139  0.98919  Biso   1.000  C
  C1011    1.0000 0.75322  0.40185  0.98919  Biso   1.000  C
  S69      1.0000 0.47545  0.07874  0.08922  Biso   1.000  S
  C1012    1.0000 0.34349  0.93119  0.11261  Biso   1.000  C
  H1044    1.0000 0.39651  0.00499  0.18570  Biso   1.000  H
  C1013    1.0000 0.31222  0.90628  0.16155  Biso   1.000  C
  S70      1.0000 0.92129  0.39673  0.08922  Biso   1.000  S
  C1014    1.0000 0.06882  0.41229  0.11261  Biso   1.000  C
  H1045    1.0000 0.99499  0.39147  0.18570  Biso   1.000  H
  C1015    1.0000 0.09372  0.40594  0.16155  Biso   1.000  C
  C1016    1.0000 0.58022  0.26559  0.98881  Biso   1.000  C
  C1017    1.0000 0.52494  0.37104  0.99114  Biso   1.000  C
  C1018    1.0000 0.73446  0.31468  0.98881  Biso   1.000  C
  C1019    1.0000 0.84616  0.47507  0.99114  Biso   1.000  C
  S71      1.0000 0.41204  0.14210  0.07746  Biso   1.000  S
  H1046    1.0000 0.33140  0.90972  0.09400  Biso   1.000  H
  C1020    1.0000 0.29060  0.88002  0.13478  Biso   1.000  C
  H1047    1.0000 0.27896  0.86977  0.17669  Biso   1.000  H
  S72      1.0000 0.85789  0.26993  0.07746  Biso   1.000  S
  H1048    1.0000 0.09031  0.42170  0.09400  Biso   1.000  H
  C1021    1.0000 0.12004  0.41060  0.13478  Biso   1.000  C
  H1049    1.0000 0.13022  0.40918  0.17669  Biso   1.000  H
  C1022    1.0000 0.48717  0.19159  0.98860  Biso   1.000  C
  C1023    1.0000 0.64866  0.24678  0.98919  Biso   1.000  C
  H1050    1.0000 0.47643  0.32389  0.00166  Biso   1.000  H
  H1051    1.0000 0.54537  0.42539  0.00187  Biso   1.000  H
  C1024    1.0000 0.49356  0.38019  0.96491  Biso   1.000  C
  C1025    1.0000 0.80841  0.29555  0.98860  Biso   1.000  C
  H1052    1.0000 0.84745  0.52358  0.00166  Biso   1.000  H
  H1053    1.0000 0.88004  0.45464  0.00187  Biso   1.000  H
  C1026    1.0000 0.88663  0.50646  0.96491  Biso   1.000  C
  C1027    1.0000 0.34374  0.07796  0.04888  Biso   1.000  C
  H1054    1.0000 0.23953  0.82651  0.13089  Biso   1.000  H
  C1028    1.0000 0.92204  0.26578  0.04888  Biso   1.000  C
  H1055    1.0000 0.17353  0.41300  0.13089  Biso   1.000  H
  N87      1.0000 0.45556  0.16577  0.01631  Biso   1.000  N
  H1056    1.0000 0.45024  0.21007  0.97856  Biso   1.000  H
  H1057    1.0000 0.48371  0.14165  0.97827  Biso   1.000  H
  C1029    1.0000 0.62893  0.15384  0.99114  Biso   1.000  C
  H1058    1.0000 0.44753  0.39439  0.96777  Biso   1.000  H
  H1059    1.0000 0.47022  0.32564  0.95437  Biso   1.000  H
  H1060    1.0000 0.54106  0.42688  0.95416  Biso   1.000  H
  N88      1.0000 0.83423  0.28978  0.01631  Biso   1.000  N
  H1061    1.0000 0.78993  0.24016  0.97856  Biso   1.000  H
  H1062    1.0000 0.85834  0.34205  0.97827  Biso   1.000  H
  H1063    1.0000 0.94680  0.55245  0.96777  Biso   1.000  H
  H1064    1.0000 0.85541  0.52975  0.95437  Biso   1.000  H
  H1065    1.0000 0.88586  0.45899  0.95416  Biso   1.000  H
  C1030    1.0000 0.26453  0.01018  0.05405  Biso   1.000  C
  C1031    1.0000 0.37374  0.09988  0.02140  Biso   1.000  C
  C1032    1.0000 0.98985  0.25437  0.05405  Biso   1.000  C
  C1033    1.0000 0.90014  0.27389  0.02140  Biso   1.000  C
  H1066    1.0000 0.48985  0.19314  0.03057  Biso   1.000  H
  H1067    1.0000 0.67614  0.15254  0.00166  Biso   1.000  H
  H1068    1.0000 0.57465  0.11998  0.00187  Biso   1.000  H
  C1034    1.0000 0.61982  0.11337  0.96491  Biso   1.000  C
  H1069    1.0000 0.80683  0.29665  0.03057  Biso   1.000  H
  H1070    1.0000 0.24302  0.99805  0.07267  Biso   1.000  H
  C1035    1.0000 0.21335  0.95726  0.03187  Biso   1.000  C
  C1036    1.0000 0.31941  0.04884  0.99994  Biso   1.000  C
  H1071    1.0000 0.00195  0.24496  0.07267  Biso   1.000  H
  C1037    1.0000 0.04276  0.25605  0.03187  Biso   1.000  C
  C1038    1.0000 0.95117  0.27058  0.99994  Biso   1.000  C
  H1072    1.0000 0.60567  0.05318  0.96777  Biso   1.000  H
  H1073    1.0000 0.67434  0.14456  0.95437  Biso   1.000  H
  H1074    1.0000 0.57314  0.11415  0.95416  Biso   1.000  H
  H1075    1.0000 0.15983  0.90615  0.03576  Biso   1.000  H
  C1039    1.0000 0.23965  0.97886  0.00512  Biso   1.000  C
  H1076    1.0000 0.33831  0.06317  0.98098  Biso   1.000  H
  H1077    1.0000 0.09386  0.25365  0.03576  Biso   1.000  H
  C1040    1.0000 0.02115  0.26079  0.00512  Biso   1.000  C
  H1078    1.0000 0.93685  0.27519  0.98098  Biso   1.000  H
  H1079    1.0000 0.20311  0.94565  0.98996  Biso   1.000  H
  H1080    1.0000 0.05437  0.25748  0.98996  Biso   1.000  H
