data_image0
_cell_length_a       12.984
_cell_length_b       14.664
_cell_length_c       20.454
_cell_angle_alpha    68.5
_cell_angle_beta     73.72
_cell_angle_gamma    65.18

_symmetry_space_group_name_H-M    "P 1"
_symmetry_int_tables_number       1

loop_
  _symmetry_equiv_pos_as_xyz
  'x, y, z'

loop_
  _atom_site_label
  _atom_site_occupancy
  _atom_site_fract_x
  _atom_site_fract_y
  _atom_site_fract_z
  _atom_site_thermal_displace_type
  _atom_site_B_iso_or_equiv
  _atom_site_type_symbol
  C1       1.0000 0.82419  0.88241  0.00340  Biso   1.000  C
  C2       1.0000 0.87865  0.96163  0.99298  Biso   1.000  C
  C3       1.0000 0.87864  0.96161  0.99304  Biso   1.000  C
  O1       1.0000 0.91475  0.79001  0.98911  Biso   1.000  O
  O2       1.0000 0.91471  0.79008  0.98911  Biso   1.000  O
  H1       1.0000 0.76303  0.91390  0.96700  Biso   1.000  H
  H2       1.0000 0.76300  0.91398  0.96700  Biso   1.000  H
  H3       1.0000 0.76307  0.91398  0.96700  Biso   1.000  H
  H4       1.0000 0.78111  0.86290  0.05703  Biso   1.000  H
  H5       1.0000 0.78108  0.86297  0.05703  Biso   1.000  H
  O3       1.0000 0.94021  0.98993  0.92331  Biso   1.000  O
  O4       1.0000 0.94029  0.98993  0.92331  Biso   1.000  O
  H6       1.0000 0.93813  0.92894  0.03098  Biso   1.000  H
  H7       1.0000 0.93812  0.92892  0.03104  Biso   1.000  H
  C4       1.0000 0.82423  0.88248  0.00340  Biso   1.000  C
  H8       1.0000 0.81093  0.03281  0.99702  Biso   1.000  H
  C5       1.0000 0.88731  0.74665  0.95041  Biso   1.000  C
  C6       1.0000 0.87718  0.03391  0.86761  Biso   1.000  C
  C7       1.0000 0.87726  0.03391  0.86761  Biso   1.000  C
  C8       1.0000 0.83947  0.66884  0.98602  Biso   1.000  C
  C9       1.0000 0.83954  0.66884  0.98602  Biso   1.000  C
  C10      1.0000 0.89614  0.78654  0.87659  Biso   1.000  C
  C11      1.0000 0.80835  0.13979  0.85332  Biso   1.000  C
  C12      1.0000 0.88542  0.97555  0.82441  Biso   1.000  C
  O5       1.0000 0.81802  0.64070  0.05851  Biso   1.000  O
  O6       1.0000 0.81798  0.64077  0.05851  Biso   1.000  O
  C13      1.0000 0.80058  0.63114  0.94781  Biso   1.000  C
  C14      1.0000 0.80066  0.63114  0.94781  Biso   1.000  C
  C15      1.0000 0.96531  0.85998  0.83907  Biso   1.000  C
  C16      1.0000 0.96530  0.85996  0.83913  Biso   1.000  C
  C17      1.0000 0.96538  0.85996  0.83913  Biso   1.000  C
  C18      1.0000 0.85726  0.74885  0.83838  Biso   1.000  C
  C19      1.0000 0.85725  0.74882  0.83844  Biso   1.000  C
  O7       1.0000 0.79055  0.19582  0.90009  Biso   1.000  O
  O8       1.0000 0.79054  0.19580  0.90014  Biso   1.000  O
  C20      1.0000 0.74753  0.18746  0.79581  Biso   1.000  C
  C21      1.0000 0.74757  0.18753  0.79581  Biso   1.000  C
  C22      1.0000 0.82457  0.02318  0.76701  Biso   1.000  C
  C23      1.0000 0.82454  0.02325  0.76701  Biso   1.000  C
  C24      1.0000 0.90767  0.55395  0.09322  Biso   1.000  C
  C25      1.0000 0.80946  0.67111  0.87399  Biso   1.000  C
  O9       1.0000 0.77360  0.54179  0.98012  Biso   1.000  O
  C26      1.0000 0.80942  0.67118  0.87399  Biso   1.000  C
  O10      1.0000 0.77357  0.54187  0.98012  Biso   1.000  O
  O11      1.0000 0.77365  0.54187  0.98012  Biso   1.000  O
  H9       1.0000 0.02006  0.84494  0.87601  Biso   1.000  H
  C27      1.0000 0.04754  0.83596  0.77232  Biso   1.000  C
  H10      1.0000 0.86402  0.77994  0.78099  Biso   1.000  H
  H11      1.0000 0.86400  0.77992  0.78104  Biso   1.000  H
  H12      1.0000 0.86408  0.77992  0.78104  Biso   1.000  H
  C28      1.0000 0.87588  0.24491  0.87899  Biso   1.000  C
  C29      1.0000 0.87586  0.24488  0.87904  Biso   1.000  C
  C30      1.0000 0.75567  0.12921  0.75271  Biso   1.000  C
  O12      1.0000 0.68563  0.29390  0.78072  Biso   1.000  O
  O13      1.0000 0.68571  0.29390  0.78072  Biso   1.000  O
  H13      1.0000 0.83102  0.97795  0.73400  Biso   1.000  H
  H14      1.0000 0.83109  0.97795  0.73400  Biso   1.000  H
  C31      1.0000 0.86181  0.55363  0.17368  Biso   1.000  C
  C32      1.0000 0.86180  0.55361  0.17373  Biso   1.000  C
  C33      1.0000 0.86176  0.55369  0.17373  Biso   1.000  C
  H15      1.0000 0.98811  0.56696  0.07499  Biso   1.000  H
  H16      1.0000 0.91712  0.48191  0.08498  Biso   1.000  H
  H17      1.0000 0.98809  0.56694  0.07504  Biso   1.000  H
  H18      1.0000 0.91707  0.48196  0.08503  Biso   1.000  H
  H19      1.0000 0.91708  0.48198  0.08498  Biso   1.000  H
  C34      1.0000 0.74923  0.63911  0.83509  Biso   1.000  C
  C35      1.0000 0.74918  0.63916  0.83514  Biso   1.000  C
  C36      1.0000 0.74920  0.63919  0.83509  Biso   1.000  C
  C37      1.0000 0.66810  0.55631  0.02572  Biso   1.000  C
  C38      1.0000 0.66806  0.55639  0.02572  Biso   1.000  C
  H20      1.0000 0.00003  0.83299  0.73799  Biso   1.000  H
  H21      1.0000 0.00006  0.83292  0.73799  Biso   1.000  H
  H22      1.0000 0.08204  0.89796  0.74501  Biso   1.000  H
  C39      1.0000 0.14526  0.73254  0.79060  Biso   1.000  C
  C40      1.0000 0.83737  0.32115  0.92182  Biso   1.000  C
  C41      1.0000 0.83733  0.32123  0.92182  Biso   1.000  C
  H23      1.0000 0.88096  0.28599  0.82302  Biso   1.000  H
  H24      1.0000 0.95893  0.18602  0.88999  Biso   1.000  H
  H25      1.0000 0.95892  0.18600  0.89004  Biso   1.000  H
  C42      1.0000 0.68906  0.18401  0.68862  Biso   1.000  C
  C43      1.0000 0.58026  0.32193  0.82600  Biso   1.000  C
  C44      1.0000 0.89502  0.62849  0.18362  Biso   1.000  C
  C45      1.0000 0.89499  0.62856  0.18362  Biso   1.000  C
  H26      1.0000 0.76904  0.57596  0.18399  Biso   1.000  H
  H27      1.0000 0.90006  0.47691  0.20902  Biso   1.000  H
  H28      1.0000 0.76910  0.57594  0.18404  Biso   1.000  H
  H29      1.0000 0.76911  0.57596  0.18399  Biso   1.000  H
  H30      1.0000 0.90010  0.47698  0.20902  Biso   1.000  H
  C46      1.0000 0.62836  0.71561  0.82542  Biso   1.000  C
  H31      1.0000 0.73900  0.56592  0.86900  Biso   1.000  H
  C47      1.0000 0.82311  0.61850  0.76632  Biso   1.000  C
  H32      1.0000 0.73904  0.56599  0.86900  Biso   1.000  H
  C48      1.0000 0.82315  0.61857  0.76632  Biso   1.000  C
  H33      1.0000 0.73907  0.56592  0.86900  Biso   1.000  H
  C49      1.0000 0.82307  0.61857  0.76632  Biso   1.000  C
  C50      1.0000 0.62832  0.71569  0.82542  Biso   1.000  C
  C51      1.0000 0.57015  0.63762  0.99038  Biso   1.000  C
  C52      1.0000 0.57013  0.63760  0.99043  Biso   1.000  C
  C53      1.0000 0.57010  0.63768  0.99043  Biso   1.000  C
  H34      1.0000 0.65311  0.48292  0.04602  Biso   1.000  H
  H35      1.0000 0.67307  0.57896  0.06898  Biso   1.000  H
  H36      1.0000 0.67306  0.57894  0.06904  Biso   1.000  H
  H37      1.0000 0.65307  0.48299  0.04602  Biso   1.000  H
  H38      1.0000 0.18399  0.73197  0.83100  Biso   1.000  H
  H39      1.0000 0.11102  0.66992  0.81101  Biso   1.000  H
  C54      1.0000 0.23652  0.71296  0.72757  Biso   1.000  C
  H40      1.0000 0.18406  0.73197  0.83100  Biso   1.000  H
  C55      1.0000 0.23651  0.71294  0.72763  Biso   1.000  C
  H41      1.0000 0.11106  0.66999  0.81101  Biso   1.000  H
  C56      1.0000 0.23658  0.71294  0.72763  Biso   1.000  C
  C57      1.0000 0.81443  0.27760  0.00308  Biso   1.000  C
  C58      1.0000 0.81442  0.27758  0.00314  Biso   1.000  C
  H42      1.0000 0.75898  0.38197  0.90497  Biso   1.000  H
  H43      1.0000 0.90294  0.35495  0.90901  Biso   1.000  H
  H44      1.0000 0.75894  0.38202  0.90503  Biso   1.000  H
  H45      1.0000 0.90291  0.35502  0.90901  Biso   1.000  H
  H46      1.0000 0.75895  0.38205  0.90497  Biso   1.000  H
  H47      1.0000 0.90298  0.35502  0.90901  Biso   1.000  H
  H48      1.0000 0.65696  0.26803  0.68001  Biso   1.000  H
  C59      1.0000 0.76751  0.16543  0.62091  Biso   1.000  C
  C60      1.0000 0.58463  0.15591  0.70360  Biso   1.000  C
  C61      1.0000 0.76759  0.16543  0.62091  Biso   1.000  C
  C62      1.0000 0.58471  0.15591  0.70360  Biso   1.000  C
  H49      1.0000 0.53896  0.40603  0.80899  Biso   1.000  H
  H50      1.0000 0.59892  0.29803  0.87899  Biso   1.000  H
  C63      1.0000 0.49771  0.27320  0.82770  Biso   1.000  C
  H51      1.0000 0.59891  0.29800  0.87904  Biso   1.000  H
  C64      1.0000 0.49779  0.27320  0.82770  Biso   1.000  C
  H52      1.0000 0.59898  0.29800  0.87904  Biso   1.000  H
  C65      1.0000 0.79836  0.67471  0.24458  Biso   1.000  C
  C66      1.0000 0.79839  0.67476  0.24463  Biso   1.000  C
  C67      1.0000 0.79840  0.67478  0.24458  Biso   1.000  C
  H53      1.0000 0.89808  0.69090  0.13499  Biso   1.000  H
  H54      1.0000 0.97807  0.59096  0.20100  Biso   1.000  H
  H55      1.0000 0.89811  0.69095  0.13504  Biso   1.000  H
  H56      1.0000 0.89812  0.69098  0.13499  Biso   1.000  H
  C68      1.0000 0.53562  0.69141  0.87181  Biso   1.000  C
  C69      1.0000 0.53559  0.69148  0.87181  Biso   1.000  C
  C70      1.0000 0.60943  0.80096  0.76462  Biso   1.000  C
  H57      1.0000 0.90902  0.56997  0.77700  Biso   1.000  H
  H58      1.0000 0.82400  0.69297  0.72901  Biso   1.000  H
  C71      1.0000 0.78181  0.56585  0.73220  Biso   1.000  C
  H59      1.0000 0.82407  0.69297  0.72901  Biso   1.000  H
  C72      1.0000 0.78188  0.56585  0.73220  Biso   1.000  C
  O14      1.0000 0.55391  0.61064  0.93298  Biso   1.000  O
  H60      1.0000 0.58602  0.71091  0.96801  Biso   1.000  H
  O15      1.0000 0.55390  0.61062  0.93304  Biso   1.000  O
  O16      1.0000 0.55398  0.61062  0.93304  Biso   1.000  O
  H61      1.0000 0.58599  0.71099  0.96801  Biso   1.000  H
  H62      1.0000 0.49308  0.64689  0.02902  Biso   1.000  H
  H63      1.0000 0.49305  0.64697  0.02902  Biso   1.000  H
  H64      1.0000 0.49312  0.64697  0.02902  Biso   1.000  H
  H65      1.0000 0.26204  0.78091  0.70201  Biso   1.000  H
  H66      1.0000 0.20206  0.70094  0.69101  Biso   1.000  H
  C73      1.0000 0.34234  0.61676  0.74958  Biso   1.000  C
  H67      1.0000 0.26200  0.78098  0.70201  Biso   1.000  H
  C74      1.0000 0.34233  0.61674  0.74963  Biso   1.000  C
  H68      1.0000 0.26208  0.78098  0.70201  Biso   1.000  H
  C75      1.0000 0.69369  0.27951  0.02939  Biso   1.000  C
  C76      1.0000 0.69368  0.27949  0.02944  Biso   1.000  C
  C77      1.0000 0.69376  0.27949  0.02944  Biso   1.000  C
  H69      1.0000 0.87301  0.19800  0.01903  Biso   1.000  H
  H70      1.0000 0.82999  0.32500  0.02700  Biso   1.000  H
  H71      1.0000 0.83007  0.32500  0.02700  Biso   1.000  H
  H72      1.0000 0.79392  0.08301  0.62500  Biso   1.000  H
  H73      1.0000 0.84193  0.18399  0.61698  Biso   1.000  H
  C78      1.0000 0.71835  0.22831  0.55118  Biso   1.000  C
  H74      1.0000 0.79400  0.08301  0.62500  Biso   1.000  H
  H75      1.0000 0.84196  0.18404  0.61703  Biso   1.000  H
  C79      1.0000 0.71834  0.22829  0.55123  Biso   1.000  C
  H76      1.0000 0.84201  0.18399  0.61698  Biso   1.000  H
  C80      1.0000 0.71842  0.22829  0.55123  Biso   1.000  C
  C81      1.0000 0.48428  0.21648  0.73762  Biso   1.000  C
  C82      1.0000 0.48425  0.21656  0.73762  Biso   1.000  C
  C83      1.0000 0.58505  0.07290  0.68538  Biso   1.000  C
  C84      1.0000 0.58504  0.07288  0.68543  Biso   1.000  C
  C85      1.0000 0.58500  0.07295  0.68543  Biso   1.000  C
  O17      1.0000 0.48089  0.29967  0.75489  Biso   1.000  O
  O18      1.0000 0.48085  0.29974  0.75489  Biso   1.000  O
  H77      1.0000 0.53291  0.18901  0.84901  Biso   1.000  H
  H78      1.0000 0.41693  0.30399  0.86001  Biso   1.000  H
  H79      1.0000 0.53299  0.18901  0.84901  Biso   1.000  H
  H80      1.0000 0.41701  0.30399  0.86001  Biso   1.000  H
  O19      1.0000 0.70965  0.75330  0.20589  Biso   1.000  O
  O20      1.0000 0.70960  0.75335  0.20594  Biso   1.000  O
  O21      1.0000 0.70961  0.75337  0.20589  Biso   1.000  O
  H81      1.0000 0.76910  0.61489  0.28401  Biso   1.000  H
  H82      1.0000 0.83107  0.70796  0.26998  Biso   1.000  H
  H83      1.0000 0.76907  0.61497  0.28401  Biso   1.000  H
  H84      1.0000 0.83106  0.70794  0.27003  Biso   1.000  H
  C86      1.0000 0.42404  0.75255  0.85741  Biso   1.000  C
  C87      1.0000 0.49771  0.86200  0.75011  Biso   1.000  C
  C88      1.0000 0.49776  0.86207  0.75011  Biso   1.000  C
  H85      1.0000 0.68100  0.81995  0.72901  Biso   1.000  H
  H86      1.0000 0.68108  0.81995  0.72901  Biso   1.000  H
  H87      1.0000 0.81697  0.48296  0.75898  Biso   1.000  H
  H88      1.0000 0.68900  0.59294  0.74602  Biso   1.000  H
  C89      1.0000 0.87776  0.53691  0.66162  Biso   1.000  C
  H89      1.0000 0.81704  0.48294  0.75904  Biso   1.000  H
  C90      1.0000 0.87772  0.53698  0.66162  Biso   1.000  C
  H90      1.0000 0.81705  0.48296  0.75898  Biso   1.000  H
  H91      1.0000 0.68908  0.59294  0.74602  Biso   1.000  H
  C91      1.0000 0.81023  0.56809  0.66072  Biso   1.000  C
  H92      1.0000 0.37001  0.62591  0.79098  Biso   1.000  H
  H93      1.0000 0.31703  0.54898  0.77099  Biso   1.000  H
  C92      1.0000 0.43769  0.59845  0.69441  Biso   1.000  C
  H94      1.0000 0.37004  0.62597  0.79103  Biso   1.000  H
  C93      1.0000 0.43777  0.59845  0.69441  Biso   1.000  C
  H95      1.0000 0.37005  0.62599  0.79098  Biso   1.000  H
  O22      1.0000 0.66989  0.27062  0.10348  Biso   1.000  O
  O23      1.0000 0.66988  0.27059  0.10353  Biso   1.000  O
  O24      1.0000 0.66996  0.27059  0.10353  Biso   1.000  O
  H96      1.0000 0.63507  0.35195  0.00101  Biso   1.000  H
  H97      1.0000 0.68502  0.21498  0.02099  Biso   1.000  H
  H98      1.0000 0.63504  0.35203  0.00101  Biso   1.000  H
  H99      1.0000 0.68499  0.21506  0.02099  Biso   1.000  H
  H100     1.0000 0.64396  0.20897  0.55501  Biso   1.000  H
  H101     1.0000 0.78097  0.20700  0.50797  Biso   1.000  H
  C94      1.0000 0.65494  0.34489  0.54608  Biso   1.000  C
  H102     1.0000 0.64393  0.20904  0.55501  Biso   1.000  H
  H103     1.0000 0.78095  0.20697  0.50803  Biso   1.000  H
  C95      1.0000 0.65501  0.34487  0.54613  Biso   1.000  C
  C96      1.0000 0.65502  0.34489  0.54608  Biso   1.000  C
  H104     1.0000 0.78092  0.20705  0.50803  Biso   1.000  H
  C97      1.0000 0.65497  0.34494  0.54613  Biso   1.000  C
  C98      1.0000 0.38416  0.19413  0.75340  Biso   1.000  C
  C99      1.0000 0.48492  0.05052  0.70121  Biso   1.000  C
  H105     1.0000 0.66290  0.02600  0.65902  Biso   1.000  H
  H106     1.0000 0.66298  0.02600  0.65902  Biso   1.000  H
  C100     1.0000 0.61587  0.80579  0.24660  Biso   1.000  C
  C101     1.0000 0.61591  0.80587  0.24660  Biso   1.000  C
  O25      1.0000 0.33014  0.72931  0.89652  Biso   1.000  O
  O26      1.0000 0.33011  0.72938  0.89652  Biso   1.000  O
  C102     1.0000 0.40510  0.83787  0.79650  Biso   1.000  C
  C103     1.0000 0.40518  0.83787  0.79650  Biso   1.000  C
  C104     1.0000 0.47916  0.96023  0.68458  Biso   1.000  C
  C105     1.0000 0.47915  0.96021  0.68463  Biso   1.000  C
  C106     1.0000 0.47911  0.96029  0.68463  Biso   1.000  C
  H107     1.0000 0.85305  0.62096  0.62298  Biso   1.000  H
  H108     1.0000 0.95002  0.50497  0.67198  Biso   1.000  H
  C107     1.0000 0.83852  0.45263  0.64211  Biso   1.000  C
  H109     1.0000 0.85304  0.62093  0.62304  Biso   1.000  H
  H110     1.0000 0.95000  0.50494  0.67204  Biso   1.000  H
  C108     1.0000 0.80192  0.51349  0.62304  Biso   1.000  C
  H111     1.0000 0.50603  0.52493  0.69202  Biso   1.000  H
  H112     1.0000 0.39301  0.62897  0.64998  Biso   1.000  H
  H113     1.0000 0.47400  0.65398  0.69298  Biso   1.000  H
  H114     1.0000 0.39300  0.62894  0.65003  Biso   1.000  H
  H115     1.0000 0.47398  0.65396  0.69303  Biso   1.000  H
  H116     1.0000 0.50599  0.52500  0.69202  Biso   1.000  H
  H117     1.0000 0.39308  0.62894  0.65003  Biso   1.000  H
  H118     1.0000 0.47406  0.65396  0.69303  Biso   1.000  H
  C109     1.0000 0.57599  0.24737  0.14259  Biso   1.000  C
  C110     1.0000 0.57602  0.24743  0.14264  Biso   1.000  C
  C111     1.0000 0.57607  0.24737  0.14259  Biso   1.000  C
  H119     1.0000 0.60794  0.36898  0.58201  Biso   1.000  H
  C112     1.0000 0.62797  0.44202  0.46801  Biso   1.000  C
  H120     1.0000 0.60798  0.36905  0.58201  Biso   1.000  H
  H121     1.0000 0.60802  0.36898  0.58201  Biso   1.000  H
  C113     1.0000 0.73597  0.35203  0.53003  Biso   1.000  C
  C114     1.0000 0.66297  0.37601  0.45403  Biso   1.000  C
  O27      1.0000 0.29039  0.24663  0.79411  Biso   1.000  O
  O28      1.0000 0.29047  0.24663  0.79411  Biso   1.000  O
  C115     1.0000 0.38451  0.11112  0.73517  Biso   1.000  C
  C116     1.0000 0.38457  0.11110  0.73523  Biso   1.000  C
  C117     1.0000 0.38459  0.11112  0.73517  Biso   1.000  C
  C118     1.0000 0.61553  0.88880  0.26483  Biso   1.000  C
  C119     1.0000 0.61549  0.88888  0.26483  Biso   1.000  C
  C120     1.0000 0.51575  0.78344  0.26238  Biso   1.000  C
  C121     1.0000 0.51582  0.78342  0.26244  Biso   1.000  C
  C122     1.0000 0.51583  0.78344  0.26238  Biso   1.000  C
  C123     1.0000 0.30634  0.72041  0.97061  Biso   1.000  C
  C124     1.0000 0.30631  0.72049  0.97061  Biso   1.000  C
  O29      1.0000 0.29761  0.88914  0.77610  Biso   1.000  O
  O30      1.0000 0.29769  0.88914  0.77610  Biso   1.000  O
  H122     1.0000 0.39307  0.98593  0.67299  Biso   1.000  H
  C125     1.0000 0.56173  0.93462  0.61857  Biso   1.000  C
  C126     1.0000 0.56176  0.93467  0.61862  Biso   1.000  C
  C127     1.0000 0.56181  0.93462  0.61857  Biso   1.000  C
  H123     1.0000 0.39304  0.98600  0.67299  Biso   1.000  H
  C128     1.0000 0.93620  0.46371  0.57961  Biso   1.000  C
  C129     1.0000 0.93624  0.46379  0.57961  Biso   1.000  C
  C130     1.0000 0.93876  0.37144  0.65561  Biso   1.000  C
  C131     1.0000 0.46441  0.30852  0.12819  Biso   1.000  C
  C132     1.0000 0.46440  0.30849  0.12824  Biso   1.000  C
  C133     1.0000 0.59493  0.16206  0.20350  Biso   1.000  C
  C134     1.0000 0.59490  0.16213  0.20350  Biso   1.000  C
  C135     1.0000 0.76398  0.43101  0.43798  Biso   1.000  C
  C136     1.0000 0.76397  0.43099  0.43803  Biso   1.000  C
  C137     1.0000 0.66403  0.48804  0.42799  Biso   1.000  C
  C138     1.0000 0.20167  0.32522  0.75542  Biso   1.000  C
  O31      1.0000 0.28196  0.09491  0.74761  Biso   1.000  O
  C139     1.0000 0.51511  0.94940  0.29879  Biso   1.000  C
  C140     1.0000 0.51507  0.94945  0.29884  Biso   1.000  C
  C141     1.0000 0.51508  0.94948  0.29879  Biso   1.000  C
  O32      1.0000 0.71808  0.90501  0.25239  Biso   1.000  O
  O33      1.0000 0.71814  0.90499  0.25244  Biso   1.000  O
  O34      1.0000 0.71816  0.90501  0.25239  Biso   1.000  O
  O35      1.0000 0.71811  0.90506  0.25244  Biso   1.000  O
  C142     1.0000 0.41541  0.84402  0.29640  Biso   1.000  C
  C143     1.0000 0.41539  0.84400  0.29645  Biso   1.000  C
  C144     1.0000 0.41536  0.84407  0.29645  Biso   1.000  C
  O36      1.0000 0.51915  0.70026  0.24511  Biso   1.000  O
  O37      1.0000 0.51923  0.70026  0.24511  Biso   1.000  O
  C145     1.0000 0.18561  0.72233  0.99692  Biso   1.000  C
  C146     1.0000 0.18568  0.72233  0.99692  Biso   1.000  C
  H124     1.0000 0.36496  0.64797  0.99899  Biso   1.000  H
  H125     1.0000 0.31501  0.78494  0.97901  Biso   1.000  H
  H126     1.0000 0.36503  0.64795  0.99904  Biso   1.000  H
  H127     1.0000 0.36504  0.64797  0.99899  Biso   1.000  H
  C147     1.0000 0.21606  0.95492  0.81952  Biso   1.000  C
  H128     1.0000 0.64808  0.89990  0.63000  Biso   1.000  H
  C148     1.0000 0.53884  0.85714  0.59471  Biso   1.000  C
  H129     1.0000 0.64805  0.89998  0.63000  Biso   1.000  H
  H130     1.0000 0.55194  0.00598  0.57600  Biso   1.000  H
  H131     1.0000 0.55190  0.00605  0.57600  Biso   1.000  H
  H132     1.0000 0.55198  0.00605  0.57600  Biso   1.000  H
  H133     1.0000 0.92504  0.50494  0.54597  Biso   1.000  H
  H134     1.0000 0.92499  0.50499  0.54603  Biso   1.000  H
  C149     1.0000 0.37168  0.28431  0.17458  Biso   1.000  C
  C150     1.0000 0.37174  0.28429  0.17464  Biso   1.000  C
  C151     1.0000 0.37176  0.28431  0.17458  Biso   1.000  C
  O38      1.0000 0.44612  0.38929  0.06702  Biso   1.000  O
  C152     1.0000 0.50232  0.13793  0.24989  Biso   1.000  C
  C153     1.0000 0.50231  0.13790  0.24995  Biso   1.000  C
  O39      1.0000 0.70242  0.11078  0.22390  Biso   1.000  O
  O40      1.0000 0.70239  0.11086  0.22390  Biso   1.000  O
  C154     1.0000 0.10501  0.37144  0.81638  Biso   1.000  C
  C155     1.0000 0.10508  0.37141  0.81643  Biso   1.000  C
  C156     1.0000 0.10509  0.37144  0.81638  Biso   1.000  C
  H135     1.0000 0.23093  0.38503  0.71599  Biso   1.000  H
  H136     1.0000 0.16897  0.29197  0.73002  Biso   1.000  H
  H137     1.0000 0.23092  0.38501  0.71604  Biso   1.000  H
  H138     1.0000 0.16893  0.29204  0.73002  Biso   1.000  H
  H139     1.0000 0.23100  0.38501  0.71604  Biso   1.000  H
  C157     1.0000 0.25069  0.03651  0.82042  Biso   1.000  C
  C158     1.0000 0.25076  0.03651  0.82042  Biso   1.000  C
  C159     1.0000 0.52088  0.03969  0.31542  Biso   1.000  C
  C160     1.0000 0.41498  0.92703  0.31462  Biso   1.000  C
  C161     1.0000 0.74935  0.96341  0.17958  Biso   1.000  C
  C162     1.0000 0.74930  0.96346  0.17963  Biso   1.000  C
  C163     1.0000 0.31097  0.81592  0.31138  Biso   1.000  C
  C164     1.0000 0.31104  0.81589  0.31144  Biso   1.000  C
  C165     1.0000 0.31100  0.81597  0.31144  Biso   1.000  C
  C166     1.0000 0.50233  0.72672  0.17230  Biso   1.000  C
  C167     1.0000 0.16267  0.67877  0.07818  Biso   1.000  C
  C168     1.0000 0.16265  0.67875  0.07823  Biso   1.000  C
  C169     1.0000 0.16273  0.67875  0.07823  Biso   1.000  C
  H140     1.0000 0.12703  0.80192  0.98097  Biso   1.000  H
  H141     1.0000 0.17004  0.67492  0.97300  Biso   1.000  H
  H142     1.0000 0.12702  0.80190  0.98103  Biso   1.000  H
  H143     1.0000 0.12706  0.80198  0.98103  Biso   1.000  H
  H144     1.0000 0.17001  0.67500  0.97300  Biso   1.000  H
  H145     1.0000 0.20504  0.90595  0.87298  Biso   1.000  H
  H146     1.0000 0.13504  0.99189  0.79900  Biso   1.000  H
  H147     1.0000 0.20503  0.90593  0.87303  Biso   1.000  H
  H148     1.0000 0.13501  0.99197  0.79900  Biso   1.000  H
  H149     1.0000 0.13509  0.99197  0.79900  Biso   1.000  H
  H150     1.0000 0.54601  0.78595  0.63797  Biso   1.000  H
  H151     1.0000 0.45308  0.89292  0.58201  Biso   1.000  H
  C170     1.0000 0.62214  0.82871  0.53131  Biso   1.000  C
  H152     1.0000 0.54608  0.78593  0.63802  Biso   1.000  H
  C171     1.0000 0.62210  0.82878  0.53131  Biso   1.000  C
  H153     1.0000 0.54609  0.78595  0.63797  Biso   1.000  H
  H154     1.0000 0.45305  0.89300  0.58201  Biso   1.000  H
  C172     1.0000 0.62218  0.82878  0.53131  Biso   1.000  C
  C173     1.0000 0.39056  0.19902  0.23544  Biso   1.000  C
  C174     1.0000 0.39061  0.19896  0.23538  Biso   1.000  C
  C175     1.0000 0.25080  0.36081  0.16491  Biso   1.000  C
  C176     1.0000 0.39057  0.19904  0.23538  Biso   1.000  C
  C177     1.0000 0.39063  0.19902  0.23544  Biso   1.000  C
  C178     1.0000 0.42989  0.36230  0.00962  Biso   1.000  C
  C179     1.0000 0.42997  0.36230  0.00962  Biso   1.000  C
  C180     1.0000 0.78397  0.04500  0.18048  Biso   1.000  C
  C181     1.0000 0.78404  0.04498  0.18054  Biso   1.000  C
  C182     1.0000 0.78405  0.04500  0.18048  Biso   1.000  C
  C183     1.0000 0.13823  0.44629  0.82632  Biso   1.000  C
  C184     1.0000 0.13830  0.44629  0.82632  Biso   1.000  C
  H155     1.0000 0.10196  0.30902  0.86501  Biso   1.000  H
  H156     1.0000 0.02196  0.40896  0.79900  Biso   1.000  H
  H157     1.0000 0.02193  0.40904  0.79900  Biso   1.000  H
  H158     1.0000 0.02200  0.40904  0.79900  Biso   1.000  H
  H159     1.0000 0.32397  0.00100  0.84800  Biso   1.000  H
  H160     1.0000 0.18094  0.08903  0.84699  Biso   1.000  H
  H161     1.0000 0.60696  0.01400  0.32701  Biso   1.000  H
  C185     1.0000 0.43830  0.06530  0.38143  Biso   1.000  C
  H162     1.0000 0.60704  0.01400  0.32701  Biso   1.000  H
  H163     1.0000 0.33713  0.97392  0.34098  Biso   1.000  H
  H164     1.0000 0.33712  0.97390  0.34104  Biso   1.000  H
  H165     1.0000 0.67607  0.99892  0.15200  Biso   1.000  H
  H166     1.0000 0.81910  0.91089  0.15301  Biso   1.000  H
  H167     1.0000 0.67615  0.99892  0.15200  Biso   1.000  H
  H168     1.0000 0.81906  0.91097  0.15301  Biso   1.000  H
  H169     1.0000 0.81914  0.91097  0.15301  Biso   1.000  H
  C186     1.0000 0.24437  0.87072  0.24729  Biso   1.000  C
  H170     1.0000 0.34308  0.73190  0.31999  Biso   1.000  H
  C187     1.0000 0.23252  0.83450  0.37909  Biso   1.000  C
  C188     1.0000 0.24443  0.87070  0.24734  Biso   1.000  C
  H171     1.0000 0.34311  0.73195  0.32005  Biso   1.000  H
  C189     1.0000 0.23247  0.83455  0.37914  Biso   1.000  C
  C190     1.0000 0.24444  0.87072  0.24729  Biso   1.000  C
  H172     1.0000 0.34304  0.73197  0.31999  Biso   1.000  H
  C191     1.0000 0.23249  0.83457  0.37909  Biso   1.000  C
  C192     1.0000 0.24440  0.87077  0.24734  Biso   1.000  C
  C193     1.0000 0.41978  0.67800  0.17400  Biso   1.000  C
  H173     1.0000 0.46713  0.81091  0.15099  Biso   1.000  H
  H174     1.0000 0.58310  0.69593  0.13999  Biso   1.000  H
  C194     1.0000 0.41982  0.67807  0.17400  Biso   1.000  C
  H175     1.0000 0.46708  0.81097  0.15104  Biso   1.000  H
  H176     1.0000 0.58309  0.69591  0.14004  Biso   1.000  H
  C195     1.0000 0.41974  0.67807  0.17400  Biso   1.000  C
  C196     1.0000 0.12416  0.75502  0.12101  Biso   1.000  C
  C197     1.0000 0.12424  0.75502  0.12101  Biso   1.000  C
  H177     1.0000 0.24105  0.61795  0.09503  Biso   1.000  H
  H178     1.0000 0.09709  0.64498  0.09099  Biso   1.000  H
  H179     1.0000 0.09708  0.64495  0.09104  Biso   1.000  H
  H180     1.0000 0.24113  0.61795  0.09503  Biso   1.000  H
  H181     1.0000 0.70706  0.78797  0.54597  Biso   1.000  H
  H182     1.0000 0.62006  0.89995  0.48900  Biso   1.000  H
  C198     1.0000 0.59391  0.75937  0.50399  Biso   1.000  C
  H183     1.0000 0.70705  0.78794  0.54603  Biso   1.000  H
  C199     1.0000 0.59398  0.75937  0.50399  Biso   1.000  C
  H184     1.0000 0.31903  0.17998  0.27099  Biso   1.000  H
  H185     1.0000 0.31902  0.17996  0.27104  Biso   1.000  H
  H186     1.0000 0.31898  0.18003  0.27104  Biso   1.000  H
  C200     1.0000 0.19058  0.32882  0.12601  Biso   1.000  C
  H187     1.0000 0.26104  0.43401  0.13100  Biso   1.000  H
  C201     1.0000 0.17693  0.38143  0.23368  Biso   1.000  C
  C202     1.0000 0.19065  0.32882  0.12601  Biso   1.000  C
  C203     1.0000 0.17691  0.38141  0.23374  Biso   1.000  C
  H188     1.0000 0.41401  0.28901  0.03199  Biso   1.000  H
  H189     1.0000 0.50695  0.35303  0.97098  Biso   1.000  H
  C204     1.0000 0.33194  0.44361  0.97428  Biso   1.000  C
  H190     1.0000 0.50694  0.35301  0.97104  Biso   1.000  H
  C205     1.0000 0.33192  0.44359  0.97433  Biso   1.000  C
  C206     1.0000 0.33200  0.44359  0.97433  Biso   1.000  C
  H191     1.0000 0.79500  0.09397  0.12702  Biso   1.000  H
  H192     1.0000 0.86499  0.00803  0.20100  Biso   1.000  H
  H193     1.0000 0.79496  0.09405  0.12702  Biso   1.000  H
  C207     1.0000 0.09237  0.44598  0.90678  Biso   1.000  C
  C208     1.0000 0.09232  0.44603  0.90684  Biso   1.000  C
  H194     1.0000 0.23100  0.42396  0.81601  Biso   1.000  H
  H195     1.0000 0.09998  0.52302  0.79098  Biso   1.000  H
  H196     1.0000 0.23096  0.42404  0.81601  Biso   1.000  H
  H197     1.0000 0.09996  0.52299  0.79103  Biso   1.000  H
  H198     1.0000 0.35195  0.10002  0.37000  Biso   1.000  H
  C209     1.0000 0.46120  0.14278  0.40529  Biso   1.000  C
  C210     1.0000 0.46119  0.14276  0.40534  Biso   1.000  C
  H199     1.0000 0.35203  0.10002  0.37000  Biso   1.000  H
  C211     1.0000 0.46115  0.14283  0.40534  Biso   1.000  C
  H200     1.0000 0.44810  0.99395  0.42400  Biso   1.000  H
  C212     1.0000 0.17546  0.97675  0.23299  Biso   1.000  C
  C213     1.0000 0.17552  0.97672  0.23305  Biso   1.000  C
  C214     1.0000 0.17554  0.97675  0.23299  Biso   1.000  C
  C215     1.0000 0.25251  0.81247  0.20419  Biso   1.000  C
  C216     1.0000 0.25250  0.81244  0.20424  Biso   1.000  C
  H201     1.0000 0.20612  0.91692  0.37500  Biso   1.000  H
  H202     1.0000 0.15810  0.81594  0.38302  Biso   1.000  H
  C217     1.0000 0.28168  0.77161  0.44882  Biso   1.000  C
  O41      1.0000 0.31440  0.70603  0.21928  Biso   1.000  O
  O42      1.0000 0.31439  0.70601  0.21933  Biso   1.000  O
  O43      1.0000 0.31435  0.70608  0.21933  Biso   1.000  O
  H203     1.0000 0.46107  0.59389  0.19101  Biso   1.000  H
  H204     1.0000 0.40112  0.70190  0.12101  Biso   1.000  H
  H205     1.0000 0.46104  0.59397  0.19101  Biso   1.000  H
  H206     1.0000 0.40108  0.70197  0.12101  Biso   1.000  H
  H207     1.0000 0.46111  0.59397  0.19101  Biso   1.000  H
  O44      1.0000 0.20948  0.80410  0.09991  Biso   1.000  O
  O45      1.0000 0.20952  0.80418  0.09991  Biso   1.000  O
  H208     1.0000 0.11908  0.71393  0.17698  Biso   1.000  H
  H209     1.0000 0.04111  0.81390  0.11001  Biso   1.000  H
  H210     1.0000 0.11907  0.71391  0.17703  Biso   1.000  H
  H211     1.0000 0.04107  0.81398  0.11001  Biso   1.000  H
  H212     1.0000 0.11914  0.71391  0.17703  Biso   1.000  H
  H213     1.0000 0.59305  0.68896  0.54698  Biso   1.000  H
  H214     1.0000 0.51001  0.80097  0.48799  Biso   1.000  H
  C218     1.0000 0.67998  0.72815  0.44149  Biso   1.000  C
  H215     1.0000 0.59303  0.68894  0.54704  Biso   1.000  H
  H216     1.0000 0.51008  0.80097  0.48799  Biso   1.000  H
  C219     1.0000 0.14277  0.25108  0.16162  Biso   1.000  C
  C220     1.0000 0.19945  0.36879  0.05219  Biso   1.000  C
  C221     1.0000 0.14285  0.25108  0.16162  Biso   1.000  C
  C222     1.0000 0.19944  0.36876  0.05224  Biso   1.000  C
  C223     1.0000 0.19940  0.36884  0.05224  Biso   1.000  C
  H217     1.0000 0.09101  0.42996  0.22300  Biso   1.000  H
  H218     1.0000 0.17604  0.30696  0.27099  Biso   1.000  H
  C224     1.0000 0.21823  0.43407  0.26780  Biso   1.000  C
  H219     1.0000 0.09098  0.43003  0.22300  Biso   1.000  H
  H220     1.0000 0.17599  0.30701  0.27104  Biso   1.000  H
  H221     1.0000 0.17600  0.30703  0.27099  Biso   1.000  H
  H222     1.0000 0.09106  0.43003  0.22300  Biso   1.000  H
  C225     1.0000 0.21819  0.43415  0.26780  Biso   1.000  C
  O46      1.0000 0.22643  0.45813  0.01988  Biso   1.000  O
  O47      1.0000 0.22642  0.45811  0.01993  Biso   1.000  O
  H223     1.0000 0.34693  0.51701  0.95398  Biso   1.000  H
  H224     1.0000 0.32696  0.42096  0.93102  Biso   1.000  H
  H225     1.0000 0.34699  0.51698  0.95403  Biso   1.000  H
  H226     1.0000 0.32693  0.42104  0.93102  Biso   1.000  H
  H227     1.0000 0.34700  0.51701  0.95398  Biso   1.000  H
  O48      1.0000 0.18202  0.35923  0.94149  Biso   1.000  O
  O49      1.0000 0.18208  0.35920  0.94154  Biso   1.000  O
  H228     1.0000 0.01193  0.43296  0.92501  Biso   1.000  H
  H229     1.0000 0.08292  0.51802  0.91502  Biso   1.000  H
  H230     1.0000 0.01197  0.43304  0.92501  Biso   1.000  H
  H231     1.0000 0.08300  0.51802  0.91502  Biso   1.000  H
  H232     1.0000 0.45402  0.21398  0.36203  Biso   1.000  H
  H233     1.0000 0.54695  0.10700  0.41799  Biso   1.000  H
  C226     1.0000 0.37790  0.17122  0.46869  Biso   1.000  C
  H234     1.0000 0.54702  0.10698  0.41805  Biso   1.000  H
  C227     1.0000 0.37788  0.17119  0.46875  Biso   1.000  C
  H235     1.0000 0.54703  0.10700  0.41799  Biso   1.000  H
  C228     1.0000 0.11461  0.02437  0.17559  Biso   1.000  C
  C229     1.0000 0.11457  0.02442  0.17565  Biso   1.000  C
  C230     1.0000 0.11458  0.02445  0.17559  Biso   1.000  C
  H236     1.0000 0.16902  0.02197  0.26600  Biso   1.000  H
  H237     1.0000 0.16897  0.02202  0.26605  Biso   1.000  H
  H238     1.0000 0.16898  0.02205  0.26600  Biso   1.000  H
  C231     1.0000 0.19169  0.86014  0.14668  Biso   1.000  C
  C232     1.0000 0.19167  0.86011  0.14674  Biso   1.000  C
  C233     1.0000 0.19175  0.86011  0.14674  Biso   1.000  C
  H239     1.0000 0.35607  0.79096  0.44499  Biso   1.000  H
  H240     1.0000 0.21907  0.79293  0.49203  Biso   1.000  H
  C234     1.0000 0.34509  0.65503  0.45392  Biso   1.000  C
  H241     1.0000 0.35606  0.79093  0.44504  Biso   1.000  H
  H242     1.0000 0.64707  0.68490  0.42501  Biso   1.000  H
  H243     1.0000 0.69805  0.78894  0.39600  Biso   1.000  H
  H244     1.0000 0.75704  0.67593  0.46397  Biso   1.000  H
  H245     1.0000 0.64703  0.68498  0.42501  Biso   1.000  H
  H246     1.0000 0.75699  0.67598  0.46402  Biso   1.000  H
  H247     1.0000 0.75700  0.67600  0.46397  Biso   1.000  H
  H248     1.0000 0.75707  0.67598  0.46402  Biso   1.000  H
  C235     1.0000 0.10389  0.21338  0.12341  Biso   1.000  C
  H249     1.0000 0.13602  0.21998  0.21901  Biso   1.000  H
  C236     1.0000 0.10393  0.21346  0.12341  Biso   1.000  C
  C237     1.0000 0.16057  0.33109  0.01398  Biso   1.000  C
  C238     1.0000 0.16056  0.33107  0.01403  Biso   1.000  C
  C239     1.0000 0.16052  0.33114  0.01403  Biso   1.000  C
  H250     1.0000 0.18306  0.51696  0.24102  Biso   1.000  H
  H251     1.0000 0.31103  0.40699  0.25398  Biso   1.000  H
  C240     1.0000 0.12228  0.46302  0.33838  Biso   1.000  C
  H252     1.0000 0.31102  0.40696  0.25404  Biso   1.000  H
  C241     1.0000 0.12234  0.46300  0.33843  Biso   1.000  C
  C242     1.0000 0.12235  0.46302  0.33838  Biso   1.000  C
  H253     1.0000 0.18303  0.51704  0.24102  Biso   1.000  H
  C243     1.0000 0.18985  0.43191  0.33928  Biso   1.000  C
  H254     1.0000 0.29297  0.21196  0.45403  Biso   1.000  H
  H255     1.0000 0.37998  0.09997  0.51100  Biso   1.000  H
  C244     1.0000 0.40613  0.24055  0.49601  Biso   1.000  C
  H256     1.0000 0.29305  0.21196  0.45403  Biso   1.000  H
  H257     1.0000 0.37996  0.09995  0.51105  Biso   1.000  H
  C245     1.0000 0.40609  0.24063  0.49601  Biso   1.000  C
  H258     1.0000 0.29301  0.21203  0.45403  Biso   1.000  H
  H259     1.0000 0.38000  0.10003  0.51105  Biso   1.000  H
  C246     1.0000 0.03472  0.13995  0.16093  Biso   1.000  C
  C247     1.0000 0.03469  0.14002  0.16093  Biso   1.000  C
  C248     1.0000 0.12285  0.96601  0.13239  Biso   1.000  C
  C249     1.0000 0.12284  0.96599  0.13244  Biso   1.000  C
  C250     1.0000 0.12280  0.96607  0.13244  Biso   1.000  C
  H260     1.0000 0.39209  0.63095  0.41799  Biso   1.000  H
  C251     1.0000 0.37207  0.55790  0.53199  Biso   1.000  C
  H261     1.0000 0.39208  0.63093  0.41805  Biso   1.000  H
  C252     1.0000 0.37202  0.55795  0.53204  Biso   1.000  C
  C253     1.0000 0.37203  0.55798  0.53199  Biso   1.000  C
  C254     1.0000 0.26402  0.64795  0.47002  Biso   1.000  C
  C255     1.0000 0.33705  0.62389  0.54602  Biso   1.000  C
  C256     1.0000 0.11273  0.25327  0.04959  Biso   1.000  C
  C257     1.0000 0.11268  0.25333  0.04964  Biso   1.000  C
  C258     1.0000 0.11269  0.25335  0.04959  Biso   1.000  C
  H262     1.0000 0.14699  0.37897  0.37702  Biso   1.000  H
  H263     1.0000 0.05002  0.49496  0.32802  Biso   1.000  H
  C259     1.0000 0.16151  0.54729  0.35789  Biso   1.000  C
  C260     1.0000 0.16150  0.54727  0.35794  Biso   1.000  C
  H264     1.0000 0.14703  0.37904  0.37702  Biso   1.000  H
  H265     1.0000 0.04998  0.49503  0.32802  Biso   1.000  H
  C261     1.0000 0.16158  0.54727  0.35794  Biso   1.000  C
  C262     1.0000 0.19814  0.48649  0.37702  Biso   1.000  C
  H266     1.0000 0.40699  0.31096  0.45302  Biso   1.000  H
  H267     1.0000 0.49003  0.19895  0.51201  Biso   1.000  H
  C263     1.0000 0.32006  0.27177  0.55851  Biso   1.000  C
  H268     1.0000 0.48999  0.19903  0.51201  Biso   1.000  H
  C264     1.0000 0.32014  0.27177  0.55851  Biso   1.000  C
  H269     1.0000 0.40703  0.31104  0.45302  Biso   1.000  H
  C265     1.0000 0.32010  0.27185  0.55851  Biso   1.000  C
  H270     1.0000 0.97998  0.15498  0.12399  Biso   1.000  H
  C266     1.0000 0.95250  0.16397  0.22768  Biso   1.000  C
  H271     1.0000 0.98004  0.15496  0.12404  Biso   1.000  H
  C267     1.0000 0.95253  0.16402  0.22773  Biso   1.000  C
  H272     1.0000 0.98006  0.15498  0.12399  Biso   1.000  H
  C268     1.0000 0.95254  0.16404  0.22768  Biso   1.000  C
  H273     1.0000 0.98001  0.15503  0.12404  Biso   1.000  H
  O50      1.0000 0.05983  0.00999  0.07669  Biso   1.000  O
  O51      1.0000 0.05981  0.00997  0.07674  Biso   1.000  O
  O52      1.0000 0.05978  0.01004  0.07674  Biso   1.000  O
  C269     1.0000 0.23606  0.56892  0.56202  Biso   1.000  C
  C270     1.0000 0.33608  0.51189  0.57201  Biso   1.000  C
  O53      1.0000 0.08529  0.20992  0.01089  Biso   1.000  O
  O54      1.0000 0.08537  0.20992  0.01089  Biso   1.000  O
  C271     1.0000 0.06384  0.53621  0.42039  Biso   1.000  C
  C272     1.0000 0.06383  0.53619  0.42044  Biso   1.000  C
  C273     1.0000 0.06136  0.62849  0.34439  Biso   1.000  C
  H274     1.0000 0.35297  0.31502  0.57499  Biso   1.000  H
  H275     1.0000 0.30199  0.21098  0.60400  Biso   1.000  H
  H276     1.0000 0.24300  0.32400  0.53603  Biso   1.000  H
  H277     1.0000 0.35296  0.31500  0.57504  Biso   1.000  H
  H278     1.0000 0.35303  0.31500  0.57504  Biso   1.000  H
  H279     1.0000 0.00005  0.16701  0.26201  Biso   1.000  H
  H280     1.0000 0.99997  0.16701  0.26201  Biso   1.000  H
  H281     1.0000 0.91799  0.10197  0.25499  Biso   1.000  H
  C274     1.0000 0.85478  0.26739  0.20940  Biso   1.000  C
  H282     1.0000 0.91795  0.10202  0.25505  Biso   1.000  H
  C275     1.0000 0.85485  0.26739  0.20940  Biso   1.000  C
  H283     1.0000 0.91796  0.10204  0.25499  Biso   1.000  H
  H284     1.0000 0.91802  0.10202  0.25505  Biso   1.000  H
  C276     1.0000 0.12138  0.03829  0.00702  Biso   1.000  C
  C277     1.0000 0.12146  0.03829  0.00702  Biso   1.000  C
  C278     1.0000 0.17584  0.11752  0.99660  Biso   1.000  C
  H285     1.0000 0.07500  0.49499  0.45403  Biso   1.000  H
  H286     1.0000 0.81605  0.26795  0.16900  Biso   1.000  H
  H287     1.0000 0.88902  0.33001  0.18899  Biso   1.000  H
  C279     1.0000 0.76352  0.28697  0.27243  Biso   1.000  C
  H288     1.0000 0.81601  0.26803  0.16900  Biso   1.000  H
  H289     1.0000 0.88900  0.32999  0.18904  Biso   1.000  H
  C280     1.0000 0.76348  0.28704  0.27243  Biso   1.000  C
  H290     1.0000 0.18911  0.96711  0.00298  Biso   1.000  H
  H291     1.0000 0.18906  0.96717  0.00303  Biso   1.000  H
  H292     1.0000 0.18914  0.96717  0.00303  Biso   1.000  H
  H293     1.0000 0.06190  0.07098  0.96902  Biso   1.000  H
  H294     1.0000 0.06198  0.07098  0.96902  Biso   1.000  H
  H295     1.0000 0.06194  0.07106  0.96902  Biso   1.000  H
  H296     1.0000 0.23700  0.08602  0.03300  Biso   1.000  H
  H297     1.0000 0.21892  0.13703  0.94297  Biso   1.000  H
  H298     1.0000 0.21891  0.13701  0.94303  Biso   1.000  H
  H299     1.0000 0.21899  0.13701  0.94303  Biso   1.000  H
  H300     1.0000 0.73800  0.21902  0.29799  Biso   1.000  H
  H301     1.0000 0.79797  0.29899  0.30899  Biso   1.000  H
  C281     1.0000 0.65770  0.38317  0.25042  Biso   1.000  C
  H302     1.0000 0.73799  0.21900  0.29804  Biso   1.000  H
  H303     1.0000 0.79804  0.29896  0.30904  Biso   1.000  H
  H304     1.0000 0.79805  0.29899  0.30899  Biso   1.000  H
  H305     1.0000 0.79800  0.29904  0.30904  Biso   1.000  H
  C282     1.0000 0.65774  0.38324  0.25042  Biso   1.000  C
  H306     1.0000 0.63003  0.37401  0.20902  Biso   1.000  H
  H307     1.0000 0.68300  0.45095  0.22901  Biso   1.000  H
  C283     1.0000 0.56235  0.40147  0.30559  Biso   1.000  C
  H308     1.0000 0.68304  0.45102  0.22901  Biso   1.000  H
  C284     1.0000 0.56233  0.40145  0.30564  Biso   1.000  C
  C285     1.0000 0.56230  0.40153  0.30564  Biso   1.000  C
  H309     1.0000 0.49401  0.47500  0.30798  Biso   1.000  H
  H310     1.0000 0.60702  0.37096  0.35002  Biso   1.000  H
  H311     1.0000 0.52604  0.34595  0.30702  Biso   1.000  H
  H312     1.0000 0.49400  0.47498  0.30803  Biso   1.000  H
  H313     1.0000 0.52600  0.34602  0.30702  Biso   1.000  H
  H314     1.0000 0.49407  0.47498  0.30803  Biso   1.000  H
  H315     1.0000 0.60699  0.37103  0.35002  Biso   1.000  H
  C286     1.0000 0.82419  0.88241  0.00340  Biso   1.000  C
  C287     1.0000 0.87865  0.96163  0.99298  Biso   1.000  C
  C288     1.0000 0.87864  0.96161  0.99304  Biso   1.000  C
  O55      1.0000 0.91475  0.79001  0.98911  Biso   1.000  O
  H316     1.0000 0.76303  0.91390  0.96700  Biso   1.000  H
  O56      1.0000 0.91471  0.79008  0.98911  Biso   1.000  O
  H317     1.0000 0.76300  0.91398  0.96700  Biso   1.000  H
  H318     1.0000 0.76307  0.91398  0.96700  Biso   1.000  H
  H319     1.0000 0.78111  0.86290  0.05703  Biso   1.000  H
  H320     1.0000 0.78108  0.86297  0.05703  Biso   1.000  H
  O57      1.0000 0.94021  0.98993  0.92331  Biso   1.000  O
  O58      1.0000 0.94029  0.98993  0.92331  Biso   1.000  O
  H321     1.0000 0.93813  0.92894  0.03098  Biso   1.000  H
  H322     1.0000 0.93812  0.92892  0.03104  Biso   1.000  H
  C289     1.0000 0.82423  0.88248  0.00340  Biso   1.000  C
  H323     1.0000 0.81093  0.03281  0.99702  Biso   1.000  H
  C290     1.0000 0.88731  0.74665  0.95041  Biso   1.000  C
  C291     1.0000 0.87718  0.03391  0.86761  Biso   1.000  C
  C292     1.0000 0.87726  0.03391  0.86761  Biso   1.000  C
  C293     1.0000 0.89614  0.78654  0.87659  Biso   1.000  C
  C294     1.0000 0.83947  0.66884  0.98602  Biso   1.000  C
  C295     1.0000 0.83954  0.66884  0.98602  Biso   1.000  C
  C296     1.0000 0.80835  0.13979  0.85332  Biso   1.000  C
  C297     1.0000 0.88542  0.97555  0.82441  Biso   1.000  C
  C298     1.0000 0.96531  0.85998  0.83907  Biso   1.000  C
  C299     1.0000 0.96530  0.85996  0.83913  Biso   1.000  C
  C300     1.0000 0.96538  0.85996  0.83913  Biso   1.000  C
  C301     1.0000 0.85726  0.74885  0.83838  Biso   1.000  C
  C302     1.0000 0.85725  0.74882  0.83844  Biso   1.000  C
  O59      1.0000 0.81802  0.64070  0.05851  Biso   1.000  O
  O60      1.0000 0.81798  0.64077  0.05851  Biso   1.000  O
  C303     1.0000 0.80058  0.63114  0.94781  Biso   1.000  C
  C304     1.0000 0.80066  0.63114  0.94781  Biso   1.000  C
  O61      1.0000 0.79055  0.19582  0.90009  Biso   1.000  O
  O62      1.0000 0.79054  0.19580  0.90014  Biso   1.000  O
  C305     1.0000 0.74753  0.18746  0.79581  Biso   1.000  C
  C306     1.0000 0.74757  0.18753  0.79581  Biso   1.000  C
  C307     1.0000 0.82457  0.02318  0.76701  Biso   1.000  C
  C308     1.0000 0.82454  0.02325  0.76701  Biso   1.000  C
  H324     1.0000 0.02006  0.84494  0.87601  Biso   1.000  H
  C309     1.0000 0.04754  0.83596  0.77232  Biso   1.000  C
  C310     1.0000 0.80946  0.67111  0.87399  Biso   1.000  C
  H325     1.0000 0.86402  0.77994  0.78099  Biso   1.000  H
  C311     1.0000 0.80942  0.67118  0.87399  Biso   1.000  C
  H326     1.0000 0.86400  0.77992  0.78104  Biso   1.000  H
  H327     1.0000 0.86408  0.77992  0.78104  Biso   1.000  H
  C312     1.0000 0.90767  0.55395  0.09322  Biso   1.000  C
  O63      1.0000 0.77360  0.54179  0.98012  Biso   1.000  O
  O64      1.0000 0.77357  0.54187  0.98012  Biso   1.000  O
  O65      1.0000 0.77365  0.54187  0.98012  Biso   1.000  O
  C313     1.0000 0.87588  0.24491  0.87899  Biso   1.000  C
  C314     1.0000 0.87586  0.24488  0.87904  Biso   1.000  C
  C315     1.0000 0.75567  0.12921  0.75271  Biso   1.000  C
  O66      1.0000 0.68563  0.29390  0.78072  Biso   1.000  O
  O67      1.0000 0.68571  0.29390  0.78072  Biso   1.000  O
  H328     1.0000 0.83102  0.97795  0.73400  Biso   1.000  H
  H329     1.0000 0.83109  0.97795  0.73400  Biso   1.000  H
  H330     1.0000 0.00003  0.83299  0.73799  Biso   1.000  H
  H331     1.0000 0.00006  0.83292  0.73799  Biso   1.000  H
  H332     1.0000 0.08204  0.89796  0.74501  Biso   1.000  H
  C316     1.0000 0.14526  0.73254  0.79060  Biso   1.000  C
  C317     1.0000 0.74923  0.63911  0.83509  Biso   1.000  C
  C318     1.0000 0.74918  0.63916  0.83514  Biso   1.000  C
  C319     1.0000 0.74920  0.63919  0.83509  Biso   1.000  C
  C320     1.0000 0.86181  0.55363  0.17368  Biso   1.000  C
  C321     1.0000 0.86180  0.55361  0.17373  Biso   1.000  C
  C322     1.0000 0.86176  0.55369  0.17373  Biso   1.000  C
  H333     1.0000 0.98811  0.56696  0.07499  Biso   1.000  H
  H334     1.0000 0.91712  0.48191  0.08498  Biso   1.000  H
  H335     1.0000 0.98809  0.56694  0.07504  Biso   1.000  H
  H336     1.0000 0.91707  0.48196  0.08503  Biso   1.000  H
  H337     1.0000 0.91708  0.48198  0.08498  Biso   1.000  H
  C323     1.0000 0.66810  0.55631  0.02572  Biso   1.000  C
  C324     1.0000 0.66806  0.55639  0.02572  Biso   1.000  C
  C325     1.0000 0.83737  0.32115  0.92182  Biso   1.000  C
  C326     1.0000 0.83733  0.32123  0.92182  Biso   1.000  C
  H338     1.0000 0.88096  0.28599  0.82302  Biso   1.000  H
  H339     1.0000 0.95893  0.18602  0.88999  Biso   1.000  H
  H340     1.0000 0.95892  0.18600  0.89004  Biso   1.000  H
  C327     1.0000 0.68906  0.18401  0.68862  Biso   1.000  C
  C328     1.0000 0.58026  0.32193  0.82600  Biso   1.000  C
  H341     1.0000 0.18399  0.73197  0.83100  Biso   1.000  H
  H342     1.0000 0.11102  0.66992  0.81101  Biso   1.000  H
  C329     1.0000 0.23652  0.71296  0.72757  Biso   1.000  C
  H343     1.0000 0.18406  0.73197  0.83100  Biso   1.000  H
  C330     1.0000 0.23651  0.71294  0.72763  Biso   1.000  C
  H344     1.0000 0.11106  0.66999  0.81101  Biso   1.000  H
  C331     1.0000 0.23658  0.71294  0.72763  Biso   1.000  C
  C332     1.0000 0.62836  0.71561  0.82542  Biso   1.000  C
  C333     1.0000 0.62832  0.71569  0.82542  Biso   1.000  C
  H345     1.0000 0.73900  0.56592  0.86900  Biso   1.000  H
  C334     1.0000 0.82311  0.61850  0.76632  Biso   1.000  C
  H346     1.0000 0.73904  0.56599  0.86900  Biso   1.000  H
  C335     1.0000 0.82315  0.61857  0.76632  Biso   1.000  C
  H347     1.0000 0.73907  0.56592  0.86900  Biso   1.000  H
  C336     1.0000 0.82307  0.61857  0.76632  Biso   1.000  C
  C337     1.0000 0.89502  0.62849  0.18362  Biso   1.000  C
  C338     1.0000 0.89499  0.62856  0.18362  Biso   1.000  C
  H348     1.0000 0.76904  0.57596  0.18399  Biso   1.000  H
  H349     1.0000 0.90006  0.47691  0.20902  Biso   1.000  H
  H350     1.0000 0.76910  0.57594  0.18404  Biso   1.000  H
  H351     1.0000 0.76911  0.57596  0.18399  Biso   1.000  H
  H352     1.0000 0.90010  0.47698  0.20902  Biso   1.000  H
  C339     1.0000 0.57015  0.63762  0.99038  Biso   1.000  C
  C340     1.0000 0.57013  0.63760  0.99043  Biso   1.000  C
  C341     1.0000 0.57010  0.63768  0.99043  Biso   1.000  C
  H353     1.0000 0.65311  0.48292  0.04602  Biso   1.000  H
  H354     1.0000 0.67307  0.57896  0.06898  Biso   1.000  H
  H355     1.0000 0.67306  0.57894  0.06904  Biso   1.000  H
  H356     1.0000 0.65307  0.48299  0.04602  Biso   1.000  H
  C342     1.0000 0.81443  0.27760  0.00308  Biso   1.000  C
  C343     1.0000 0.81442  0.27758  0.00314  Biso   1.000  C
  H357     1.0000 0.75898  0.38197  0.90497  Biso   1.000  H
  H358     1.0000 0.90294  0.35495  0.90901  Biso   1.000  H
  H359     1.0000 0.75894  0.38202  0.90503  Biso   1.000  H
  H360     1.0000 0.90291  0.35502  0.90901  Biso   1.000  H
  H361     1.0000 0.75895  0.38205  0.90497  Biso   1.000  H
  H362     1.0000 0.90298  0.35502  0.90901  Biso   1.000  H
  C344     1.0000 0.58463  0.15591  0.70360  Biso   1.000  C
  C345     1.0000 0.58471  0.15591  0.70360  Biso   1.000  C
  H363     1.0000 0.65696  0.26803  0.68001  Biso   1.000  H
  C346     1.0000 0.76751  0.16543  0.62091  Biso   1.000  C
  C347     1.0000 0.76759  0.16543  0.62091  Biso   1.000  C
  C348     1.0000 0.49771  0.27320  0.82770  Biso   1.000  C
  C349     1.0000 0.49779  0.27320  0.82770  Biso   1.000  C
  H364     1.0000 0.53896  0.40603  0.80899  Biso   1.000  H
  H365     1.0000 0.59892  0.29803  0.87899  Biso   1.000  H
  H366     1.0000 0.59891  0.29800  0.87904  Biso   1.000  H
  H367     1.0000 0.59898  0.29800  0.87904  Biso   1.000  H
  H368     1.0000 0.26204  0.78091  0.70201  Biso   1.000  H
  H369     1.0000 0.20206  0.70094  0.69101  Biso   1.000  H
  C350     1.0000 0.34234  0.61676  0.74958  Biso   1.000  C
  H370     1.0000 0.26200  0.78098  0.70201  Biso   1.000  H
  C351     1.0000 0.34233  0.61674  0.74963  Biso   1.000  C
  H371     1.0000 0.26208  0.78098  0.70201  Biso   1.000  H
  C352     1.0000 0.53562  0.69141  0.87181  Biso   1.000  C
  C353     1.0000 0.53559  0.69148  0.87181  Biso   1.000  C
  C354     1.0000 0.60943  0.80096  0.76462  Biso   1.000  C
  H372     1.0000 0.90902  0.56997  0.77700  Biso   1.000  H
  H373     1.0000 0.82400  0.69297  0.72901  Biso   1.000  H
  C355     1.0000 0.78181  0.56585  0.73220  Biso   1.000  C
  H374     1.0000 0.82407  0.69297  0.72901  Biso   1.000  H
  C356     1.0000 0.78188  0.56585  0.73220  Biso   1.000  C
  C357     1.0000 0.79836  0.67471  0.24458  Biso   1.000  C
  C358     1.0000 0.79839  0.67476  0.24463  Biso   1.000  C
  C359     1.0000 0.79840  0.67478  0.24458  Biso   1.000  C
  H375     1.0000 0.89808  0.69090  0.13499  Biso   1.000  H
  H376     1.0000 0.97807  0.59096  0.20100  Biso   1.000  H
  H377     1.0000 0.89811  0.69095  0.13504  Biso   1.000  H
  H378     1.0000 0.89812  0.69098  0.13499  Biso   1.000  H
  O68      1.0000 0.55391  0.61064  0.93298  Biso   1.000  O
  O69      1.0000 0.55390  0.61062  0.93304  Biso   1.000  O
  O70      1.0000 0.55398  0.61062  0.93304  Biso   1.000  O
  H379     1.0000 0.58602  0.71091  0.96801  Biso   1.000  H
  H380     1.0000 0.58599  0.71099  0.96801  Biso   1.000  H
  H381     1.0000 0.49308  0.64689  0.02902  Biso   1.000  H
  H382     1.0000 0.49305  0.64697  0.02902  Biso   1.000  H
  H383     1.0000 0.49312  0.64697  0.02902  Biso   1.000  H
  C360     1.0000 0.69369  0.27951  0.02939  Biso   1.000  C
  C361     1.0000 0.69368  0.27949  0.02944  Biso   1.000  C
  C362     1.0000 0.69376  0.27949  0.02944  Biso   1.000  C
  H384     1.0000 0.87301  0.19800  0.01903  Biso   1.000  H
  H385     1.0000 0.82999  0.32500  0.02700  Biso   1.000  H
  H386     1.0000 0.83007  0.32500  0.02700  Biso   1.000  H
  C363     1.0000 0.48428  0.21648  0.73762  Biso   1.000  C
  C364     1.0000 0.48425  0.21656  0.73762  Biso   1.000  C
  C365     1.0000 0.58505  0.07290  0.68538  Biso   1.000  C
  C366     1.0000 0.58504  0.07288  0.68543  Biso   1.000  C
  C367     1.0000 0.58500  0.07295  0.68543  Biso   1.000  C
  H387     1.0000 0.79392  0.08301  0.62500  Biso   1.000  H
  H388     1.0000 0.84193  0.18399  0.61698  Biso   1.000  H
  C368     1.0000 0.71835  0.22831  0.55118  Biso   1.000  C
  H389     1.0000 0.79400  0.08301  0.62500  Biso   1.000  H
  H390     1.0000 0.84196  0.18404  0.61703  Biso   1.000  H
  C369     1.0000 0.71834  0.22829  0.55123  Biso   1.000  C
  H391     1.0000 0.84201  0.18399  0.61698  Biso   1.000  H
  C370     1.0000 0.71842  0.22829  0.55123  Biso   1.000  C
  O71      1.0000 0.48089  0.29967  0.75489  Biso   1.000  O
  O72      1.0000 0.48085  0.29974  0.75489  Biso   1.000  O
  H392     1.0000 0.53291  0.18901  0.84901  Biso   1.000  H
  H393     1.0000 0.41693  0.30399  0.86001  Biso   1.000  H
  H394     1.0000 0.53299  0.18901  0.84901  Biso   1.000  H
  H395     1.0000 0.41701  0.30399  0.86001  Biso   1.000  H
  H396     1.0000 0.37001  0.62591  0.79098  Biso   1.000  H
  H397     1.0000 0.31703  0.54898  0.77099  Biso   1.000  H
  C371     1.0000 0.43769  0.59845  0.69441  Biso   1.000  C
  H398     1.0000 0.37004  0.62597  0.79103  Biso   1.000  H
  C372     1.0000 0.43777  0.59845  0.69441  Biso   1.000  C
  H399     1.0000 0.37005  0.62599  0.79098  Biso   1.000  H
  C373     1.0000 0.42404  0.75255  0.85741  Biso   1.000  C
  C374     1.0000 0.49771  0.86200  0.75011  Biso   1.000  C
  C375     1.0000 0.49776  0.86207  0.75011  Biso   1.000  C
  H400     1.0000 0.68100  0.81995  0.72901  Biso   1.000  H
  H401     1.0000 0.68108  0.81995  0.72901  Biso   1.000  H
  H402     1.0000 0.81697  0.48296  0.75898  Biso   1.000  H
  H403     1.0000 0.68900  0.59294  0.74602  Biso   1.000  H
  C376     1.0000 0.87776  0.53691  0.66162  Biso   1.000  C
  H404     1.0000 0.81704  0.48294  0.75904  Biso   1.000  H
  C377     1.0000 0.87772  0.53698  0.66162  Biso   1.000  C
  H405     1.0000 0.81705  0.48296  0.75898  Biso   1.000  H
  H406     1.0000 0.68908  0.59294  0.74602  Biso   1.000  H
  C378     1.0000 0.81023  0.56809  0.66072  Biso   1.000  C
  O73      1.0000 0.70965  0.75330  0.20589  Biso   1.000  O
  O74      1.0000 0.70960  0.75335  0.20594  Biso   1.000  O
  O75      1.0000 0.70961  0.75337  0.20589  Biso   1.000  O
  H407     1.0000 0.76910  0.61489  0.28401  Biso   1.000  H
  H408     1.0000 0.83107  0.70796  0.26998  Biso   1.000  H
  H409     1.0000 0.76907  0.61497  0.28401  Biso   1.000  H
  H410     1.0000 0.83106  0.70794  0.27003  Biso   1.000  H
  O76      1.0000 0.66989  0.27062  0.10348  Biso   1.000  O
  O77      1.0000 0.66988  0.27059  0.10353  Biso   1.000  O
  O78      1.0000 0.66996  0.27059  0.10353  Biso   1.000  O
  H411     1.0000 0.68502  0.21498  0.02099  Biso   1.000  H
  H412     1.0000 0.63504  0.35203  0.00101  Biso   1.000  H
  H413     1.0000 0.63507  0.35195  0.00101  Biso   1.000  H
  H414     1.0000 0.68499  0.21506  0.02099  Biso   1.000  H
  C379     1.0000 0.38416  0.19413  0.75340  Biso   1.000  C
  C380     1.0000 0.48492  0.05052  0.70121  Biso   1.000  C
  H415     1.0000 0.66290  0.02600  0.65902  Biso   1.000  H
  H416     1.0000 0.66298  0.02600  0.65902  Biso   1.000  H
  H417     1.0000 0.64396  0.20897  0.55501  Biso   1.000  H
  H418     1.0000 0.78097  0.20700  0.50797  Biso   1.000  H
  C381     1.0000 0.65494  0.34489  0.54608  Biso   1.000  C
  H419     1.0000 0.64393  0.20904  0.55501  Biso   1.000  H
  H420     1.0000 0.78095  0.20697  0.50803  Biso   1.000  H
  C382     1.0000 0.65501  0.34487  0.54613  Biso   1.000  C
  C383     1.0000 0.65502  0.34489  0.54608  Biso   1.000  C
  H421     1.0000 0.78092  0.20705  0.50803  Biso   1.000  H
  C384     1.0000 0.65497  0.34494  0.54613  Biso   1.000  C
  H422     1.0000 0.50603  0.52493  0.69202  Biso   1.000  H
  H423     1.0000 0.39301  0.62897  0.64998  Biso   1.000  H
  H424     1.0000 0.47400  0.65398  0.69298  Biso   1.000  H
  H425     1.0000 0.39300  0.62894  0.65003  Biso   1.000  H
  H426     1.0000 0.47398  0.65396  0.69303  Biso   1.000  H
  H427     1.0000 0.50599  0.52500  0.69202  Biso   1.000  H
  H428     1.0000 0.39308  0.62894  0.65003  Biso   1.000  H
  H429     1.0000 0.47406  0.65396  0.69303  Biso   1.000  H
  O79      1.0000 0.33014  0.72931  0.89652  Biso   1.000  O
  O80      1.0000 0.33011  0.72938  0.89652  Biso   1.000  O
  C385     1.0000 0.40510  0.83787  0.79650  Biso   1.000  C
  C386     1.0000 0.40518  0.83787  0.79650  Biso   1.000  C
  C387     1.0000 0.47916  0.96023  0.68458  Biso   1.000  C
  C388     1.0000 0.47915  0.96021  0.68463  Biso   1.000  C
  C389     1.0000 0.47911  0.96029  0.68463  Biso   1.000  C
  H430     1.0000 0.85305  0.62096  0.62298  Biso   1.000  H
  H431     1.0000 0.95002  0.50497  0.67198  Biso   1.000  H
  C390     1.0000 0.83852  0.45263  0.64211  Biso   1.000  C
  H432     1.0000 0.85304  0.62093  0.62304  Biso   1.000  H
  H433     1.0000 0.95000  0.50494  0.67204  Biso   1.000  H
  C391     1.0000 0.80192  0.51349  0.62304  Biso   1.000  C
  C392     1.0000 0.61587  0.80579  0.24660  Biso   1.000  C
  C393     1.0000 0.61591  0.80587  0.24660  Biso   1.000  C
  C394     1.0000 0.57602  0.24743  0.14264  Biso   1.000  C
  C395     1.0000 0.57599  0.24737  0.14259  Biso   1.000  C
  C396     1.0000 0.57607  0.24737  0.14259  Biso   1.000  C
  O81      1.0000 0.29039  0.24663  0.79411  Biso   1.000  O
  O82      1.0000 0.29047  0.24663  0.79411  Biso   1.000  O
  C397     1.0000 0.38451  0.11112  0.73517  Biso   1.000  C
  C398     1.0000 0.38457  0.11110  0.73523  Biso   1.000  C
  C399     1.0000 0.38459  0.11112  0.73517  Biso   1.000  C
  H434     1.0000 0.60794  0.36898  0.58201  Biso   1.000  H
  C400     1.0000 0.62797  0.44202  0.46801  Biso   1.000  C
  H435     1.0000 0.60798  0.36905  0.58201  Biso   1.000  H
  H436     1.0000 0.60802  0.36898  0.58201  Biso   1.000  H
  C401     1.0000 0.73597  0.35203  0.53003  Biso   1.000  C
  C402     1.0000 0.66297  0.37601  0.45403  Biso   1.000  C
  C403     1.0000 0.30634  0.72041  0.97061  Biso   1.000  C
  C404     1.0000 0.30631  0.72049  0.97061  Biso   1.000  C
  O83      1.0000 0.29761  0.88914  0.77610  Biso   1.000  O
  O84      1.0000 0.29769  0.88914  0.77610  Biso   1.000  O
  H437     1.0000 0.39307  0.98593  0.67299  Biso   1.000  H
  C405     1.0000 0.56173  0.93462  0.61857  Biso   1.000  C
  C406     1.0000 0.56176  0.93467  0.61862  Biso   1.000  C
  C407     1.0000 0.56181  0.93462  0.61857  Biso   1.000  C
  H438     1.0000 0.39304  0.98600  0.67299  Biso   1.000  H
  C408     1.0000 0.93620  0.46371  0.57961  Biso   1.000  C
  C409     1.0000 0.93624  0.46379  0.57961  Biso   1.000  C
  C410     1.0000 0.93876  0.37144  0.65561  Biso   1.000  C
  C411     1.0000 0.61553  0.88880  0.26483  Biso   1.000  C
  C412     1.0000 0.61549  0.88888  0.26483  Biso   1.000  C
  C413     1.0000 0.51575  0.78344  0.26238  Biso   1.000  C
  C414     1.0000 0.51582  0.78342  0.26244  Biso   1.000  C
  C415     1.0000 0.51583  0.78344  0.26238  Biso   1.000  C
  C416     1.0000 0.46441  0.30852  0.12819  Biso   1.000  C
  C417     1.0000 0.46440  0.30849  0.12824  Biso   1.000  C
  C418     1.0000 0.59490  0.16213  0.20350  Biso   1.000  C
  C419     1.0000 0.59493  0.16206  0.20350  Biso   1.000  C
  C420     1.0000 0.20167  0.32522  0.75542  Biso   1.000  C
  O85      1.0000 0.28196  0.09491  0.74761  Biso   1.000  O
  C421     1.0000 0.76398  0.43101  0.43798  Biso   1.000  C
  C422     1.0000 0.76397  0.43099  0.43803  Biso   1.000  C
  C423     1.0000 0.66403  0.48804  0.42799  Biso   1.000  C
  C424     1.0000 0.18561  0.72233  0.99692  Biso   1.000  C
  C425     1.0000 0.18568  0.72233  0.99692  Biso   1.000  C
  H439     1.0000 0.36496  0.64797  0.99899  Biso   1.000  H
  H440     1.0000 0.31501  0.78494  0.97901  Biso   1.000  H
  H441     1.0000 0.36503  0.64795  0.99904  Biso   1.000  H
  H442     1.0000 0.36504  0.64797  0.99899  Biso   1.000  H
  C426     1.0000 0.21606  0.95492  0.81952  Biso   1.000  C
  H443     1.0000 0.64808  0.89990  0.63000  Biso   1.000  H
  C427     1.0000 0.53884  0.85714  0.59471  Biso   1.000  C
  H444     1.0000 0.64805  0.89998  0.63000  Biso   1.000  H
  H445     1.0000 0.55194  0.00598  0.57600  Biso   1.000  H
  H446     1.0000 0.55190  0.00605  0.57600  Biso   1.000  H
  H447     1.0000 0.55198  0.00605  0.57600  Biso   1.000  H
  H448     1.0000 0.92504  0.50494  0.54597  Biso   1.000  H
  H449     1.0000 0.92499  0.50499  0.54603  Biso   1.000  H
  C428     1.0000 0.51511  0.94940  0.29879  Biso   1.000  C
  C429     1.0000 0.51507  0.94945  0.29884  Biso   1.000  C
  C430     1.0000 0.51508  0.94948  0.29879  Biso   1.000  C
  O86      1.0000 0.71808  0.90501  0.25239  Biso   1.000  O
  O87      1.0000 0.71814  0.90499  0.25244  Biso   1.000  O
  O88      1.0000 0.71816  0.90501  0.25239  Biso   1.000  O
  O89      1.0000 0.71811  0.90506  0.25244  Biso   1.000  O
  C431     1.0000 0.41541  0.84402  0.29640  Biso   1.000  C
  C432     1.0000 0.41539  0.84400  0.29645  Biso   1.000  C
  C433     1.0000 0.41536  0.84407  0.29645  Biso   1.000  C
  O90      1.0000 0.51915  0.70026  0.24511  Biso   1.000  O
  O91      1.0000 0.51923  0.70026  0.24511  Biso   1.000  O
  C434     1.0000 0.37174  0.28429  0.17464  Biso   1.000  C
  C435     1.0000 0.37168  0.28431  0.17458  Biso   1.000  C
  C436     1.0000 0.37176  0.28431  0.17458  Biso   1.000  C
  O92      1.0000 0.44612  0.38929  0.06702  Biso   1.000  O
  C437     1.0000 0.50232  0.13793  0.24989  Biso   1.000  C
  C438     1.0000 0.50231  0.13790  0.24995  Biso   1.000  C
  O93      1.0000 0.70242  0.11078  0.22390  Biso   1.000  O
  O94      1.0000 0.70239  0.11086  0.22390  Biso   1.000  O
  C439     1.0000 0.10501  0.37144  0.81638  Biso   1.000  C
  C440     1.0000 0.10508  0.37141  0.81643  Biso   1.000  C
  C441     1.0000 0.10509  0.37144  0.81638  Biso   1.000  C
  H450     1.0000 0.23093  0.38503  0.71599  Biso   1.000  H
  H451     1.0000 0.16897  0.29197  0.73002  Biso   1.000  H
  H452     1.0000 0.23092  0.38501  0.71604  Biso   1.000  H
  H453     1.0000 0.16893  0.29204  0.73002  Biso   1.000  H
  H454     1.0000 0.23100  0.38501  0.71604  Biso   1.000  H
  C442     1.0000 0.25069  0.03651  0.82042  Biso   1.000  C
  C443     1.0000 0.25076  0.03651  0.82042  Biso   1.000  C
  C444     1.0000 0.16267  0.67877  0.07818  Biso   1.000  C
  C445     1.0000 0.16265  0.67875  0.07823  Biso   1.000  C
  C446     1.0000 0.16273  0.67875  0.07823  Biso   1.000  C
  H455     1.0000 0.12703  0.80192  0.98097  Biso   1.000  H
  H456     1.0000 0.17004  0.67492  0.97300  Biso   1.000  H
  H457     1.0000 0.12702  0.80190  0.98103  Biso   1.000  H
  H458     1.0000 0.12706  0.80198  0.98103  Biso   1.000  H
  H459     1.0000 0.17001  0.67500  0.97300  Biso   1.000  H
  H460     1.0000 0.20504  0.90595  0.87298  Biso   1.000  H
  H461     1.0000 0.13504  0.99189  0.79900  Biso   1.000  H
  H462     1.0000 0.20503  0.90593  0.87303  Biso   1.000  H
  H463     1.0000 0.13501  0.99197  0.79900  Biso   1.000  H
  H464     1.0000 0.13509  0.99197  0.79900  Biso   1.000  H
  H465     1.0000 0.54601  0.78595  0.63797  Biso   1.000  H
  H466     1.0000 0.45308  0.89292  0.58201  Biso   1.000  H
  C447     1.0000 0.62214  0.82871  0.53131  Biso   1.000  C
  H467     1.0000 0.54608  0.78593  0.63802  Biso   1.000  H
  C448     1.0000 0.62210  0.82878  0.53131  Biso   1.000  C
  H468     1.0000 0.54609  0.78595  0.63797  Biso   1.000  H
  H469     1.0000 0.45305  0.89300  0.58201  Biso   1.000  H
  C449     1.0000 0.62218  0.82878  0.53131  Biso   1.000  C
  C450     1.0000 0.52088  0.03969  0.31542  Biso   1.000  C
  C451     1.0000 0.41498  0.92703  0.31462  Biso   1.000  C
  C452     1.0000 0.74935  0.96341  0.17958  Biso   1.000  C
  C453     1.0000 0.74930  0.96346  0.17963  Biso   1.000  C
  C454     1.0000 0.31097  0.81592  0.31138  Biso   1.000  C
  C455     1.0000 0.31104  0.81589  0.31144  Biso   1.000  C
  C456     1.0000 0.31100  0.81597  0.31144  Biso   1.000  C
  C457     1.0000 0.50233  0.72672  0.17230  Biso   1.000  C
  C458     1.0000 0.25080  0.36081  0.16491  Biso   1.000  C
  C459     1.0000 0.39061  0.19896  0.23538  Biso   1.000  C
  C460     1.0000 0.39056  0.19902  0.23544  Biso   1.000  C
  C461     1.0000 0.39057  0.19904  0.23538  Biso   1.000  C
  C462     1.0000 0.39063  0.19902  0.23544  Biso   1.000  C
  C463     1.0000 0.42989  0.36230  0.00962  Biso   1.000  C
  C464     1.0000 0.42997  0.36230  0.00962  Biso   1.000  C
  C465     1.0000 0.78404  0.04498  0.18054  Biso   1.000  C
  C466     1.0000 0.78397  0.04500  0.18048  Biso   1.000  C
  C467     1.0000 0.78405  0.04500  0.18048  Biso   1.000  C
  C468     1.0000 0.13823  0.44629  0.82632  Biso   1.000  C
  C469     1.0000 0.13830  0.44629  0.82632  Biso   1.000  C
  H470     1.0000 0.10196  0.30902  0.86501  Biso   1.000  H
  H471     1.0000 0.02196  0.40896  0.79900  Biso   1.000  H
  H472     1.0000 0.02193  0.40904  0.79900  Biso   1.000  H
  H473     1.0000 0.02200  0.40904  0.79900  Biso   1.000  H
  H474     1.0000 0.32397  0.00100  0.84800  Biso   1.000  H
  H475     1.0000 0.18094  0.08903  0.84699  Biso   1.000  H
  C470     1.0000 0.12416  0.75502  0.12101  Biso   1.000  C
  C471     1.0000 0.12424  0.75502  0.12101  Biso   1.000  C
  H476     1.0000 0.24105  0.61795  0.09503  Biso   1.000  H
  H477     1.0000 0.09709  0.64498  0.09099  Biso   1.000  H
  H478     1.0000 0.09708  0.64495  0.09104  Biso   1.000  H
  H479     1.0000 0.24113  0.61795  0.09503  Biso   1.000  H
  H480     1.0000 0.70706  0.78797  0.54597  Biso   1.000  H
  H481     1.0000 0.62006  0.89995  0.48900  Biso   1.000  H
  C472     1.0000 0.59391  0.75937  0.50399  Biso   1.000  C
  H482     1.0000 0.70705  0.78794  0.54603  Biso   1.000  H
  C473     1.0000 0.59398  0.75937  0.50399  Biso   1.000  C
  H483     1.0000 0.60696  0.01400  0.32701  Biso   1.000  H
  C474     1.0000 0.43830  0.06530  0.38143  Biso   1.000  C
  H484     1.0000 0.60704  0.01400  0.32701  Biso   1.000  H
  H485     1.0000 0.33713  0.97392  0.34098  Biso   1.000  H
  H486     1.0000 0.33712  0.97390  0.34104  Biso   1.000  H
  H487     1.0000 0.67607  0.99892  0.15200  Biso   1.000  H
  H488     1.0000 0.81910  0.91089  0.15301  Biso   1.000  H
  H489     1.0000 0.67615  0.99892  0.15200  Biso   1.000  H
  H490     1.0000 0.81906  0.91097  0.15301  Biso   1.000  H
  H491     1.0000 0.81914  0.91097  0.15301  Biso   1.000  H
  C475     1.0000 0.24437  0.87072  0.24729  Biso   1.000  C
  C476     1.0000 0.24443  0.87070  0.24734  Biso   1.000  C
  C477     1.0000 0.24444  0.87072  0.24729  Biso   1.000  C
  C478     1.0000 0.24440  0.87077  0.24734  Biso   1.000  C
  H492     1.0000 0.34308  0.73190  0.31999  Biso   1.000  H
  C479     1.0000 0.23252  0.83450  0.37909  Biso   1.000  C
  H493     1.0000 0.34311  0.73195  0.32005  Biso   1.000  H
  C480     1.0000 0.23247  0.83455  0.37914  Biso   1.000  C
  H494     1.0000 0.34304  0.73197  0.31999  Biso   1.000  H
  C481     1.0000 0.23249  0.83457  0.37909  Biso   1.000  C
  C482     1.0000 0.41978  0.67800  0.17400  Biso   1.000  C
  C483     1.0000 0.41982  0.67807  0.17400  Biso   1.000  C
  C484     1.0000 0.41974  0.67807  0.17400  Biso   1.000  C
  H495     1.0000 0.46713  0.81091  0.15099  Biso   1.000  H
  H496     1.0000 0.58310  0.69593  0.13999  Biso   1.000  H
  H497     1.0000 0.46708  0.81097  0.15104  Biso   1.000  H
  H498     1.0000 0.58309  0.69591  0.14004  Biso   1.000  H
  C485     1.0000 0.17691  0.38141  0.23374  Biso   1.000  C
  H499     1.0000 0.26104  0.43401  0.13100  Biso   1.000  H
  C486     1.0000 0.19058  0.32882  0.12601  Biso   1.000  C
  C487     1.0000 0.17693  0.38143  0.23368  Biso   1.000  C
  C488     1.0000 0.19065  0.32882  0.12601  Biso   1.000  C
  H500     1.0000 0.31903  0.17998  0.27099  Biso   1.000  H
  H501     1.0000 0.31902  0.17996  0.27104  Biso   1.000  H
  H502     1.0000 0.31898  0.18003  0.27104  Biso   1.000  H
  C489     1.0000 0.33194  0.44361  0.97428  Biso   1.000  C
  C490     1.0000 0.33192  0.44359  0.97433  Biso   1.000  C
  C491     1.0000 0.33200  0.44359  0.97433  Biso   1.000  C
  H503     1.0000 0.41401  0.28901  0.03199  Biso   1.000  H
  H504     1.0000 0.50695  0.35303  0.97098  Biso   1.000  H
  H505     1.0000 0.50694  0.35301  0.97104  Biso   1.000  H
  H506     1.0000 0.79500  0.09397  0.12702  Biso   1.000  H
  H507     1.0000 0.86499  0.00803  0.20100  Biso   1.000  H
  H508     1.0000 0.79496  0.09405  0.12702  Biso   1.000  H
  C492     1.0000 0.09237  0.44598  0.90678  Biso   1.000  C
  C493     1.0000 0.09232  0.44603  0.90684  Biso   1.000  C
  H509     1.0000 0.23100  0.42396  0.81601  Biso   1.000  H
  H510     1.0000 0.09998  0.52302  0.79098  Biso   1.000  H
  H511     1.0000 0.23096  0.42404  0.81601  Biso   1.000  H
  H512     1.0000 0.09996  0.52299  0.79103  Biso   1.000  H
  O95      1.0000 0.20948  0.80410  0.09991  Biso   1.000  O
  O96      1.0000 0.20952  0.80418  0.09991  Biso   1.000  O
  H513     1.0000 0.11908  0.71393  0.17698  Biso   1.000  H
  H514     1.0000 0.04111  0.81390  0.11001  Biso   1.000  H
  H515     1.0000 0.11907  0.71391  0.17703  Biso   1.000  H
  H516     1.0000 0.04107  0.81398  0.11001  Biso   1.000  H
  H517     1.0000 0.11914  0.71391  0.17703  Biso   1.000  H
  H518     1.0000 0.59305  0.68896  0.54698  Biso   1.000  H
  H519     1.0000 0.51001  0.80097  0.48799  Biso   1.000  H
  C494     1.0000 0.67998  0.72815  0.44149  Biso   1.000  C
  H520     1.0000 0.59303  0.68894  0.54704  Biso   1.000  H
  H521     1.0000 0.51008  0.80097  0.48799  Biso   1.000  H
  H522     1.0000 0.35195  0.10002  0.37000  Biso   1.000  H
  C495     1.0000 0.46120  0.14278  0.40529  Biso   1.000  C
  H523     1.0000 0.44810  0.99395  0.42400  Biso   1.000  H
  C496     1.0000 0.46119  0.14276  0.40534  Biso   1.000  C
  H524     1.0000 0.35203  0.10002  0.37000  Biso   1.000  H
  C497     1.0000 0.46115  0.14283  0.40534  Biso   1.000  C
  C498     1.0000 0.17546  0.97675  0.23299  Biso   1.000  C
  C499     1.0000 0.17552  0.97672  0.23305  Biso   1.000  C
  C500     1.0000 0.17554  0.97675  0.23299  Biso   1.000  C
  C501     1.0000 0.25251  0.81247  0.20419  Biso   1.000  C
  C502     1.0000 0.25250  0.81244  0.20424  Biso   1.000  C
  H525     1.0000 0.20612  0.91692  0.37500  Biso   1.000  H
  H526     1.0000 0.15810  0.81594  0.38302  Biso   1.000  H
  C503     1.0000 0.28168  0.77161  0.44882  Biso   1.000  C
  O97      1.0000 0.31440  0.70603  0.21928  Biso   1.000  O
  O98      1.0000 0.31439  0.70601  0.21933  Biso   1.000  O
  O99      1.0000 0.31435  0.70608  0.21933  Biso   1.000  O
  H527     1.0000 0.46107  0.59389  0.19101  Biso   1.000  H
  H528     1.0000 0.40112  0.70190  0.12101  Biso   1.000  H
  H529     1.0000 0.46104  0.59397  0.19101  Biso   1.000  H
  H530     1.0000 0.40108  0.70197  0.12101  Biso   1.000  H
  H531     1.0000 0.46111  0.59397  0.19101  Biso   1.000  H
  C504     1.0000 0.21823  0.43407  0.26780  Biso   1.000  C
  H532     1.0000 0.09098  0.43003  0.22300  Biso   1.000  H
  H533     1.0000 0.17599  0.30701  0.27104  Biso   1.000  H
  H534     1.0000 0.09101  0.42996  0.22300  Biso   1.000  H
  H535     1.0000 0.17604  0.30696  0.27099  Biso   1.000  H
  H536     1.0000 0.17600  0.30703  0.27099  Biso   1.000  H
  H537     1.0000 0.09106  0.43003  0.22300  Biso   1.000  H
  C505     1.0000 0.21819  0.43415  0.26780  Biso   1.000  C
  C506     1.0000 0.14285  0.25108  0.16162  Biso   1.000  C
  C507     1.0000 0.19945  0.36879  0.05219  Biso   1.000  C
  C508     1.0000 0.14277  0.25108  0.16162  Biso   1.000  C
  C509     1.0000 0.19944  0.36876  0.05224  Biso   1.000  C
  C510     1.0000 0.19940  0.36884  0.05224  Biso   1.000  C
  O100     1.0000 0.22643  0.45813  0.01988  Biso   1.000  O
  O101     1.0000 0.22642  0.45811  0.01993  Biso   1.000  O
  H538     1.0000 0.34693  0.51701  0.95398  Biso   1.000  H
  H539     1.0000 0.32696  0.42096  0.93102  Biso   1.000  H
  H540     1.0000 0.34699  0.51698  0.95403  Biso   1.000  H
  H541     1.0000 0.32693  0.42104  0.93102  Biso   1.000  H
  H542     1.0000 0.34700  0.51701  0.95398  Biso   1.000  H
  O102     1.0000 0.18202  0.35923  0.94149  Biso   1.000  O
  O103     1.0000 0.18208  0.35920  0.94154  Biso   1.000  O
  H543     1.0000 0.01193  0.43296  0.92501  Biso   1.000  H
  H544     1.0000 0.08292  0.51802  0.91502  Biso   1.000  H
  H545     1.0000 0.01197  0.43304  0.92501  Biso   1.000  H
  H546     1.0000 0.08300  0.51802  0.91502  Biso   1.000  H
  C511     1.0000 0.19169  0.86014  0.14668  Biso   1.000  C
  C512     1.0000 0.19167  0.86011  0.14674  Biso   1.000  C
  C513     1.0000 0.19175  0.86011  0.14674  Biso   1.000  C
  H547     1.0000 0.64707  0.68490  0.42501  Biso   1.000  H
  H548     1.0000 0.69805  0.78894  0.39600  Biso   1.000  H
  H549     1.0000 0.75704  0.67593  0.46397  Biso   1.000  H
  H550     1.0000 0.64703  0.68498  0.42501  Biso   1.000  H
  H551     1.0000 0.75699  0.67598  0.46402  Biso   1.000  H
  H552     1.0000 0.75700  0.67600  0.46397  Biso   1.000  H
  H553     1.0000 0.75707  0.67598  0.46402  Biso   1.000  H
  H554     1.0000 0.45402  0.21398  0.36203  Biso   1.000  H
  C514     1.0000 0.37790  0.17122  0.46869  Biso   1.000  C
  H555     1.0000 0.54702  0.10698  0.41805  Biso   1.000  H
  C515     1.0000 0.37788  0.17119  0.46875  Biso   1.000  C
  H556     1.0000 0.54695  0.10700  0.41799  Biso   1.000  H
  H557     1.0000 0.54703  0.10700  0.41799  Biso   1.000  H
  C516     1.0000 0.11457  0.02442  0.17565  Biso   1.000  C
  C517     1.0000 0.11461  0.02437  0.17559  Biso   1.000  C
  C518     1.0000 0.11458  0.02445  0.17559  Biso   1.000  C
  H558     1.0000 0.16897  0.02202  0.26605  Biso   1.000  H
  H559     1.0000 0.16902  0.02197  0.26600  Biso   1.000  H
  H560     1.0000 0.16898  0.02205  0.26600  Biso   1.000  H
  H561     1.0000 0.35607  0.79096  0.44499  Biso   1.000  H
  H562     1.0000 0.21907  0.79293  0.49203  Biso   1.000  H
  C519     1.0000 0.34509  0.65503  0.45392  Biso   1.000  C
  H563     1.0000 0.35606  0.79093  0.44504  Biso   1.000  H
  H564     1.0000 0.18306  0.51696  0.24102  Biso   1.000  H
  H565     1.0000 0.31103  0.40699  0.25398  Biso   1.000  H
  H566     1.0000 0.31102  0.40696  0.25404  Biso   1.000  H
  C520     1.0000 0.12234  0.46300  0.33843  Biso   1.000  C
  C521     1.0000 0.12228  0.46302  0.33838  Biso   1.000  C
  C522     1.0000 0.12235  0.46302  0.33838  Biso   1.000  C
  H567     1.0000 0.18303  0.51704  0.24102  Biso   1.000  H
  C523     1.0000 0.18985  0.43191  0.33928  Biso   1.000  C
  C524     1.0000 0.10389  0.21338  0.12341  Biso   1.000  C
  H568     1.0000 0.13602  0.21998  0.21901  Biso   1.000  H
  C525     1.0000 0.10393  0.21346  0.12341  Biso   1.000  C
  C526     1.0000 0.16057  0.33109  0.01398  Biso   1.000  C
  C527     1.0000 0.16056  0.33107  0.01403  Biso   1.000  C
  C528     1.0000 0.16052  0.33114  0.01403  Biso   1.000  C
  C529     1.0000 0.12285  0.96601  0.13239  Biso   1.000  C
  C530     1.0000 0.12284  0.96599  0.13244  Biso   1.000  C
  C531     1.0000 0.12280  0.96607  0.13244  Biso   1.000  C
  H569     1.0000 0.29297  0.21196  0.45403  Biso   1.000  H
  H570     1.0000 0.37998  0.09997  0.51100  Biso   1.000  H
  C532     1.0000 0.40609  0.24063  0.49601  Biso   1.000  C
  C533     1.0000 0.40613  0.24055  0.49601  Biso   1.000  C
  H571     1.0000 0.29305  0.21196  0.45403  Biso   1.000  H
  H572     1.0000 0.37996  0.09995  0.51105  Biso   1.000  H
  H573     1.0000 0.29301  0.21203  0.45403  Biso   1.000  H
  H574     1.0000 0.38000  0.10003  0.51105  Biso   1.000  H
  C534     1.0000 0.03469  0.14002  0.16093  Biso   1.000  C
  C535     1.0000 0.03472  0.13995  0.16093  Biso   1.000  C
  H575     1.0000 0.39209  0.63095  0.41799  Biso   1.000  H
  C536     1.0000 0.37207  0.55790  0.53199  Biso   1.000  C
  H576     1.0000 0.39208  0.63093  0.41805  Biso   1.000  H
  C537     1.0000 0.37202  0.55795  0.53204  Biso   1.000  C
  C538     1.0000 0.37203  0.55798  0.53199  Biso   1.000  C
  C539     1.0000 0.26402  0.64795  0.47002  Biso   1.000  C
  C540     1.0000 0.33705  0.62389  0.54602  Biso   1.000  C
  H577     1.0000 0.14699  0.37897  0.37702  Biso   1.000  H
  H578     1.0000 0.05002  0.49496  0.32802  Biso   1.000  H
  C541     1.0000 0.16151  0.54729  0.35789  Biso   1.000  C
  C542     1.0000 0.16150  0.54727  0.35794  Biso   1.000  C
  H579     1.0000 0.14703  0.37904  0.37702  Biso   1.000  H
  H580     1.0000 0.04998  0.49503  0.32802  Biso   1.000  H
  C543     1.0000 0.16158  0.54727  0.35794  Biso   1.000  C
  C544     1.0000 0.19814  0.48649  0.37702  Biso   1.000  C
  C545     1.0000 0.11268  0.25333  0.04964  Biso   1.000  C
  C546     1.0000 0.11273  0.25327  0.04959  Biso   1.000  C
  C547     1.0000 0.11269  0.25335  0.04959  Biso   1.000  C
  O104     1.0000 0.05983  0.00999  0.07669  Biso   1.000  O
  O105     1.0000 0.05981  0.00997  0.07674  Biso   1.000  O
  O106     1.0000 0.05978  0.01004  0.07674  Biso   1.000  O
  H581     1.0000 0.40699  0.31096  0.45302  Biso   1.000  H
  H582     1.0000 0.48999  0.19903  0.51201  Biso   1.000  H
  C548     1.0000 0.32014  0.27177  0.55851  Biso   1.000  C
  H583     1.0000 0.49003  0.19895  0.51201  Biso   1.000  H
  C549     1.0000 0.32006  0.27177  0.55851  Biso   1.000  C
  H584     1.0000 0.40703  0.31104  0.45302  Biso   1.000  H
  C550     1.0000 0.32010  0.27185  0.55851  Biso   1.000  C
  H585     1.0000 0.97998  0.15498  0.12399  Biso   1.000  H
  C551     1.0000 0.95250  0.16397  0.22768  Biso   1.000  C
  H586     1.0000 0.98004  0.15496  0.12404  Biso   1.000  H
  C552     1.0000 0.95253  0.16402  0.22773  Biso   1.000  C
  H587     1.0000 0.98006  0.15498  0.12399  Biso   1.000  H
  C553     1.0000 0.95254  0.16404  0.22768  Biso   1.000  C
  H588     1.0000 0.98001  0.15503  0.12404  Biso   1.000  H
  C554     1.0000 0.23606  0.56892  0.56202  Biso   1.000  C
  C555     1.0000 0.33608  0.51189  0.57201  Biso   1.000  C
  C556     1.0000 0.06384  0.53621  0.42039  Biso   1.000  C
  C557     1.0000 0.06383  0.53619  0.42044  Biso   1.000  C
  C558     1.0000 0.06136  0.62849  0.34439  Biso   1.000  C
  O107     1.0000 0.08529  0.20992  0.01089  Biso   1.000  O
  O108     1.0000 0.08537  0.20992  0.01089  Biso   1.000  O
  C559     1.0000 0.12138  0.03829  0.00702  Biso   1.000  C
  C560     1.0000 0.12146  0.03829  0.00702  Biso   1.000  C
  H589     1.0000 0.30199  0.21098  0.60400  Biso   1.000  H
  H590     1.0000 0.24300  0.32400  0.53603  Biso   1.000  H
  H591     1.0000 0.35297  0.31502  0.57499  Biso   1.000  H
  H592     1.0000 0.35296  0.31500  0.57504  Biso   1.000  H
  H593     1.0000 0.35303  0.31500  0.57504  Biso   1.000  H
  H594     1.0000 0.99997  0.16701  0.26201  Biso   1.000  H
  H595     1.0000 0.91799  0.10197  0.25499  Biso   1.000  H
  C561     1.0000 0.85478  0.26739  0.20940  Biso   1.000  C
  H596     1.0000 0.91795  0.10202  0.25505  Biso   1.000  H
  C562     1.0000 0.85485  0.26739  0.20940  Biso   1.000  C
  H597     1.0000 0.91796  0.10204  0.25499  Biso   1.000  H
  H598     1.0000 0.91802  0.10202  0.25505  Biso   1.000  H
  H599     1.0000 0.00005  0.16701  0.26201  Biso   1.000  H
  H600     1.0000 0.07500  0.49499  0.45403  Biso   1.000  H
  C563     1.0000 0.17584  0.11752  0.99660  Biso   1.000  C
  H601     1.0000 0.18911  0.96711  0.00298  Biso   1.000  H
  H602     1.0000 0.18906  0.96717  0.00303  Biso   1.000  H
  H603     1.0000 0.18914  0.96717  0.00303  Biso   1.000  H
  H604     1.0000 0.06190  0.07098  0.96902  Biso   1.000  H
  H605     1.0000 0.06198  0.07098  0.96902  Biso   1.000  H
  H606     1.0000 0.06194  0.07106  0.96902  Biso   1.000  H
  H607     1.0000 0.81605  0.26795  0.16900  Biso   1.000  H
  H608     1.0000 0.88902  0.33001  0.18899  Biso   1.000  H
  C564     1.0000 0.76352  0.28697  0.27243  Biso   1.000  C
  H609     1.0000 0.81601  0.26803  0.16900  Biso   1.000  H
  H610     1.0000 0.88900  0.32999  0.18904  Biso   1.000  H
  C565     1.0000 0.76348  0.28704  0.27243  Biso   1.000  C
  H611     1.0000 0.23700  0.08602  0.03300  Biso   1.000  H
  H612     1.0000 0.21892  0.13703  0.94297  Biso   1.000  H
  H613     1.0000 0.21891  0.13701  0.94303  Biso   1.000  H
  H614     1.0000 0.21899  0.13701  0.94303  Biso   1.000  H
  H615     1.0000 0.73800  0.21902  0.29799  Biso   1.000  H
  H616     1.0000 0.79797  0.29899  0.30899  Biso   1.000  H
  C566     1.0000 0.65770  0.38317  0.25042  Biso   1.000  C
  H617     1.0000 0.73799  0.21900  0.29804  Biso   1.000  H
  H618     1.0000 0.79804  0.29896  0.30904  Biso   1.000  H
  H619     1.0000 0.79805  0.29899  0.30899  Biso   1.000  H
  H620     1.0000 0.79800  0.29904  0.30904  Biso   1.000  H
  C567     1.0000 0.65774  0.38324  0.25042  Biso   1.000  C
  H621     1.0000 0.63003  0.37401  0.20902  Biso   1.000  H
  H622     1.0000 0.68300  0.45095  0.22901  Biso   1.000  H
  C568     1.0000 0.56235  0.40147  0.30559  Biso   1.000  C
  H623     1.0000 0.68304  0.45102  0.22901  Biso   1.000  H
  C569     1.0000 0.56233  0.40145  0.30564  Biso   1.000  C
  C570     1.0000 0.56230  0.40153  0.30564  Biso   1.000  C
  H624     1.0000 0.49401  0.47500  0.30798  Biso   1.000  H
  H625     1.0000 0.60702  0.37096  0.35002  Biso   1.000  H
  H626     1.0000 0.52604  0.34595  0.30702  Biso   1.000  H
  H627     1.0000 0.49400  0.47498  0.30803  Biso   1.000  H
  H628     1.0000 0.52600  0.34602  0.30702  Biso   1.000  H
  H629     1.0000 0.49407  0.47498  0.30803  Biso   1.000  H
  H630     1.0000 0.60699  0.37103  0.35002  Biso   1.000  H
  C571     1.0000 0.82419  0.88241  0.00340  Biso   1.000  C
  C572     1.0000 0.87865  0.96163  0.99298  Biso   1.000  C
  C573     1.0000 0.87864  0.96161  0.99304  Biso   1.000  C
  O109     1.0000 0.91475  0.79001  0.98911  Biso   1.000  O
  H631     1.0000 0.76303  0.91390  0.96700  Biso   1.000  H
  O110     1.0000 0.91471  0.79008  0.98911  Biso   1.000  O
  H632     1.0000 0.76300  0.91398  0.96700  Biso   1.000  H
  H633     1.0000 0.76307  0.91398  0.96700  Biso   1.000  H
  H634     1.0000 0.78111  0.86290  0.05703  Biso   1.000  H
  H635     1.0000 0.78108  0.86297  0.05703  Biso   1.000  H
  O111     1.0000 0.94021  0.98993  0.92331  Biso   1.000  O
  O112     1.0000 0.94029  0.98993  0.92331  Biso   1.000  O
  H636     1.0000 0.93813  0.92894  0.03098  Biso   1.000  H
  H637     1.0000 0.93812  0.92892  0.03104  Biso   1.000  H
  C574     1.0000 0.82423  0.88248  0.00340  Biso   1.000  C
  H638     1.0000 0.81093  0.03281  0.99702  Biso   1.000  H
  C575     1.0000 0.88731  0.74665  0.95041  Biso   1.000  C
  C576     1.0000 0.87718  0.03391  0.86761  Biso   1.000  C
  C577     1.0000 0.87726  0.03391  0.86761  Biso   1.000  C
  C578     1.0000 0.83947  0.66884  0.98602  Biso   1.000  C
  C579     1.0000 0.83954  0.66884  0.98602  Biso   1.000  C
  C580     1.0000 0.89614  0.78654  0.87659  Biso   1.000  C
  C581     1.0000 0.80835  0.13979  0.85332  Biso   1.000  C
  C582     1.0000 0.88542  0.97555  0.82441  Biso   1.000  C
  O113     1.0000 0.81802  0.64070  0.05851  Biso   1.000  O
  O114     1.0000 0.81798  0.64077  0.05851  Biso   1.000  O
  C583     1.0000 0.80058  0.63114  0.94781  Biso   1.000  C
  C584     1.0000 0.80066  0.63114  0.94781  Biso   1.000  C
  C585     1.0000 0.96531  0.85998  0.83907  Biso   1.000  C
  C586     1.0000 0.96530  0.85996  0.83913  Biso   1.000  C
  C587     1.0000 0.96538  0.85996  0.83913  Biso   1.000  C
  C588     1.0000 0.85726  0.74885  0.83838  Biso   1.000  C
  C589     1.0000 0.85725  0.74882  0.83844  Biso   1.000  C
  O115     1.0000 0.79055  0.19582  0.90009  Biso   1.000  O
  O116     1.0000 0.79054  0.19580  0.90014  Biso   1.000  O
  C590     1.0000 0.74753  0.18746  0.79581  Biso   1.000  C
  C591     1.0000 0.74757  0.18753  0.79581  Biso   1.000  C
  C592     1.0000 0.82457  0.02318  0.76701  Biso   1.000  C
  C593     1.0000 0.82454  0.02325  0.76701  Biso   1.000  C
  C594     1.0000 0.90767  0.55395  0.09322  Biso   1.000  C
  C595     1.0000 0.80946  0.67111  0.87399  Biso   1.000  C
  O117     1.0000 0.77360  0.54179  0.98012  Biso   1.000  O
  C596     1.0000 0.80942  0.67118  0.87399  Biso   1.000  C
  O118     1.0000 0.77357  0.54187  0.98012  Biso   1.000  O
  O119     1.0000 0.77365  0.54187  0.98012  Biso   1.000  O
  H639     1.0000 0.02006  0.84494  0.87601  Biso   1.000  H
  C597     1.0000 0.04754  0.83596  0.77232  Biso   1.000  C
  H640     1.0000 0.86402  0.77994  0.78099  Biso   1.000  H
  H641     1.0000 0.86400  0.77992  0.78104  Biso   1.000  H
  H642     1.0000 0.86408  0.77992  0.78104  Biso   1.000  H
  C598     1.0000 0.87588  0.24491  0.87899  Biso   1.000  C
  C599     1.0000 0.87586  0.24488  0.87904  Biso   1.000  C
  C600     1.0000 0.75567  0.12921  0.75271  Biso   1.000  C
  O120     1.0000 0.68563  0.29390  0.78072  Biso   1.000  O
  O121     1.0000 0.68571  0.29390  0.78072  Biso   1.000  O
  H643     1.0000 0.83102  0.97795  0.73400  Biso   1.000  H
  H644     1.0000 0.83109  0.97795  0.73400  Biso   1.000  H
  C601     1.0000 0.86181  0.55363  0.17368  Biso   1.000  C
  C602     1.0000 0.86180  0.55361  0.17373  Biso   1.000  C
  C603     1.0000 0.86176  0.55369  0.17373  Biso   1.000  C
  H645     1.0000 0.98811  0.56696  0.07499  Biso   1.000  H
  H646     1.0000 0.91712  0.48191  0.08498  Biso   1.000  H
  H647     1.0000 0.98809  0.56694  0.07504  Biso   1.000  H
  H648     1.0000 0.91707  0.48196  0.08503  Biso   1.000  H
  H649     1.0000 0.91708  0.48198  0.08498  Biso   1.000  H
  C604     1.0000 0.74923  0.63911  0.83509  Biso   1.000  C
  C605     1.0000 0.74918  0.63916  0.83514  Biso   1.000  C
  C606     1.0000 0.74920  0.63919  0.83509  Biso   1.000  C
  C607     1.0000 0.66810  0.55631  0.02572  Biso   1.000  C
  C608     1.0000 0.66806  0.55639  0.02572  Biso   1.000  C
  H650     1.0000 0.00003  0.83299  0.73799  Biso   1.000  H
  H651     1.0000 0.00006  0.83292  0.73799  Biso   1.000  H
  H652     1.0000 0.08204  0.89796  0.74501  Biso   1.000  H
  C609     1.0000 0.14526  0.73254  0.79060  Biso   1.000  C
  C610     1.0000 0.83737  0.32115  0.92182  Biso   1.000  C
  C611     1.0000 0.83733  0.32123  0.92182  Biso   1.000  C
  H653     1.0000 0.88096  0.28599  0.82302  Biso   1.000  H
  H654     1.0000 0.95893  0.18602  0.88999  Biso   1.000  H
  H655     1.0000 0.95892  0.18600  0.89004  Biso   1.000  H
  C612     1.0000 0.68906  0.18401  0.68862  Biso   1.000  C
  C613     1.0000 0.58026  0.32193  0.82600  Biso   1.000  C
  C614     1.0000 0.89502  0.62849  0.18362  Biso   1.000  C
  C615     1.0000 0.89499  0.62856  0.18362  Biso   1.000  C
  H656     1.0000 0.76904  0.57596  0.18399  Biso   1.000  H
  H657     1.0000 0.90006  0.47691  0.20902  Biso   1.000  H
  H658     1.0000 0.76910  0.57594  0.18404  Biso   1.000  H
  H659     1.0000 0.76911  0.57596  0.18399  Biso   1.000  H
  H660     1.0000 0.90010  0.47698  0.20902  Biso   1.000  H
  C616     1.0000 0.62836  0.71561  0.82542  Biso   1.000  C
  C617     1.0000 0.62832  0.71569  0.82542  Biso   1.000  C
  H661     1.0000 0.73900  0.56592  0.86900  Biso   1.000  H
  C618     1.0000 0.82311  0.61850  0.76632  Biso   1.000  C
  H662     1.0000 0.73904  0.56599  0.86900  Biso   1.000  H
  C619     1.0000 0.82315  0.61857  0.76632  Biso   1.000  C
  H663     1.0000 0.73907  0.56592  0.86900  Biso   1.000  H
  C620     1.0000 0.82307  0.61857  0.76632  Biso   1.000  C
  C621     1.0000 0.57015  0.63762  0.99038  Biso   1.000  C
  C622     1.0000 0.57013  0.63760  0.99043  Biso   1.000  C
  C623     1.0000 0.57010  0.63768  0.99043  Biso   1.000  C
  H664     1.0000 0.65311  0.48292  0.04602  Biso   1.000  H
  H665     1.0000 0.67307  0.57896  0.06898  Biso   1.000  H
  H666     1.0000 0.67306  0.57894  0.06904  Biso   1.000  H
  H667     1.0000 0.65307  0.48299  0.04602  Biso   1.000  H
  H668     1.0000 0.18399  0.73197  0.83100  Biso   1.000  H
  H669     1.0000 0.11102  0.66992  0.81101  Biso   1.000  H
  C624     1.0000 0.23652  0.71296  0.72757  Biso   1.000  C
  H670     1.0000 0.18406  0.73197  0.83100  Biso   1.000  H
  C625     1.0000 0.23651  0.71294  0.72763  Biso   1.000  C
  H671     1.0000 0.11106  0.66999  0.81101  Biso   1.000  H
  C626     1.0000 0.23658  0.71294  0.72763  Biso   1.000  C
  C627     1.0000 0.81443  0.27760  0.00308  Biso   1.000  C
  C628     1.0000 0.81442  0.27758  0.00314  Biso   1.000  C
  H672     1.0000 0.75898  0.38197  0.90497  Biso   1.000  H
  H673     1.0000 0.90294  0.35495  0.90901  Biso   1.000  H
  H674     1.0000 0.75894  0.38202  0.90503  Biso   1.000  H
  H675     1.0000 0.90291  0.35502  0.90901  Biso   1.000  H
  H676     1.0000 0.75895  0.38205  0.90497  Biso   1.000  H
  H677     1.0000 0.90298  0.35502  0.90901  Biso   1.000  H
  C629     1.0000 0.58463  0.15591  0.70360  Biso   1.000  C
  C630     1.0000 0.58471  0.15591  0.70360  Biso   1.000  C
  H678     1.0000 0.65696  0.26803  0.68001  Biso   1.000  H
  C631     1.0000 0.76751  0.16543  0.62091  Biso   1.000  C
  C632     1.0000 0.76759  0.16543  0.62091  Biso   1.000  C
  C633     1.0000 0.49771  0.27320  0.82770  Biso   1.000  C
  C634     1.0000 0.49779  0.27320  0.82770  Biso   1.000  C
  H679     1.0000 0.53896  0.40603  0.80899  Biso   1.000  H
  H680     1.0000 0.59892  0.29803  0.87899  Biso   1.000  H
  H681     1.0000 0.59891  0.29800  0.87904  Biso   1.000  H
  H682     1.0000 0.59898  0.29800  0.87904  Biso   1.000  H
  C635     1.0000 0.79836  0.67471  0.24458  Biso   1.000  C
  C636     1.0000 0.79839  0.67476  0.24463  Biso   1.000  C
  C637     1.0000 0.79840  0.67478  0.24458  Biso   1.000  C
  H683     1.0000 0.89808  0.69090  0.13499  Biso   1.000  H
  H684     1.0000 0.97807  0.59096  0.20100  Biso   1.000  H
  H685     1.0000 0.89811  0.69095  0.13504  Biso   1.000  H
  H686     1.0000 0.89812  0.69098  0.13499  Biso   1.000  H
  C638     1.0000 0.53562  0.69141  0.87181  Biso   1.000  C
  C639     1.0000 0.53559  0.69148  0.87181  Biso   1.000  C
  C640     1.0000 0.60943  0.80096  0.76462  Biso   1.000  C
  H687     1.0000 0.90902  0.56997  0.77700  Biso   1.000  H
  H688     1.0000 0.82400  0.69297  0.72901  Biso   1.000  H
  C641     1.0000 0.78181  0.56585  0.73220  Biso   1.000  C
  H689     1.0000 0.82407  0.69297  0.72901  Biso   1.000  H
  C642     1.0000 0.78188  0.56585  0.73220  Biso   1.000  C
  O122     1.0000 0.55391  0.61064  0.93298  Biso   1.000  O
  O123     1.0000 0.55390  0.61062  0.93304  Biso   1.000  O
  O124     1.0000 0.55398  0.61062  0.93304  Biso   1.000  O
  H690     1.0000 0.58602  0.71091  0.96801  Biso   1.000  H
  H691     1.0000 0.58599  0.71099  0.96801  Biso   1.000  H
  H692     1.0000 0.49308  0.64689  0.02902  Biso   1.000  H
  H693     1.0000 0.49305  0.64697  0.02902  Biso   1.000  H
  H694     1.0000 0.49312  0.64697  0.02902  Biso   1.000  H
  H695     1.0000 0.26204  0.78091  0.70201  Biso   1.000  H
  H696     1.0000 0.20206  0.70094  0.69101  Biso   1.000  H
  C643     1.0000 0.34234  0.61676  0.74958  Biso   1.000  C
  H697     1.0000 0.26200  0.78098  0.70201  Biso   1.000  H
  C644     1.0000 0.34233  0.61674  0.74963  Biso   1.000  C
  H698     1.0000 0.26208  0.78098  0.70201  Biso   1.000  H
  C645     1.0000 0.69369  0.27951  0.02939  Biso   1.000  C
  C646     1.0000 0.69368  0.27949  0.02944  Biso   1.000  C
  C647     1.0000 0.69376  0.27949  0.02944  Biso   1.000  C
  H699     1.0000 0.87301  0.19800  0.01903  Biso   1.000  H
  H700     1.0000 0.82999  0.32500  0.02700  Biso   1.000  H
  H701     1.0000 0.83007  0.32500  0.02700  Biso   1.000  H
  C648     1.0000 0.48428  0.21648  0.73762  Biso   1.000  C
  C649     1.0000 0.48425  0.21656  0.73762  Biso   1.000  C
  C650     1.0000 0.58505  0.07290  0.68538  Biso   1.000  C
  C651     1.0000 0.58504  0.07288  0.68543  Biso   1.000  C
  C652     1.0000 0.58500  0.07295  0.68543  Biso   1.000  C
  H702     1.0000 0.79392  0.08301  0.62500  Biso   1.000  H
  H703     1.0000 0.84193  0.18399  0.61698  Biso   1.000  H
  C653     1.0000 0.71835  0.22831  0.55118  Biso   1.000  C
  H704     1.0000 0.79400  0.08301  0.62500  Biso   1.000  H
  H705     1.0000 0.84196  0.18404  0.61703  Biso   1.000  H
  C654     1.0000 0.71834  0.22829  0.55123  Biso   1.000  C
  H706     1.0000 0.84201  0.18399  0.61698  Biso   1.000  H
  C655     1.0000 0.71842  0.22829  0.55123  Biso   1.000  C
  O125     1.0000 0.48089  0.29967  0.75489  Biso   1.000  O
  O126     1.0000 0.48085  0.29974  0.75489  Biso   1.000  O
  H707     1.0000 0.53291  0.18901  0.84901  Biso   1.000  H
  H708     1.0000 0.41693  0.30399  0.86001  Biso   1.000  H
  H709     1.0000 0.53299  0.18901  0.84901  Biso   1.000  H
  H710     1.0000 0.41701  0.30399  0.86001  Biso   1.000  H
  O127     1.0000 0.70965  0.75330  0.20589  Biso   1.000  O
  O128     1.0000 0.70960  0.75335  0.20594  Biso   1.000  O
  O129     1.0000 0.70961  0.75337  0.20589  Biso   1.000  O
  H711     1.0000 0.76910  0.61489  0.28401  Biso   1.000  H
  H712     1.0000 0.83107  0.70796  0.26998  Biso   1.000  H
  H713     1.0000 0.76907  0.61497  0.28401  Biso   1.000  H
  H714     1.0000 0.83106  0.70794  0.27003  Biso   1.000  H
  C656     1.0000 0.42404  0.75255  0.85741  Biso   1.000  C
  C657     1.0000 0.49771  0.86200  0.75011  Biso   1.000  C
  C658     1.0000 0.49776  0.86207  0.75011  Biso   1.000  C
  H715     1.0000 0.68100  0.81995  0.72901  Biso   1.000  H
  H716     1.0000 0.68108  0.81995  0.72901  Biso   1.000  H
  H717     1.0000 0.81697  0.48296  0.75898  Biso   1.000  H
  H718     1.0000 0.68900  0.59294  0.74602  Biso   1.000  H
  C659     1.0000 0.87776  0.53691  0.66162  Biso   1.000  C
  H719     1.0000 0.81704  0.48294  0.75904  Biso   1.000  H
  C660     1.0000 0.87772  0.53698  0.66162  Biso   1.000  C
  H720     1.0000 0.81705  0.48296  0.75898  Biso   1.000  H
  H721     1.0000 0.68908  0.59294  0.74602  Biso   1.000  H
  C661     1.0000 0.81023  0.56809  0.66072  Biso   1.000  C
  H722     1.0000 0.37001  0.62591  0.79098  Biso   1.000  H
  H723     1.0000 0.31703  0.54898  0.77099  Biso   1.000  H
  C662     1.0000 0.43769  0.59845  0.69441  Biso   1.000  C
  H724     1.0000 0.37004  0.62597  0.79103  Biso   1.000  H
  C663     1.0000 0.43777  0.59845  0.69441  Biso   1.000  C
  H725     1.0000 0.37005  0.62599  0.79098  Biso   1.000  H
  O130     1.0000 0.66989  0.27062  0.10348  Biso   1.000  O
  O131     1.0000 0.66988  0.27059  0.10353  Biso   1.000  O
  O132     1.0000 0.66996  0.27059  0.10353  Biso   1.000  O
  H726     1.0000 0.63507  0.35195  0.00101  Biso   1.000  H
  H727     1.0000 0.68502  0.21498  0.02099  Biso   1.000  H
  H728     1.0000 0.63504  0.35203  0.00101  Biso   1.000  H
  H729     1.0000 0.68499  0.21506  0.02099  Biso   1.000  H
  C664     1.0000 0.38416  0.19413  0.75340  Biso   1.000  C
  C665     1.0000 0.48492  0.05052  0.70121  Biso   1.000  C
  H730     1.0000 0.66290  0.02600  0.65902  Biso   1.000  H
  H731     1.0000 0.66298  0.02600  0.65902  Biso   1.000  H
  H732     1.0000 0.64396  0.20897  0.55501  Biso   1.000  H
  H733     1.0000 0.78097  0.20700  0.50797  Biso   1.000  H
  C666     1.0000 0.65494  0.34489  0.54608  Biso   1.000  C
  H734     1.0000 0.64393  0.20904  0.55501  Biso   1.000  H
  H735     1.0000 0.78095  0.20697  0.50803  Biso   1.000  H
  C667     1.0000 0.65501  0.34487  0.54613  Biso   1.000  C
  C668     1.0000 0.65502  0.34489  0.54608  Biso   1.000  C
  H736     1.0000 0.78092  0.20705  0.50803  Biso   1.000  H
  C669     1.0000 0.65497  0.34494  0.54613  Biso   1.000  C
  C670     1.0000 0.61587  0.80579  0.24660  Biso   1.000  C
  C671     1.0000 0.61591  0.80587  0.24660  Biso   1.000  C
  O133     1.0000 0.33014  0.72931  0.89652  Biso   1.000  O
  O134     1.0000 0.33011  0.72938  0.89652  Biso   1.000  O
  C672     1.0000 0.40510  0.83787  0.79650  Biso   1.000  C
  C673     1.0000 0.40518  0.83787  0.79650  Biso   1.000  C
  C674     1.0000 0.47916  0.96023  0.68458  Biso   1.000  C
  C675     1.0000 0.47915  0.96021  0.68463  Biso   1.000  C
  C676     1.0000 0.47911  0.96029  0.68463  Biso   1.000  C
  H737     1.0000 0.85305  0.62096  0.62298  Biso   1.000  H
  H738     1.0000 0.95002  0.50497  0.67198  Biso   1.000  H
  C677     1.0000 0.83852  0.45263  0.64211  Biso   1.000  C
  H739     1.0000 0.85304  0.62093  0.62304  Biso   1.000  H
  H740     1.0000 0.95000  0.50494  0.67204  Biso   1.000  H
  C678     1.0000 0.80192  0.51349  0.62304  Biso   1.000  C
  H741     1.0000 0.50603  0.52493  0.69202  Biso   1.000  H
  H742     1.0000 0.39301  0.62897  0.64998  Biso   1.000  H
  H743     1.0000 0.47400  0.65398  0.69298  Biso   1.000  H
  H744     1.0000 0.39300  0.62894  0.65003  Biso   1.000  H
  H745     1.0000 0.47398  0.65396  0.69303  Biso   1.000  H
  H746     1.0000 0.50599  0.52500  0.69202  Biso   1.000  H
  H747     1.0000 0.39308  0.62894  0.65003  Biso   1.000  H
  H748     1.0000 0.47406  0.65396  0.69303  Biso   1.000  H
  C679     1.0000 0.57599  0.24737  0.14259  Biso   1.000  C
  C680     1.0000 0.57602  0.24743  0.14264  Biso   1.000  C
  C681     1.0000 0.57607  0.24737  0.14259  Biso   1.000  C
  O135     1.0000 0.29039  0.24663  0.79411  Biso   1.000  O
  O136     1.0000 0.29047  0.24663  0.79411  Biso   1.000  O
  C682     1.0000 0.38451  0.11112  0.73517  Biso   1.000  C
  C683     1.0000 0.38457  0.11110  0.73523  Biso   1.000  C
  C684     1.0000 0.38459  0.11112  0.73517  Biso   1.000  C
  H749     1.0000 0.60794  0.36898  0.58201  Biso   1.000  H
  C685     1.0000 0.62797  0.44202  0.46801  Biso   1.000  C
  H750     1.0000 0.60798  0.36905  0.58201  Biso   1.000  H
  H751     1.0000 0.60802  0.36898  0.58201  Biso   1.000  H
  C686     1.0000 0.73597  0.35203  0.53003  Biso   1.000  C
  C687     1.0000 0.66297  0.37601  0.45403  Biso   1.000  C
  C688     1.0000 0.61553  0.88880  0.26483  Biso   1.000  C
  C689     1.0000 0.61549  0.88888  0.26483  Biso   1.000  C
  C690     1.0000 0.51575  0.78344  0.26238  Biso   1.000  C
  C691     1.0000 0.51582  0.78342  0.26244  Biso   1.000  C
  C692     1.0000 0.51583  0.78344  0.26238  Biso   1.000  C
  C693     1.0000 0.30634  0.72041  0.97061  Biso   1.000  C
  C694     1.0000 0.30631  0.72049  0.97061  Biso   1.000  C
  O137     1.0000 0.29761  0.88914  0.77610  Biso   1.000  O
  O138     1.0000 0.29769  0.88914  0.77610  Biso   1.000  O
  H752     1.0000 0.39307  0.98593  0.67299  Biso   1.000  H
  C695     1.0000 0.56173  0.93462  0.61857  Biso   1.000  C
  C696     1.0000 0.56176  0.93467  0.61862  Biso   1.000  C
  C697     1.0000 0.56181  0.93462  0.61857  Biso   1.000  C
  H753     1.0000 0.39304  0.98600  0.67299  Biso   1.000  H
  C698     1.0000 0.93620  0.46371  0.57961  Biso   1.000  C
  C699     1.0000 0.93624  0.46379  0.57961  Biso   1.000  C
  C700     1.0000 0.93876  0.37144  0.65561  Biso   1.000  C
  C701     1.0000 0.46441  0.30852  0.12819  Biso   1.000  C
  C702     1.0000 0.46440  0.30849  0.12824  Biso   1.000  C
  C703     1.0000 0.59493  0.16206  0.20350  Biso   1.000  C
  C704     1.0000 0.59490  0.16213  0.20350  Biso   1.000  C
  C705     1.0000 0.20167  0.32522  0.75542  Biso   1.000  C
  O139     1.0000 0.28196  0.09491  0.74761  Biso   1.000  O
  C706     1.0000 0.76398  0.43101  0.43798  Biso   1.000  C
  C707     1.0000 0.76397  0.43099  0.43803  Biso   1.000  C
  C708     1.0000 0.66403  0.48804  0.42799  Biso   1.000  C
  C709     1.0000 0.51511  0.94940  0.29879  Biso   1.000  C
  C710     1.0000 0.51507  0.94945  0.29884  Biso   1.000  C
  C711     1.0000 0.51508  0.94948  0.29879  Biso   1.000  C
  O140     1.0000 0.71808  0.90501  0.25239  Biso   1.000  O
  O141     1.0000 0.71814  0.90499  0.25244  Biso   1.000  O
  O142     1.0000 0.71816  0.90501  0.25239  Biso   1.000  O
  O143     1.0000 0.71811  0.90506  0.25244  Biso   1.000  O
  C712     1.0000 0.41541  0.84402  0.29640  Biso   1.000  C
  C713     1.0000 0.41539  0.84400  0.29645  Biso   1.000  C
  C714     1.0000 0.41536  0.84407  0.29645  Biso   1.000  C
  O144     1.0000 0.51915  0.70026  0.24511  Biso   1.000  O
  O145     1.0000 0.51923  0.70026  0.24511  Biso   1.000  O
  C715     1.0000 0.18561  0.72233  0.99692  Biso   1.000  C
  C716     1.0000 0.18568  0.72233  0.99692  Biso   1.000  C
  H754     1.0000 0.36496  0.64797  0.99899  Biso   1.000  H
  H755     1.0000 0.31501  0.78494  0.97901  Biso   1.000  H
  H756     1.0000 0.36503  0.64795  0.99904  Biso   1.000  H
  H757     1.0000 0.36504  0.64797  0.99899  Biso   1.000  H
  C717     1.0000 0.21606  0.95492  0.81952  Biso   1.000  C
  H758     1.0000 0.64808  0.89990  0.63000  Biso   1.000  H
  C718     1.0000 0.53884  0.85714  0.59471  Biso   1.000  C
  H759     1.0000 0.64805  0.89998  0.63000  Biso   1.000  H
  H760     1.0000 0.55194  0.00598  0.57600  Biso   1.000  H
  H761     1.0000 0.55190  0.00605  0.57600  Biso   1.000  H
  H762     1.0000 0.55198  0.00605  0.57600  Biso   1.000  H
  H763     1.0000 0.92504  0.50494  0.54597  Biso   1.000  H
  H764     1.0000 0.92499  0.50499  0.54603  Biso   1.000  H
  C719     1.0000 0.37168  0.28431  0.17458  Biso   1.000  C
  C720     1.0000 0.37174  0.28429  0.17464  Biso   1.000  C
  C721     1.0000 0.37176  0.28431  0.17458  Biso   1.000  C
  O146     1.0000 0.44612  0.38929  0.06702  Biso   1.000  O
  C722     1.0000 0.50232  0.13793  0.24989  Biso   1.000  C
  C723     1.0000 0.50231  0.13790  0.24995  Biso   1.000  C
  O147     1.0000 0.70242  0.11078  0.22390  Biso   1.000  O
  O148     1.0000 0.70239  0.11086  0.22390  Biso   1.000  O
  C724     1.0000 0.10501  0.37144  0.81638  Biso   1.000  C
  C725     1.0000 0.10508  0.37141  0.81643  Biso   1.000  C
  C726     1.0000 0.10509  0.37144  0.81638  Biso   1.000  C
  H765     1.0000 0.23093  0.38503  0.71599  Biso   1.000  H
  H766     1.0000 0.16897  0.29197  0.73002  Biso   1.000  H
  H767     1.0000 0.23092  0.38501  0.71604  Biso   1.000  H
  H768     1.0000 0.16893  0.29204  0.73002  Biso   1.000  H
  H769     1.0000 0.23100  0.38501  0.71604  Biso   1.000  H
  C727     1.0000 0.25069  0.03651  0.82042  Biso   1.000  C
  C728     1.0000 0.25076  0.03651  0.82042  Biso   1.000  C
  C729     1.0000 0.52088  0.03969  0.31542  Biso   1.000  C
  C730     1.0000 0.41498  0.92703  0.31462  Biso   1.000  C
  C731     1.0000 0.74935  0.96341  0.17958  Biso   1.000  C
  C732     1.0000 0.74930  0.96346  0.17963  Biso   1.000  C
  C733     1.0000 0.31097  0.81592  0.31138  Biso   1.000  C
  C734     1.0000 0.31104  0.81589  0.31144  Biso   1.000  C
  C735     1.0000 0.31100  0.81597  0.31144  Biso   1.000  C
  C736     1.0000 0.50233  0.72672  0.17230  Biso   1.000  C
  C737     1.0000 0.16267  0.67877  0.07818  Biso   1.000  C
  C738     1.0000 0.16265  0.67875  0.07823  Biso   1.000  C
  C739     1.0000 0.16273  0.67875  0.07823  Biso   1.000  C
  H770     1.0000 0.12703  0.80192  0.98097  Biso   1.000  H
  H771     1.0000 0.17004  0.67492  0.97300  Biso   1.000  H
  H772     1.0000 0.12702  0.80190  0.98103  Biso   1.000  H
  H773     1.0000 0.12706  0.80198  0.98103  Biso   1.000  H
  H774     1.0000 0.17001  0.67500  0.97300  Biso   1.000  H
  H775     1.0000 0.20504  0.90595  0.87298  Biso   1.000  H
  H776     1.0000 0.13504  0.99189  0.79900  Biso   1.000  H
  H777     1.0000 0.20503  0.90593  0.87303  Biso   1.000  H
  H778     1.0000 0.13501  0.99197  0.79900  Biso   1.000  H
  H779     1.0000 0.13509  0.99197  0.79900  Biso   1.000  H
  H780     1.0000 0.54601  0.78595  0.63797  Biso   1.000  H
  H781     1.0000 0.45308  0.89292  0.58201  Biso   1.000  H
  C740     1.0000 0.62214  0.82871  0.53131  Biso   1.000  C
  H782     1.0000 0.54608  0.78593  0.63802  Biso   1.000  H
  C741     1.0000 0.62210  0.82878  0.53131  Biso   1.000  C
  H783     1.0000 0.54609  0.78595  0.63797  Biso   1.000  H
  H784     1.0000 0.45305  0.89300  0.58201  Biso   1.000  H
  C742     1.0000 0.62218  0.82878  0.53131  Biso   1.000  C
  C743     1.0000 0.25080  0.36081  0.16491  Biso   1.000  C
  C744     1.0000 0.39061  0.19896  0.23538  Biso   1.000  C
  C745     1.0000 0.39056  0.19902  0.23544  Biso   1.000  C
  C746     1.0000 0.39057  0.19904  0.23538  Biso   1.000  C
  C747     1.0000 0.39063  0.19902  0.23544  Biso   1.000  C
  C748     1.0000 0.42989  0.36230  0.00962  Biso   1.000  C
  C749     1.0000 0.42997  0.36230  0.00962  Biso   1.000  C
  C750     1.0000 0.78397  0.04500  0.18048  Biso   1.000  C
  C751     1.0000 0.78404  0.04498  0.18054  Biso   1.000  C
  C752     1.0000 0.78405  0.04500  0.18048  Biso   1.000  C
  C753     1.0000 0.13823  0.44629  0.82632  Biso   1.000  C
  C754     1.0000 0.13830  0.44629  0.82632  Biso   1.000  C
  H785     1.0000 0.10196  0.30902  0.86501  Biso   1.000  H
  H786     1.0000 0.02196  0.40896  0.79900  Biso   1.000  H
  H787     1.0000 0.02193  0.40904  0.79900  Biso   1.000  H
  H788     1.0000 0.02200  0.40904  0.79900  Biso   1.000  H
  H789     1.0000 0.32397  0.00100  0.84800  Biso   1.000  H
  H790     1.0000 0.18094  0.08903  0.84699  Biso   1.000  H
  C755     1.0000 0.43830  0.06530  0.38143  Biso   1.000  C
  H791     1.0000 0.60696  0.01400  0.32701  Biso   1.000  H
  H792     1.0000 0.60704  0.01400  0.32701  Biso   1.000  H
  H793     1.0000 0.33713  0.97392  0.34098  Biso   1.000  H
  H794     1.0000 0.33712  0.97390  0.34104  Biso   1.000  H
  H795     1.0000 0.67607  0.99892  0.15200  Biso   1.000  H
  H796     1.0000 0.81910  0.91089  0.15301  Biso   1.000  H
  H797     1.0000 0.67615  0.99892  0.15200  Biso   1.000  H
  H798     1.0000 0.81906  0.91097  0.15301  Biso   1.000  H
  H799     1.0000 0.81914  0.91097  0.15301  Biso   1.000  H
  C756     1.0000 0.24437  0.87072  0.24729  Biso   1.000  C
  C757     1.0000 0.24443  0.87070  0.24734  Biso   1.000  C
  C758     1.0000 0.24444  0.87072  0.24729  Biso   1.000  C
  C759     1.0000 0.24440  0.87077  0.24734  Biso   1.000  C
  H800     1.0000 0.34308  0.73190  0.31999  Biso   1.000  H
  C760     1.0000 0.23252  0.83450  0.37909  Biso   1.000  C
  H801     1.0000 0.34311  0.73195  0.32005  Biso   1.000  H
  C761     1.0000 0.23247  0.83455  0.37914  Biso   1.000  C
  H802     1.0000 0.34304  0.73197  0.31999  Biso   1.000  H
  C762     1.0000 0.23249  0.83457  0.37909  Biso   1.000  C
  C763     1.0000 0.41978  0.67800  0.17400  Biso   1.000  C
  C764     1.0000 0.41982  0.67807  0.17400  Biso   1.000  C
  C765     1.0000 0.41974  0.67807  0.17400  Biso   1.000  C
  H803     1.0000 0.46713  0.81091  0.15099  Biso   1.000  H
  H804     1.0000 0.58310  0.69593  0.13999  Biso   1.000  H
  H805     1.0000 0.46708  0.81097  0.15104  Biso   1.000  H
  H806     1.0000 0.58309  0.69591  0.14004  Biso   1.000  H
  C766     1.0000 0.12416  0.75502  0.12101  Biso   1.000  C
  C767     1.0000 0.12424  0.75502  0.12101  Biso   1.000  C
  H807     1.0000 0.24105  0.61795  0.09503  Biso   1.000  H
  H808     1.0000 0.09709  0.64498  0.09099  Biso   1.000  H
  H809     1.0000 0.09708  0.64495  0.09104  Biso   1.000  H
  H810     1.0000 0.24113  0.61795  0.09503  Biso   1.000  H
  H811     1.0000 0.70706  0.78797  0.54597  Biso   1.000  H
  H812     1.0000 0.62006  0.89995  0.48900  Biso   1.000  H
  C768     1.0000 0.59391  0.75937  0.50399  Biso   1.000  C
  H813     1.0000 0.70705  0.78794  0.54603  Biso   1.000  H
  C769     1.0000 0.59398  0.75937  0.50399  Biso   1.000  C
  H814     1.0000 0.26104  0.43401  0.13100  Biso   1.000  H
  C770     1.0000 0.19058  0.32882  0.12601  Biso   1.000  C
  C771     1.0000 0.17693  0.38143  0.23368  Biso   1.000  C
  C772     1.0000 0.19065  0.32882  0.12601  Biso   1.000  C
  C773     1.0000 0.17691  0.38141  0.23374  Biso   1.000  C
  H815     1.0000 0.31903  0.17998  0.27099  Biso   1.000  H
  H816     1.0000 0.31902  0.17996  0.27104  Biso   1.000  H
  H817     1.0000 0.31898  0.18003  0.27104  Biso   1.000  H
  C774     1.0000 0.33194  0.44361  0.97428  Biso   1.000  C
  C775     1.0000 0.33192  0.44359  0.97433  Biso   1.000  C
  C776     1.0000 0.33200  0.44359  0.97433  Biso   1.000  C
  H818     1.0000 0.41401  0.28901  0.03199  Biso   1.000  H
  H819     1.0000 0.50695  0.35303  0.97098  Biso   1.000  H
  H820     1.0000 0.50694  0.35301  0.97104  Biso   1.000  H
  H821     1.0000 0.86499  0.00803  0.20100  Biso   1.000  H
  H822     1.0000 0.79500  0.09397  0.12702  Biso   1.000  H
  H823     1.0000 0.79496  0.09405  0.12702  Biso   1.000  H
  C777     1.0000 0.09237  0.44598  0.90678  Biso   1.000  C
  C778     1.0000 0.09232  0.44603  0.90684  Biso   1.000  C
  H824     1.0000 0.23100  0.42396  0.81601  Biso   1.000  H
  H825     1.0000 0.09998  0.52302  0.79098  Biso   1.000  H
  H826     1.0000 0.23096  0.42404  0.81601  Biso   1.000  H
  H827     1.0000 0.09996  0.52299  0.79103  Biso   1.000  H
  H828     1.0000 0.44810  0.99395  0.42400  Biso   1.000  H
  H829     1.0000 0.35195  0.10002  0.37000  Biso   1.000  H
  C779     1.0000 0.46120  0.14278  0.40529  Biso   1.000  C
  C780     1.0000 0.46119  0.14276  0.40534  Biso   1.000  C
  H830     1.0000 0.35203  0.10002  0.37000  Biso   1.000  H
  C781     1.0000 0.46115  0.14283  0.40534  Biso   1.000  C
  C782     1.0000 0.17546  0.97675  0.23299  Biso   1.000  C
  C783     1.0000 0.17552  0.97672  0.23305  Biso   1.000  C
  C784     1.0000 0.17554  0.97675  0.23299  Biso   1.000  C
  C785     1.0000 0.25251  0.81247  0.20419  Biso   1.000  C
  C786     1.0000 0.25250  0.81244  0.20424  Biso   1.000  C
  H831     1.0000 0.20612  0.91692  0.37500  Biso   1.000  H
  H832     1.0000 0.15810  0.81594  0.38302  Biso   1.000  H
  C787     1.0000 0.28168  0.77161  0.44882  Biso   1.000  C
  O149     1.0000 0.31440  0.70603  0.21928  Biso   1.000  O
  O150     1.0000 0.31439  0.70601  0.21933  Biso   1.000  O
  O151     1.0000 0.31435  0.70608  0.21933  Biso   1.000  O
  H833     1.0000 0.46107  0.59389  0.19101  Biso   1.000  H
  H834     1.0000 0.40112  0.70190  0.12101  Biso   1.000  H
  H835     1.0000 0.46104  0.59397  0.19101  Biso   1.000  H
  H836     1.0000 0.40108  0.70197  0.12101  Biso   1.000  H
  H837     1.0000 0.46111  0.59397  0.19101  Biso   1.000  H
  O152     1.0000 0.20948  0.80410  0.09991  Biso   1.000  O
  O153     1.0000 0.20952  0.80418  0.09991  Biso   1.000  O
  H838     1.0000 0.11908  0.71393  0.17698  Biso   1.000  H
  H839     1.0000 0.04111  0.81390  0.11001  Biso   1.000  H
  H840     1.0000 0.11907  0.71391  0.17703  Biso   1.000  H
  H841     1.0000 0.04107  0.81398  0.11001  Biso   1.000  H
  H842     1.0000 0.11914  0.71391  0.17703  Biso   1.000  H
  H843     1.0000 0.59305  0.68896  0.54698  Biso   1.000  H
  H844     1.0000 0.51001  0.80097  0.48799  Biso   1.000  H
  C788     1.0000 0.67998  0.72815  0.44149  Biso   1.000  C
  H845     1.0000 0.59303  0.68894  0.54704  Biso   1.000  H
  H846     1.0000 0.51008  0.80097  0.48799  Biso   1.000  H
  C789     1.0000 0.14277  0.25108  0.16162  Biso   1.000  C
  C790     1.0000 0.19945  0.36879  0.05219  Biso   1.000  C
  C791     1.0000 0.14285  0.25108  0.16162  Biso   1.000  C
  C792     1.0000 0.19944  0.36876  0.05224  Biso   1.000  C
  C793     1.0000 0.19940  0.36884  0.05224  Biso   1.000  C
  H847     1.0000 0.09101  0.42996  0.22300  Biso   1.000  H
  H848     1.0000 0.17604  0.30696  0.27099  Biso   1.000  H
  C794     1.0000 0.21823  0.43407  0.26780  Biso   1.000  C
  H849     1.0000 0.09098  0.43003  0.22300  Biso   1.000  H
  H850     1.0000 0.17599  0.30701  0.27104  Biso   1.000  H
  H851     1.0000 0.17600  0.30703  0.27099  Biso   1.000  H
  H852     1.0000 0.09106  0.43003  0.22300  Biso   1.000  H
  C795     1.0000 0.21819  0.43415  0.26780  Biso   1.000  C
  O154     1.0000 0.22643  0.45813  0.01988  Biso   1.000  O
  O155     1.0000 0.22642  0.45811  0.01993  Biso   1.000  O
  H853     1.0000 0.34693  0.51701  0.95398  Biso   1.000  H
  H854     1.0000 0.32696  0.42096  0.93102  Biso   1.000  H
  H855     1.0000 0.34699  0.51698  0.95403  Biso   1.000  H
  H856     1.0000 0.32693  0.42104  0.93102  Biso   1.000  H
  H857     1.0000 0.34700  0.51701  0.95398  Biso   1.000  H
  O156     1.0000 0.18202  0.35923  0.94149  Biso   1.000  O
  O157     1.0000 0.18208  0.35920  0.94154  Biso   1.000  O
  H858     1.0000 0.01193  0.43296  0.92501  Biso   1.000  H
  H859     1.0000 0.08292  0.51802  0.91502  Biso   1.000  H
  H860     1.0000 0.01197  0.43304  0.92501  Biso   1.000  H
  H861     1.0000 0.08300  0.51802  0.91502  Biso   1.000  H
  H862     1.0000 0.45402  0.21398  0.36203  Biso   1.000  H
  H863     1.0000 0.54695  0.10700  0.41799  Biso   1.000  H
  C796     1.0000 0.37790  0.17122  0.46869  Biso   1.000  C
  H864     1.0000 0.54702  0.10698  0.41805  Biso   1.000  H
  C797     1.0000 0.37788  0.17119  0.46875  Biso   1.000  C
  H865     1.0000 0.54703  0.10700  0.41799  Biso   1.000  H
  C798     1.0000 0.11461  0.02437  0.17559  Biso   1.000  C
  C799     1.0000 0.11457  0.02442  0.17565  Biso   1.000  C
  C800     1.0000 0.11458  0.02445  0.17559  Biso   1.000  C
  H866     1.0000 0.16902  0.02197  0.26600  Biso   1.000  H
  H867     1.0000 0.16897  0.02202  0.26605  Biso   1.000  H
  H868     1.0000 0.16898  0.02205  0.26600  Biso   1.000  H
  C801     1.0000 0.19169  0.86014  0.14668  Biso   1.000  C
  C802     1.0000 0.19167  0.86011  0.14674  Biso   1.000  C
  C803     1.0000 0.19175  0.86011  0.14674  Biso   1.000  C
  H869     1.0000 0.35607  0.79096  0.44499  Biso   1.000  H
  H870     1.0000 0.21907  0.79293  0.49203  Biso   1.000  H
  C804     1.0000 0.34509  0.65503  0.45392  Biso   1.000  C
  H871     1.0000 0.35606  0.79093  0.44504  Biso   1.000  H
  H872     1.0000 0.64707  0.68490  0.42501  Biso   1.000  H
  H873     1.0000 0.69805  0.78894  0.39600  Biso   1.000  H
  H874     1.0000 0.75704  0.67593  0.46397  Biso   1.000  H
  H875     1.0000 0.64703  0.68498  0.42501  Biso   1.000  H
  H876     1.0000 0.75699  0.67598  0.46402  Biso   1.000  H
  H877     1.0000 0.75700  0.67600  0.46397  Biso   1.000  H
  H878     1.0000 0.75707  0.67598  0.46402  Biso   1.000  H
  H879     1.0000 0.13602  0.21998  0.21901  Biso   1.000  H
  C805     1.0000 0.10389  0.21338  0.12341  Biso   1.000  C
  C806     1.0000 0.10393  0.21346  0.12341  Biso   1.000  C
  C807     1.0000 0.16057  0.33109  0.01398  Biso   1.000  C
  C808     1.0000 0.16056  0.33107  0.01403  Biso   1.000  C
  C809     1.0000 0.16052  0.33114  0.01403  Biso   1.000  C
  H880     1.0000 0.18306  0.51696  0.24102  Biso   1.000  H
  H881     1.0000 0.31103  0.40699  0.25398  Biso   1.000  H
  C810     1.0000 0.12228  0.46302  0.33838  Biso   1.000  C
  H882     1.0000 0.31102  0.40696  0.25404  Biso   1.000  H
  C811     1.0000 0.12234  0.46300  0.33843  Biso   1.000  C
  C812     1.0000 0.12235  0.46302  0.33838  Biso   1.000  C
  H883     1.0000 0.18303  0.51704  0.24102  Biso   1.000  H
  C813     1.0000 0.18985  0.43191  0.33928  Biso   1.000  C
  H884     1.0000 0.29297  0.21196  0.45403  Biso   1.000  H
  H885     1.0000 0.37998  0.09997  0.51100  Biso   1.000  H
  C814     1.0000 0.40613  0.24055  0.49601  Biso   1.000  C
  H886     1.0000 0.29305  0.21196  0.45403  Biso   1.000  H
  H887     1.0000 0.37996  0.09995  0.51105  Biso   1.000  H
  C815     1.0000 0.40609  0.24063  0.49601  Biso   1.000  C
  H888     1.0000 0.29301  0.21203  0.45403  Biso   1.000  H
  H889     1.0000 0.38000  0.10003  0.51105  Biso   1.000  H
  C816     1.0000 0.03472  0.13995  0.16093  Biso   1.000  C
  C817     1.0000 0.03469  0.14002  0.16093  Biso   1.000  C
  C818     1.0000 0.12285  0.96601  0.13239  Biso   1.000  C
  C819     1.0000 0.12284  0.96599  0.13244  Biso   1.000  C
  C820     1.0000 0.12280  0.96607  0.13244  Biso   1.000  C
  H890     1.0000 0.39209  0.63095  0.41799  Biso   1.000  H
  C821     1.0000 0.37207  0.55790  0.53199  Biso   1.000  C
  H891     1.0000 0.39208  0.63093  0.41805  Biso   1.000  H
  C822     1.0000 0.37202  0.55795  0.53204  Biso   1.000  C
  C823     1.0000 0.37203  0.55798  0.53199  Biso   1.000  C
  C824     1.0000 0.26402  0.64795  0.47002  Biso   1.000  C
  C825     1.0000 0.33705  0.62389  0.54602  Biso   1.000  C
  C826     1.0000 0.11273  0.25327  0.04959  Biso   1.000  C
  C827     1.0000 0.11268  0.25333  0.04964  Biso   1.000  C
  C828     1.0000 0.11269  0.25335  0.04959  Biso   1.000  C
  H892     1.0000 0.14699  0.37897  0.37702  Biso   1.000  H
  H893     1.0000 0.05002  0.49496  0.32802  Biso   1.000  H
  C829     1.0000 0.16151  0.54729  0.35789  Biso   1.000  C
  C830     1.0000 0.16150  0.54727  0.35794  Biso   1.000  C
  H894     1.0000 0.14703  0.37904  0.37702  Biso   1.000  H
  H895     1.0000 0.04998  0.49503  0.32802  Biso   1.000  H
  C831     1.0000 0.16158  0.54727  0.35794  Biso   1.000  C
  C832     1.0000 0.19814  0.48649  0.37702  Biso   1.000  C
  H896     1.0000 0.40699  0.31096  0.45302  Biso   1.000  H
  H897     1.0000 0.49003  0.19895  0.51201  Biso   1.000  H
  C833     1.0000 0.32006  0.27177  0.55851  Biso   1.000  C
  H898     1.0000 0.48999  0.19903  0.51201  Biso   1.000  H
  C834     1.0000 0.32014  0.27177  0.55851  Biso   1.000  C
  H899     1.0000 0.40703  0.31104  0.45302  Biso   1.000  H
  C835     1.0000 0.32010  0.27185  0.55851  Biso   1.000  C
  H900     1.0000 0.97998  0.15498  0.12399  Biso   1.000  H
  C836     1.0000 0.95250  0.16397  0.22768  Biso   1.000  C
  H901     1.0000 0.98004  0.15496  0.12404  Biso   1.000  H
  C837     1.0000 0.95253  0.16402  0.22773  Biso   1.000  C
  H902     1.0000 0.98006  0.15498  0.12399  Biso   1.000  H
  C838     1.0000 0.95254  0.16404  0.22768  Biso   1.000  C
  H903     1.0000 0.98001  0.15503  0.12404  Biso   1.000  H
  O158     1.0000 0.05983  0.00999  0.07669  Biso   1.000  O
  O159     1.0000 0.05981  0.00997  0.07674  Biso   1.000  O
  O160     1.0000 0.05978  0.01004  0.07674  Biso   1.000  O
  C839     1.0000 0.23606  0.56892  0.56202  Biso   1.000  C
  C840     1.0000 0.33608  0.51189  0.57201  Biso   1.000  C
  O161     1.0000 0.08529  0.20992  0.01089  Biso   1.000  O
  O162     1.0000 0.08537  0.20992  0.01089  Biso   1.000  O
  C841     1.0000 0.06384  0.53621  0.42039  Biso   1.000  C
  C842     1.0000 0.06383  0.53619  0.42044  Biso   1.000  C
  C843     1.0000 0.06136  0.62849  0.34439  Biso   1.000  C
  H904     1.0000 0.30199  0.21098  0.60400  Biso   1.000  H
  H905     1.0000 0.24300  0.32400  0.53603  Biso   1.000  H
  H906     1.0000 0.35297  0.31502  0.57499  Biso   1.000  H
  H907     1.0000 0.35296  0.31500  0.57504  Biso   1.000  H
  H908     1.0000 0.35303  0.31500  0.57504  Biso   1.000  H
  H909     1.0000 0.99997  0.16701  0.26201  Biso   1.000  H
  H910     1.0000 0.91799  0.10197  0.25499  Biso   1.000  H
  C844     1.0000 0.85478  0.26739  0.20940  Biso   1.000  C
  H911     1.0000 0.91795  0.10202  0.25505  Biso   1.000  H
  C845     1.0000 0.85485  0.26739  0.20940  Biso   1.000  C
  H912     1.0000 0.91796  0.10204  0.25499  Biso   1.000  H
  H913     1.0000 0.91802  0.10202  0.25505  Biso   1.000  H
  H914     1.0000 0.00005  0.16701  0.26201  Biso   1.000  H
  C846     1.0000 0.12138  0.03829  0.00702  Biso   1.000  C
  C847     1.0000 0.12146  0.03829  0.00702  Biso   1.000  C
  C848     1.0000 0.17584  0.11752  0.99660  Biso   1.000  C
  H915     1.0000 0.07500  0.49499  0.45403  Biso   1.000  H
  H916     1.0000 0.81605  0.26795  0.16900  Biso   1.000  H
  H917     1.0000 0.88902  0.33001  0.18899  Biso   1.000  H
  C849     1.0000 0.76352  0.28697  0.27243  Biso   1.000  C
  H918     1.0000 0.81601  0.26803  0.16900  Biso   1.000  H
  H919     1.0000 0.88900  0.32999  0.18904  Biso   1.000  H
  C850     1.0000 0.76348  0.28704  0.27243  Biso   1.000  C
  H920     1.0000 0.18911  0.96711  0.00298  Biso   1.000  H
  H921     1.0000 0.18906  0.96717  0.00303  Biso   1.000  H
  H922     1.0000 0.18914  0.96717  0.00303  Biso   1.000  H
  H923     1.0000 0.06190  0.07098  0.96902  Biso   1.000  H
  H924     1.0000 0.06198  0.07098  0.96902  Biso   1.000  H
  H925     1.0000 0.06194  0.07106  0.96902  Biso   1.000  H
  H926     1.0000 0.23700  0.08602  0.03300  Biso   1.000  H
  H927     1.0000 0.21892  0.13703  0.94297  Biso   1.000  H
  H928     1.0000 0.21891  0.13701  0.94303  Biso   1.000  H
  H929     1.0000 0.21899  0.13701  0.94303  Biso   1.000  H
  H930     1.0000 0.73800  0.21902  0.29799  Biso   1.000  H
  H931     1.0000 0.79797  0.29899  0.30899  Biso   1.000  H
  C851     1.0000 0.65770  0.38317  0.25042  Biso   1.000  C
  H932     1.0000 0.73799  0.21900  0.29804  Biso   1.000  H
  H933     1.0000 0.79804  0.29896  0.30904  Biso   1.000  H
  H934     1.0000 0.79805  0.29899  0.30899  Biso   1.000  H
  H935     1.0000 0.79800  0.29904  0.30904  Biso   1.000  H
  C852     1.0000 0.65774  0.38324  0.25042  Biso   1.000  C
  H936     1.0000 0.63003  0.37401  0.20902  Biso   1.000  H
  H937     1.0000 0.68300  0.45095  0.22901  Biso   1.000  H
  C853     1.0000 0.56235  0.40147  0.30559  Biso   1.000  C
  H938     1.0000 0.68304  0.45102  0.22901  Biso   1.000  H
  C854     1.0000 0.56233  0.40145  0.30564  Biso   1.000  C
  C855     1.0000 0.56230  0.40153  0.30564  Biso   1.000  C
  H939     1.0000 0.49401  0.47500  0.30798  Biso   1.000  H
  H940     1.0000 0.60702  0.37096  0.35002  Biso   1.000  H
  H941     1.0000 0.52604  0.34595  0.30702  Biso   1.000  H
  H942     1.0000 0.49400  0.47498  0.30803  Biso   1.000  H
  H943     1.0000 0.52600  0.34602  0.30702  Biso   1.000  H
  H944     1.0000 0.49407  0.47498  0.30803  Biso   1.000  H
  H945     1.0000 0.60699  0.37103  0.35002  Biso   1.000  H
