data_image0
_cell_length_a       23.705
_cell_length_b       16.51
_cell_length_c       25.95
_cell_angle_alpha    90
_cell_angle_beta     92.39
_cell_angle_gamma    90

_symmetry_space_group_name_H-M    "P 1"
_symmetry_int_tables_number       1

loop_
  _symmetry_equiv_pos_as_xyz
  'x, y, z'

loop_
  _atom_site_label
  _atom_site_occupancy
  _atom_site_fract_x
  _atom_site_fract_y
  _atom_site_fract_z
  _atom_site_thermal_displace_type
  _atom_site_B_iso_or_equiv
  _atom_site_type_symbol
  C1       1.0000 0.50856  0.46481  0.43386  Biso   1.000  C
  C2       1.0000 0.52442  0.39104  0.40235  Biso   1.000  C
  H1       1.0000 0.47223  0.45469  0.45022  Biso   1.000  H
  H2       1.0000 0.53780  0.47420  0.46156  Biso   1.000  H
  C3       1.0000 0.50329  0.53804  0.40054  Biso   1.000  C
  C4       1.0000 0.57976  0.40279  0.37443  Biso   1.000  C
  H3       1.0000 0.49359  0.37941  0.37651  Biso   1.000  H
  H4       1.0000 0.52835  0.34355  0.42553  Biso   1.000  H
  C5       1.0000 0.55739  0.55385  0.37335  Biso   1.000  C
  H5       1.0000 0.49427  0.58558  0.42195  Biso   1.000  H
  H6       1.0000 0.47194  0.53035  0.37458  Biso   1.000  H
  C6       1.0000 0.59278  0.33047  0.34084  Biso   1.000  C
  H7       1.0000 0.61130  0.40945  0.40093  Biso   1.000  H
  C7       1.0000 0.57611  0.47892  0.34157  Biso   1.000  C
  H8       1.0000 0.58773  0.56784  0.39923  Biso   1.000  H
  H9       1.0000 0.55189  0.60079  0.34990  Biso   1.000  H
  O1       1.0000 0.59457  0.25996  0.37258  Biso   1.000  O
  H10      1.0000 0.56324  0.32453  0.31299  Biso   1.000  H
  H11      1.0000 0.62959  0.33828  0.32483  Biso   1.000  H
  H12      1.0000 0.54874  0.47014  0.31226  Biso   1.000  H
  H13      1.0000 0.61347  0.48988  0.32734  Biso   1.000  H
  C8       1.0000 0.59338  0.18540  0.34851  Biso   1.000  C
  C9       1.0000 0.58607  0.11859  0.38049  Biso   1.000  C
  C10      1.0000 0.59801  0.17523  0.29563  Biso   1.000  C
  C11      1.0000 0.58540  0.04149  0.35838  Biso   1.000  C
  C12      1.0000 0.57847  0.13028  0.43764  Biso   1.000  C
  C13      1.0000 0.59612  0.09843  0.27357  Biso   1.000  C
  H14      1.0000 0.60252  0.22132  0.27430  Biso   1.000  H
  C14      1.0000 0.59016  0.03119  0.30555  Biso   1.000  C
  H15      1.0000 0.58169  0.99534  0.37979  Biso   1.000  H
  H16      1.0000 0.55411  0.17807  0.44281  Biso   1.000  H
  H17      1.0000 0.55910  0.08237  0.45145  Biso   1.000  H
  C15      1.0000 0.63408  0.14228  0.46742  Biso   1.000  C
  C16      1.0000 0.60379  0.08958  0.21614  Biso   1.000  C
  O2       1.0000 0.58893  0.95694  0.28136  Biso   1.000  O
  C17      1.0000 0.66808  0.07571  0.48042  Biso   1.000  C
  C18      1.0000 0.65241  0.21902  0.48273  Biso   1.000  C
  C19      1.0000 0.66463  0.10569  0.20438  Biso   1.000  C
  H18      1.0000 0.59312  0.03410  0.20496  Biso   1.000  H
  H19      1.0000 0.57892  0.12841  0.19701  Biso   1.000  H
  C20      1.0000 0.59176  0.88522  0.31214  Biso   1.000  C
  O3       1.0000 0.64653  0.00109  0.46669  Biso   1.000  O
  C21      1.0000 0.72036  0.08661  0.50564  Biso   1.000  C
  C22      1.0000 0.70413  0.22992  0.50946  Biso   1.000  C
  H20      1.0000 0.62931  0.26475  0.47479  Biso   1.000  H
  C23      1.0000 0.68287  0.18195  0.18976  Biso   1.000  C
  C24      1.0000 0.70484  0.04458  0.21178  Biso   1.000  C
  H21      1.0000 0.55737  0.88007  0.33224  Biso   1.000  H
  H22      1.0000 0.62502  0.88734  0.33648  Biso   1.000  H
  C25      1.0000 0.59660  0.81351  0.27569  Biso   1.000  C
  C26      1.0000 0.67220  0.93119  0.49021  Biso   1.000  C
  C27      1.0000 0.73952  0.16378  0.51968  Biso   1.000  C
  H23      1.0000 0.74346  0.04088  0.51347  Biso   1.000  H
  O4       1.0000 0.72374  0.30369  0.52705  Biso   1.000  O
  O5       1.0000 0.64341  0.24385  0.18667  Biso   1.000  O
  C28      1.0000 0.73983  0.19612  0.18178  Biso   1.000  C
  C29      1.0000 0.76158  0.05875  0.20442  Biso   1.000  C
  H24      1.0000 0.69308  0.99225  0.22212  Biso   1.000  H
  H25      1.0000 0.60007  0.76342  0.29725  Biso   1.000  H
  C30      1.0000 0.54438  0.80406  0.23982  Biso   1.000  C
  C31      1.0000 0.64984  0.81999  0.24445  Biso   1.000  C
  H26      1.0000 0.67250  0.93616  0.52824  Biso   1.000  H
  H27      1.0000 0.71166  0.92580  0.47961  Biso   1.000  H
  C32      1.0000 0.63803  0.85778  0.47278  Biso   1.000  C
  C33      1.0000 0.79887  0.17523  0.54271  Biso   1.000  C
  C34      1.0000 0.68527  0.37038  0.52512  Biso   1.000  C
  C35      1.0000 0.64081  0.28867  0.13985  Biso   1.000  C
  C36      1.0000 0.77990  0.13555  0.18903  Biso   1.000  C
  H28      1.0000 0.75145  0.24833  0.17117  Biso   1.000  H
  O6       1.0000 0.80293  0.00091  0.21109  Biso   1.000  O
  H29      1.0000 0.53777  0.85518  0.22062  Biso   1.000  H
  H30      1.0000 0.51108  0.79394  0.26073  Biso   1.000  H
  C37      1.0000 0.55031  0.73459  0.20145  Biso   1.000  C
  C38      1.0000 0.65518  0.75033  0.20615  Biso   1.000  C
  H31      1.0000 0.64910  0.87190  0.22536  Biso   1.000  H
  H32      1.0000 0.68342  0.82029  0.26840  Biso   1.000  H
  H33      1.0000 0.63581  0.85766  0.43421  Biso   1.000  H
  C39      1.0000 0.57776  0.86021  0.49133  Biso   1.000  C
  C40      1.0000 0.66812  0.78038  0.49060  Biso   1.000  C
  C41      1.0000 0.84068  0.18522  0.50024  Biso   1.000  C
  H34      1.0000 0.80960  0.12774  0.56423  Biso   1.000  H
  H35      1.0000 0.80002  0.22380  0.56512  Biso   1.000  H
  H36      1.0000 0.64859  0.35366  0.53858  Biso   1.000  H
  H37      1.0000 0.67877  0.38861  0.48902  Biso   1.000  H
  C42      1.0000 0.71033  0.43876  0.55756  Biso   1.000  C
  H38      1.0000 0.63137  0.25215  0.11050  Biso   1.000  H
  H39      1.0000 0.67792  0.31387  0.13411  Biso   1.000  H
  C43      1.0000 0.59600  0.35373  0.14332  Biso   1.000  C
  C44      1.0000 0.84187  0.15221  0.18170  Biso   1.000  C
  C45      1.0000 0.78527  0.92247  0.22721  Biso   1.000  C
  H40      1.0000 0.55252  0.68250  0.22031  Biso   1.000  H
  H41      1.0000 0.51661  0.73301  0.17761  Biso   1.000  H
  C46      1.0000 0.60310  0.74525  0.17051  Biso   1.000  C
  H42      1.0000 0.68887  0.75893  0.18552  Biso   1.000  H
  H43      1.0000 0.66018  0.69873  0.22517  Biso   1.000  H
  H44      1.0000 0.57882  0.86402  0.52944  Biso   1.000  H
  H45      1.0000 0.55834  0.90896  0.47729  Biso   1.000  H
  C47      1.0000 0.54454  0.78486  0.47440  Biso   1.000  C
  C48      1.0000 0.63444  0.70563  0.47340  Biso   1.000  C
  H46      1.0000 0.70602  0.77832  0.47602  Biso   1.000  H
  H47      1.0000 0.67303  0.78062  0.52867  Biso   1.000  H
  C49      1.0000 0.86447  0.11757  0.47718  Biso   1.000  C
  C50      1.0000 0.85529  0.26190  0.48289  Biso   1.000  C
  H48      1.0000 0.71566  0.41920  0.59393  Biso   1.000  H
  C51      1.0000 0.76769  0.46614  0.53889  Biso   1.000  C
  C52      1.0000 0.66866  0.50957  0.55686  Biso   1.000  C
  H49      1.0000 0.55913  0.32701  0.14996  Biso   1.000  H
  C53      1.0000 0.59050  0.39752  0.09133  Biso   1.000  C
  C54      1.0000 0.60980  0.41296  0.18698  Biso   1.000  C
  C55      1.0000 0.87460  0.16856  0.23230  Biso   1.000  C
  H50      1.0000 0.84542  0.19964  0.15875  Biso   1.000  H
  H51      1.0000 0.85877  0.10503  0.16457  Biso   1.000  H
  H52      1.0000 0.76103  0.89703  0.19975  Biso   1.000  H
  H53      1.0000 0.76325  0.92714  0.25865  Biso   1.000  H
  C56      1.0000 0.83732  0.87099  0.23820  Biso   1.000  C
  H54      1.0000 0.60674  0.69885  0.14668  Biso   1.000  H
  H55      1.0000 0.59970  0.79528  0.14957  Biso   1.000  H
  H56      1.0000 0.50651  0.78674  0.48875  Biso   1.000  H
  H57      1.0000 0.53989  0.78401  0.43633  Biso   1.000  H
  C57      1.0000 0.57474  0.70818  0.49280  Biso   1.000  C
  H58      1.0000 0.63274  0.70267  0.43525  Biso   1.000  H
  H59      1.0000 0.65386  0.65639  0.48678  Biso   1.000  H
  O7       1.0000 0.84923  0.04294  0.49623  Biso   1.000  O
  C58      1.0000 0.90235  0.12744  0.43826  Biso   1.000  C
  C59      1.0000 0.89341  0.27141  0.44378  Biso   1.000  C
  H60      1.0000 0.83906  0.30848  0.49793  Biso   1.000  H
  H61      1.0000 0.79476  0.42065  0.54217  Biso   1.000  H
  H62      1.0000 0.76369  0.48110  0.50198  Biso   1.000  H
  C60      1.0000 0.79095  0.53852  0.56974  Biso   1.000  C
  C61      1.0000 0.69191  0.58231  0.58745  Biso   1.000  C
  H63      1.0000 0.63293  0.49158  0.57167  Biso   1.000  H
  H64      1.0000 0.66013  0.52617  0.52068  Biso   1.000  H
  H65      1.0000 0.62789  0.41859  0.08235  Biso   1.000  H
  H66      1.0000 0.57788  0.35851  0.06429  Biso   1.000  H
  C62      1.0000 0.54863  0.46729  0.09260  Biso   1.000  C
  C63      1.0000 0.56869  0.48425  0.18737  Biso   1.000  C
  H67      1.0000 0.64858  0.43386  0.18347  Biso   1.000  H
  H68      1.0000 0.60871  0.38401  0.22031  Biso   1.000  H
  C64      1.0000 0.87095  0.24403  0.25676  Biso   1.000  C
  C65      1.0000 0.90907  0.10957  0.25548  Biso   1.000  C
  H69      1.0000 0.86213  0.90012  0.26420  Biso   1.000  H
  C66      1.0000 0.87133  0.85627  0.19034  Biso   1.000  C
  C67      1.0000 0.82010  0.79007  0.26188  Biso   1.000  C
  H70      1.0000 0.55349  0.66015  0.47996  Biso   1.000  H
  H71      1.0000 0.57627  0.70648  0.53094  Biso   1.000  H
  C68      1.0000 0.87316  0.97359  0.47251  Biso   1.000  C
  C69      1.0000 0.91813  0.20394  0.42172  Biso   1.000  C
  H72      1.0000 0.91784  0.08086  0.42260  Biso   1.000  H
  O8       1.0000 0.90866  0.34482  0.42391  Biso   1.000  O
  H73      1.0000 0.79923  0.52180  0.60592  Biso   1.000  H
  H74      1.0000 0.82673  0.55663  0.55513  Biso   1.000  H
  C70      1.0000 0.74906  0.60878  0.56874  Biso   1.000  C
  H75      1.0000 0.66496  0.62798  0.58382  Biso   1.000  H
  H76      1.0000 0.69575  0.56790  0.62447  Biso   1.000  H
  H77      1.0000 0.54760  0.49576  0.05897  Biso   1.000  H
  H78      1.0000 0.51036  0.44573  0.09812  Biso   1.000  H
  C71      1.0000 0.56479  0.52659  0.13515  Biso   1.000  C
  H79      1.0000 0.53082  0.46445  0.19605  Biso   1.000  H
  H80      1.0000 0.58152  0.52344  0.21425  Biso   1.000  H
  O9       1.0000 0.83758  0.30145  0.23188  Biso   1.000  O
  C72      1.0000 0.89983  0.25760  0.30354  Biso   1.000  C
  H81      1.0000 0.91250  0.05845  0.23913  Biso   1.000  H
  C73      1.0000 0.93853  0.12386  0.30204  Biso   1.000  C
  H82      1.0000 0.84734  0.82835  0.16376  Biso   1.000  H
  H83      1.0000 0.88312  0.90890  0.17599  Biso   1.000  H
  C74      1.0000 0.92348  0.80497  0.20345  Biso   1.000  C
  C75      1.0000 0.87200  0.73852  0.27608  Biso   1.000  C
  H84      1.0000 0.79866  0.80036  0.29313  Biso   1.000  H
  H85      1.0000 0.79516  0.76021  0.23689  Biso   1.000  H
  H86      1.0000 0.91477  0.97898  0.47270  Biso   1.000  H
  H87      1.0000 0.85885  0.96947  0.43618  Biso   1.000  H
  C76      1.0000 0.85733  0.89806  0.50175  Biso   1.000  C
  C77      1.0000 0.96065  0.21272  0.38006  Biso   1.000  C
  C78      1.0000 0.89798  0.41666  0.45234  Biso   1.000  C
  H88      1.0000 0.76421  0.65306  0.59100  Biso   1.000  H
  H89      1.0000 0.74435  0.62986  0.53310  Biso   1.000  H
  H90      1.0000 0.53622  0.57026  0.13592  Biso   1.000  H
  H91      1.0000 0.60163  0.55154  0.12813  Biso   1.000  H
  C79      1.0000 0.83406  0.37868  0.25637  Biso   1.000  C
  C80      1.0000 0.93339  0.19794  0.32711  Biso   1.000  C
  H92      1.0000 0.89669  0.30878  0.31985  Biso   1.000  H
  O10      1.0000 0.97428  0.06869  0.32653  Biso   1.000  O
  H93      1.0000 0.94972  0.83616  0.22656  Biso   1.000  H
  H94      1.0000 0.94307  0.79291  0.17140  Biso   1.000  H
  C81      1.0000 0.90844  0.72520  0.22980  Biso   1.000  C
  H95      1.0000 0.89470  0.76578  0.30389  Biso   1.000  H
  H96      1.0000 0.85970  0.68546  0.28935  Biso   1.000  H
  H97      1.0000 0.81565  0.89861  0.50637  Biso   1.000  H
  C82      1.0000 0.88738  0.89491  0.55478  Biso   1.000  C
  C83      1.0000 0.87200  0.82308  0.47004  Biso   1.000  C
  H98      1.0000 0.97696  0.26790  0.38141  Biso   1.000  H
  H99      1.0000 0.99178  0.17347  0.38639  Biso   1.000  H
  H100     1.0000 0.91024  0.40957  0.48902  Biso   1.000  H
  H101     1.0000 0.85714  0.42950  0.45053  Biso   1.000  H
  C84      1.0000 0.93133  0.48431  0.42812  Biso   1.000  C
  H102     1.0000 0.87163  0.40497  0.25791  Biso   1.000  H
  H103     1.0000 0.82164  0.37190  0.29208  Biso   1.000  H
  C85      1.0000 0.79217  0.43119  0.22590  Biso   1.000  C
  C86      1.0000 0.97899  0.98982  0.30497  Biso   1.000  C
  H104     1.0000 0.88797  0.68976  0.20453  Biso   1.000  H
  H105     1.0000 0.94365  0.69709  0.24129  Biso   1.000  H
  H106     1.0000 0.92854  0.90097  0.55077  Biso   1.000  H
  H107     1.0000 0.87458  0.94101  0.57572  Biso   1.000  H
  C87      1.0000 0.87636  0.81623  0.58324  Biso   1.000  C
  C88      1.0000 0.86100  0.74422  0.49901  Biso   1.000  C
  H108     1.0000 0.84915  0.82338  0.43722  Biso   1.000  H
  H109     1.0000 0.91228  0.82544  0.46160  Biso   1.000  H
  H110     1.0000 0.92483  0.53489  0.44825  Biso   1.000  H
  C89      1.0000 0.99477  0.46747  0.43059  Biso   1.000  C
  C90      1.0000 0.91124  0.50030  0.37231  Biso   1.000  C
  H111     1.0000 0.75466  0.40339  0.22478  Biso   1.000  H
  C91      1.0000 0.80940  0.44518  0.17071  Biso   1.000  C
  C92      1.0000 0.78628  0.51199  0.25394  Biso   1.000  C
  H112     1.0000 0.99595  0.99303  0.27079  Biso   1.000  H
  H113     1.0000 0.94120  0.96469  0.30045  Biso   1.000  H
  C93      1.0000 0.01615  0.93961  0.34168  Biso   1.000  C
  H114     1.0000 0.89871  0.81563  0.61630  Biso   1.000  H
  H115     1.0000 0.83588  0.81308  0.59107  Biso   1.000  H
  C94      1.0000 0.89206  0.74319  0.55108  Biso   1.000  C
  H116     1.0000 0.81996  0.73834  0.50375  Biso   1.000  H
  H117     1.0000 0.87347  0.69764  0.47830  Biso   1.000  H
  H118     1.0000 0.00241  0.41726  0.41126  Biso   1.000  H
  H119     1.0000 0.00773  0.45906  0.46696  Biso   1.000  H
  C95      1.0000 0.02769  0.53761  0.40783  Biso   1.000  C
  C96      1.0000 0.94445  0.56941  0.34855  Biso   1.000  C
  H120     1.0000 0.87061  0.51429  0.37123  Biso   1.000  H
  H121     1.0000 0.91586  0.45045  0.35167  Biso   1.000  H
  H122     1.0000 0.81063  0.39249  0.15254  Biso   1.000  H
  H123     1.0000 0.84785  0.46875  0.17129  Biso   1.000  H
  C97      1.0000 0.76873  0.50182  0.14105  Biso   1.000  C
  C98      1.0000 0.74554  0.56899  0.22459  Biso   1.000  C
  H124     1.0000 0.77239  0.50200  0.28884  Biso   1.000  H
  H125     1.0000 0.82380  0.53816  0.25795  Biso   1.000  H
  C99      1.0000 0.99261  0.93798  0.39545  Biso   1.000  C
  H126     1.0000 0.05452  0.96487  0.34419  Biso   1.000  H
  C100     1.0000 0.02199  0.85360  0.32093  Biso   1.000  C
  H127     1.0000 0.93327  0.74337  0.54622  Biso   1.000  H
  H128     1.0000 0.88262  0.69291  0.56963  Biso   1.000  H
  H129     1.0000 0.02253  0.58698  0.42877  Biso   1.000  H
  H130     1.0000 0.06845  0.52429  0.40895  Biso   1.000  H
  C101     1.0000 0.00758  0.55354  0.35264  Biso   1.000  C
  H131     1.0000 0.93231  0.57553  0.31179  Biso   1.000  H
  H132     1.0000 0.93603  0.62065  0.36645  Biso   1.000  H
  H133     1.0000 0.78287  0.51205  0.10626  Biso   1.000  H
  H134     1.0000 0.73124  0.47553  0.13677  Biso   1.000  H
  C102     1.0000 0.76267  0.58195  0.16928  Biso   1.000  C
  H135     1.0000 0.70697  0.54591  0.22436  Biso   1.000  H
  H136     1.0000 0.74480  0.62187  0.24256  Biso   1.000  H
  H137     1.0000 0.95310  0.91853  0.39298  Biso   1.000  H
  H138     1.0000 0.99241  0.99376  0.40949  Biso   1.000  H
  C103     1.0000 0.02699  0.88346  0.43228  Biso   1.000  C
  H139     1.0000 0.98389  0.83028  0.31434  Biso   1.000  H
  H140     1.0000 0.04093  0.85560  0.28769  Biso   1.000  H
  C104     1.0000 0.05563  0.79861  0.35819  Biso   1.000  C
  H141     1.0000 0.01655  0.50624  0.33104  Biso   1.000  H
  H142     1.0000 0.02785  0.60109  0.33925  Biso   1.000  H
  H143     1.0000 0.73386  0.61563  0.15073  Biso   1.000  H
  H144     1.0000 0.79904  0.61145  0.16943  Biso   1.000  H
  C105     1.0000 0.03079  0.79764  0.41115  Biso   1.000  C
  H145     1.0000 0.00913  0.88213  0.46611  Biso   1.000  H
  H146     1.0000 0.06550  0.90600  0.43764  Biso   1.000  H
  H147     1.0000 0.05587  0.74288  0.34415  Biso   1.000  H
  H148     1.0000 0.09521  0.81781  0.36132  Biso   1.000  H
  H149     1.0000 0.99267  0.77305  0.40876  Biso   1.000  H
  H150     1.0000 0.05483  0.76420  0.43494  Biso   1.000  H
  C106     1.0000 0.49140  0.53519  0.56616  Biso   1.000  C
  C107     1.0000 0.47554  0.60896  0.59763  Biso   1.000  C
  H151     1.0000 0.52773  0.54531  0.54977  Biso   1.000  H
  H152     1.0000 0.46217  0.52580  0.53843  Biso   1.000  H
  C108     1.0000 0.49668  0.46196  0.59944  Biso   1.000  C
  C109     1.0000 0.42020  0.59721  0.62555  Biso   1.000  C
  H153     1.0000 0.50638  0.62059  0.62347  Biso   1.000  H
  H154     1.0000 0.47162  0.65645  0.57445  Biso   1.000  H
  C110     1.0000 0.44257  0.44615  0.62667  Biso   1.000  C
  H155     1.0000 0.50570  0.41442  0.57804  Biso   1.000  H
  H156     1.0000 0.52802  0.46965  0.62540  Biso   1.000  H
  C111     1.0000 0.40718  0.66953  0.65915  Biso   1.000  C
  H157     1.0000 0.38866  0.59055  0.59906  Biso   1.000  H
  C112     1.0000 0.42386  0.52108  0.65841  Biso   1.000  C
  H158     1.0000 0.41224  0.43216  0.60075  Biso   1.000  H
  H159     1.0000 0.44807  0.39921  0.65008  Biso   1.000  H
  O11      1.0000 0.40540  0.74004  0.62741  Biso   1.000  O
  H160     1.0000 0.43672  0.67547  0.68699  Biso   1.000  H
  H161     1.0000 0.37037  0.66172  0.67515  Biso   1.000  H
  H162     1.0000 0.45122  0.52986  0.68773  Biso   1.000  H
  H163     1.0000 0.38650  0.51012  0.67265  Biso   1.000  H
  C113     1.0000 0.40658  0.81466  0.65147  Biso   1.000  C
  C114     1.0000 0.41390  0.88147  0.61954  Biso   1.000  C
  C115     1.0000 0.40195  0.82483  0.70435  Biso   1.000  C
  C116     1.0000 0.42149  0.86972  0.56234  Biso   1.000  C
  C117     1.0000 0.41457  0.95851  0.64160  Biso   1.000  C
  C118     1.0000 0.40384  0.90157  0.72641  Biso   1.000  C
  H164     1.0000 0.39744  0.77868  0.72568  Biso   1.000  H
  C119     1.0000 0.36589  0.85772  0.53256  Biso   1.000  C
  H165     1.0000 0.44585  0.82193  0.55721  Biso   1.000  H
  H166     1.0000 0.44086  0.91769  0.54853  Biso   1.000  H
  C120     1.0000 0.40981  0.96881  0.69448  Biso   1.000  C
  H167     1.0000 0.41827  0.00472  0.62019  Biso   1.000  H
  C121     1.0000 0.39617  0.91042  0.78384  Biso   1.000  C
  C122     1.0000 0.34755  0.78098  0.51729  Biso   1.000  C
  C123     1.0000 0.33188  0.92429  0.51957  Biso   1.000  C
  O12      1.0000 0.41104  0.04306  0.71866  Biso   1.000  O
  C124     1.0000 0.33533  0.89431  0.79561  Biso   1.000  C
  H168     1.0000 0.40685  0.96590  0.79503  Biso   1.000  H
  H169     1.0000 0.42105  0.87159  0.80297  Biso   1.000  H
  C125     1.0000 0.29584  0.77008  0.49052  Biso   1.000  C
  H170     1.0000 0.37065  0.73525  0.52520  Biso   1.000  H
  C126     1.0000 0.27960  0.91339  0.49434  Biso   1.000  C
  O13      1.0000 0.35343  0.99891  0.53330  Biso   1.000  O
  C127     1.0000 0.40820  0.11478  0.68788  Biso   1.000  C
  C128     1.0000 0.31710  0.81805  0.81022  Biso   1.000  C
  C129     1.0000 0.29513  0.95542  0.78820  Biso   1.000  C
  O14      1.0000 0.27622  0.69637  0.47294  Biso   1.000  O
  C130     1.0000 0.26044  0.83622  0.48030  Biso   1.000  C
  H171     1.0000 0.25651  0.95918  0.48651  Biso   1.000  H
  C131     1.0000 0.32777  0.06881  0.50981  Biso   1.000  C
  H172     1.0000 0.44259  0.11993  0.66775  Biso   1.000  H
  H173     1.0000 0.37494  0.11266  0.66351  Biso   1.000  H
  C132     1.0000 0.40337  0.18649  0.72429  Biso   1.000  C
  O15      1.0000 0.35656  0.75615  0.81335  Biso   1.000  O
  C133     1.0000 0.26013  0.80394  0.81821  Biso   1.000  C
  C134     1.0000 0.23839  0.94125  0.79557  Biso   1.000  C
  H174     1.0000 0.30689  0.00775  0.77786  Biso   1.000  H
  C135     1.0000 0.31470  0.62962  0.47486  Biso   1.000  C
  C136     1.0000 0.20109  0.82477  0.45728  Biso   1.000  C
  H175     1.0000 0.32746  0.06384  0.47178  Biso   1.000  H
  H176     1.0000 0.28830  0.07420  0.52038  Biso   1.000  H
  C137     1.0000 0.36193  0.14222  0.52724  Biso   1.000  C
  H177     1.0000 0.39989  0.23658  0.70273  Biso   1.000  H
  C138     1.0000 0.45558  0.19594  0.76016  Biso   1.000  C
  C139     1.0000 0.35012  0.18007  0.75553  Biso   1.000  C
  C140     1.0000 0.35916  0.71133  0.86013  Biso   1.000  C
  C141     1.0000 0.22006  0.86445  0.81096  Biso   1.000  C
  H178     1.0000 0.24851  0.75167  0.82885  Biso   1.000  H
  O16      1.0000 0.19703  0.99909  0.78889  Biso   1.000  O
  C142     1.0000 0.28963  0.56124  0.44243  Biso   1.000  C
  H179     1.0000 0.35137  0.64634  0.46140  Biso   1.000  H
  H180     1.0000 0.32120  0.61139  0.51096  Biso   1.000  H
  C143     1.0000 0.15928  0.81478  0.49974  Biso   1.000  C
  H181     1.0000 0.19036  0.87232  0.43575  Biso   1.000  H
  H182     1.0000 0.19994  0.77620  0.43487  Biso   1.000  H
  H183     1.0000 0.36415  0.14240  0.56581  Biso   1.000  H
  C144     1.0000 0.42221  0.13985  0.50865  Biso   1.000  C
  C145     1.0000 0.33184  0.21962  0.50942  Biso   1.000  C
  H184     1.0000 0.46220  0.14482  0.77937  Biso   1.000  H
  H185     1.0000 0.48888  0.20606  0.73926  Biso   1.000  H
  C146     1.0000 0.44966  0.26541  0.79858  Biso   1.000  C
  C147     1.0000 0.34478  0.24967  0.79387  Biso   1.000  C
  H186     1.0000 0.35087  0.12810  0.77462  Biso   1.000  H
  H187     1.0000 0.31650  0.17971  0.73158  Biso   1.000  H
  H188     1.0000 0.36860  0.74785  0.88948  Biso   1.000  H
  H189     1.0000 0.32204  0.68613  0.86588  Biso   1.000  H
  C148     1.0000 0.40397  0.64627  0.85666  Biso   1.000  C
  C149     1.0000 0.15809  0.84779  0.81828  Biso   1.000  C
  C150     1.0000 0.21469  0.07753  0.77281  Biso   1.000  C
  C151     1.0000 0.33130  0.49043  0.44312  Biso   1.000  C
  C152     1.0000 0.23227  0.53386  0.46109  Biso   1.000  C
  H190     1.0000 0.28431  0.58086  0.40610  Biso   1.000  H
  C153     1.0000 0.13549  0.88243  0.52281  Biso   1.000  C
  C154     1.0000 0.14468  0.73810  0.51710  Biso   1.000  C
  H191     1.0000 0.42114  0.13598  0.47054  Biso   1.000  H
  H192     1.0000 0.44162  0.09104  0.52273  Biso   1.000  H
  C155     1.0000 0.45542  0.21514  0.52558  Biso   1.000  C
  C156     1.0000 0.36553  0.29437  0.52659  Biso   1.000  C
  H193     1.0000 0.29395  0.22168  0.52396  Biso   1.000  H
  H194     1.0000 0.32694  0.21938  0.47132  Biso   1.000  H
  H195     1.0000 0.44745  0.31750  0.77968  Biso   1.000  H
  H196     1.0000 0.48335  0.26699  0.82237  Biso   1.000  H
  C157     1.0000 0.39686  0.25475  0.82947  Biso   1.000  C
  H197     1.0000 0.31109  0.24107  0.81447  Biso   1.000  H
  H198     1.0000 0.33978  0.30127  0.77482  Biso   1.000  H
  H199     1.0000 0.44083  0.67299  0.85003  Biso   1.000  H
  C158     1.0000 0.40946  0.60248  0.90865  Biso   1.000  C
  C159     1.0000 0.39016  0.58704  0.81300  Biso   1.000  C
  C160     1.0000 0.12537  0.83144  0.76772  Biso   1.000  C
  H200     1.0000 0.15454  0.80036  0.84127  Biso   1.000  H
  H201     1.0000 0.14120  0.89497  0.83541  Biso   1.000  H
  H202     1.0000 0.23894  0.10297  0.80023  Biso   1.000  H
  H203     1.0000 0.23671  0.07293  0.74134  Biso   1.000  H
  C161     1.0000 0.16264  0.12901  0.76178  Biso   1.000  C
  C162     1.0000 0.30805  0.41769  0.41254  Biso   1.000  C
  H204     1.0000 0.36703  0.50842  0.42831  Biso   1.000  H
  H205     1.0000 0.33979  0.47383  0.47930  Biso   1.000  H
  C163     1.0000 0.20901  0.46148  0.43024  Biso   1.000  C
  H206     1.0000 0.20521  0.57935  0.45782  Biso   1.000  H
  H207     1.0000 0.23628  0.51890  0.49801  Biso   1.000  H
  O17      1.0000 0.15074  0.95706  0.50379  Biso   1.000  O
  C164     1.0000 0.09761  0.87262  0.56172  Biso   1.000  C
  C165     1.0000 0.10656  0.72859  0.55621  Biso   1.000  C
  H208     1.0000 0.16091  0.69158  0.50209  Biso   1.000  H
  H209     1.0000 0.49345  0.21326  0.51127  Biso   1.000  H
  H210     1.0000 0.46007  0.21599  0.56365  Biso   1.000  H
  C166     1.0000 0.42522  0.29182  0.50718  Biso   1.000  C
  H211     1.0000 0.36723  0.29740  0.56473  Biso   1.000  H
  H212     1.0000 0.34610  0.34361  0.51320  Biso   1.000  H
  H213     1.0000 0.39323  0.30115  0.85330  Biso   1.000  H
  H214     1.0000 0.40026  0.20472  0.85041  Biso   1.000  H
  H215     1.0000 0.37208  0.58141  0.91768  Biso   1.000  H
  H216     1.0000 0.42209  0.64155  0.93569  Biso   1.000  H
  C167     1.0000 0.45134  0.53271  0.90742  Biso   1.000  C
  C168     1.0000 0.43127  0.51575  0.81261  Biso   1.000  C
  H217     1.0000 0.35139  0.56614  0.81651  Biso   1.000  H
  H218     1.0000 0.39126  0.61605  0.77968  Biso   1.000  H
  C169     1.0000 0.09089  0.89043  0.74450  Biso   1.000  C
  C170     1.0000 0.12902  0.75597  0.74327  Biso   1.000  C
  H219     1.0000 0.13783  0.09988  0.73582  Biso   1.000  H
  C171     1.0000 0.12863  0.14373  0.80964  Biso   1.000  C
  C172     1.0000 0.17987  0.20993  0.73814  Biso   1.000  C
  C173     1.0000 0.25090  0.39128  0.43124  Biso   1.000  C
  H220     1.0000 0.33501  0.37208  0.41616  Biso   1.000  H
  H221     1.0000 0.30421  0.43210  0.37551  Biso   1.000  H
  H222     1.0000 0.20074  0.47826  0.39406  Biso   1.000  H
  H223     1.0000 0.17323  0.44343  0.44486  Biso   1.000  H
  C174     1.0000 0.12680  0.02641  0.52751  Biso   1.000  C
  C175     1.0000 0.08183  0.79606  0.57827  Biso   1.000  C
  H224     1.0000 0.08213  0.91914  0.57738  Biso   1.000  H
  O18      1.0000 0.09131  0.65518  0.57607  Biso   1.000  O
  H225     1.0000 0.44648  0.33985  0.52003  Biso   1.000  H
  H226     1.0000 0.42369  0.29352  0.46904  Biso   1.000  H
  H227     1.0000 0.45232  0.50424  0.94101  Biso   1.000  H
  H228     1.0000 0.48960  0.55427  0.90190  Biso   1.000  H
  C176     1.0000 0.43518  0.47341  0.86484  Biso   1.000  C
  H229     1.0000 0.46910  0.53555  0.80394  Biso   1.000  H
  H230     1.0000 0.41845  0.47656  0.78577  Biso   1.000  H
  C177     1.0000 0.06144  0.87614  0.69799  Biso   1.000  C
  H231     1.0000 0.08746  0.94161  0.76085  Biso   1.000  H
  C178     1.0000 0.10009  0.74246  0.69644  Biso   1.000  C
  O19      1.0000 0.16238  0.69861  0.76811  Biso   1.000  O
  H232     1.0000 0.15262  0.17171  0.83622  Biso   1.000  H
  H233     1.0000 0.11684  0.09110  0.82399  Biso   1.000  H
  C179     1.0000 0.07648  0.19503  0.79653  Biso   1.000  C
  C180     1.0000 0.12796  0.26148  0.72391  Biso   1.000  C
  H234     1.0000 0.20130  0.19964  0.70686  Biso   1.000  H
  H235     1.0000 0.20480  0.23979  0.76309  Biso   1.000  H
  H236     1.0000 0.23576  0.34694  0.40899  Biso   1.000  H
  H237     1.0000 0.25561  0.37014  0.46688  Biso   1.000  H
  H238     1.0000 0.08520  0.02102  0.52728  Biso   1.000  H
  H239     1.0000 0.14111  0.03053  0.56380  Biso   1.000  H
  C181     1.0000 0.14264  0.10200  0.49824  Biso   1.000  C
  C182     1.0000 0.03931  0.78734  0.61992  Biso   1.000  C
  C183     1.0000 0.10199  0.58334  0.54764  Biso   1.000  C
  H240     1.0000 0.46374  0.42974  0.86407  Biso   1.000  H
  H241     1.0000 0.39833  0.44846  0.87186  Biso   1.000  H
  C184     1.0000 0.06657  0.80212  0.67288  Biso   1.000  C
  O20      1.0000 0.02568  0.93137  0.67346  Biso   1.000  O
  H242     1.0000 0.10327  0.69122  0.68013  Biso   1.000  H
  C185     1.0000 0.16590  0.62132  0.74361  Biso   1.000  C
  H243     1.0000 0.05024  0.16390  0.77343  Biso   1.000  H
  H244     1.0000 0.05685  0.20709  0.82858  Biso   1.000  H
  C186     1.0000 0.09152  0.27480  0.77019  Biso   1.000  C
  H245     1.0000 0.10526  0.23422  0.69610  Biso   1.000  H
  H246     1.0000 0.14027  0.31454  0.71064  Biso   1.000  H
  H247     1.0000 0.18431  0.10139  0.49361  Biso   1.000  H
  C187     1.0000 0.11258  0.10509  0.44520  Biso   1.000  C
  C188     1.0000 0.12797  0.17698  0.52994  Biso   1.000  C
  H248     1.0000 0.02301  0.73210  0.61857  Biso   1.000  H
  H249     1.0000 0.00818  0.82653  0.61360  Biso   1.000  H
  H250     1.0000 0.08973  0.59043  0.51096  Biso   1.000  H
  H251     1.0000 0.14282  0.57050  0.54946  Biso   1.000  H
  C189     1.0000 0.06863  0.51569  0.57187  Biso   1.000  C
  C190     1.0000 0.02097  0.01018  0.69502  Biso   1.000  C
  H252     1.0000 0.12833  0.59509  0.74207  Biso   1.000  H
  H253     1.0000 0.17832  0.62810  0.70794  Biso   1.000  H
  C191     1.0000 0.20779  0.56881  0.77408  Biso   1.000  C
  H254     1.0000 0.11199  0.31024  0.79545  Biso   1.000  H
  H255     1.0000 0.05632  0.30291  0.75869  Biso   1.000  H
  H256     1.0000 0.07143  0.09903  0.44925  Biso   1.000  H
  H257     1.0000 0.12538  0.05899  0.42430  Biso   1.000  H
  C192     1.0000 0.12360  0.18377  0.41678  Biso   1.000  C
  C193     1.0000 0.13896  0.25584  0.50098  Biso   1.000  C
  H258     1.0000 0.15081  0.17662  0.56276  Biso   1.000  H
  H259     1.0000 0.08769  0.17456  0.53843  Biso   1.000  H
  H260     1.0000 0.07513  0.46517  0.55173  Biso   1.000  H
  C194     1.0000 0.00520  0.53253  0.56940  Biso   1.000  C
  C195     1.0000 0.08873  0.49970  0.62768  Biso   1.000  C
  C196     1.0000 0.98382  0.06039  0.65830  Biso   1.000  C
  H261     1.0000 0.00401  0.00697  0.72919  Biso   1.000  H
  H262     1.0000 0.05876  0.03531  0.69953  Biso   1.000  H
  H263     1.0000 0.24530  0.59661  0.77520  Biso   1.000  H
  C197     1.0000 0.19057  0.55482  0.82928  Biso   1.000  C
  C198     1.0000 0.21368  0.48801  0.74604  Biso   1.000  C
  H264     1.0000 0.10125  0.18437  0.38369  Biso   1.000  H
  H265     1.0000 0.16408  0.18692  0.40891  Biso   1.000  H
  C199     1.0000 0.10790  0.25681  0.44891  Biso   1.000  C
  H266     1.0000 0.18000  0.26166  0.49623  Biso   1.000  H
  H267     1.0000 0.12650  0.30236  0.52173  Biso   1.000  H
  H268     1.0000 0.99756  0.58274  0.58872  Biso   1.000  H
  H269     1.0000 0.99223  0.54101  0.53303  Biso   1.000  H
  C200     1.0000 0.97228  0.46245  0.59215  Biso   1.000  C
  C201     1.0000 0.05552  0.43065  0.65147  Biso   1.000  C
  H270     1.0000 0.12936  0.48571  0.62876  Biso   1.000  H
  H271     1.0000 0.08410  0.54955  0.64831  Biso   1.000  H
  H272     1.0000 0.94544  0.03513  0.65583  Biso   1.000  H
  C202     1.0000 0.97797  0.14646  0.67905  Biso   1.000  C
  C203     1.0000 0.00735  0.06202  0.60453  Biso   1.000  C
  H273     1.0000 0.18933  0.60751  0.84744  Biso   1.000  H
  H274     1.0000 0.15211  0.53131  0.82874  Biso   1.000  H
  C204     1.0000 0.23124  0.49818  0.85894  Biso   1.000  C
  C205     1.0000 0.25442  0.43101  0.77540  Biso   1.000  C
  H275     1.0000 0.22757  0.49800  0.71114  Biso   1.000  H
  H276     1.0000 0.17616  0.46190  0.74203  Biso   1.000  H
  H277     1.0000 0.06670  0.25663  0.45377  Biso   1.000  H
  H278     1.0000 0.11735  0.30709  0.43036  Biso   1.000  H
  H279     1.0000 0.97744  0.41308  0.57121  Biso   1.000  H
  H280     1.0000 0.93152  0.47571  0.59107  Biso   1.000  H
  C206     1.0000 0.99239  0.44646  0.64735  Biso   1.000  C
  H281     1.0000 0.06766  0.42447  0.68823  Biso   1.000  H
  H282     1.0000 0.06394  0.37935  0.63354  Biso   1.000  H
  H283     1.0000 0.95899  0.14446  0.71230  Biso   1.000  H
  C207     1.0000 0.94430  0.20139  0.64183  Biso   1.000  C
  H284     1.0000 0.01607  0.16978  0.68564  Biso   1.000  H
  C208     1.0000 0.97297  0.11654  0.56770  Biso   1.000  C
  H285     1.0000 0.04686  0.08147  0.60700  Biso   1.000  H
  H286     1.0000 0.00751  0.00624  0.59049  Biso   1.000  H
  H287     1.0000 0.21709  0.48795  0.89373  Biso   1.000  H
  H288     1.0000 0.26873  0.52447  0.86322  Biso   1.000  H
  C209     1.0000 0.23729  0.41805  0.83070  Biso   1.000  C
  H289     1.0000 0.29299  0.45409  0.77563  Biso   1.000  H
  H290     1.0000 0.25516  0.37820  0.75742  Biso   1.000  H
  H291     1.0000 0.98342  0.49382  0.66894  Biso   1.000  H
  H292     1.0000 0.97212  0.39897  0.66073  Biso   1.000  H
  H293     1.0000 0.94409  0.25712  0.65583  Biso   1.000  H
  H294     1.0000 0.90475  0.18219  0.63867  Biso   1.000  H
  C210     1.0000 0.96917  0.20242  0.58884  Biso   1.000  C
  H295     1.0000 0.99083  0.11787  0.53387  Biso   1.000  H
  H296     1.0000 0.93447  0.09400  0.56234  Biso   1.000  H
  H297     1.0000 0.26611  0.38437  0.84926  Biso   1.000  H
  H298     1.0000 0.20092  0.38855  0.83055  Biso   1.000  H
  H299     1.0000 0.94514  0.23580  0.56508  Biso   1.000  H
  H300     1.0000 0.00729  0.22695  0.59123  Biso   1.000  H
  C211     1.0000 0.60375  0.41042  0.71615  Biso   1.000  C
  C212     1.0000 0.66464  0.39431  0.70439  Biso   1.000  C
  H301     1.0000 0.59312  0.46590  0.70497  Biso   1.000  H
  H302     1.0000 0.57892  0.37159  0.69702  Biso   1.000  H
  C213     1.0000 0.59612  0.40157  0.77354  Biso   1.000  C
  C214     1.0000 0.68287  0.31805  0.68977  Biso   1.000  C
  C215     1.0000 0.70480  0.45542  0.71179  Biso   1.000  C
  C216     1.0000 0.59016  0.46881  0.80552  Biso   1.000  C
  C217     1.0000 0.59798  0.32483  0.79564  Biso   1.000  C
  O21      1.0000 0.64337  0.25615  0.68665  Biso   1.000  O
  C218     1.0000 0.73984  0.30388  0.68179  Biso   1.000  C
  H303     1.0000 0.69304  0.50775  0.72213  Biso   1.000  H
  C219     1.0000 0.76154  0.44125  0.70439  Biso   1.000  C
  O22      1.0000 0.58889  0.54306  0.78133  Biso   1.000  O
  C220     1.0000 0.58540  0.45851  0.85840  Biso   1.000  C
  C221     1.0000 0.59339  0.31460  0.84852  Biso   1.000  C
  H304     1.0000 0.60249  0.27868  0.77432  Biso   1.000  H
  C222     1.0000 0.64077  0.21133  0.63986  Biso   1.000  C
  C223     1.0000 0.77990  0.36445  0.68904  Biso   1.000  C
  H305     1.0000 0.75141  0.25167  0.67114  Biso   1.000  H
  O23      1.0000 0.80289  0.49909  0.71106  Biso   1.000  O
  C224     1.0000 0.59177  0.61478  0.81211  Biso   1.000  C
  C225     1.0000 0.58603  0.38141  0.88046  Biso   1.000  C
  H306     1.0000 0.58165  0.50472  0.87980  Biso   1.000  H
  O24      1.0000 0.59457  0.24004  0.87255  Biso   1.000  O
  C226     1.0000 0.59600  0.14627  0.64330  Biso   1.000  C
  H307     1.0000 0.63133  0.24785  0.61047  Biso   1.000  H
  H308     1.0000 0.67788  0.18613  0.63412  Biso   1.000  H
  C227     1.0000 0.84188  0.34779  0.68171  Biso   1.000  C
  C228     1.0000 0.78527  0.57753  0.72718  Biso   1.000  C
  H309     1.0000 0.55733  0.61993  0.83225  Biso   1.000  H
  H310     1.0000 0.62498  0.61266  0.83649  Biso   1.000  H
  C229     1.0000 0.59656  0.68649  0.77570  Biso   1.000  C
  C230     1.0000 0.57843  0.36972  0.93766  Biso   1.000  C
  C231     1.0000 0.59278  0.16953  0.84085  Biso   1.000  C
  C232     1.0000 0.59046  0.10248  0.59134  Biso   1.000  C
  H311     1.0000 0.55914  0.17299  0.64997  Biso   1.000  H
  C233     1.0000 0.60976  0.08704  0.68696  Biso   1.000  C
  C234     1.0000 0.87456  0.33144  0.73227  Biso   1.000  C
  H312     1.0000 0.84538  0.30036  0.65872  Biso   1.000  H
  H313     1.0000 0.85877  0.39497  0.66455  Biso   1.000  H
  H314     1.0000 0.76099  0.60297  0.69972  Biso   1.000  H
  H315     1.0000 0.76321  0.57293  0.75862  Biso   1.000  H
  C235     1.0000 0.83728  0.62907  0.73818  Biso   1.000  C
  H316     1.0000 0.60007  0.73658  0.79726  Biso   1.000  H
  C236     1.0000 0.54434  0.69594  0.73983  Biso   1.000  C
  C237     1.0000 0.64980  0.68007  0.74442  Biso   1.000  C
  H317     1.0000 0.55407  0.32193  0.94279  Biso   1.000  H
  H318     1.0000 0.55906  0.41769  0.95146  Biso   1.000  H
  C238     1.0000 0.63408  0.35772  0.96739  Biso   1.000  C
  H319     1.0000 0.56321  0.17547  0.81300  Biso   1.000  H
  H320     1.0000 0.62955  0.16172  0.82484  Biso   1.000  H
  C239     1.0000 0.57976  0.09721  0.87444  Biso   1.000  C
  C240     1.0000 0.54859  0.03271  0.59258  Biso   1.000  C
  H321     1.0000 0.62789  0.08141  0.58232  Biso   1.000  H
  H322     1.0000 0.57788  0.14155  0.56427  Biso   1.000  H
  C241     1.0000 0.56869  0.01575  0.68734  Biso   1.000  C
  H323     1.0000 0.64858  0.06614  0.68348  Biso   1.000  H
  H324     1.0000 0.60871  0.11599  0.72032  Biso   1.000  H
  C242     1.0000 0.87091  0.25597  0.75673  Biso   1.000  C
  C243     1.0000 0.90903  0.39043  0.75545  Biso   1.000  C
  H325     1.0000 0.86214  0.59988  0.76417  Biso   1.000  H
  C244     1.0000 0.87130  0.64373  0.69035  Biso   1.000  C
  C245     1.0000 0.82006  0.70993  0.76186  Biso   1.000  C
  H326     1.0000 0.53773  0.64482  0.72059  Biso   1.000  H
  H327     1.0000 0.51108  0.70606  0.76074  Biso   1.000  H
  C246     1.0000 0.55031  0.76541  0.70142  Biso   1.000  C
  C247     1.0000 0.65514  0.74967  0.70612  Biso   1.000  C
  H328     1.0000 0.64906  0.62810  0.72537  Biso   1.000  H
  H329     1.0000 0.68342  0.67971  0.76841  Biso   1.000  H
  C248     1.0000 0.66809  0.42429  0.98043  Biso   1.000  C
  C249     1.0000 0.65241  0.28098  0.98270  Biso   1.000  C
  H330     1.0000 0.61126  0.09055  0.90094  Biso   1.000  H
  C250     1.0000 0.52442  0.10896  0.90236  Biso   1.000  C
  C251     1.0000 0.57611  0.02108  0.84158  Biso   1.000  C
  H331     1.0000 0.54760  0.00424  0.55898  Biso   1.000  H
  H332     1.0000 0.51037  0.05427  0.59809  Biso   1.000  H
  C252     1.0000 0.56475  0.97341  0.63516  Biso   1.000  C
  H333     1.0000 0.53083  0.03555  0.69606  Biso   1.000  H
  H334     1.0000 0.58148  0.97656  0.71422  Biso   1.000  H
  O25      1.0000 0.83755  0.19861  0.73189  Biso   1.000  O
  C253     1.0000 0.89983  0.24246  0.80355  Biso   1.000  C
  H335     1.0000 0.91250  0.44161  0.73914  Biso   1.000  H
  C254     1.0000 0.93849  0.37614  0.80201  Biso   1.000  C
  H336     1.0000 0.84734  0.67171  0.66374  Biso   1.000  H
  H337     1.0000 0.88309  0.59110  0.67600  Biso   1.000  H
  C255     1.0000 0.92344  0.69509  0.70346  Biso   1.000  C
  C256     1.0000 0.87196  0.76148  0.77609  Biso   1.000  C
  H338     1.0000 0.79862  0.69964  0.79314  Biso   1.000  H
  H339     1.0000 0.79517  0.73979  0.73686  Biso   1.000  H
  H340     1.0000 0.55248  0.81750  0.72028  Biso   1.000  H
  H341     1.0000 0.51657  0.76705  0.67758  Biso   1.000  H
  C257     1.0000 0.60310  0.75475  0.67049  Biso   1.000  C
  H342     1.0000 0.68888  0.74107  0.68553  Biso   1.000  H
  H343     1.0000 0.66015  0.80127  0.72518  Biso   1.000  H
  O26      1.0000 0.64649  0.49891  0.96670  Biso   1.000  O
  C258     1.0000 0.72041  0.41339  0.00565  Biso   1.000  C
  H344     1.0000 0.62931  0.23525  0.97480  Biso   1.000  H
  C259     1.0000 0.70413  0.27008  0.00947  Biso   1.000  C
  H345     1.0000 0.49355  0.12059  0.87652  Biso   1.000  H
  H346     1.0000 0.52831  0.15645  0.92554  Biso   1.000  H
  C260     1.0000 0.50852  0.03519  0.93384  Biso   1.000  C
  H347     1.0000 0.54870  0.02986  0.81227  Biso   1.000  H
  H348     1.0000 0.61343  0.01012  0.82731  Biso   1.000  H
  C261     1.0000 0.55740  0.94615  0.87332  Biso   1.000  C
  H349     1.0000 0.53618  0.92974  0.63589  Biso   1.000  H
  H350     1.0000 0.60159  0.94846  0.62810  Biso   1.000  H
  C262     1.0000 0.83402  0.12132  0.75638  Biso   1.000  C
  C263     1.0000 0.93339  0.30212  0.82712  Biso   1.000  C
  H351     1.0000 0.89666  0.19122  0.81987  Biso   1.000  H
  O27      1.0000 0.97429  0.43137  0.82654  Biso   1.000  O
  H352     1.0000 0.94968  0.66390  0.72653  Biso   1.000  H
  H353     1.0000 0.94307  0.70709  0.67137  Biso   1.000  H
  C264     1.0000 0.90841  0.77486  0.72981  Biso   1.000  C
  H354     1.0000 0.89470  0.73422  0.80386  Biso   1.000  H
  H355     1.0000 0.85966  0.81454  0.78936  Biso   1.000  H
  H356     1.0000 0.60674  0.80115  0.64669  Biso   1.000  H
  H357     1.0000 0.59966  0.70472  0.64958  Biso   1.000  H
  C265     1.0000 0.67220  0.56881  0.99019  Biso   1.000  C
  C266     1.0000 0.73953  0.33622  0.01969  Biso   1.000  C
  H358     1.0000 0.74346  0.45912  0.01348  Biso   1.000  H
  O28      1.0000 0.72379  0.19631  0.02702  Biso   1.000  O
  H359     1.0000 0.47223  0.04531  0.95019  Biso   1.000  H
  H360     1.0000 0.53780  0.02580  0.96153  Biso   1.000  H
  C267     1.0000 0.50329  0.96196  0.90051  Biso   1.000  C
  H361     1.0000 0.58768  0.93222  0.89920  Biso   1.000  H
  H362     1.0000 0.55190  0.89927  0.84991  Biso   1.000  H
  H363     1.0000 0.87160  0.09503  0.75792  Biso   1.000  H
  H364     1.0000 0.82160  0.12810  0.79206  Biso   1.000  H
  C268     1.0000 0.79218  0.06881  0.72591  Biso   1.000  C
  C269     1.0000 0.96065  0.28734  0.88003  Biso   1.000  C
  C270     1.0000 0.97895  0.51018  0.80498  Biso   1.000  C
  H365     1.0000 0.88793  0.81024  0.70454  Biso   1.000  H
  H366     1.0000 0.94361  0.80297  0.74130  Biso   1.000  H
  H367     1.0000 0.71162  0.57420  0.97958  Biso   1.000  H
  C271     1.0000 0.63799  0.64222  0.97275  Biso   1.000  C
  H368     1.0000 0.67255  0.56390  0.02822  Biso   1.000  H
  C272     1.0000 0.79892  0.32477  0.04272  Biso   1.000  C
  C273     1.0000 0.68531  0.12962  0.02509  Biso   1.000  C
  H369     1.0000 0.49427  0.91448  0.92192  Biso   1.000  H
  H370     1.0000 0.47190  0.96965  0.87460  Biso   1.000  H
  H371     1.0000 0.75466  0.09661  0.72475  Biso   1.000  H
  C274     1.0000 0.80940  0.05482  0.67072  Biso   1.000  C
  C275     1.0000 0.78624  0.98801  0.75395  Biso   1.000  C
  C276     1.0000 0.91810  0.29606  0.92173  Biso   1.000  C
  H372     1.0000 0.97692  0.23210  0.88142  Biso   1.000  H
  H373     1.0000 0.99174  0.32653  0.88640  Biso   1.000  H
  H374     1.0000 0.99596  0.50697  0.77081  Biso   1.000  H
  H375     1.0000 0.94116  0.53531  0.80047  Biso   1.000  H
  C277     1.0000 0.01615  0.56039  0.84170  Biso   1.000  C
  H376     1.0000 0.63581  0.64240  0.93418  Biso   1.000  H
  C278     1.0000 0.57772  0.63985  0.99134  Biso   1.000  C
  C279     1.0000 0.66808  0.71962  0.99057  Biso   1.000  C
  C280     1.0000 0.84068  0.31478  0.00021  Biso   1.000  C
  H377     1.0000 0.80960  0.37226  0.06420  Biso   1.000  H
  H378     1.0000 0.80007  0.27620  0.06513  Biso   1.000  H
  H379     1.0000 0.67873  0.11139  0.98899  Biso   1.000  H
  H380     1.0000 0.64859  0.14634  0.03859  Biso   1.000  H
  C281     1.0000 0.71038  0.06124  0.05757  Biso   1.000  C
  H381     1.0000 0.81060  0.10751  0.65255  Biso   1.000  H
  H382     1.0000 0.84781  0.03125  0.67126  Biso   1.000  H
  C282     1.0000 0.76869  0.99818  0.64102  Biso   1.000  C
  C283     1.0000 0.74550  0.93101  0.72460  Biso   1.000  C
  H383     1.0000 0.77235  0.99800  0.78882  Biso   1.000  H
  H384     1.0000 0.82380  0.96190  0.75796  Biso   1.000  H
  C284     1.0000 0.89341  0.22859  0.94375  Biso   1.000  C
  C285     1.0000 0.90236  0.37262  0.93827  Biso   1.000  C
  C286     1.0000 0.99257  0.56202  0.89542  Biso   1.000  C
  H385     1.0000 0.05448  0.53513  0.84416  Biso   1.000  H
  C287     1.0000 0.02195  0.64646  0.82095  Biso   1.000  C
  H386     1.0000 0.55830  0.59104  0.97727  Biso   1.000  H
  C288     1.0000 0.54455  0.71514  0.97441  Biso   1.000  C
  H387     1.0000 0.57886  0.63604  0.02941  Biso   1.000  H
  C289     1.0000 0.63444  0.79437  0.97341  Biso   1.000  C
  H388     1.0000 0.70602  0.72168  0.97603  Biso   1.000  H
  H389     1.0000 0.67307  0.71938  0.02864  Biso   1.000  H
  C290     1.0000 0.85525  0.23810  0.98290  Biso   1.000  C
  C291     1.0000 0.86448  0.38243  0.97719  Biso   1.000  C
  C292     1.0000 0.66866  0.99049  0.05683  Biso   1.000  C
  H390     1.0000 0.71570  0.08086  0.09390  Biso   1.000  H
  C293     1.0000 0.76770  0.03386  0.03890  Biso   1.000  C
  H391     1.0000 0.73124  0.02447  0.63678  Biso   1.000  H
  H392     1.0000 0.78283  0.98795  0.60627  Biso   1.000  H
  C294     1.0000 0.76263  0.91811  0.66925  Biso   1.000  C
  H393     1.0000 0.70693  0.95409  0.72433  Biso   1.000  H
  H394     1.0000 0.74480  0.87820  0.74253  Biso   1.000  H
  O29      1.0000 0.90862  0.15518  0.92393  Biso   1.000  O
  H395     1.0000 0.91784  0.41914  0.92261  Biso   1.000  H
  H396     1.0000 0.95306  0.58147  0.89299  Biso   1.000  H
  H397     1.0000 0.99242  0.50630  0.90950  Biso   1.000  H
  C295     1.0000 0.02695  0.61654  0.93229  Biso   1.000  C
  H398     1.0000 0.98390  0.66978  0.81435  Biso   1.000  H
  H399     1.0000 0.04094  0.64446  0.78770  Biso   1.000  H
  C296     1.0000 0.05563  0.70139  0.85816  Biso   1.000  C
  H400     1.0000 0.50647  0.71326  0.98872  Biso   1.000  H
  H401     1.0000 0.53990  0.71599  0.93634  Biso   1.000  H
  C297     1.0000 0.57475  0.79182  0.99281  Biso   1.000  C
  H402     1.0000 0.63270  0.79740  0.93526  Biso   1.000  H
  H403     1.0000 0.65382  0.84361  0.98679  Biso   1.000  H
  H404     1.0000 0.83906  0.19158  0.99790  Biso   1.000  H
  O30      1.0000 0.84923  0.45706  0.99620  Biso   1.000  O
  C298     1.0000 0.69191  0.91769  0.08746  Biso   1.000  C
  H405     1.0000 0.66018  0.97383  0.02070  Biso   1.000  H
  H406     1.0000 0.63293  0.00842  0.07165  Biso   1.000  H
  C299     1.0000 0.79096  0.96148  0.06976  Biso   1.000  C
  H407     1.0000 0.79480  0.07935  0.04218  Biso   1.000  H
  H408     1.0000 0.76373  0.01890  0.00199  Biso   1.000  H
  H409     1.0000 0.73382  0.88437  0.65074  Biso   1.000  H
  H410     1.0000 0.79901  0.88855  0.66945  Biso   1.000  H
  C300     1.0000 0.89794  0.08334  0.95235  Biso   1.000  C
  C301     1.0000 0.03080  0.70242  0.91116  Biso   1.000  C
  H411     1.0000 0.00913  0.61787  0.96608  Biso   1.000  H
  H412     1.0000 0.06546  0.59400  0.93766  Biso   1.000  H
  H413     1.0000 0.05583  0.75712  0.84416  Biso   1.000  H
  H414     1.0000 0.09517  0.68219  0.86133  Biso   1.000  H
  H415     1.0000 0.55345  0.83985  0.97997  Biso   1.000  H
  H416     1.0000 0.57632  0.79358  0.03095  Biso   1.000  H
  C302     1.0000 0.87312  0.52641  0.97248  Biso   1.000  C
  C303     1.0000 0.74910  0.89128  0.06871  Biso   1.000  C
  H417     1.0000 0.66496  0.87208  0.08383  Biso   1.000  H
  H418     1.0000 0.69579  0.93210  0.12445  Biso   1.000  H
  H419     1.0000 0.79923  0.97826  0.10589  Biso   1.000  H
  H420     1.0000 0.82678  0.94343  0.05514  Biso   1.000  H
  H421     1.0000 0.91020  0.09043  0.98899  Biso   1.000  H
  H422     1.0000 0.85715  0.07050  0.95054  Biso   1.000  H
  C304     1.0000 0.93134  0.01569  0.92813  Biso   1.000  C
  H423     1.0000 0.99268  0.72695  0.90877  Biso   1.000  H
  H424     1.0000 0.05483  0.73580  0.93492  Biso   1.000  H
  H425     1.0000 0.91473  0.52102  0.97272  Biso   1.000  H
  H426     1.0000 0.85885  0.53053  0.93619  Biso   1.000  H
  C305     1.0000 0.85737  0.60200  0.00176  Biso   1.000  C
  H427     1.0000 0.76425  0.84694  0.09101  Biso   1.000  H
  H428     1.0000 0.74440  0.87014  0.03311  Biso   1.000  H
  C306     1.0000 0.99477  0.03253  0.93060  Biso   1.000  C
  H429     1.0000 0.92483  0.96517  0.94826  Biso   1.000  H
  C307     1.0000 0.91120  0.99970  0.87228  Biso   1.000  C
  C308     1.0000 0.87196  0.67698  0.97005  Biso   1.000  C
  H430     1.0000 0.81570  0.60139  0.00639  Biso   1.000  H
  C309     1.0000 0.88742  0.60509  0.05475  Biso   1.000  C
  C310     1.0000 0.02769  0.96245  0.90784  Biso   1.000  C
  H431     1.0000 0.00241  0.08274  0.91124  Biso   1.000  H
  H432     1.0000 0.00774  0.04094  0.96693  Biso   1.000  H
  H433     1.0000 0.91583  0.04955  0.85168  Biso   1.000  H
  C311     1.0000 0.94441  0.93065  0.84852  Biso   1.000  C
  H434     1.0000 0.87057  0.98571  0.87124  Biso   1.000  H
  C312     1.0000 0.86096  0.75584  0.99902  Biso   1.000  C
  H435     1.0000 0.84911  0.67662  0.93723  Biso   1.000  H
  H436     1.0000 0.91228  0.67456  0.96157  Biso   1.000  H
  H437     1.0000 0.92854  0.59903  0.05074  Biso   1.000  H
  H438     1.0000 0.87463  0.55899  0.07569  Biso   1.000  H
  C313     1.0000 0.87636  0.68377  0.08322  Biso   1.000  C
  H439     1.0000 0.02249  0.91308  0.92878  Biso   1.000  H
  H440     1.0000 0.06845  0.97571  0.90892  Biso   1.000  H
  C314     1.0000 0.00754  0.94646  0.85261  Biso   1.000  C
  H441     1.0000 0.93227  0.92447  0.81177  Biso   1.000  H
  H442     1.0000 0.93603  0.87935  0.86646  Biso   1.000  H
  H443     1.0000 0.87343  0.80236  0.97827  Biso   1.000  H
  C315     1.0000 0.89206  0.75681  0.05105  Biso   1.000  C
  H444     1.0000 0.82001  0.76166  0.00376  Biso   1.000  H
  H445     1.0000 0.89875  0.68437  0.11627  Biso   1.000  H
  H446     1.0000 0.83593  0.68692  0.09108  Biso   1.000  H
  H447     1.0000 0.01655  0.99382  0.83105  Biso   1.000  H
  H448     1.0000 0.02785  0.89897  0.83927  Biso   1.000  H
  H449     1.0000 0.93327  0.75663  0.04619  Biso   1.000  H
  H450     1.0000 0.88262  0.80709  0.06964  Biso   1.000  H
  C316     1.0000 0.39621  0.58958  0.28383  Biso   1.000  C
  C317     1.0000 0.33532  0.60569  0.29559  Biso   1.000  C
  H451     1.0000 0.40684  0.53410  0.29502  Biso   1.000  H
  H452     1.0000 0.42105  0.62841  0.30300  Biso   1.000  H
  C318     1.0000 0.40384  0.59843  0.22644  Biso   1.000  C
  C319     1.0000 0.29516  0.54458  0.28819  Biso   1.000  C
  C320     1.0000 0.31710  0.68195  0.31025  Biso   1.000  C
  C321     1.0000 0.40981  0.53119  0.19447  Biso   1.000  C
  C322     1.0000 0.40199  0.67523  0.20434  Biso   1.000  C
  C323     1.0000 0.23843  0.55875  0.29559  Biso   1.000  C
  H453     1.0000 0.30693  0.49225  0.27789  Biso   1.000  H
  C324     1.0000 0.26013  0.69612  0.31820  Biso   1.000  C
  O31      1.0000 0.35659  0.74385  0.31334  Biso   1.000  O
  O32      1.0000 0.41108  0.45694  0.21865  Biso   1.000  O
  C325     1.0000 0.41456  0.54149  0.14159  Biso   1.000  C
  C326     1.0000 0.40658  0.68540  0.15146  Biso   1.000  C
  H454     1.0000 0.39748  0.72132  0.22567  Biso   1.000  H
  O33      1.0000 0.19707  0.50091  0.28892  Biso   1.000  O
  C327     1.0000 0.22006  0.63555  0.31094  Biso   1.000  C
  H455     1.0000 0.24855  0.74833  0.32884  Biso   1.000  H
  C328     1.0000 0.35920  0.78867  0.36016  Biso   1.000  C
  C329     1.0000 0.40820  0.38522  0.18787  Biso   1.000  C
  C330     1.0000 0.41394  0.61859  0.11953  Biso   1.000  C
  H456     1.0000 0.41831  0.49534  0.12018  Biso   1.000  H
  O34      1.0000 0.40540  0.75996  0.12743  Biso   1.000  O
  C331     1.0000 0.21469  0.42247  0.27280  Biso   1.000  C
  C332     1.0000 0.15809  0.65221  0.31827  Biso   1.000  C
  H457     1.0000 0.36864  0.75215  0.38951  Biso   1.000  H
  H458     1.0000 0.32208  0.81387  0.36591  Biso   1.000  H
  C333     1.0000 0.40396  0.85373  0.35669  Biso   1.000  C
  H459     1.0000 0.44263  0.38007  0.16774  Biso   1.000  H
  H460     1.0000 0.37498  0.38734  0.16349  Biso   1.000  H
  C334     1.0000 0.40340  0.31351  0.22428  Biso   1.000  C
  C335     1.0000 0.42153  0.63035  0.06233  Biso   1.000  C
  C336     1.0000 0.40718  0.83053  0.15914  Biso   1.000  C
  C337     1.0000 0.16268  0.37099  0.26181  Biso   1.000  C
  H461     1.0000 0.23898  0.39703  0.30026  Biso   1.000  H
  H462     1.0000 0.23675  0.42707  0.24137  Biso   1.000  H
  C338     1.0000 0.12540  0.66856  0.26771  Biso   1.000  C
  H463     1.0000 0.15458  0.69964  0.34126  Biso   1.000  H
  H464     1.0000 0.14119  0.60503  0.33544  Biso   1.000  H
  H465     1.0000 0.44083  0.82701  0.35002  Biso   1.000  H
  C339     1.0000 0.40950  0.89752  0.40864  Biso   1.000  C
  C340     1.0000 0.39020  0.91296  0.31303  Biso   1.000  C
  H466     1.0000 0.39989  0.26342  0.20272  Biso   1.000  H
  C341     1.0000 0.45562  0.30406  0.26015  Biso   1.000  C
  C342     1.0000 0.35016  0.31993  0.25556  Biso   1.000  C
  H467     1.0000 0.44589  0.67813  0.05720  Biso   1.000  H
  H468     1.0000 0.44090  0.58237  0.04856  Biso   1.000  H
  C343     1.0000 0.36588  0.64228  0.03259  Biso   1.000  C
  H469     1.0000 0.43676  0.82453  0.18698  Biso   1.000  H
  H470     1.0000 0.37041  0.83828  0.17518  Biso   1.000  H
  C344     1.0000 0.42020  0.90279  0.12554  Biso   1.000  C
  C345     1.0000 0.17991  0.29007  0.23813  Biso   1.000  C
  H471     1.0000 0.13783  0.40012  0.23581  Biso   1.000  H
  C346     1.0000 0.12867  0.35627  0.30963  Biso   1.000  C
  C347     1.0000 0.12905  0.74403  0.24326  Biso   1.000  C
  C348     1.0000 0.09094  0.60957  0.24453  Biso   1.000  C
  H472     1.0000 0.37207  0.91859  0.41767  Biso   1.000  H
  H473     1.0000 0.42208  0.85851  0.43572  Biso   1.000  H
  C349     1.0000 0.45133  0.96729  0.40741  Biso   1.000  C
  C350     1.0000 0.43127  0.98425  0.31264  Biso   1.000  C
  H474     1.0000 0.35138  0.93386  0.31650  Biso   1.000  H
  H475     1.0000 0.39125  0.88401  0.27967  Biso   1.000  H
  H476     1.0000 0.46224  0.35518  0.27940  Biso   1.000  H
  H477     1.0000 0.48888  0.29394  0.23924  Biso   1.000  H
  C351     1.0000 0.44966  0.23459  0.29856  Biso   1.000  C
  C352     1.0000 0.34482  0.25033  0.29386  Biso   1.000  C
  H478     1.0000 0.35090  0.37190  0.27461  Biso   1.000  H
  H479     1.0000 0.31654  0.32029  0.23157  Biso   1.000  H
  C353     1.0000 0.33188  0.57571  0.01955  Biso   1.000  C
  C354     1.0000 0.34755  0.71902  0.01728  Biso   1.000  C
  H480     1.0000 0.38870  0.90945  0.09908  Biso   1.000  H
  C355     1.0000 0.47554  0.89104  0.09766  Biso   1.000  C
  C356     1.0000 0.42385  0.97892  0.15840  Biso   1.000  C
  C357     1.0000 0.12800  0.23852  0.22389  Biso   1.000  C
  H481     1.0000 0.20134  0.30036  0.20685  Biso   1.000  H
  H482     1.0000 0.20480  0.26021  0.26312  Biso   1.000  H
  H483     1.0000 0.15262  0.32835  0.33625  Biso   1.000  H
  H484     1.0000 0.11688  0.40890  0.32398  Biso   1.000  H
  C358     1.0000 0.07652  0.30497  0.29652  Biso   1.000  C
  O35      1.0000 0.16242  0.80145  0.26809  Biso   1.000  O
  C359     1.0000 0.10013  0.75760  0.19647  Biso   1.000  C
  H485     1.0000 0.08746  0.55845  0.26084  Biso   1.000  H
  C360     1.0000 0.06143  0.62386  0.19798  Biso   1.000  C
  H486     1.0000 0.45236  0.99576  0.44100  Biso   1.000  H
  H487     1.0000 0.48960  0.94573  0.40189  Biso   1.000  H
  C361     1.0000 0.43522  0.02659  0.36483  Biso   1.000  C
  H488     1.0000 0.46914  0.96445  0.30393  Biso   1.000  H
  H489     1.0000 0.41849  0.02344  0.28576  Biso   1.000  H
  H490     1.0000 0.44749  0.18250  0.27970  Biso   1.000  H
  H491     1.0000 0.48335  0.23301  0.32240  Biso   1.000  H
  C362     1.0000 0.39686  0.24525  0.32950  Biso   1.000  C
  H492     1.0000 0.31109  0.25893  0.31445  Biso   1.000  H
  H493     1.0000 0.33982  0.19873  0.27481  Biso   1.000  H
  O36      1.0000 0.35347  0.50109  0.03332  Biso   1.000  O
  C363     1.0000 0.27956  0.58667  0.99433  Biso   1.000  C
  H494     1.0000 0.37065  0.76475  0.02519  Biso   1.000  H
  C364     1.0000 0.29583  0.72992  0.99051  Biso   1.000  C
  H495     1.0000 0.50642  0.87941  0.12346  Biso   1.000  H
  H496     1.0000 0.47165  0.84355  0.07444  Biso   1.000  H
  C365     1.0000 0.49144  0.96481  0.06615  Biso   1.000  C
  H497     1.0000 0.45126  0.97014  0.18772  Biso   1.000  H
  H498     1.0000 0.38654  0.98988  0.17267  Biso   1.000  H
  C366     1.0000 0.44257  0.05385  0.12666  Biso   1.000  C
  C367     1.0000 0.09156  0.22520  0.27022  Biso   1.000  C
  H499     1.0000 0.10526  0.26578  0.19612  Biso   1.000  H
  H500     1.0000 0.14030  0.18546  0.21063  Biso   1.000  H
  H501     1.0000 0.05028  0.33610  0.27346  Biso   1.000  H
  H502     1.0000 0.05689  0.29291  0.32861  Biso   1.000  H
  C368     1.0000 0.16594  0.87868  0.24360  Biso   1.000  C
  C369     1.0000 0.06657  0.69794  0.17291  Biso   1.000  C
  H503     1.0000 0.10331  0.80878  0.18012  Biso   1.000  H
  O37      1.0000 0.02568  0.56869  0.17345  Biso   1.000  O
  H504     1.0000 0.46378  0.07026  0.36409  Biso   1.000  H
  H505     1.0000 0.39837  0.05154  0.37188  Biso   1.000  H
  H506     1.0000 0.39322  0.19885  0.35329  Biso   1.000  H
  H507     1.0000 0.40030  0.29528  0.35040  Biso   1.000  H
  C370     1.0000 0.32776  0.43119  0.00980  Biso   1.000  C
  C371     1.0000 0.26044  0.66378  0.98033  Biso   1.000  C
  H508     1.0000 0.25650  0.54088  0.98654  Biso   1.000  H
  O38      1.0000 0.27618  0.80369  0.97296  Biso   1.000  O
  H509     1.0000 0.52773  0.95469  0.04979  Biso   1.000  H
  H510     1.0000 0.46216  0.97420  0.03845  Biso   1.000  H
  C372     1.0000 0.49667  0.03804  0.09947  Biso   1.000  C
  H511     1.0000 0.41228  0.06784  0.10078  Biso   1.000  H
  H512     1.0000 0.44807  0.10079  0.15007  Biso   1.000  H
  H513     1.0000 0.11203  0.18976  0.29544  Biso   1.000  H
  H514     1.0000 0.05631  0.19709  0.25868  Biso   1.000  H
  H515     1.0000 0.12837  0.90497  0.24206  Biso   1.000  H
  H516     1.0000 0.17836  0.87190  0.20793  Biso   1.000  H
  C373     1.0000 0.20779  0.93119  0.27411  Biso   1.000  C
  C374     1.0000 0.03931  0.71272  0.11995  Biso   1.000  C
  C375     1.0000 0.02101  0.48982  0.19504  Biso   1.000  C
  H517     1.0000 0.28834  0.42580  0.02040  Biso   1.000  H
  C376     1.0000 0.36197  0.35778  0.02723  Biso   1.000  C
  H518     1.0000 0.32742  0.43616  0.97177  Biso   1.000  H
  C377     1.0000 0.20105  0.67529  0.95730  Biso   1.000  C
  C378     1.0000 0.31465  0.87038  0.97489  Biso   1.000  C
  H519     1.0000 0.50569  0.08558  0.07806  Biso   1.000  H
  H520     1.0000 0.52806  0.03035  0.12539  Biso   1.000  H
  H521     1.0000 0.24530  0.90339  0.27523  Biso   1.000  H
  C379     1.0000 0.19057  0.94518  0.32930  Biso   1.000  C
  C380     1.0000 0.21372  0.01199  0.24603  Biso   1.000  C
  C381     1.0000 0.08187  0.70394  0.07826  Biso   1.000  C
  H522     1.0000 0.02305  0.76790  0.11856  Biso   1.000  H
  H523     1.0000 0.00822  0.67347  0.11359  Biso   1.000  H
  H524     1.0000 0.00401  0.49303  0.22918  Biso   1.000  H
  H525     1.0000 0.05880  0.46469  0.19952  Biso   1.000  H
  C382     1.0000 0.98381  0.43961  0.15829  Biso   1.000  C
  H526     1.0000 0.36415  0.35766  0.06580  Biso   1.000  H
  C383     1.0000 0.42225  0.36015  0.00868  Biso   1.000  C
  C384     1.0000 0.33188  0.28038  0.00941  Biso   1.000  C
  C385     1.0000 0.15928  0.68522  0.99977  Biso   1.000  C
  H527     1.0000 0.19036  0.62774  0.93578  Biso   1.000  H
  H528     1.0000 0.19990  0.72380  0.93490  Biso   1.000  H
  H529     1.0000 0.32119  0.88861  0.01099  Biso   1.000  H
  H530     1.0000 0.35137  0.85366  0.96143  Biso   1.000  H
  C386     1.0000 0.28959  0.93876  0.94245  Biso   1.000  C
  H531     1.0000 0.18937  0.89249  0.34743  Biso   1.000  H
  H532     1.0000 0.15215  0.96875  0.32873  Biso   1.000  H
  C387     1.0000 0.23128  0.00182  0.35896  Biso   1.000  C
  C388     1.0000 0.25446  0.06899  0.27542  Biso   1.000  C
  H533     1.0000 0.22761  0.00200  0.21117  Biso   1.000  H
  H534     1.0000 0.17616  0.03810  0.24202  Biso   1.000  H
  C389     1.0000 0.10655  0.77141  0.05623  Biso   1.000  C
  C390     1.0000 0.09761  0.62744  0.06171  Biso   1.000  C
  C391     1.0000 0.00735  0.43798  0.10456  Biso   1.000  C
  H535     1.0000 0.94548  0.46487  0.15582  Biso   1.000  H
  C392     1.0000 0.97801  0.35360  0.17908  Biso   1.000  C
  H536     1.0000 0.44166  0.40896  0.02272  Biso   1.000  H
  C393     1.0000 0.45542  0.28486  0.02557  Biso   1.000  C
  H537     1.0000 0.42110  0.36402  0.97057  Biso   1.000  H
  C394     1.0000 0.36552  0.20563  0.02657  Biso   1.000  C
  H538     1.0000 0.29394  0.27832  0.02395  Biso   1.000  H
  H539     1.0000 0.32689  0.28062  0.97134  Biso   1.000  H
  C395     1.0000 0.14472  0.76190  0.01709  Biso   1.000  C
  C396     1.0000 0.13548  0.61757  0.02279  Biso   1.000  C
  H540     1.0000 0.28426  0.91920  0.90608  Biso   1.000  H
  C397     1.0000 0.23227  0.96614  0.96108  Biso   1.000  C
  C398     1.0000 0.33130  0.00957  0.94315  Biso   1.000  C
  H541     1.0000 0.26872  0.97553  0.36321  Biso   1.000  H
  H542     1.0000 0.21713  0.01205  0.39371  Biso   1.000  H
  C399     1.0000 0.23729  0.08195  0.33073  Biso   1.000  C
  H543     1.0000 0.29303  0.04591  0.27565  Biso   1.000  H
  H544     1.0000 0.25516  0.12187  0.25745  Biso   1.000  H
  O39      1.0000 0.09134  0.84482  0.07606  Biso   1.000  O
  H545     1.0000 0.08212  0.58086  0.07737  Biso   1.000  H
  H546     1.0000 0.04690  0.41853  0.10703  Biso   1.000  H
  H547     1.0000 0.00755  0.49376  0.09048  Biso   1.000  H
  C400     1.0000 0.97297  0.38346  0.06773  Biso   1.000  C
  H548     1.0000 0.01607  0.33028  0.18563  Biso   1.000  H
  H549     1.0000 0.95903  0.35554  0.21232  Biso   1.000  H
  C401     1.0000 0.94434  0.29861  0.14182  Biso   1.000  C
  H550     1.0000 0.49345  0.28674  0.01126  Biso   1.000  H
  H551     1.0000 0.46007  0.28401  0.06368  Biso   1.000  H
  C402     1.0000 0.42522  0.20818  0.00721  Biso   1.000  C
  H552     1.0000 0.36727  0.20267  0.06472  Biso   1.000  H
  H553     1.0000 0.34614  0.15639  0.01319  Biso   1.000  H
  H554     1.0000 0.16091  0.80848  0.00208  Biso   1.000  H
  O40      1.0000 0.15073  0.54294  0.00378  Biso   1.000  O
  H555     1.0000 0.20516  0.92065  0.95781  Biso   1.000  H
  H556     1.0000 0.23623  0.98110  0.99803  Biso   1.000  H
  C403     1.0000 0.20901  0.03852  0.93027  Biso   1.000  C
  H557     1.0000 0.36703  0.99158  0.92834  Biso   1.000  H
  C404     1.0000 0.30805  0.08231  0.91253  Biso   1.000  C
  H558     1.0000 0.33978  0.02617  0.97929  Biso   1.000  H
  H559     1.0000 0.26615  0.11563  0.34928  Biso   1.000  H
  H560     1.0000 0.20096  0.11145  0.33054  Biso   1.000  H
  C405     1.0000 0.10203  0.91666  0.04763  Biso   1.000  C
  C406     1.0000 0.96917  0.29758  0.08882  Biso   1.000  C
  H561     1.0000 0.99083  0.38213  0.03390  Biso   1.000  H
  H562     1.0000 0.93451  0.40600  0.06233  Biso   1.000  H
  H563     1.0000 0.94413  0.24288  0.15582  Biso   1.000  H
  H564     1.0000 0.90479  0.31781  0.13866  Biso   1.000  H
  H565     1.0000 0.44652  0.16015  0.02006  Biso   1.000  H
  H566     1.0000 0.42364  0.20648  0.96903  Biso   1.000  H
  C407     1.0000 0.12684  0.47359  0.02750  Biso   1.000  C
  H567     1.0000 0.20073  0.02180  0.89409  Biso   1.000  H
  H568     1.0000 0.17319  0.05663  0.94488  Biso   1.000  H
  C408     1.0000 0.25086  0.10872  0.93127  Biso   1.000  C
  H569     1.0000 0.33501  0.12798  0.91619  Biso   1.000  H
  H570     1.0000 0.30417  0.06790  0.87554  Biso   1.000  H
  H571     1.0000 0.08972  0.90957  0.01099  Biso   1.000  H
  H572     1.0000 0.14282  0.92950  0.04945  Biso   1.000  H
  C409     1.0000 0.06863  0.98431  0.07189  Biso   1.000  C
  H573     1.0000 0.00729  0.27305  0.09122  Biso   1.000  H
  H574     1.0000 0.94513  0.26420  0.06507  Biso   1.000  H
  H575     1.0000 0.08524  0.47898  0.02727  Biso   1.000  H
  H576     1.0000 0.14111  0.46947  0.06379  Biso   1.000  H
  C410     1.0000 0.14259  0.39806  0.99826  Biso   1.000  C
  H577     1.0000 0.23571  0.15306  0.90902  Biso   1.000  H
  H578     1.0000 0.25557  0.12986  0.96691  Biso   1.000  H
  C411     1.0000 0.00519  0.96747  0.06939  Biso   1.000  C
  H579     1.0000 0.07513  0.03489  0.05172  Biso   1.000  H
  C412     1.0000 0.08877  0.00030  0.12770  Biso   1.000  C
  C413     1.0000 0.12801  0.32302  0.02997  Biso   1.000  C
  H580     1.0000 0.18427  0.39861  0.99360  Biso   1.000  H
  C414     1.0000 0.11254  0.39491  0.94523  Biso   1.000  C
  H581     1.0000 0.99755  0.91726  0.08875  Biso   1.000  H
  H582     1.0000 0.99223  0.95906  0.03305  Biso   1.000  H
  C415     1.0000 0.97227  0.03755  0.09214  Biso   1.000  C
  H583     1.0000 0.08410  0.95045  0.14830  Biso   1.000  H
  C416     1.0000 0.05555  0.06935  0.15146  Biso   1.000  C
  H584     1.0000 0.12940  0.01429  0.12874  Biso   1.000  H
  C417     1.0000 0.13900  0.24416  0.00096  Biso   1.000  C
  H585     1.0000 0.15085  0.32338  0.06275  Biso   1.000  H
  H586     1.0000 0.08768  0.32544  0.03841  Biso   1.000  H
  H587     1.0000 0.07142  0.40097  0.94924  Biso   1.000  H
  H588     1.0000 0.12534  0.44101  0.92429  Biso   1.000  H
  C418     1.0000 0.12360  0.31623  0.91677  Biso   1.000  C
  H589     1.0000 0.97748  0.08698  0.07124  Biso   1.000  H
  H590     1.0000 0.93151  0.02429  0.09106  Biso   1.000  H
  C419     1.0000 0.99243  0.05354  0.14737  Biso   1.000  C
  H591     1.0000 0.06769  0.07553  0.18822  Biso   1.000  H
  H592     1.0000 0.06393  0.12065  0.13353  Biso   1.000  H
  H593     1.0000 0.12653  0.19764  0.02171  Biso   1.000  H
  C420     1.0000 0.10790  0.24319  0.94893  Biso   1.000  C
  H594     1.0000 0.17996  0.23834  0.99622  Biso   1.000  H
  H595     1.0000 0.10121  0.31563  0.88371  Biso   1.000  H
  H596     1.0000 0.16403  0.31308  0.90890  Biso   1.000  H
  H597     1.0000 0.98341  0.00618  0.16893  Biso   1.000  H
  H598     1.0000 0.97211  0.10103  0.16072  Biso   1.000  H
  H599     1.0000 0.06669  0.24337  0.95379  Biso   1.000  H
  H600     1.0000 0.11735  0.19291  0.93038  Biso   1.000  H
  Ne1      1.0000 0.24295  0.65113  0.14806  Biso   1.000  Ne
  He1      1.0000 0.27142  0.96716  0.10840  Biso   1.000  He
  He2      1.0000 0.23817  0.16746  0.11710  Biso   1.000  He
  Ar1      1.0000 0.23990  0.65048  0.14815  Biso   1.000  Ar
  Ne2      1.0000 0.24294  0.84888  0.64806  Biso   1.000  Ne
  He3      1.0000 0.27183  0.53108  0.60834  Biso   1.000  He
  He4      1.0000 0.27432  0.18411  0.62621  Biso   1.000  He
  Ar2      1.0000 0.23989  0.84953  0.64818  Biso   1.000  Ar
  Ne3      1.0000 0.75702  0.15113  0.35194  Biso   1.000  Ne
  He5      1.0000 0.73300  0.61485  0.39727  Biso   1.000  He
  He6      1.0000 0.72628  0.81759  0.37415  Biso   1.000  He
  Ar3      1.0000 0.76006  0.15049  0.35183  Biso   1.000  Ar
  Ne4      1.0000 0.75701  0.34888  0.85193  Biso   1.000  Ne
  He7      1.0000 0.74591  0.14926  0.88885  Biso   1.000  He
  He8      1.0000 0.76183  0.83089  0.88312  Biso   1.000  He
  Ar4      1.0000 0.76006  0.34953  0.85184  Biso   1.000  Ar
