data_image0
_cell_length_a       14.066
_cell_length_b       19.648
_cell_length_c       37.765
_cell_angle_alpha    90
_cell_angle_beta     90
_cell_angle_gamma    90

_symmetry_space_group_name_H-M    "P 1"
_symmetry_int_tables_number       1

loop_
  _symmetry_equiv_pos_as_xyz
  'x, y, z'

loop_
  _atom_site_label
  _atom_site_occupancy
  _atom_site_fract_x
  _atom_site_fract_y
  _atom_site_fract_z
  _atom_site_thermal_displace_type
  _atom_site_B_iso_or_equiv
  _atom_site_type_symbol
  C1       1.0000 0.46161  0.41139  0.53258  Biso   1.000  C
  C2       1.0000 0.54358  0.44717  0.53947  Biso   1.000  C
  H1       1.0000 0.46538  0.36620  0.52379  Biso   1.000  H
  C3       1.0000 0.37331  0.44101  0.53838  Biso   1.000  C
  O1       1.0000 0.63330  0.42361  0.53618  Biso   1.000  O
  C4       1.0000 0.53683  0.51547  0.55207  Biso   1.000  C
  H2       1.0000 0.31743  0.41587  0.53290  Biso   1.000  H
  C5       1.0000 0.36492  0.50580  0.55194  Biso   1.000  C
  C6       1.0000 0.64610  0.35861  0.51884  Biso   1.000  C
  O2       1.0000 0.62129  0.54708  0.55814  Biso   1.000  O
  C7       1.0000 0.44782  0.54377  0.55795  Biso   1.000  C
  C8       1.0000 0.26959  0.53588  0.55991  Biso   1.000  C
  C9       1.0000 0.74641  0.33688  0.52628  Biso   1.000  C
  H3       1.0000 0.63572  0.36309  0.49300  Biso   1.000  H
  H4       1.0000 0.60060  0.32471  0.52829  Biso   1.000  H
  C10      1.0000 0.62178  0.62047  0.55824  Biso   1.000  C
  H5       1.0000 0.44291  0.58937  0.56621  Biso   1.000  H
  O3       1.0000 0.23219  0.49847  0.59081  Biso   1.000  O
  H6       1.0000 0.27577  0.58500  0.56539  Biso   1.000  H
  H7       1.0000 0.22650  0.53069  0.53939  Biso   1.000  H
  O4       1.0000 0.75224  0.31448  0.56227  Biso   1.000  O
  H8       1.0000 0.76482  0.29947  0.51010  Biso   1.000  H
  H9       1.0000 0.79027  0.37551  0.52239  Biso   1.000  H
  C11      1.0000 0.72032  0.64521  0.55840  Biso   1.000  C
  H10      1.0000 0.58801  0.63757  0.57950  Biso   1.000  H
  H11      1.0000 0.58837  0.63777  0.53701  Biso   1.000  H
  C12      1.0000 0.13828  0.50361  0.59513  Biso   1.000  C
  C13      1.0000 0.83990  0.32868  0.57834  Biso   1.000  C
  O5       1.0000 0.76113  0.64739  0.59110  Biso   1.000  O
  H12      1.0000 0.75892  0.61528  0.54299  Biso   1.000  H
  H13      1.0000 0.72160  0.69147  0.54810  Biso   1.000  H
  O6       1.0000 0.08581  0.53537  0.57590  Biso   1.000  O
  C14      1.0000 0.10159  0.46259  0.62664  Biso   1.000  C
  C15      1.0000 0.84523  0.29158  0.61311  Biso   1.000  C
  H14      1.0000 0.84622  0.37831  0.58231  Biso   1.000  H
  H15      1.0000 0.89251  0.31377  0.56269  Biso   1.000  H
  C16      1.0000 0.81537  0.59039  0.60069  Biso   1.000  C
  N1       1.0000 0.16572  0.43597  0.64891  Biso   1.000  N
  C17      1.0000 0.00519  0.45638  0.63005  Biso   1.000  C
  O7       1.0000 0.77094  0.31387  0.63548  Biso   1.000  O
  H16      1.0000 0.83947  0.24201  0.60900  Biso   1.000  H
  H17      1.0000 0.90729  0.30049  0.62449  Biso   1.000  H
  C18      1.0000 0.84331  0.60032  0.63691  Biso   1.000  C
  H18      1.0000 0.87210  0.58647  0.58530  Biso   1.000  H
  H19      1.0000 0.77719  0.54830  0.59831  Biso   1.000  H
  C19      1.0000 0.12918  0.39979  0.67634  Biso   1.000  C
  C20      1.0000 0.96979  0.41999  0.65910  Biso   1.000  C
  H20      1.0000 0.96339  0.47618  0.61319  Biso   1.000  H
  C21      1.0000 0.77321  0.27988  0.66882  Biso   1.000  C
  O8       1.0000 0.77421  0.58749  0.66156  Biso   1.000  O
  H21      1.0000 0.89841  0.57049  0.64189  Biso   1.000  H
  H22      1.0000 0.86478  0.64800  0.63969  Biso   1.000  H
  C22      1.0000 0.19558  0.36808  0.70200  Biso   1.000  C
  C23      1.0000 0.03213  0.39129  0.68180  Biso   1.000  C
  H23      1.0000 0.90331  0.41561  0.66270  Biso   1.000  H
  C24      1.0000 0.68243  0.29738  0.68857  Biso   1.000  C
  H24      1.0000 0.82923  0.29479  0.68259  Biso   1.000  H
  H25      1.0000 0.77748  0.23010  0.66519  Biso   1.000  H
  C25      1.0000 0.79632  0.59462  0.69620  Biso   1.000  C
  O9       1.0000 0.28267  0.39510  0.70245  Biso   1.000  O
  O10      1.0000 0.17212  0.32171  0.72085  Biso   1.000  O
  H26      1.0000 0.00981  0.36538  0.70131  Biso   1.000  H
  O11      1.0000 0.68243  0.37001  0.69432  Biso   1.000  O
  H27      1.0000 0.62619  0.28390  0.67449  Biso   1.000  H
  H28      1.0000 0.68029  0.27300  0.71151  Biso   1.000  H
  C26      1.0000 0.71790  0.56398  0.72239  Biso   1.000  C
  H29      1.0000 0.80471  0.64358  0.70150  Biso   1.000  H
  H30      1.0000 0.85781  0.57171  0.70081  Biso   1.000  H
  C27      1.0000 0.34452  0.36681  0.73036  Biso   1.000  C
  C28      1.0000 0.60351  0.39918  0.70944  Biso   1.000  C
  O12      1.0000 0.70183  0.49399  0.71405  Biso   1.000  O
  H31      1.0000 0.74001  0.56820  0.74720  Biso   1.000  H
  H32      1.0000 0.65790  0.58988  0.72001  Biso   1.000  H
  C29      1.0000 0.43993  0.40091  0.72705  Biso   1.000  C
  H33      1.0000 0.35120  0.31688  0.72729  Biso   1.000  H
  H34      1.0000 0.31679  0.37571  0.75401  Biso   1.000  H
  C30      1.0000 0.61467  0.46600  0.72027  Biso   1.000  C
  C31      1.0000 0.51671  0.36757  0.71262  Biso   1.000  C
  C32      1.0000 0.45258  0.46717  0.73875  Biso   1.000  C
  C33      1.0000 0.53960  0.49949  0.73608  Biso   1.000  C
  H35      1.0000 0.50960  0.32202  0.70470  Biso   1.000  H
  H36      1.0000 0.40033  0.49099  0.74889  Biso   1.000  H
  H37      1.0000 0.54763  0.54428  0.74500  Biso   1.000  H
  C34      1.0000 0.46317  0.48448  0.44793  Biso   1.000  C
  O13      1.0000 0.37871  0.45287  0.44186  Biso   1.000  O
  C35      1.0000 0.45642  0.55278  0.46053  Biso   1.000  C
  C36      1.0000 0.55218  0.45618  0.44205  Biso   1.000  C
  C37      1.0000 0.37822  0.37948  0.44176  Biso   1.000  C
  O14      1.0000 0.36670  0.57639  0.46382  Biso   1.000  O
  C38      1.0000 0.53839  0.58861  0.46742  Biso   1.000  C
  C39      1.0000 0.63508  0.49420  0.44806  Biso   1.000  C
  H38      1.0000 0.55709  0.41058  0.43379  Biso   1.000  H
  C40      1.0000 0.27968  0.35479  0.44160  Biso   1.000  C
  H39      1.0000 0.41199  0.36238  0.42050  Biso   1.000  H
  H40      1.0000 0.41163  0.36217  0.46299  Biso   1.000  H
  C41      1.0000 0.35390  0.64139  0.48116  Biso   1.000  C
  H41      1.0000 0.53462  0.63380  0.47621  Biso   1.000  H
  C42      1.0000 0.62669  0.55899  0.46162  Biso   1.000  C
  C43      1.0000 0.73041  0.46407  0.44009  Biso   1.000  C
  O15      1.0000 0.23887  0.35261  0.40890  Biso   1.000  O
  H42      1.0000 0.24108  0.38467  0.45701  Biso   1.000  H
  H43      1.0000 0.27840  0.30848  0.45190  Biso   1.000  H
  C44      1.0000 0.25359  0.66307  0.47372  Biso   1.000  C
  H44      1.0000 0.36428  0.63691  0.50700  Biso   1.000  H
  H45      1.0000 0.39940  0.67529  0.47171  Biso   1.000  H
  H46      1.0000 0.68264  0.58408  0.46710  Biso   1.000  H
  O16      1.0000 0.76781  0.50148  0.40919  Biso   1.000  O
  H47      1.0000 0.72423  0.41500  0.43461  Biso   1.000  H
  H48      1.0000 0.77350  0.46931  0.46061  Biso   1.000  H
  C45      1.0000 0.18463  0.40961  0.39931  Biso   1.000  C
  O17      1.0000 0.24783  0.68546  0.43773  Biso   1.000  O
  H49      1.0000 0.23518  0.70048  0.48990  Biso   1.000  H
  H50      1.0000 0.20973  0.62449  0.47761  Biso   1.000  H
  C46      1.0000 0.86172  0.49639  0.40487  Biso   1.000  C
  C47      1.0000 0.15669  0.39968  0.36309  Biso   1.000  C
  H51      1.0000 0.12790  0.41348  0.41470  Biso   1.000  H
  H52      1.0000 0.22281  0.45170  0.40169  Biso   1.000  H
  C48      1.0000 0.16010  0.67132  0.42166  Biso   1.000  C
  C49      1.0000 0.89841  0.53741  0.37336  Biso   1.000  C
  O18      1.0000 0.91419  0.46458  0.42410  Biso   1.000  O
  O19      1.0000 0.22579  0.41251  0.33844  Biso   1.000  O
  H53      1.0000 0.10159  0.42951  0.35811  Biso   1.000  H
  H54      1.0000 0.13522  0.35200  0.36031  Biso   1.000  H
  C50      1.0000 0.15477  0.70837  0.38689  Biso   1.000  C
  H55      1.0000 0.15378  0.62169  0.41769  Biso   1.000  H
  H56      1.0000 0.10749  0.68618  0.43731  Biso   1.000  H
  N2       1.0000 0.83428  0.56398  0.35109  Biso   1.000  N
  C51      1.0000 0.99481  0.54357  0.36995  Biso   1.000  C
  C52      1.0000 0.20368  0.40538  0.30380  Biso   1.000  C
  O20      1.0000 0.22913  0.68607  0.36452  Biso   1.000  O
  H57      1.0000 0.16053  0.75799  0.39100  Biso   1.000  H
  H58      1.0000 0.09271  0.69951  0.37551  Biso   1.000  H
  C53      1.0000 0.87082  0.60021  0.32366  Biso   1.000  C
  C54      1.0000 0.03021  0.58001  0.34090  Biso   1.000  C
  H59      1.0000 0.03661  0.52377  0.38681  Biso   1.000  H
  C55      1.0000 0.28210  0.43597  0.27761  Biso   1.000  C
  H60      1.0000 0.19529  0.35637  0.29850  Biso   1.000  H
  H61      1.0000 0.14219  0.42829  0.29919  Biso   1.000  H
  C56      1.0000 0.22679  0.72007  0.33118  Biso   1.000  C
  C57      1.0000 0.80442  0.63187  0.29800  Biso   1.000  C
  C58      1.0000 0.96794  0.60871  0.31820  Biso   1.000  C
  H62      1.0000 0.09669  0.58439  0.33730  Biso   1.000  H
  O21      1.0000 0.29824  0.50601  0.28595  Biso   1.000  O
  H63      1.0000 0.25999  0.43180  0.25280  Biso   1.000  H
  H64      1.0000 0.34210  0.41012  0.27999  Biso   1.000  H
  C59      1.0000 0.31757  0.70257  0.31143  Biso   1.000  C
  H65      1.0000 0.17077  0.70521  0.31741  Biso   1.000  H
  H66      1.0000 0.22252  0.76990  0.33481  Biso   1.000  H
  O22      1.0000 0.71733  0.60490  0.29755  Biso   1.000  O
  O23      1.0000 0.82788  0.67829  0.27915  Biso   1.000  O
  H67      1.0000 0.99019  0.63457  0.29869  Biso   1.000  H
  C60      1.0000 0.38533  0.53400  0.27973  Biso   1.000  C
  O24      1.0000 0.31757  0.62999  0.30568  Biso   1.000  O
  H68      1.0000 0.37381  0.71610  0.32551  Biso   1.000  H
  H69      1.0000 0.31971  0.72700  0.28849  Biso   1.000  H
  C61      1.0000 0.65548  0.63319  0.26964  Biso   1.000  C
  C62      1.0000 0.39649  0.60077  0.29056  Biso   1.000  C
  C63      1.0000 0.46040  0.50051  0.26392  Biso   1.000  C
  C64      1.0000 0.56007  0.59909  0.27295  Biso   1.000  C
  H70      1.0000 0.64880  0.68307  0.27271  Biso   1.000  H
  H71      1.0000 0.68321  0.62429  0.24599  Biso   1.000  H
  C65      1.0000 0.48329  0.63238  0.28738  Biso   1.000  C
  C66      1.0000 0.54742  0.53278  0.26125  Biso   1.000  C
  H72      1.0000 0.45244  0.45567  0.25500  Biso   1.000  H
  H73      1.0000 0.49040  0.67798  0.29530  Biso   1.000  H
  H74      1.0000 0.59967  0.50901  0.25111  Biso   1.000  H
  C67      1.0000 0.24641  0.16312  0.47372  Biso   1.000  C
  O25      1.0000 0.25217  0.18552  0.43773  Biso   1.000  O
  H75      1.0000 0.26482  0.20048  0.48990  Biso   1.000  H
  H76      1.0000 0.29027  0.12449  0.47761  Biso   1.000  H
  C68      1.0000 0.14610  0.14139  0.48116  Biso   1.000  C
  C69      1.0000 0.33990  0.17132  0.42166  Biso   1.000  C
  O26      1.0000 0.13330  0.07639  0.46382  Biso   1.000  O
  H77      1.0000 0.13572  0.13691  0.50700  Biso   1.000  H
  H78      1.0000 0.10060  0.17529  0.47171  Biso   1.000  H
  C70      1.0000 0.34523  0.20842  0.38689  Biso   1.000  C
  H79      1.0000 0.34622  0.12169  0.41769  Biso   1.000  H
  H80      1.0000 0.39251  0.18618  0.43731  Biso   1.000  H
  C71      1.0000 0.04358  0.05278  0.46053  Biso   1.000  C
  O27      1.0000 0.27094  0.18607  0.36452  Biso   1.000  O
  H81      1.0000 0.33947  0.25799  0.39100  Biso   1.000  H
  H82      1.0000 0.40729  0.19951  0.37551  Biso   1.000  H
  C72      1.0000 0.96161  0.08861  0.46742  Biso   1.000  C
  C73      1.0000 0.03683  0.98448  0.44793  Biso   1.000  C
  C74      1.0000 0.27321  0.22007  0.33118  Biso   1.000  C
  H83      1.0000 0.96538  0.13380  0.47621  Biso   1.000  H
  C75      1.0000 0.87331  0.05899  0.46162  Biso   1.000  C
  C76      1.0000 0.94782  0.95618  0.44205  Biso   1.000  C
  O28      1.0000 0.12129  0.95292  0.44186  Biso   1.000  O
  C77      1.0000 0.18243  0.20262  0.31143  Biso   1.000  C
  H84      1.0000 0.32923  0.20521  0.31741  Biso   1.000  H
  H85      1.0000 0.27748  0.26990  0.33481  Biso   1.000  H
  C78      1.0000 0.86492  0.99420  0.44806  Biso   1.000  C
  H86      1.0000 0.81743  0.08408  0.46710  Biso   1.000  H
  H87      1.0000 0.94291  0.91058  0.43379  Biso   1.000  H
  C79      1.0000 0.12178  0.87948  0.44176  Biso   1.000  C
  O29      1.0000 0.18243  0.12999  0.30568  Biso   1.000  O
  H88      1.0000 0.12619  0.21610  0.32551  Biso   1.000  H
  H89      1.0000 0.18029  0.22700  0.28849  Biso   1.000  H
  C80      1.0000 0.76959  0.96412  0.44009  Biso   1.000  C
  C81      1.0000 0.22032  0.85479  0.44160  Biso   1.000  C
  H90      1.0000 0.08801  0.86238  0.42050  Biso   1.000  H
  H91      1.0000 0.08837  0.86223  0.46299  Biso   1.000  H
  C82      1.0000 0.10351  0.10077  0.29056  Biso   1.000  C
  O30      1.0000 0.73219  0.00148  0.40919  Biso   1.000  O
  H92      1.0000 0.77577  0.91500  0.43461  Biso   1.000  H
  H93      1.0000 0.72650  0.96931  0.46061  Biso   1.000  H
  O31      1.0000 0.26113  0.85261  0.40890  Biso   1.000  O
  H94      1.0000 0.25892  0.88472  0.45701  Biso   1.000  H
  H95      1.0000 0.22160  0.80848  0.45190  Biso   1.000  H
  C83      1.0000 0.11467  0.03400  0.27973  Biso   1.000  C
  C84      1.0000 0.01671  0.13238  0.28738  Biso   1.000  C
  C85      1.0000 0.63828  0.99639  0.40487  Biso   1.000  C
  C86      1.0000 0.31537  0.90961  0.39931  Biso   1.000  C
  O32      1.0000 0.20183  0.00601  0.28595  Biso   1.000  O
  C87      1.0000 0.03960  0.00051  0.26392  Biso   1.000  C
  H96      1.0000 0.00960  0.17798  0.29530  Biso   1.000  H
  C88      1.0000 0.93993  0.09909  0.27295  Biso   1.000  C
  C89      1.0000 0.60159  0.03741  0.37336  Biso   1.000  C
  O33      1.0000 0.58581  0.96458  0.42410  Biso   1.000  O
  C90      1.0000 0.34331  0.89968  0.36309  Biso   1.000  C
  H97      1.0000 0.37210  0.91348  0.41470  Biso   1.000  H
  H98      1.0000 0.27719  0.95170  0.40169  Biso   1.000  H
  C91      1.0000 0.21790  0.93602  0.27761  Biso   1.000  C
  C92      1.0000 0.95258  0.03278  0.26125  Biso   1.000  C
  H99      1.0000 0.04763  0.95572  0.25500  Biso   1.000  H
  C93      1.0000 0.84452  0.13319  0.26964  Biso   1.000  C
  N3       1.0000 0.66572  0.06398  0.35109  Biso   1.000  N
  C94      1.0000 0.50519  0.04362  0.36995  Biso   1.000  C
  O34      1.0000 0.27421  0.91251  0.33844  Biso   1.000  O
  H100     1.0000 0.39841  0.92951  0.35811  Biso   1.000  H
  H101     1.0000 0.36478  0.85200  0.36031  Biso   1.000  H
  H102     1.0000 0.24001  0.93180  0.25280  Biso   1.000  H
  H103     1.0000 0.15790  0.91012  0.27999  Biso   1.000  H
  C95      1.0000 0.29632  0.90538  0.30380  Biso   1.000  C
  H104     1.0000 0.90033  0.00901  0.25111  Biso   1.000  H
  O35      1.0000 0.78267  0.10490  0.29755  Biso   1.000  O
  H105     1.0000 0.85120  0.18307  0.27271  Biso   1.000  H
  H106     1.0000 0.81679  0.12429  0.24599  Biso   1.000  H
  C96      1.0000 0.62918  0.10021  0.32366  Biso   1.000  C
  C97      1.0000 0.46979  0.08001  0.34090  Biso   1.000  C
  H107     1.0000 0.46339  0.02382  0.38681  Biso   1.000  H
  H108     1.0000 0.30471  0.85642  0.29850  Biso   1.000  H
  H109     1.0000 0.35781  0.92829  0.29919  Biso   1.000  H
  C98      1.0000 0.69558  0.13192  0.29800  Biso   1.000  C
  C99      1.0000 0.53206  0.10871  0.31820  Biso   1.000  C
  H110     1.0000 0.40331  0.08439  0.33730  Biso   1.000  H
  O36      1.0000 0.67212  0.17829  0.27915  Biso   1.000  O
  H111     1.0000 0.50981  0.13462  0.29869  Biso   1.000  H
  C100     1.0000 0.65477  0.79158  0.61311  Biso   1.000  C
  C101     1.0000 0.66010  0.82868  0.57834  Biso   1.000  C
  O37      1.0000 0.72913  0.81387  0.63548  Biso   1.000  O
  H112     1.0000 0.66053  0.74201  0.60900  Biso   1.000  H
  H113     1.0000 0.59271  0.80049  0.62449  Biso   1.000  H
  O38      1.0000 0.74783  0.81448  0.56227  Biso   1.000  O
  H114     1.0000 0.65378  0.87831  0.58231  Biso   1.000  H
  H115     1.0000 0.60749  0.81377  0.56269  Biso   1.000  H
  C102     1.0000 0.72679  0.77988  0.66882  Biso   1.000  C
  C103     1.0000 0.75359  0.83688  0.52628  Biso   1.000  C
  C104     1.0000 0.81757  0.79738  0.68857  Biso   1.000  C
  H116     1.0000 0.67084  0.79479  0.68259  Biso   1.000  H
  H117     1.0000 0.72252  0.73010  0.66519  Biso   1.000  H
  H118     1.0000 0.73518  0.79947  0.51010  Biso   1.000  H
  H119     1.0000 0.70973  0.87551  0.52239  Biso   1.000  H
  C105     1.0000 0.85390  0.85861  0.51884  Biso   1.000  C
  O39      1.0000 0.81757  0.86996  0.69432  Biso   1.000  O
  H120     1.0000 0.87381  0.78390  0.67449  Biso   1.000  H
  H121     1.0000 0.81971  0.77300  0.71151  Biso   1.000  H
  O40      1.0000 0.86670  0.92361  0.53618  Biso   1.000  O
  H122     1.0000 0.86428  0.86309  0.49300  Biso   1.000  H
  H123     1.0000 0.89940  0.82466  0.52829  Biso   1.000  H
  C106     1.0000 0.89649  0.89918  0.70944  Biso   1.000  C
  C107     1.0000 0.95642  0.94717  0.53947  Biso   1.000  C
  C108     1.0000 0.88533  0.96600  0.72027  Biso   1.000  C
  C109     1.0000 0.98329  0.86757  0.71262  Biso   1.000  C
  C110     1.0000 0.96317  0.01547  0.55207  Biso   1.000  C
  C111     1.0000 0.03839  0.91139  0.53258  Biso   1.000  C
  O41      1.0000 0.79824  0.99399  0.71405  Biso   1.000  O
  C112     1.0000 0.96040  0.99949  0.73608  Biso   1.000  C
  H124     1.0000 0.99040  0.82197  0.70470  Biso   1.000  H
  C113     1.0000 0.06007  0.90091  0.72705  Biso   1.000  C
  O42      1.0000 0.87871  0.04708  0.55814  Biso   1.000  O
  C114     1.0000 0.05218  0.04377  0.55795  Biso   1.000  C
  H125     1.0000 0.03462  0.86620  0.52379  Biso   1.000  H
  C115     1.0000 0.12669  0.94096  0.53838  Biso   1.000  C
  C116     1.0000 0.78210  0.06398  0.72239  Biso   1.000  C
  H126     1.0000 0.95244  0.04428  0.74500  Biso   1.000  H
  C117     1.0000 0.04742  0.96717  0.73875  Biso   1.000  C
  C118     1.0000 0.15548  0.86681  0.73036  Biso   1.000  C
  C119     1.0000 0.87822  0.12047  0.55824  Biso   1.000  C
  C120     1.0000 0.13508  0.00580  0.55194  Biso   1.000  C
  H127     1.0000 0.05709  0.08937  0.56621  Biso   1.000  H
  H128     1.0000 0.18264  0.91587  0.53290  Biso   1.000  H
  H129     1.0000 0.75999  0.06820  0.74720  Biso   1.000  H
  H130     1.0000 0.84210  0.08988  0.72001  Biso   1.000  H
  C121     1.0000 0.70368  0.09456  0.69620  Biso   1.000  C
  H131     1.0000 0.09967  0.99099  0.74889  Biso   1.000  H
  O43      1.0000 0.21733  0.89510  0.70245  Biso   1.000  O
  H132     1.0000 0.14880  0.81688  0.72729  Biso   1.000  H
  H133     1.0000 0.18321  0.87566  0.75401  Biso   1.000  H
  C122     1.0000 0.77968  0.14521  0.55840  Biso   1.000  C
  H134     1.0000 0.91199  0.13757  0.57950  Biso   1.000  H
  H135     1.0000 0.91163  0.13777  0.53701  Biso   1.000  H
  C123     1.0000 0.23041  0.03588  0.55991  Biso   1.000  C
  O44      1.0000 0.72579  0.08749  0.66156  Biso   1.000  O
  H136     1.0000 0.69529  0.14358  0.70150  Biso   1.000  H
  H137     1.0000 0.64219  0.07166  0.70081  Biso   1.000  H
  C124     1.0000 0.30442  0.86808  0.70200  Biso   1.000  C
  O45      1.0000 0.73887  0.14739  0.59110  Biso   1.000  O
  H138     1.0000 0.74108  0.11528  0.54299  Biso   1.000  H
  H139     1.0000 0.77840  0.19147  0.54810  Biso   1.000  H
  O46      1.0000 0.26781  0.99847  0.59081  Biso   1.000  O
  H140     1.0000 0.22423  0.08500  0.56539  Biso   1.000  H
  H141     1.0000 0.27350  0.03069  0.53939  Biso   1.000  H
  C125     1.0000 0.65669  0.10026  0.63691  Biso   1.000  C
  C126     1.0000 0.37082  0.89979  0.67634  Biso   1.000  C
  O47      1.0000 0.32788  0.82171  0.72085  Biso   1.000  O
  C127     1.0000 0.68463  0.09039  0.60069  Biso   1.000  C
  C128     1.0000 0.36172  0.00356  0.59513  Biso   1.000  C
  H142     1.0000 0.60159  0.07049  0.64189  Biso   1.000  H
  H143     1.0000 0.63522  0.14800  0.63969  Biso   1.000  H
  N4       1.0000 0.33428  0.93597  0.64891  Biso   1.000  N
  C129     1.0000 0.46794  0.89129  0.68180  Biso   1.000  C
  H144     1.0000 0.62790  0.08647  0.58530  Biso   1.000  H
  H145     1.0000 0.72281  0.04830  0.59831  Biso   1.000  H
  C130     1.0000 0.39841  0.96259  0.62664  Biso   1.000  C
  O48      1.0000 0.41419  0.03537  0.57590  Biso   1.000  O
  C131     1.0000 0.53021  0.91999  0.65910  Biso   1.000  C
  H146     1.0000 0.49019  0.86538  0.70131  Biso   1.000  H
  C132     1.0000 0.49481  0.95638  0.63005  Biso   1.000  C
  H147     1.0000 0.59669  0.91556  0.66270  Biso   1.000  H
  H148     1.0000 0.53661  0.97618  0.61319  Biso   1.000  H
  C133     1.0000 0.21790  0.56398  0.77760  Biso   1.000  C
  O49      1.0000 0.20183  0.49399  0.78597  Biso   1.000  O
  H149     1.0000 0.24001  0.56820  0.75279  Biso   1.000  H
  H150     1.0000 0.15790  0.58988  0.78001  Biso   1.000  H
  C134     1.0000 0.29632  0.59462  0.80381  Biso   1.000  C
  C135     1.0000 0.11467  0.46600  0.77974  Biso   1.000  C
  O50      1.0000 0.27421  0.58749  0.83845  Biso   1.000  O
  H151     1.0000 0.30471  0.64358  0.79849  Biso   1.000  H
  H152     1.0000 0.35781  0.57171  0.79921  Biso   1.000  H
  C136     1.0000 0.03960  0.49949  0.76393  Biso   1.000  C
  C137     1.0000 0.10351  0.39918  0.79055  Biso   1.000  C
  C138     1.0000 0.34331  0.60032  0.86310  Biso   1.000  C
  H153     1.0000 0.04763  0.54428  0.75501  Biso   1.000  H
  C139     1.0000 0.95258  0.46717  0.76123  Biso   1.000  C
  O51      1.0000 0.18243  0.37001  0.80569  Biso   1.000  O
  C140     1.0000 0.01671  0.36757  0.78740  Biso   1.000  C
  H154     1.0000 0.39841  0.57049  0.85810  Biso   1.000  H
  H155     1.0000 0.36478  0.64800  0.86029  Biso   1.000  H
  C141     1.0000 0.31537  0.59039  0.89930  Biso   1.000  C
  C142     1.0000 0.93993  0.40091  0.77296  Biso   1.000  C
  H156     1.0000 0.90033  0.49099  0.75109  Biso   1.000  H
  C143     1.0000 0.18243  0.29738  0.81144  Biso   1.000  C
  H157     1.0000 0.00960  0.32202  0.79531  Biso   1.000  H
  O52      1.0000 0.26113  0.64739  0.90891  Biso   1.000  O
  H158     1.0000 0.37210  0.58647  0.91471  Biso   1.000  H
  H159     1.0000 0.27719  0.54830  0.90171  Biso   1.000  H
  C144     1.0000 0.84452  0.36681  0.76965  Biso   1.000  C
  H160     1.0000 0.12619  0.28390  0.82550  Biso   1.000  H
  H161     1.0000 0.18029  0.27300  0.78851  Biso   1.000  H
  C145     1.0000 0.27321  0.27988  0.83119  Biso   1.000  C
  C146     1.0000 0.22032  0.64521  0.94161  Biso   1.000  C
  O53      1.0000 0.78267  0.39510  0.79754  Biso   1.000  O
  H162     1.0000 0.85120  0.31688  0.77270  Biso   1.000  H
  H163     1.0000 0.81679  0.37571  0.74601  Biso   1.000  H
  O54      1.0000 0.27094  0.31387  0.86450  Biso   1.000  O
  H164     1.0000 0.32923  0.29479  0.81740  Biso   1.000  H
  H165     1.0000 0.27748  0.23010  0.83479  Biso   1.000  H
  H166     1.0000 0.25892  0.61528  0.95700  Biso   1.000  H
  H167     1.0000 0.22160  0.69147  0.95191  Biso   1.000  H
  C147     1.0000 0.12178  0.62047  0.94177  Biso   1.000  C
  C148     1.0000 0.69558  0.36808  0.79799  Biso   1.000  C
  C149     1.0000 0.34523  0.29158  0.88691  Biso   1.000  C
  O55      1.0000 0.12129  0.54708  0.94188  Biso   1.000  O
  H168     1.0000 0.08801  0.63757  0.92051  Biso   1.000  H
  H169     1.0000 0.08837  0.63777  0.96301  Biso   1.000  H
  O56      1.0000 0.67212  0.32171  0.77916  Biso   1.000  O
  C150     1.0000 0.62918  0.39979  0.82365  Biso   1.000  C
  H170     1.0000 0.33947  0.24201  0.89101  Biso   1.000  H
  H171     1.0000 0.40729  0.30049  0.87549  Biso   1.000  H
  C151     1.0000 0.33990  0.32868  0.92167  Biso   1.000  C
  C152     1.0000 0.03683  0.51547  0.94794  Biso   1.000  C
  N5       1.0000 0.66572  0.43597  0.85108  Biso   1.000  N
  C153     1.0000 0.53206  0.39129  0.81822  Biso   1.000  C
  O57      1.0000 0.25217  0.31448  0.93775  Biso   1.000  O
  H172     1.0000 0.34622  0.37831  0.91770  Biso   1.000  H
  H173     1.0000 0.39251  0.31377  0.93730  Biso   1.000  H
  C154     1.0000 0.04358  0.44717  0.96052  Biso   1.000  C
  C155     1.0000 0.94782  0.54377  0.94204  Biso   1.000  C
  C156     1.0000 0.60159  0.46259  0.87335  Biso   1.000  C
  H174     1.0000 0.50981  0.36538  0.79870  Biso   1.000  H
  C157     1.0000 0.46979  0.41999  0.84091  Biso   1.000  C
  C158     1.0000 0.24641  0.33688  0.97373  Biso   1.000  C
  O58      1.0000 0.13330  0.42361  0.96380  Biso   1.000  O
  C159     1.0000 0.96161  0.41139  0.96743  Biso   1.000  C
  C160     1.0000 0.86492  0.50580  0.94807  Biso   1.000  C
  H175     1.0000 0.94291  0.58937  0.93380  Biso   1.000  H
  C161     1.0000 0.63828  0.50361  0.90486  Biso   1.000  C
  C162     1.0000 0.50519  0.45638  0.86993  Biso   1.000  C
  H176     1.0000 0.40331  0.41561  0.83731  Biso   1.000  H
  H177     1.0000 0.26482  0.29947  0.98991  Biso   1.000  H
  H178     1.0000 0.29027  0.37551  0.97760  Biso   1.000  H
  C163     1.0000 0.14610  0.35861  0.98117  Biso   1.000  C
  C164     1.0000 0.87331  0.44101  0.96163  Biso   1.000  C
  H179     1.0000 0.96538  0.36620  0.97619  Biso   1.000  H
  C165     1.0000 0.76959  0.53588  0.94010  Biso   1.000  C
  O59      1.0000 0.73219  0.49847  0.90920  Biso   1.000  O
  O60      1.0000 0.58581  0.53537  0.92411  Biso   1.000  O
  H180     1.0000 0.46339  0.47618  0.88680  Biso   1.000  H
  H181     1.0000 0.10060  0.32471  0.97169  Biso   1.000  H
  H182     1.0000 0.13572  0.36309  0.00699  Biso   1.000  H
  H183     1.0000 0.81743  0.41587  0.96711  Biso   1.000  H
  H184     1.0000 0.77577  0.58500  0.93460  Biso   1.000  H
  H185     1.0000 0.72650  0.53069  0.96060  Biso   1.000  H
  C166     1.0000 0.78210  0.43597  0.22240  Biso   1.000  C
  C167     1.0000 0.70368  0.40538  0.19619  Biso   1.000  C
  O61      1.0000 0.79824  0.50601  0.21403  Biso   1.000  O
  H186     1.0000 0.75999  0.43180  0.24721  Biso   1.000  H
  H187     1.0000 0.84210  0.41012  0.21999  Biso   1.000  H
  O62      1.0000 0.72579  0.41251  0.16155  Biso   1.000  O
  H188     1.0000 0.69529  0.35637  0.20151  Biso   1.000  H
  H189     1.0000 0.64219  0.42829  0.20079  Biso   1.000  H
  C168     1.0000 0.88533  0.53400  0.22026  Biso   1.000  C
  C169     1.0000 0.65669  0.39968  0.13690  Biso   1.000  C
  C170     1.0000 0.89649  0.60077  0.20945  Biso   1.000  C
  C171     1.0000 0.96040  0.50051  0.23607  Biso   1.000  C
  H190     1.0000 0.60159  0.42951  0.14190  Biso   1.000  H
  H191     1.0000 0.63522  0.35200  0.13971  Biso   1.000  H
  C172     1.0000 0.68463  0.40961  0.10070  Biso   1.000  C
  O63      1.0000 0.81757  0.62999  0.19431  Biso   1.000  O
  C173     1.0000 0.98329  0.63238  0.21260  Biso   1.000  C
  H192     1.0000 0.95244  0.45567  0.24499  Biso   1.000  H
  C174     1.0000 0.04742  0.53278  0.23877  Biso   1.000  C
  O64      1.0000 0.73887  0.35261  0.09109  Biso   1.000  O
  H193     1.0000 0.62790  0.41348  0.08529  Biso   1.000  H
  H194     1.0000 0.72281  0.45170  0.09829  Biso   1.000  H
  C175     1.0000 0.81757  0.70257  0.18856  Biso   1.000  C
  H195     1.0000 0.99040  0.67798  0.20469  Biso   1.000  H
  C176     1.0000 0.06007  0.59909  0.22704  Biso   1.000  C
  H196     1.0000 0.09967  0.50901  0.24891  Biso   1.000  H
  C177     1.0000 0.77968  0.35479  0.05839  Biso   1.000  C
  H197     1.0000 0.87381  0.71610  0.17450  Biso   1.000  H
  H198     1.0000 0.81971  0.72700  0.21149  Biso   1.000  H
  C178     1.0000 0.72679  0.72007  0.16881  Biso   1.000  C
  C179     1.0000 0.15548  0.63319  0.23035  Biso   1.000  C
  H199     1.0000 0.74108  0.38467  0.04300  Biso   1.000  H
  H200     1.0000 0.77840  0.30848  0.04809  Biso   1.000  H
  C180     1.0000 0.87822  0.37948  0.05823  Biso   1.000  C
  O65      1.0000 0.72913  0.68607  0.13550  Biso   1.000  O
  H201     1.0000 0.67084  0.70521  0.18260  Biso   1.000  H
  H202     1.0000 0.72252  0.76990  0.16521  Biso   1.000  H
  O66      1.0000 0.21733  0.60490  0.20246  Biso   1.000  O
  H203     1.0000 0.14880  0.68307  0.22730  Biso   1.000  H
  H204     1.0000 0.18321  0.62429  0.25399  Biso   1.000  H
  O67      1.0000 0.87871  0.45287  0.05812  Biso   1.000  O
  H205     1.0000 0.91199  0.36238  0.07949  Biso   1.000  H
  H206     1.0000 0.91163  0.36217  0.03699  Biso   1.000  H
  C181     1.0000 0.65477  0.70837  0.11309  Biso   1.000  C
  C182     1.0000 0.30442  0.63187  0.20201  Biso   1.000  C
  C183     1.0000 0.96317  0.48448  0.05206  Biso   1.000  C
  H207     1.0000 0.66053  0.75799  0.10899  Biso   1.000  H
  H208     1.0000 0.59271  0.69951  0.12451  Biso   1.000  H
  C184     1.0000 0.66010  0.67132  0.07833  Biso   1.000  C
  O68      1.0000 0.32788  0.67829  0.22084  Biso   1.000  O
  C185     1.0000 0.37082  0.60021  0.17635  Biso   1.000  C
  C186     1.0000 0.95642  0.55278  0.03948  Biso   1.000  C
  C187     1.0000 0.05218  0.45618  0.05796  Biso   1.000  C
  O69      1.0000 0.74783  0.68546  0.06225  Biso   1.000  O
  H209     1.0000 0.65378  0.62169  0.08230  Biso   1.000  H
  H210     1.0000 0.60749  0.68618  0.06270  Biso   1.000  H
  N6       1.0000 0.33428  0.56398  0.14892  Biso   1.000  N
  C188     1.0000 0.46794  0.60871  0.18178  Biso   1.000  C
  O70      1.0000 0.86670  0.57639  0.03620  Biso   1.000  O
  C189     1.0000 0.03839  0.58861  0.03257  Biso   1.000  C
  C190     1.0000 0.13508  0.49420  0.05193  Biso   1.000  C
  H211     1.0000 0.05709  0.41058  0.06620  Biso   1.000  H
  C191     1.0000 0.75359  0.66307  0.02627  Biso   1.000  C
  C192     1.0000 0.39841  0.53741  0.12665  Biso   1.000  C
  H212     1.0000 0.49019  0.63457  0.20130  Biso   1.000  H
  C193     1.0000 0.53021  0.58001  0.15909  Biso   1.000  C
  C194     1.0000 0.85390  0.64139  0.01883  Biso   1.000  C
  H213     1.0000 0.03462  0.63380  0.02381  Biso   1.000  H
  C195     1.0000 0.12669  0.55899  0.03837  Biso   1.000  C
  C196     1.0000 0.23041  0.46407  0.05990  Biso   1.000  C
  H214     1.0000 0.73518  0.70048  0.01009  Biso   1.000  H
  H215     1.0000 0.70973  0.62449  0.02240  Biso   1.000  H
  C197     1.0000 0.36172  0.49639  0.09514  Biso   1.000  C
  C198     1.0000 0.49481  0.54357  0.13007  Biso   1.000  C
  H216     1.0000 0.59669  0.58439  0.16269  Biso   1.000  H
  H217     1.0000 0.89940  0.67529  0.02831  Biso   1.000  H
  H218     1.0000 0.86428  0.63691  0.99301  Biso   1.000  H
  H219     1.0000 0.18264  0.58408  0.03289  Biso   1.000  H
  O71      1.0000 0.26781  0.50148  0.09080  Biso   1.000  O
  H220     1.0000 0.22423  0.41500  0.06540  Biso   1.000  H
  H221     1.0000 0.27350  0.46931  0.03940  Biso   1.000  H
  O72      1.0000 0.41419  0.46458  0.07589  Biso   1.000  O
  H222     1.0000 0.53661  0.52377  0.11320  Biso   1.000  H
  C199     1.0000 0.65548  0.86681  0.76965  Biso   1.000  C
  O73      1.0000 0.71733  0.89510  0.79754  Biso   1.000  O
  C200     1.0000 0.56007  0.90091  0.77296  Biso   1.000  C
  H223     1.0000 0.64880  0.81688  0.77270  Biso   1.000  H
  H224     1.0000 0.68321  0.87566  0.74601  Biso   1.000  H
  C201     1.0000 0.80442  0.86808  0.79799  Biso   1.000  C
  C202     1.0000 0.48329  0.86757  0.78740  Biso   1.000  C
  C203     1.0000 0.54742  0.96717  0.76123  Biso   1.000  C
  O74      1.0000 0.82788  0.82171  0.77916  Biso   1.000  O
  C204     1.0000 0.87082  0.89979  0.82365  Biso   1.000  C
  C205     1.0000 0.39649  0.89918  0.79055  Biso   1.000  C
  H225     1.0000 0.49040  0.82197  0.79531  Biso   1.000  H
  H226     1.0000 0.59967  0.99099  0.75109  Biso   1.000  H
  C206     1.0000 0.46040  0.99949  0.76393  Biso   1.000  C
  N7       1.0000 0.83428  0.93597  0.85108  Biso   1.000  N
  C207     1.0000 0.96794  0.89129  0.81822  Biso   1.000  C
  O75      1.0000 0.31757  0.86996  0.80569  Biso   1.000  O
  C208     1.0000 0.38533  0.96600  0.77974  Biso   1.000  C
  H227     1.0000 0.45244  0.04428  0.75501  Biso   1.000  H
  C209     1.0000 0.89841  0.96259  0.87335  Biso   1.000  C
  H228     1.0000 0.99019  0.86538  0.79870  Biso   1.000  H
  C210     1.0000 0.03021  0.91999  0.84091  Biso   1.000  C
  C211     1.0000 0.31757  0.79738  0.81144  Biso   1.000  C
  O76      1.0000 0.29824  0.99399  0.78597  Biso   1.000  O
  C212     1.0000 0.99481  0.95638  0.86993  Biso   1.000  C
  C213     1.0000 0.86172  0.00356  0.90486  Biso   1.000  C
  H229     1.0000 0.09669  0.91556  0.83731  Biso   1.000  H
  H230     1.0000 0.37381  0.78390  0.82550  Biso   1.000  H
  H231     1.0000 0.31971  0.77300  0.78851  Biso   1.000  H
  C214     1.0000 0.22679  0.77988  0.83119  Biso   1.000  C
  C215     1.0000 0.28210  0.06398  0.77760  Biso   1.000  C
  H232     1.0000 0.03661  0.97618  0.88680  Biso   1.000  H
  O77      1.0000 0.76781  0.99847  0.90920  Biso   1.000  O
  O78      1.0000 0.91419  0.03537  0.92411  Biso   1.000  O
  O79      1.0000 0.22913  0.81387  0.86450  Biso   1.000  O
  H233     1.0000 0.17077  0.79479  0.81740  Biso   1.000  H
  H234     1.0000 0.22252  0.73010  0.83479  Biso   1.000  H
  H235     1.0000 0.25999  0.06820  0.75279  Biso   1.000  H
  H236     1.0000 0.34210  0.08988  0.78001  Biso   1.000  H
  C216     1.0000 0.20368  0.09456  0.80381  Biso   1.000  C
  C217     1.0000 0.73041  0.03588  0.94010  Biso   1.000  C
  C218     1.0000 0.15477  0.79158  0.88691  Biso   1.000  C
  O80      1.0000 0.22579  0.08749  0.83845  Biso   1.000  O
  H237     1.0000 0.19529  0.14358  0.79849  Biso   1.000  H
  H238     1.0000 0.14219  0.07166  0.79921  Biso   1.000  H
  C219     1.0000 0.63508  0.00580  0.94807  Biso   1.000  C
  H239     1.0000 0.72423  0.08500  0.93460  Biso   1.000  H
  H240     1.0000 0.77350  0.03069  0.96060  Biso   1.000  H
  H241     1.0000 0.16053  0.74201  0.89101  Biso   1.000  H
  H242     1.0000 0.09271  0.80049  0.87549  Biso   1.000  H
  C220     1.0000 0.16010  0.82868  0.92167  Biso   1.000  C
  C221     1.0000 0.15669  0.10026  0.86310  Biso   1.000  C
  C222     1.0000 0.62669  0.94096  0.96163  Biso   1.000  C
  C223     1.0000 0.55218  0.04377  0.94204  Biso   1.000  C
  O81      1.0000 0.24783  0.81448  0.93775  Biso   1.000  O
  H243     1.0000 0.15378  0.87831  0.91770  Biso   1.000  H
  H244     1.0000 0.10749  0.81377  0.93730  Biso   1.000  H
  H245     1.0000 0.10159  0.07049  0.85810  Biso   1.000  H
  H246     1.0000 0.13522  0.14800  0.86029  Biso   1.000  H
  C224     1.0000 0.18463  0.09039  0.89930  Biso   1.000  C
  C225     1.0000 0.53839  0.91139  0.96743  Biso   1.000  C
  H247     1.0000 0.68264  0.91587  0.96711  Biso   1.000  H
  C226     1.0000 0.46317  0.01547  0.94794  Biso   1.000  C
  H248     1.0000 0.55709  0.08937  0.93380  Biso   1.000  H
  C227     1.0000 0.25359  0.83688  0.97373  Biso   1.000  C
  O82      1.0000 0.23887  0.14739  0.90891  Biso   1.000  O
  H249     1.0000 0.12790  0.08647  0.91471  Biso   1.000  H
  H250     1.0000 0.22281  0.04830  0.90171  Biso   1.000  H
  C228     1.0000 0.45642  0.94717  0.96052  Biso   1.000  C
  H251     1.0000 0.53462  0.86620  0.97619  Biso   1.000  H
  O83      1.0000 0.37871  0.04708  0.94188  Biso   1.000  O
  H252     1.0000 0.23518  0.79947  0.98991  Biso   1.000  H
  H253     1.0000 0.20973  0.87551  0.97760  Biso   1.000  H
  C229     1.0000 0.35390  0.85861  0.98117  Biso   1.000  C
  C230     1.0000 0.27968  0.14521  0.94161  Biso   1.000  C
  O84      1.0000 0.36670  0.92361  0.96380  Biso   1.000  O
  C231     1.0000 0.37822  0.12047  0.94177  Biso   1.000  C
  H254     1.0000 0.39940  0.82466  0.97169  Biso   1.000  H
  H255     1.0000 0.36428  0.86309  0.00699  Biso   1.000  H
  H256     1.0000 0.24108  0.11528  0.95700  Biso   1.000  H
  H257     1.0000 0.27840  0.19147  0.95191  Biso   1.000  H
  H258     1.0000 0.41199  0.13757  0.92051  Biso   1.000  H
  H259     1.0000 0.41163  0.13777  0.96301  Biso   1.000  H
  C232     1.0000 0.34452  0.13319  0.23035  Biso   1.000  C
  O85      1.0000 0.28267  0.10490  0.20246  Biso   1.000  O
  C233     1.0000 0.43993  0.09909  0.22704  Biso   1.000  C
  H260     1.0000 0.35120  0.18307  0.22730  Biso   1.000  H
  H261     1.0000 0.31679  0.12429  0.25399  Biso   1.000  H
  C234     1.0000 0.19558  0.13192  0.20201  Biso   1.000  C
  C235     1.0000 0.51671  0.13238  0.21260  Biso   1.000  C
  C236     1.0000 0.45258  0.03278  0.23877  Biso   1.000  C
  O86      1.0000 0.17212  0.17829  0.22084  Biso   1.000  O
  C237     1.0000 0.12918  0.10021  0.17635  Biso   1.000  C
  C238     1.0000 0.60351  0.10077  0.20945  Biso   1.000  C
  H262     1.0000 0.50960  0.17798  0.20469  Biso   1.000  H
  H263     1.0000 0.40033  0.00901  0.24891  Biso   1.000  H
  C239     1.0000 0.53960  0.00051  0.23607  Biso   1.000  C
  N8       1.0000 0.16572  0.06398  0.14892  Biso   1.000  N
  C240     1.0000 0.03213  0.10871  0.18178  Biso   1.000  C
  O87      1.0000 0.68243  0.12999  0.19431  Biso   1.000  O
  C241     1.0000 0.61467  0.03400  0.22026  Biso   1.000  C
  H264     1.0000 0.54763  0.95572  0.24499  Biso   1.000  H
  C242     1.0000 0.10159  0.03741  0.12665  Biso   1.000  C
  H265     1.0000 0.00981  0.13462  0.20130  Biso   1.000  H
  C243     1.0000 0.96979  0.08001  0.15909  Biso   1.000  C
  C244     1.0000 0.68243  0.20262  0.18856  Biso   1.000  C
  O88      1.0000 0.70183  0.00601  0.21403  Biso   1.000  O
  C245     1.0000 0.00519  0.04362  0.13007  Biso   1.000  C
  C246     1.0000 0.13828  0.99639  0.09514  Biso   1.000  C
  H266     1.0000 0.90331  0.08439  0.16269  Biso   1.000  H
  H267     1.0000 0.62619  0.21610  0.17450  Biso   1.000  H
  H268     1.0000 0.68029  0.22700  0.21149  Biso   1.000  H
  C247     1.0000 0.77321  0.22007  0.16881  Biso   1.000  C
  C248     1.0000 0.71790  0.93602  0.22240  Biso   1.000  C
  H269     1.0000 0.96339  0.02382  0.11320  Biso   1.000  H
  O89      1.0000 0.23219  0.00148  0.09080  Biso   1.000  O
  O90      1.0000 0.08581  0.96458  0.07589  Biso   1.000  O
  O91      1.0000 0.77094  0.18607  0.13550  Biso   1.000  O
  H270     1.0000 0.82923  0.20521  0.18260  Biso   1.000  H
  H271     1.0000 0.77748  0.26990  0.16521  Biso   1.000  H
  H272     1.0000 0.74001  0.93180  0.24721  Biso   1.000  H
  H273     1.0000 0.65790  0.91012  0.21999  Biso   1.000  H
  C249     1.0000 0.79632  0.90538  0.19619  Biso   1.000  C
  C250     1.0000 0.26959  0.96412  0.05990  Biso   1.000  C
  C251     1.0000 0.84523  0.20842  0.11309  Biso   1.000  C
  O92      1.0000 0.77421  0.91251  0.16155  Biso   1.000  O
  H274     1.0000 0.80471  0.85642  0.20151  Biso   1.000  H
  H275     1.0000 0.85781  0.92829  0.20079  Biso   1.000  H
  C252     1.0000 0.36492  0.99420  0.05193  Biso   1.000  C
  H276     1.0000 0.27577  0.91500  0.06540  Biso   1.000  H
  H277     1.0000 0.22650  0.96931  0.03940  Biso   1.000  H
  H278     1.0000 0.83947  0.25799  0.10899  Biso   1.000  H
  H279     1.0000 0.90729  0.19951  0.12451  Biso   1.000  H
  C253     1.0000 0.83990  0.17132  0.07833  Biso   1.000  C
  C254     1.0000 0.84331  0.89968  0.13690  Biso   1.000  C
  C255     1.0000 0.37331  0.05899  0.03837  Biso   1.000  C
  C256     1.0000 0.44782  0.95618  0.05796  Biso   1.000  C
  O93      1.0000 0.75224  0.18552  0.06225  Biso   1.000  O
  H280     1.0000 0.84622  0.12169  0.08230  Biso   1.000  H
  H281     1.0000 0.89251  0.18618  0.06270  Biso   1.000  H
  H282     1.0000 0.89841  0.92951  0.14190  Biso   1.000  H
  H283     1.0000 0.86478  0.85200  0.13971  Biso   1.000  H
  C257     1.0000 0.81537  0.90961  0.10070  Biso   1.000  C
  C258     1.0000 0.46161  0.08861  0.03257  Biso   1.000  C
  H284     1.0000 0.31743  0.08408  0.03289  Biso   1.000  H
  C259     1.0000 0.53683  0.98448  0.05206  Biso   1.000  C
  H285     1.0000 0.44291  0.91058  0.06620  Biso   1.000  H
  C260     1.0000 0.74641  0.16312  0.02627  Biso   1.000  C
  O94      1.0000 0.76113  0.85261  0.09109  Biso   1.000  O
  H286     1.0000 0.87210  0.91348  0.08529  Biso   1.000  H
  H287     1.0000 0.77719  0.95170  0.09829  Biso   1.000  H
  C261     1.0000 0.54358  0.05278  0.03948  Biso   1.000  C
  H288     1.0000 0.46538  0.13380  0.02381  Biso   1.000  H
  O95      1.0000 0.62129  0.95292  0.05812  Biso   1.000  O
  C262     1.0000 0.64610  0.14139  0.01883  Biso   1.000  C
  H289     1.0000 0.76482  0.20048  0.01009  Biso   1.000  H
  H290     1.0000 0.79027  0.12449  0.02240  Biso   1.000  H
  C263     1.0000 0.72032  0.85479  0.05839  Biso   1.000  C
  O96      1.0000 0.63330  0.07639  0.03620  Biso   1.000  O
  C264     1.0000 0.62178  0.87948  0.05823  Biso   1.000  C
  H291     1.0000 0.60060  0.17529  0.02831  Biso   1.000  H
  H292     1.0000 0.63572  0.13691  0.99301  Biso   1.000  H
  H293     1.0000 0.75892  0.88472  0.04300  Biso   1.000  H
  H294     1.0000 0.72160  0.80848  0.04809  Biso   1.000  H
  H295     1.0000 0.58801  0.86238  0.07949  Biso   1.000  H
  H296     1.0000 0.58837  0.86223  0.03699  Biso   1.000  H
  Ne1      1.0000 0.50307  0.04836  0.13067  Biso   1.000  Ne
  He1      1.0000 0.43516  0.05438  0.13508  Biso   1.000  He
  He2      1.0000 0.42207  0.03946  0.13965  Biso   1.000  He
  He3      1.0000 0.84344  0.05448  0.16204  Biso   1.000  He
  Ar1      1.0000 0.48676  0.04094  0.13604  Biso   1.000  Ar
  Ne2      1.0000 0.00307  0.04836  0.36932  Biso   1.000  Ne
  He4      1.0000 0.90900  0.13008  0.37431  Biso   1.000  He
  He5      1.0000 0.01594  0.91982  0.35063  Biso   1.000  He
  He6      1.0000 0.33665  0.05407  0.33904  Biso   1.000  He
  Ar2      1.0000 0.95244  0.98318  0.35036  Biso   1.000  Ar
  Ne3      1.0000 0.49694  0.54835  0.36932  Biso   1.000  Ne
  He7      1.0000 0.57564  0.54832  0.36208  Biso   1.000  He
  He8      1.0000 0.30126  0.54705  0.36955  Biso   1.000  He
  He9      1.0000 0.57878  0.53360  0.35901  Biso   1.000  He
  Ar3      1.0000 0.51342  0.54093  0.36395  Biso   1.000  Ar
  Ne4      1.0000 0.99694  0.54835  0.13067  Biso   1.000  Ne
  He10     1.0000 0.08275  0.50979  0.14641  Biso   1.000  He
  He11     1.0000 0.08535  0.60313  0.12810  Biso   1.000  He
  He12     1.0000 0.80055  0.54700  0.13056  Biso   1.000  He
  Ar4      1.0000 0.03980  0.51727  0.14498  Biso   1.000  Ar
  Ne5      1.0000 0.50307  0.45163  0.63068  Biso   1.000  Ne
  He13     1.0000 0.42248  0.44011  0.63548  Biso   1.000  He
  He14     1.0000 0.42094  0.36747  0.62405  Biso   1.000  He
  He15     1.0000 0.76955  0.45488  0.63667  Biso   1.000  He
  Ar5      1.0000 0.47603  0.44423  0.63214  Biso   1.000  Ar
  Ne6      1.0000 0.99694  0.95162  0.63068  Biso   1.000  Ne
  He16     1.0000 0.98856  0.08340  0.64990  Biso   1.000  He
  He17     1.0000 0.08229  0.98780  0.64587  Biso   1.000  He
  He18     1.0000 0.76243  0.95525  0.63617  Biso   1.000  He
  Ar6      1.0000 0.05567  0.01147  0.64906  Biso   1.000  Ar
  Ne7      1.0000 0.00307  0.45163  0.86933  Biso   1.000  Ne
  He19     1.0000 0.95687  0.41816  0.87415  Biso   1.000  He
  He20     1.0000 0.26939  0.45488  0.86335  Biso   1.000  He
  He21     1.0000 0.91314  0.50583  0.85146  Biso   1.000  He
  Ar7      1.0000 0.94023  0.44086  0.86669  Biso   1.000  Ar
  Ne8      1.0000 0.49694  0.95162  0.86933  Biso   1.000  Ne
  He22     1.0000 0.59024  0.87377  0.87397  Biso   1.000  He
  He23     1.0000 0.16591  0.94611  0.83958  Biso   1.000  He
  He24     1.0000 0.58228  0.98737  0.85423  Biso   1.000  He
  Ar8      1.0000 0.57504  0.96945  0.85828  Biso   1.000  Ar
