data_image0
_cell_length_a       12.871
_cell_length_b       20.328
_cell_length_c       26.232
_cell_angle_alpha    90
_cell_angle_beta     98.3
_cell_angle_gamma    90

_symmetry_space_group_name_H-M    "P 1"
_symmetry_int_tables_number       1

loop_
  _symmetry_equiv_pos_as_xyz
  'x, y, z'

loop_
  _atom_site_label
  _atom_site_occupancy
  _atom_site_fract_x
  _atom_site_fract_y
  _atom_site_fract_z
  _atom_site_thermal_displace_type
  _atom_site_B_iso_or_equiv
  _atom_site_type_symbol
  O1       1.0000 0.45462  0.44589  0.44296  Biso   1.000  O
  C1       1.0000 0.39500  0.41303  0.40301  Biso   1.000  C
  C2       1.0000 0.51763  0.40737  0.48048  Biso   1.000  C
  C3       1.0000 0.41126  0.34730  0.39091  Biso   1.000  C
  C4       1.0000 0.31704  0.44958  0.37358  Biso   1.000  C
  H1       1.0000 0.57133  0.38558  0.46492  Biso   1.000  H
  H2       1.0000 0.54952  0.43531  0.50780  Biso   1.000  H
  H3       1.0000 0.47464  0.37510  0.49412  Biso   1.000  H
  C5       1.0000 0.35089  0.31710  0.34892  Biso   1.000  C
  H4       1.0000 0.46327  0.32330  0.41110  Biso   1.000  H
  C6       1.0000 0.25645  0.41903  0.33266  Biso   1.000  C
  C7       1.0000 0.30075  0.52209  0.38475  Biso   1.000  C
  C8       1.0000 0.37146  0.24739  0.33355  Biso   1.000  C
  C9       1.0000 0.27310  0.35404  0.32006  Biso   1.000  C
  H5       1.0000 0.20306  0.44269  0.31309  Biso   1.000  H
  C10      1.0000 0.35257  0.56725  0.34988  Biso   1.000  C
  H6       1.0000 0.32931  0.53119  0.42031  Biso   1.000  H
  H7       1.0000 0.22605  0.53129  0.38039  Biso   1.000  H
  C11      1.0000 0.43859  0.24429  0.29025  Biso   1.000  C
  H8       1.0000 0.40678  0.22388  0.36329  Biso   1.000  H
  H9       1.0000 0.30496  0.22560  0.32249  Biso   1.000  H
  O2       1.0000 0.21324  0.32064  0.28035  Biso   1.000  O
  C12      1.0000 0.45570  0.58796  0.36371  Biso   1.000  C
  C13      1.0000 0.29860  0.58879  0.30350  Biso   1.000  C
  C14      1.0000 0.39244  0.24365  0.23928  Biso   1.000  C
  C15      1.0000 0.54777  0.24424  0.30061  Biso   1.000  C
  C16      1.0000 0.14315  0.35921  0.24571  Biso   1.000  C
  C17      1.0000 0.50338  0.62953  0.33247  Biso   1.000  C
  H10      1.0000 0.49338  0.57349  0.39461  Biso   1.000  H
  C18      1.0000 0.34576  0.63174  0.27233  Biso   1.000  C
  O3       1.0000 0.19685  0.56597  0.29067  Biso   1.000  O
  H11      1.0000 0.31964  0.24282  0.23161  Biso   1.000  H
  C19      1.0000 0.45233  0.24424  0.19937  Biso   1.000  C
  O4       1.0000 0.59015  0.24547  0.35250  Biso   1.000  O
  C20      1.0000 0.60767  0.24365  0.26074  Biso   1.000  C
  H12      1.0000 0.18065  0.39542  0.23350  Biso   1.000  H
  H13      1.0000 0.11344  0.33250  0.21709  Biso   1.000  H
  H14      1.0000 0.08808  0.37569  0.26320  Biso   1.000  H
  C21      1.0000 0.44714  0.65289  0.28605  Biso   1.000  C
  O5       1.0000 0.60608  0.65137  0.34434  Biso   1.000  O
  H15      1.0000 0.30773  0.64630  0.24159  Biso   1.000  H
  C22      1.0000 0.15166  0.56828  0.23847  Biso   1.000  C
  C23      1.0000 0.56152  0.24429  0.20977  Biso   1.000  C
  O6       1.0000 0.40996  0.24547  0.14751  Biso   1.000  O
  C24      1.0000 0.70138  0.23839  0.36402  Biso   1.000  C
  H16      1.0000 0.68047  0.24282  0.26840  Biso   1.000  H
  C25      1.0000 0.50009  0.69520  0.24999  Biso   1.000  C
  C26      1.0000 0.67121  0.61806  0.38348  Biso   1.000  C
  H17      1.0000 0.20442  0.55908  0.21709  Biso   1.000  H
  H18      1.0000 0.09675  0.53601  0.23219  Biso   1.000  H
  H19      1.0000 0.12282  0.61118  0.23049  Biso   1.000  H
  C27      1.0000 0.62864  0.24739  0.16643  Biso   1.000  C
  C28      1.0000 0.29873  0.23839  0.13599  Biso   1.000  C
  H20      1.0000 0.72287  0.19599  0.35231  Biso   1.000  H
  H21      1.0000 0.73613  0.27258  0.34692  Biso   1.000  H
  C29      1.0000 0.73016  0.24410  0.42169  Biso   1.000  C
  C30      1.0000 0.55297  0.65289  0.21397  Biso   1.000  C
  H22      1.0000 0.55187  0.72319  0.26991  Biso   1.000  H
  H23      1.0000 0.44825  0.72319  0.23011  Biso   1.000  H
  H24      1.0000 0.66789  0.57167  0.37670  Biso   1.000  H
  H25      1.0000 0.74222  0.63307  0.38452  Biso   1.000  H
  H26      1.0000 0.64807  0.62677  0.41599  Biso   1.000  H
  C31      1.0000 0.64921  0.31710  0.15106  Biso   1.000  C
  H27      1.0000 0.59332  0.22388  0.13669  Biso   1.000  H
  H28      1.0000 0.69514  0.22560  0.17748  Biso   1.000  H
  H29      1.0000 0.27724  0.19599  0.14770  Biso   1.000  H
  H30      1.0000 0.26406  0.27258  0.15310  Biso   1.000  H
  C32      1.0000 0.26994  0.24410  0.07828  Biso   1.000  C
  H31      1.0000 0.71533  0.28837  0.43229  Biso   1.000  H
  H32      1.0000 0.68742  0.21399  0.43830  Biso   1.000  H
  C33      1.0000 0.84571  0.22880  0.43918  Biso   1.000  C
  C34      1.0000 0.49673  0.62953  0.16754  Biso   1.000  C
  C35      1.0000 0.65435  0.63174  0.22768  Biso   1.000  C
  C36      1.0000 0.58884  0.34730  0.10906  Biso   1.000  C
  C37      1.0000 0.72708  0.35404  0.17991  Biso   1.000  C
  H33      1.0000 0.28485  0.28837  0.06769  Biso   1.000  H
  H34      1.0000 0.31270  0.21399  0.06172  Biso   1.000  H
  C38      1.0000 0.15441  0.22880  0.06083  Biso   1.000  C
  H35      1.0000 0.86059  0.23411  0.47632  Biso   1.000  H
  H36      1.0000 0.85872  0.18310  0.43140  Biso   1.000  H
  C39      1.0000 0.92077  0.27209  0.41414  Biso   1.000  C
  C40      1.0000 0.54440  0.58796  0.13626  Biso   1.000  C
  O7       1.0000 0.39403  0.65137  0.15568  Biso   1.000  O
  C41      1.0000 0.70159  0.58879  0.19652  Biso   1.000  C
  H37      1.0000 0.69237  0.64630  0.25839  Biso   1.000  H
  C42      1.0000 0.60511  0.41303  0.09701  Biso   1.000  C
  H38      1.0000 0.53684  0.32330  0.08892  Biso   1.000  H
  C43      1.0000 0.74367  0.41903  0.16735  Biso   1.000  C
  O8       1.0000 0.78687  0.32064  0.21967  Biso   1.000  O
  H39      1.0000 0.13952  0.23411  0.02369  Biso   1.000  H
  H40      1.0000 0.14139  0.18310  0.06861  Biso   1.000  H
  C44      1.0000 0.07933  0.27209  0.08583  Biso   1.000  C
  H41      1.0000 0.90132  0.31779  0.41749  Biso   1.000  H
  H42      1.0000 0.91362  0.26190  0.37770  Biso   1.000  H
  C45      1.0000 0.03491  0.26289  0.43791  Biso   1.000  C
  C46      1.0000 0.64754  0.56725  0.15013  Biso   1.000  C
  H43      1.0000 0.50673  0.57349  0.10540  Biso   1.000  H
  C47      1.0000 0.32890  0.61806  0.11654  Biso   1.000  C
  O9       1.0000 0.80326  0.56597  0.20934  Biso   1.000  O
  C48      1.0000 0.68307  0.44958  0.12644  Biso   1.000  C
  O10      1.0000 0.54549  0.44589  0.05706  Biso   1.000  O
  H44      1.0000 0.79704  0.44269  0.18688  Biso   1.000  H
  C49      1.0000 0.85696  0.35921  0.25430  Biso   1.000  C
  H45      1.0000 0.09878  0.31779  0.08248  Biso   1.000  H
  H46      1.0000 0.08657  0.26190  0.12232  Biso   1.000  H
  C50      1.0000 0.96519  0.26289  0.06206  Biso   1.000  C
  H47      1.0000 0.05403  0.21709  0.43479  Biso   1.000  H
  H48      1.0000 0.04189  0.27342  0.47432  Biso   1.000  H
  C51      1.0000 0.11059  0.30529  0.41314  Biso   1.000  C
  C52      1.0000 0.69935  0.52209  0.11523  Biso   1.000  C
  H49      1.0000 0.33222  0.57167  0.12332  Biso   1.000  H
  H50      1.0000 0.25789  0.63307  0.11550  Biso   1.000  H
  H51      1.0000 0.35203  0.62677  0.08398  Biso   1.000  H
  C53      1.0000 0.84845  0.56828  0.26155  Biso   1.000  C
  C54      1.0000 0.48255  0.40737  0.01953  Biso   1.000  C
  H52      1.0000 0.81946  0.39542  0.26652  Biso   1.000  H
  H53      1.0000 0.88666  0.33250  0.28289  Biso   1.000  H
  H54      1.0000 0.91211  0.37569  0.23681  Biso   1.000  H
  H55      1.0000 0.94607  0.21709  0.06518  Biso   1.000  H
  H56      1.0000 0.95822  0.27342  0.02570  Biso   1.000  H
  C55      1.0000 0.88952  0.30529  0.08687  Biso   1.000  C
  H57      1.0000 0.09799  0.29909  0.37612  Biso   1.000  H
  H58      1.0000 0.18203  0.29162  0.42539  Biso   1.000  H
  N1       1.0000 0.09903  0.37470  0.42481  Biso   1.000  N
  H59      1.0000 0.67088  0.53119  0.07971  Biso   1.000  H
  H60      1.0000 0.77406  0.53129  0.11962  Biso   1.000  H
  H61      1.0000 0.79568  0.55908  0.28289  Biso   1.000  H
  H62      1.0000 0.90335  0.53601  0.26779  Biso   1.000  H
  H63      1.0000 0.87729  0.61118  0.26952  Biso   1.000  H
  H64      1.0000 0.42879  0.38558  0.03510  Biso   1.000  H
  H65      1.0000 0.52555  0.37510  0.00589  Biso   1.000  H
  H66      1.0000 0.45083  0.43531  0.99226  Biso   1.000  H
  H67      1.0000 0.90212  0.29909  0.12390  Biso   1.000  H
  H68      1.0000 0.81807  0.29162  0.07458  Biso   1.000  H
  N2       1.0000 0.90114  0.37470  0.07516  Biso   1.000  N
  C56      1.0000 0.04030  0.42001  0.39234  Biso   1.000  C
  C57      1.0000 0.15012  0.40530  0.46904  Biso   1.000  C
  C58      1.0000 0.95980  0.42001  0.10764  Biso   1.000  C
  C59      1.0000 0.85000  0.40530  0.03097  Biso   1.000  C
  O11      1.0000 0.99076  0.40786  0.35123  Biso   1.000  O
  C60      1.0000 0.05307  0.48480  0.41965  Biso   1.000  C
  C61      1.0000 0.11769  0.47599  0.46500  Biso   1.000  C
  O12      1.0000 0.20695  0.37721  0.50217  Biso   1.000  O
  O13      1.0000 0.00935  0.40786  0.14878  Biso   1.000  O
  C62      1.0000 0.94704  0.48480  0.08036  Biso   1.000  C
  O14      1.0000 0.79340  0.37721  0.99784  Biso   1.000  O
  C63      1.0000 0.88242  0.47599  0.03502  Biso   1.000  C
  C64      1.0000 0.01359  0.54521  0.40482  Biso   1.000  C
  C65      1.0000 0.14754  0.52799  0.49805  Biso   1.000  C
  C66      1.0000 0.98652  0.54521  0.09520  Biso   1.000  C
  C67      1.0000 0.85256  0.52799  0.00193  Biso   1.000  C
  H69      1.0000 0.96971  0.55077  0.37369  Biso   1.000  H
  C68      1.0000 0.04084  0.59809  0.43749  Biso   1.000  C
  C69      1.0000 0.10708  0.58948  0.48360  Biso   1.000  C
  H70      1.0000 0.19285  0.52189  0.52872  Biso   1.000  H
  H71      1.0000 0.03039  0.55077  0.12628  Biso   1.000  H
  C70      1.0000 0.95934  0.59809  0.06249  Biso   1.000  C
  H72      1.0000 0.80751  0.52189  0.97134  Biso   1.000  H
  C71      1.0000 0.89303  0.58948  0.01641  Biso   1.000  C
  H73      1.0000 0.01439  0.63971  0.42840  Biso   1.000  H
  H74      1.0000 0.12465  0.62539  0.50502  Biso   1.000  H
  H75      1.0000 0.98572  0.63971  0.07162  Biso   1.000  H
  H76      1.0000 0.87570  0.62539  0.99503  Biso   1.000  H
  O15      1.0000 0.54561  0.55411  0.55707  Biso   1.000  O
  C72      1.0000 0.60521  0.58697  0.59698  Biso   1.000  C
  C73      1.0000 0.48258  0.59258  0.51951  Biso   1.000  C
  C74      1.0000 0.68310  0.55037  0.62645  Biso   1.000  C
  C75      1.0000 0.58895  0.65265  0.60908  Biso   1.000  C
  H77      1.0000 0.42890  0.61437  0.53511  Biso   1.000  H
  H78      1.0000 0.45069  0.56469  0.49219  Biso   1.000  H
  H79      1.0000 0.52558  0.62490  0.50591  Biso   1.000  H
  C76      1.0000 0.69946  0.47791  0.61524  Biso   1.000  C
  C77      1.0000 0.74378  0.58092  0.66737  Biso   1.000  C
  H80      1.0000 0.53694  0.67670  0.58889  Biso   1.000  H
  C78      1.0000 0.64932  0.68285  0.65107  Biso   1.000  C
  C79      1.0000 0.64765  0.43270  0.65015  Biso   1.000  C
  H81      1.0000 0.67091  0.46881  0.57972  Biso   1.000  H
  H82      1.0000 0.77416  0.46871  0.61960  Biso   1.000  H
  C80      1.0000 0.72712  0.64591  0.67993  Biso   1.000  C
  H83      1.0000 0.79715  0.55731  0.68690  Biso   1.000  H
  C81      1.0000 0.62875  0.75261  0.66644  Biso   1.000  C
  C82      1.0000 0.54451  0.41204  0.63628  Biso   1.000  C
  C83      1.0000 0.70162  0.41121  0.69653  Biso   1.000  C
  O16      1.0000 0.78698  0.67936  0.71968  Biso   1.000  O
  H84      1.0000 0.59343  0.77607  0.63670  Biso   1.000  H
  H85      1.0000 0.69525  0.77440  0.67750  Biso   1.000  H
  C84      1.0000 0.56162  0.75571  0.70974  Biso   1.000  C
  C85      1.0000 0.49684  0.37043  0.66756  Biso   1.000  C
  H86      1.0000 0.50684  0.42651  0.60542  Biso   1.000  H
  C86      1.0000 0.65446  0.36826  0.72770  Biso   1.000  C
  O17      1.0000 0.80336  0.43398  0.70932  Biso   1.000  O
  C87      1.0000 0.85708  0.64079  0.75432  Biso   1.000  C
  C88      1.0000 0.60778  0.75635  0.76075  Biso   1.000  C
  C89      1.0000 0.45244  0.75576  0.69938  Biso   1.000  C
  O18      1.0000 0.39414  0.34858  0.65569  Biso   1.000  O
  C90      1.0000 0.55308  0.34706  0.71398  Biso   1.000  C
  H87      1.0000 0.69248  0.35370  0.75840  Biso   1.000  H
  C91      1.0000 0.84856  0.43167  0.76156  Biso   1.000  C
  H88      1.0000 0.81956  0.60458  0.76649  Biso   1.000  H
  H89      1.0000 0.88677  0.66750  0.78290  Biso   1.000  H
  H90      1.0000 0.91214  0.62431  0.73683  Biso   1.000  H
  H91      1.0000 0.68058  0.75718  0.76842  Biso   1.000  H
  C92      1.0000 0.54788  0.75576  0.80062  Biso   1.000  C
  O19      1.0000 0.41007  0.75448  0.64753  Biso   1.000  O
  C93      1.0000 0.39255  0.75635  0.73929  Biso   1.000  C
  C94      1.0000 0.32901  0.38189  0.61655  Biso   1.000  C
  C95      1.0000 0.50012  0.30480  0.75000  Biso   1.000  C
  H92      1.0000 0.79579  0.44087  0.78290  Biso   1.000  H
  H93      1.0000 0.90346  0.46399  0.76780  Biso   1.000  H
  H94      1.0000 0.87739  0.38877  0.76950  Biso   1.000  H
  C96      1.0000 0.43862  0.75571  0.79026  Biso   1.000  C
  O20      1.0000 0.59026  0.75448  0.85252  Biso   1.000  O
  C97      1.0000 0.29884  0.76161  0.63601  Biso   1.000  C
  H95      1.0000 0.31975  0.75718  0.73163  Biso   1.000  H
  H96      1.0000 0.33232  0.42828  0.62329  Biso   1.000  H
  H97      1.0000 0.25801  0.36688  0.61551  Biso   1.000  H
  H98      1.0000 0.35215  0.37318  0.58400  Biso   1.000  H
  H99      1.0000 0.44836  0.27681  0.73012  Biso   1.000  H
  H100     1.0000 0.55198  0.27681  0.76992  Biso   1.000  H
  C98      1.0000 0.44724  0.34706  0.78602  Biso   1.000  C
  C99      1.0000 0.37157  0.75261  0.83356  Biso   1.000  C
  C100     1.0000 0.70149  0.76161  0.86404  Biso   1.000  C
  H101     1.0000 0.27735  0.80396  0.64772  Biso   1.000  H
  H102     1.0000 0.26410  0.72737  0.65311  Biso   1.000  H
  C101     1.0000 0.26998  0.75585  0.57830  Biso   1.000  C
  C102     1.0000 0.50349  0.37043  0.83248  Biso   1.000  C
  C103     1.0000 0.34587  0.36826  0.77235  Biso   1.000  C
  C104     1.0000 0.35100  0.68285  0.84893  Biso   1.000  C
  H103     1.0000 0.40689  0.77607  0.86330  Biso   1.000  H
  H104     1.0000 0.30508  0.77440  0.82251  Biso   1.000  H
  H105     1.0000 0.72299  0.80396  0.85232  Biso   1.000  H
  H106     1.0000 0.73615  0.72737  0.84689  Biso   1.000  H
  C105     1.0000 0.73027  0.75585  0.92171  Biso   1.000  C
  H107     1.0000 0.28488  0.71158  0.56770  Biso   1.000  H
  H108     1.0000 0.31280  0.78596  0.56169  Biso   1.000  H
  C106     1.0000 0.15452  0.77120  0.56085  Biso   1.000  C
  C107     1.0000 0.45573  0.41204  0.86373  Biso   1.000  C
  O21      1.0000 0.60618  0.34858  0.84431  Biso   1.000  O
  C108     1.0000 0.29862  0.41121  0.80348  Biso   1.000  C
  H109     1.0000 0.30784  0.35370  0.74160  Biso   1.000  H
  C109     1.0000 0.41137  0.65265  0.89093  Biso   1.000  C
  C110     1.0000 0.27313  0.64591  0.82008  Biso   1.000  C
  H110     1.0000 0.71536  0.71158  0.93230  Biso   1.000  H
  H111     1.0000 0.68753  0.78596  0.93831  Biso   1.000  H
  C111     1.0000 0.84582  0.77120  0.93920  Biso   1.000  C
  H112     1.0000 0.13963  0.76589  0.52371  Biso   1.000  H
  H113     1.0000 0.14149  0.81690  0.56859  Biso   1.000  H
  C112     1.0000 0.07944  0.72786  0.58585  Biso   1.000  C
  H114     1.0000 0.49349  0.42651  0.89463  Biso   1.000  H
  C113     1.0000 0.35268  0.43270  0.84990  Biso   1.000  C
  C114     1.0000 0.67132  0.38189  0.88349  Biso   1.000  C
  O22      1.0000 0.19696  0.43398  0.79068  Biso   1.000  O
  C115     1.0000 0.39504  0.58697  0.90302  Biso   1.000  C
  H115     1.0000 0.46338  0.67670  0.91111  Biso   1.000  H
  C116     1.0000 0.25656  0.58092  0.83268  Biso   1.000  C
  O23      1.0000 0.21335  0.67936  0.78036  Biso   1.000  O
  H116     1.0000 0.86069  0.76589  0.97630  Biso   1.000  H
  H117     1.0000 0.85883  0.81690  0.93142  Biso   1.000  H
  C117     1.0000 0.92088  0.72786  0.91416  Biso   1.000  C
  H118     1.0000 0.09889  0.68216  0.58250  Biso   1.000  H
  H119     1.0000 0.08659  0.73810  0.62229  Biso   1.000  H
  C118     1.0000 0.96531  0.73706  0.56208  Biso   1.000  C
  C119     1.0000 0.30086  0.47791  0.88476  Biso   1.000  C
  H120     1.0000 0.66800  0.42828  0.87671  Biso   1.000  H
  H121     1.0000 0.74224  0.36688  0.88449  Biso   1.000  H
  H122     1.0000 0.64818  0.37318  0.91601  Biso   1.000  H
  C120     1.0000 0.15176  0.43167  0.73845  Biso   1.000  C
  C121     1.0000 0.31715  0.55037  0.87359  Biso   1.000  C
  O24      1.0000 0.45465  0.55411  0.94297  Biso   1.000  O
  H123     1.0000 0.20317  0.55731  0.81311  Biso   1.000  H
  C122     1.0000 0.14326  0.64079  0.74573  Biso   1.000  C
  H124     1.0000 0.90136  0.68216  0.91751  Biso   1.000  H
  H125     1.0000 0.91366  0.73810  0.87771  Biso   1.000  H
  C123     1.0000 0.03502  0.73706  0.93793  Biso   1.000  C
  H126     1.0000 0.94618  0.78286  0.56520  Biso   1.000  H
  H127     1.0000 0.95826  0.72658  0.52571  Biso   1.000  H
  C124     1.0000 0.88963  0.69471  0.58689  Biso   1.000  C
  H128     1.0000 0.32935  0.46881  0.92032  Biso   1.000  H
  H129     1.0000 0.22616  0.46871  0.88041  Biso   1.000  H
  H130     1.0000 0.20453  0.44087  0.71710  Biso   1.000  H
  H131     1.0000 0.09686  0.46399  0.73220  Biso   1.000  H
  H132     1.0000 0.12293  0.38877  0.73051  Biso   1.000  H
  C125     1.0000 0.51767  0.59258  0.98050  Biso   1.000  C
  H133     1.0000 0.18077  0.60458  0.73351  Biso   1.000  H
  H134     1.0000 0.11355  0.66750  0.71710  Biso   1.000  H
  H135     1.0000 0.08811  0.62431  0.76322  Biso   1.000  H
  H136     1.0000 0.05407  0.78286  0.93481  Biso   1.000  H
  H137     1.0000 0.04199  0.72658  0.97429  Biso   1.000  H
  C126     1.0000 0.11071  0.69471  0.91316  Biso   1.000  C
  H138     1.0000 0.90223  0.70091  0.62391  Biso   1.000  H
  H139     1.0000 0.81819  0.70838  0.57460  Biso   1.000  H
  N3       1.0000 0.90118  0.62530  0.57518  Biso   1.000  N
  H140     1.0000 0.57135  0.61437  0.96489  Biso   1.000  H
  H141     1.0000 0.47466  0.62490  0.99410  Biso   1.000  H
  H142     1.0000 0.54939  0.56469  0.00777  Biso   1.000  H
  H143     1.0000 0.09809  0.70091  0.87609  Biso   1.000  H
  H144     1.0000 0.18214  0.70838  0.92541  Biso   1.000  H
  N4       1.0000 0.09907  0.62530  0.92483  Biso   1.000  N
  C127     1.0000 0.95991  0.57999  0.60765  Biso   1.000  C
  C128     1.0000 0.85011  0.59470  0.53099  Biso   1.000  C
  C129     1.0000 0.04041  0.57999  0.89235  Biso   1.000  C
  C130     1.0000 0.15023  0.59470  0.96906  Biso   1.000  C
  O25      1.0000 0.00938  0.59209  0.64876  Biso   1.000  O
  C131     1.0000 0.94706  0.51520  0.58034  Biso   1.000  C
  C132     1.0000 0.88253  0.52401  0.53503  Biso   1.000  C
  O26      1.0000 0.79327  0.62279  0.49782  Biso   1.000  O
  O27      1.0000 0.99087  0.59209  0.85125  Biso   1.000  O
  C133     1.0000 0.05319  0.51520  0.91967  Biso   1.000  C
  C134     1.0000 0.11780  0.52401  0.96501  Biso   1.000  C
  O28      1.0000 0.20674  0.62279  0.00215  Biso   1.000  O
  C135     1.0000 0.98663  0.45479  0.59521  Biso   1.000  C
  C136     1.0000 0.85267  0.47201  0.50194  Biso   1.000  C
  C137     1.0000 0.01369  0.45479  0.90480  Biso   1.000  C
  C138     1.0000 0.14757  0.47201  0.99806  Biso   1.000  C
  H145     1.0000 0.03051  0.44918  0.62630  Biso   1.000  H
  C139     1.0000 0.95937  0.40191  0.56250  Biso   1.000  C
  C140     1.0000 0.89305  0.41047  0.51639  Biso   1.000  C
  H146     1.0000 0.80738  0.47811  0.47131  Biso   1.000  H
  H147     1.0000 0.96982  0.44918  0.87371  Biso   1.000  H
  C141     1.0000 0.04087  0.40191  0.93750  Biso   1.000  C
  C142     1.0000 0.10720  0.41047  0.98362  Biso   1.000  C
  H148     1.0000 0.19271  0.47811  0.02869  Biso   1.000  H
  H149     1.0000 0.98582  0.36029  0.57159  Biso   1.000  H
  H150     1.0000 0.87557  0.37461  0.49501  Biso   1.000  H
  H151     1.0000 0.01450  0.36029  0.92841  Biso   1.000  H
  H152     1.0000 0.12443  0.37461  0.00496  Biso   1.000  H
  C143     1.0000 0.87142  0.74739  0.33355  Biso   1.000  C
  C144     1.0000 0.93855  0.74424  0.29025  Biso   1.000  C
  C145     1.0000 0.85085  0.81710  0.34892  Biso   1.000  C
  H153     1.0000 0.80493  0.72560  0.32249  Biso   1.000  H
  H154     1.0000 0.90682  0.72388  0.36329  Biso   1.000  H
  H155     1.0000 0.80500  0.72560  0.32249  Biso   1.000  H
  C146     1.0000 0.89248  0.74360  0.23928  Biso   1.000  C
  C147     1.0000 0.87150  0.74739  0.33355  Biso   1.000  C
  C148     1.0000 0.04773  0.74420  0.30061  Biso   1.000  C
  C149     1.0000 0.04781  0.74420  0.30061  Biso   1.000  C
  C150     1.0000 0.91130  0.84730  0.39091  Biso   1.000  C
  C151     1.0000 0.77306  0.85404  0.32006  Biso   1.000  C
  H156     1.0000 0.81968  0.74277  0.23161  Biso   1.000  H
  C152     1.0000 0.95237  0.74420  0.19937  Biso   1.000  C
  O29      1.0000 0.09019  0.74547  0.35250  Biso   1.000  O
  C153     1.0000 0.10771  0.74360  0.26074  Biso   1.000  C
  C154     1.0000 0.89497  0.91298  0.40301  Biso   1.000  C
  H157     1.0000 0.96331  0.82330  0.41110  Biso   1.000  H
  C155     1.0000 0.75648  0.91903  0.33266  Biso   1.000  C
  O30      1.0000 0.71328  0.82064  0.28035  Biso   1.000  O
  O31      1.0000 0.90992  0.74547  0.14751  Biso   1.000  O
  C156     1.0000 0.06156  0.74424  0.20977  Biso   1.000  C
  C157     1.0000 0.20134  0.73839  0.36402  Biso   1.000  C
  C158     1.0000 0.20142  0.73839  0.36402  Biso   1.000  C
  H158     1.0000 0.18043  0.74277  0.26840  Biso   1.000  H
  H159     1.0000 0.18051  0.74277  0.26840  Biso   1.000  H
  C159     1.0000 0.81708  0.94958  0.37358  Biso   1.000  C
  O32      1.0000 0.95458  0.94584  0.44296  Biso   1.000  O
  H160     1.0000 0.70310  0.94269  0.31309  Biso   1.000  H
  C160     1.0000 0.64319  0.85916  0.24571  Biso   1.000  C
  C161     1.0000 0.79877  0.73839  0.13599  Biso   1.000  C
  C162     1.0000 0.12868  0.74739  0.16643  Biso   1.000  C
  H161     1.0000 0.22284  0.69599  0.35231  Biso   1.000  H
  H162     1.0000 0.23609  0.77258  0.34692  Biso   1.000  H
  C163     1.0000 0.23020  0.74410  0.42169  Biso   1.000  C
  H163     1.0000 0.22291  0.69599  0.35231  Biso   1.000  H
  C164     1.0000 0.80079  0.02209  0.38475  Biso   1.000  C
  C165     1.0000 0.01760  0.90737  0.48048  Biso   1.000  C
  H164     1.0000 0.58804  0.87569  0.26320  Biso   1.000  H
  H165     1.0000 0.68069  0.89537  0.23350  Biso   1.000  H
  H166     1.0000 0.61348  0.83250  0.21709  Biso   1.000  H
  H167     1.0000 0.76402  0.77258  0.15310  Biso   1.000  H
  C166     1.0000 0.76990  0.74410  0.07828  Biso   1.000  C
  H168     1.0000 0.77728  0.69599  0.14770  Biso   1.000  H
  C167     1.0000 0.14925  0.81710  0.15106  Biso   1.000  C
  H169     1.0000 0.09336  0.72388  0.13669  Biso   1.000  H
  H170     1.0000 0.19517  0.72560  0.17748  Biso   1.000  H
  H171     1.0000 0.21529  0.78837  0.43229  Biso   1.000  H
  H172     1.0000 0.18738  0.71399  0.43830  Biso   1.000  H
  C168     1.0000 0.34574  0.72880  0.43918  Biso   1.000  C
  H173     1.0000 0.82927  0.03119  0.42031  Biso   1.000  H
  H174     1.0000 0.72609  0.03129  0.38039  Biso   1.000  H
  C169     1.0000 0.85261  0.06725  0.34988  Biso   1.000  C
  H175     1.0000 0.97460  0.87510  0.49412  Biso   1.000  H
  H176     1.0000 0.07129  0.88558  0.46492  Biso   1.000  H
  H177     1.0000 0.04948  0.93526  0.50780  Biso   1.000  H
  H178     1.0000 0.78481  0.78837  0.06769  Biso   1.000  H
  H179     1.0000 0.81273  0.71399  0.06172  Biso   1.000  H
  C170     1.0000 0.65444  0.72880  0.06083  Biso   1.000  C
  C171     1.0000 0.22704  0.85404  0.17991  Biso   1.000  C
  C172     1.0000 0.08888  0.84730  0.10906  Biso   1.000  C
  H180     1.0000 0.36063  0.73406  0.47632  Biso   1.000  H
  H181     1.0000 0.35868  0.68310  0.43140  Biso   1.000  H
  C173     1.0000 0.42081  0.77209  0.41414  Biso   1.000  C
  C174     1.0000 0.95566  0.08791  0.36371  Biso   1.000  C
  C175     1.0000 0.79856  0.08879  0.30350  Biso   1.000  C
  H182     1.0000 0.64143  0.68310  0.06861  Biso   1.000  H
  H183     1.0000 0.63956  0.73406  0.02369  Biso   1.000  H
  C176     1.0000 0.57937  0.77209  0.08583  Biso   1.000  C
  C177     1.0000 0.10515  0.91298  0.09701  Biso   1.000  C
  H184     1.0000 0.03680  0.82330  0.08892  Biso   1.000  H
  H185     1.0000 0.03688  0.82330  0.08892  Biso   1.000  H
  C178     1.0000 0.24363  0.91903  0.16735  Biso   1.000  C
  C179     1.0000 0.24370  0.91903  0.16735  Biso   1.000  C
  O33      1.0000 0.28691  0.82064  0.21967  Biso   1.000  O
  H186     1.0000 0.40129  0.81779  0.41749  Biso   1.000  H
  H187     1.0000 0.41358  0.76190  0.37770  Biso   1.000  H
  C180     1.0000 0.53494  0.76289  0.43791  Biso   1.000  C
  H188     1.0000 0.99342  0.07349  0.39461  Biso   1.000  H
  C181     1.0000 0.00334  0.12953  0.33247  Biso   1.000  C
  C182     1.0000 0.00342  0.12953  0.33247  Biso   1.000  C
  C183     1.0000 0.84572  0.13174  0.27233  Biso   1.000  C
  C184     1.0000 0.84580  0.13174  0.27233  Biso   1.000  C
  O34      1.0000 0.69689  0.06597  0.29067  Biso   1.000  O
  H189     1.0000 0.59881  0.81779  0.08248  Biso   1.000  H
  H190     1.0000 0.58653  0.76190  0.12232  Biso   1.000  H
  C185     1.0000 0.46516  0.76289  0.06206  Biso   1.000  C
  C186     1.0000 0.46523  0.76289  0.06206  Biso   1.000  C
  C187     1.0000 0.18303  0.94958  0.12644  Biso   1.000  C
  O35      1.0000 0.04553  0.94584  0.05706  Biso   1.000  O
  H191     1.0000 0.29708  0.94269  0.18688  Biso   1.000  H
  C188     1.0000 0.35693  0.85916  0.25430  Biso   1.000  C
  C189     1.0000 0.35700  0.85916  0.25430  Biso   1.000  C
  H192     1.0000 0.55399  0.71709  0.43479  Biso   1.000  H
  H193     1.0000 0.54193  0.77337  0.47432  Biso   1.000  H
  C190     1.0000 0.61063  0.80529  0.41314  Biso   1.000  C
  C191     1.0000 0.94718  0.15289  0.28605  Biso   1.000  C
  O36      1.0000 0.10612  0.15137  0.34434  Biso   1.000  O
  H194     1.0000 0.80777  0.14630  0.24159  Biso   1.000  H
  C192     1.0000 0.65162  0.06828  0.23847  Biso   1.000  C
  C193     1.0000 0.65170  0.06828  0.23847  Biso   1.000  C
  H195     1.0000 0.44611  0.71709  0.06518  Biso   1.000  H
  H196     1.0000 0.45819  0.77337  0.02570  Biso   1.000  H
  C194     1.0000 0.38956  0.80529  0.08687  Biso   1.000  C
  C195     1.0000 0.19939  0.02209  0.11523  Biso   1.000  C
  C196     1.0000 0.98252  0.90737  0.01953  Biso   1.000  C
  H197     1.0000 0.31950  0.89537  0.26652  Biso   1.000  H
  H198     1.0000 0.38662  0.83250  0.28289  Biso   1.000  H
  H199     1.0000 0.41207  0.87569  0.23681  Biso   1.000  H
  H200     1.0000 0.38670  0.83250  0.28289  Biso   1.000  H
  H201     1.0000 0.68199  0.79157  0.42539  Biso   1.000  H
  N5       1.0000 0.59900  0.87470  0.42481  Biso   1.000  N
  H202     1.0000 0.59803  0.79909  0.37612  Biso   1.000  H
  C197     1.0000 0.00005  0.19520  0.24999  Biso   1.000  C
  C198     1.0000 0.17117  0.11806  0.38348  Biso   1.000  C
  H203     1.0000 0.70446  0.05908  0.21709  Biso   1.000  H
  H204     1.0000 0.62286  0.11118  0.23049  Biso   1.000  H
  H205     1.0000 0.59679  0.03596  0.23219  Biso   1.000  H
  H206     1.0000 0.31811  0.79157  0.07458  Biso   1.000  H
  N6       1.0000 0.40110  0.87470  0.07516  Biso   1.000  N
  H207     1.0000 0.40216  0.79909  0.12390  Biso   1.000  H
  H208     1.0000 0.17084  0.03119  0.07971  Biso   1.000  H
  C199     1.0000 0.14758  0.06725  0.15013  Biso   1.000  C
  H209     1.0000 0.27410  0.03129  0.11962  Biso   1.000  H
  H210     1.0000 0.92882  0.88558  0.03510  Biso   1.000  H
  H211     1.0000 0.95087  0.93526  0.99226  Biso   1.000  H
  H212     1.0000 0.02551  0.87510  0.00589  Biso   1.000  H
  C200     1.0000 0.54026  0.91996  0.39234  Biso   1.000  C
  C201     1.0000 0.65008  0.90530  0.46904  Biso   1.000  C
  C202     1.0000 0.54034  0.91996  0.39234  Biso   1.000  C
  C203     1.0000 0.65015  0.90530  0.46904  Biso   1.000  C
  C204     1.0000 0.05301  0.15289  0.21397  Biso   1.000  C
  H213     1.0000 0.94828  0.22319  0.23011  Biso   1.000  H
  H214     1.0000 0.05190  0.22319  0.26991  Biso   1.000  H
  H215     1.0000 0.24218  0.13307  0.38452  Biso   1.000  H
  H216     1.0000 0.14810  0.12677  0.41599  Biso   1.000  H
  H217     1.0000 0.16793  0.07167  0.37670  Biso   1.000  H
  C205     1.0000 0.45976  0.91996  0.10764  Biso   1.000  C
  C206     1.0000 0.34996  0.90530  0.03097  Biso   1.000  C
  C207     1.0000 0.45984  0.91996  0.10764  Biso   1.000  C
  C208     1.0000 0.35003  0.90530  0.03097  Biso   1.000  C
  C209     1.0000 0.04444  0.08791  0.13626  Biso   1.000  C
  C210     1.0000 0.20155  0.08879  0.19652  Biso   1.000  C
  C211     1.0000 0.55311  0.98480  0.41965  Biso   1.000  C
  O37      1.0000 0.49080  0.90786  0.35123  Biso   1.000  O
  C212     1.0000 0.61773  0.97599  0.46500  Biso   1.000  C
  O38      1.0000 0.70691  0.87716  0.50217  Biso   1.000  O
  C213     1.0000 0.99677  0.12953  0.16754  Biso   1.000  C
  C214     1.0000 0.15431  0.13174  0.22768  Biso   1.000  C
  C215     1.0000 0.15439  0.13174  0.22768  Biso   1.000  C
  C216     1.0000 0.44700  0.98480  0.08036  Biso   1.000  C
  O39      1.0000 0.50932  0.90786  0.14878  Biso   1.000  O
  O40      1.0000 0.29344  0.87716  0.99784  Biso   1.000  O
  C217     1.0000 0.38238  0.97599  0.03502  Biso   1.000  C
  C218     1.0000 0.38246  0.97599  0.03502  Biso   1.000  C
  H218     1.0000 0.00677  0.07349  0.10540  Biso   1.000  H
  O41      1.0000 0.30330  0.06597  0.20934  Biso   1.000  O
  C219     1.0000 0.51363  0.04516  0.40482  Biso   1.000  C
  C220     1.0000 0.64750  0.02799  0.49805  Biso   1.000  C
  O42      1.0000 0.89407  0.15137  0.15568  Biso   1.000  O
  H219     1.0000 0.19241  0.14630  0.25839  Biso   1.000  H
  C221     1.0000 0.48648  0.04516  0.09520  Biso   1.000  C
  C222     1.0000 0.48656  0.04516  0.09520  Biso   1.000  C
  C223     1.0000 0.35260  0.02799  0.00193  Biso   1.000  C
  C224     1.0000 0.34849  0.06828  0.26155  Biso   1.000  C
  C225     1.0000 0.54080  0.09809  0.43749  Biso   1.000  C
  H220     1.0000 0.46974  0.05077  0.37369  Biso   1.000  H
  C226     1.0000 0.60712  0.08948  0.48360  Biso   1.000  C
  H221     1.0000 0.69288  0.02189  0.52872  Biso   1.000  H
  C227     1.0000 0.82894  0.11806  0.11654  Biso   1.000  C
  H222     1.0000 0.53043  0.05077  0.12628  Biso   1.000  H
  C228     1.0000 0.45930  0.09809  0.06249  Biso   1.000  C
  H223     1.0000 0.30755  0.02189  0.97134  Biso   1.000  H
  C229     1.0000 0.39299  0.08948  0.01641  Biso   1.000  C
  H224     1.0000 0.40339  0.03596  0.26779  Biso   1.000  H
  H225     1.0000 0.37725  0.11118  0.26952  Biso   1.000  H
  H226     1.0000 0.29572  0.05908  0.28289  Biso   1.000  H
  H227     1.0000 0.37733  0.11118  0.26952  Biso   1.000  H
  H228     1.0000 0.51435  0.13966  0.42840  Biso   1.000  H
  H229     1.0000 0.51443  0.13966  0.42840  Biso   1.000  H
  H230     1.0000 0.62461  0.12539  0.50502  Biso   1.000  H
  H231     1.0000 0.83226  0.07167  0.12332  Biso   1.000  H
  H232     1.0000 0.75793  0.13307  0.11550  Biso   1.000  H
  H233     1.0000 0.85207  0.12677  0.08398  Biso   1.000  H
  H234     1.0000 0.48576  0.13966  0.07162  Biso   1.000  H
  H235     1.0000 0.37574  0.12539  0.99503  Biso   1.000  H
  C230     1.0000 0.12879  0.25261  0.66644  Biso   1.000  C
  C231     1.0000 0.14928  0.18290  0.65107  Biso   1.000  C
  C232     1.0000 0.14936  0.18290  0.65107  Biso   1.000  C
  C233     1.0000 0.06166  0.25571  0.70974  Biso   1.000  C
  H236     1.0000 0.09339  0.27607  0.63670  Biso   1.000  H
  H237     1.0000 0.19521  0.27440  0.67750  Biso   1.000  H
  H238     1.0000 0.09347  0.27607  0.63670  Biso   1.000  H
  H239     1.0000 0.19529  0.27440  0.67750  Biso   1.000  H
  C234     1.0000 0.08892  0.15265  0.60908  Biso   1.000  C
  C235     1.0000 0.22715  0.14596  0.67993  Biso   1.000  C
  C236     1.0000 0.12871  0.25261  0.66644  Biso   1.000  C
  C237     1.0000 0.10774  0.25635  0.76075  Biso   1.000  C
  C238     1.0000 0.95240  0.25576  0.69938  Biso   1.000  C
  C239     1.0000 0.95248  0.25576  0.69938  Biso   1.000  C
  C240     1.0000 0.10517  0.08697  0.59698  Biso   1.000  C
  C241     1.0000 0.10525  0.08697  0.59698  Biso   1.000  C
  H240     1.0000 0.03690  0.17670  0.58889  Biso   1.000  H
  C242     1.0000 0.24374  0.08092  0.66737  Biso   1.000  C
  O43      1.0000 0.28694  0.17936  0.71968  Biso   1.000  O
  H241     1.0000 0.18055  0.25718  0.76842  Biso   1.000  H
  C243     1.0000 0.04784  0.25576  0.80062  Biso   1.000  C
  O44      1.0000 0.91003  0.25453  0.64753  Biso   1.000  O
  C244     1.0000 0.89259  0.25635  0.73929  Biso   1.000  C
  O45      1.0000 0.04564  0.05411  0.55707  Biso   1.000  O
  C245     1.0000 0.18314  0.05042  0.62645  Biso   1.000  C
  H242     1.0000 0.29719  0.05731  0.68690  Biso   1.000  H
  C246     1.0000 0.35711  0.14079  0.75432  Biso   1.000  C
  C247     1.0000 0.93866  0.25571  0.79026  Biso   1.000  C
  O46      1.0000 0.09022  0.25453  0.85252  Biso   1.000  O
  O47      1.0000 0.09030  0.25453  0.85252  Biso   1.000  O
  C248     1.0000 0.79880  0.26161  0.63601  Biso   1.000  C
  H243     1.0000 0.81971  0.25718  0.73163  Biso   1.000  H
  H244     1.0000 0.81979  0.25718  0.73163  Biso   1.000  H
  C249     1.0000 0.98262  0.09258  0.51951  Biso   1.000  C
  C250     1.0000 0.19942  0.97791  0.61524  Biso   1.000  C
  H245     1.0000 0.41218  0.12431  0.73683  Biso   1.000  H
  H246     1.0000 0.31952  0.10458  0.76649  Biso   1.000  H
  H247     1.0000 0.31960  0.10458  0.76649  Biso   1.000  H
  H248     1.0000 0.38681  0.16750  0.78290  Biso   1.000  H
  C251     1.0000 0.87161  0.25261  0.83356  Biso   1.000  C
  C252     1.0000 0.20145  0.26161  0.86404  Biso   1.000  C
  C253     1.0000 0.20153  0.26161  0.86404  Biso   1.000  C
  H249     1.0000 0.77731  0.30401  0.64772  Biso   1.000  H
  H250     1.0000 0.76413  0.22737  0.65311  Biso   1.000  H
  C254     1.0000 0.77002  0.25585  0.57830  Biso   1.000  C
  H251     1.0000 0.02562  0.12490  0.50591  Biso   1.000  H
  H252     1.0000 0.92886  0.11437  0.53511  Biso   1.000  H
  H253     1.0000 0.92894  0.11437  0.53511  Biso   1.000  H
  H254     1.0000 0.95073  0.06469  0.49219  Biso   1.000  H
  C255     1.0000 0.14761  0.93270  0.65015  Biso   1.000  C
  H255     1.0000 0.17095  0.96881  0.57972  Biso   1.000  H
  H256     1.0000 0.27412  0.96871  0.61960  Biso   1.000  H
  C256     1.0000 0.14769  0.93270  0.65015  Biso   1.000  C
  C257     1.0000 0.85096  0.18290  0.84893  Biso   1.000  C
  H257     1.0000 0.90685  0.27607  0.86330  Biso   1.000  H
  H258     1.0000 0.80504  0.27440  0.82251  Biso   1.000  H
  H259     1.0000 0.23619  0.22737  0.84689  Biso   1.000  H
  C258     1.0000 0.23031  0.25585  0.92171  Biso   1.000  C
  H260     1.0000 0.22295  0.30401  0.85232  Biso   1.000  H
  H261     1.0000 0.22302  0.30401  0.85232  Biso   1.000  H
  H262     1.0000 0.78492  0.21158  0.56770  Biso   1.000  H
  H263     1.0000 0.81276  0.28601  0.56169  Biso   1.000  H
  H264     1.0000 0.81283  0.28601  0.56169  Biso   1.000  H
  C259     1.0000 0.65456  0.27120  0.56085  Biso   1.000  C
  C260     1.0000 0.20166  0.91121  0.69653  Biso   1.000  C
  C261     1.0000 0.04455  0.91204  0.63628  Biso   1.000  C
  C262     1.0000 0.77317  0.14596  0.82008  Biso   1.000  C
  C263     1.0000 0.91141  0.15265  0.89093  Biso   1.000  C
  H265     1.0000 0.21540  0.21158  0.93230  Biso   1.000  H
  H266     1.0000 0.18749  0.28601  0.93831  Biso   1.000  H
  C264     1.0000 0.34578  0.27120  0.93920  Biso   1.000  C
  H267     1.0000 0.63959  0.26589  0.52371  Biso   1.000  H
  C265     1.0000 0.57940  0.22791  0.58585  Biso   1.000  C
  H268     1.0000 0.64153  0.31690  0.56859  Biso   1.000  H
  C266     1.0000 0.99688  0.87043  0.66756  Biso   1.000  C
  H269     1.0000 0.00688  0.92651  0.60542  Biso   1.000  H
  C267     1.0000 0.15443  0.86826  0.72770  Biso   1.000  C
  O48      1.0000 0.30332  0.93398  0.70932  Biso   1.000  O
  C268     1.0000 0.15450  0.86826  0.72770  Biso   1.000  C
  O49      1.0000 0.30340  0.93398  0.70932  Biso   1.000  O
  C269     1.0000 0.89508  0.08697  0.90302  Biso   1.000  C
  H270     1.0000 0.96334  0.17670  0.91111  Biso   1.000  H
  H271     1.0000 0.96342  0.17670  0.91111  Biso   1.000  H
  C270     1.0000 0.75652  0.08092  0.83268  Biso   1.000  C
  C271     1.0000 0.75660  0.08092  0.83268  Biso   1.000  C
  O50      1.0000 0.71339  0.17936  0.78036  Biso   1.000  O
  H272     1.0000 0.35879  0.31690  0.93142  Biso   1.000  H
  H273     1.0000 0.36066  0.26589  0.97630  Biso   1.000  H
  H274     1.0000 0.36073  0.26589  0.97630  Biso   1.000  H
  C272     1.0000 0.42092  0.22791  0.91416  Biso   1.000  C
  H275     1.0000 0.59893  0.18221  0.58250  Biso   1.000  H
  H276     1.0000 0.58663  0.23810  0.62229  Biso   1.000  H
  C273     1.0000 0.46534  0.23711  0.56208  Biso   1.000  C
  O51      1.0000 0.89418  0.84863  0.65569  Biso   1.000  O
  C274     1.0000 0.05304  0.84706  0.71398  Biso   1.000  C
  H277     1.0000 0.19244  0.85370  0.75840  Biso   1.000  H
  C275     1.0000 0.34860  0.93172  0.76156  Biso   1.000  C
  C276     1.0000 0.81719  0.05042  0.87359  Biso   1.000  C
  O52      1.0000 0.95469  0.05411  0.94297  Biso   1.000  O
  H278     1.0000 0.70313  0.05731  0.81311  Biso   1.000  H
  C277     1.0000 0.64322  0.14079  0.74573  Biso   1.000  C
  H279     1.0000 0.40140  0.18221  0.91751  Biso   1.000  H
  H280     1.0000 0.41370  0.23810  0.87771  Biso   1.000  H
  C278     1.0000 0.53498  0.23711  0.93793  Biso   1.000  C
  H281     1.0000 0.44622  0.28291  0.56520  Biso   1.000  H
  H282     1.0000 0.45830  0.22658  0.52571  Biso   1.000  H
  C279     1.0000 0.38959  0.19471  0.58689  Biso   1.000  C
  C280     1.0000 0.82905  0.88189  0.61655  Biso   1.000  C
  C281     1.0000 0.00016  0.80480  0.75000  Biso   1.000  C
  H283     1.0000 0.29575  0.94092  0.78290  Biso   1.000  H
  H284     1.0000 0.37735  0.88882  0.76950  Biso   1.000  H
  H285     1.0000 0.40350  0.96399  0.76780  Biso   1.000  H
  C282     1.0000 0.80090  0.97791  0.88476  Biso   1.000  C
  C283     1.0000 0.01771  0.09258  0.98050  Biso   1.000  C
  H286     1.0000 0.68073  0.10458  0.73351  Biso   1.000  H
  H287     1.0000 0.61351  0.16750  0.71710  Biso   1.000  H
  H288     1.0000 0.58815  0.12431  0.76322  Biso   1.000  H
  H289     1.0000 0.55410  0.28291  0.93481  Biso   1.000  H
  H290     1.0000 0.54203  0.22658  0.97429  Biso   1.000  H
  C284     1.0000 0.61074  0.19471  0.91316  Biso   1.000  C
  H291     1.0000 0.40219  0.20091  0.62391  Biso   1.000  H
  N7       1.0000 0.40122  0.12530  0.57518  Biso   1.000  N
  H292     1.0000 0.31822  0.20838  0.57460  Biso   1.000  H
  H293     1.0000 0.83228  0.92833  0.62329  Biso   1.000  H
  H294     1.0000 0.85211  0.87318  0.58400  Biso   1.000  H
  H295     1.0000 0.83236  0.92833  0.62329  Biso   1.000  H
  H296     1.0000 0.75804  0.86688  0.61551  Biso   1.000  H
  H297     1.0000 0.94832  0.77681  0.73012  Biso   1.000  H
  C285     1.0000 0.94721  0.84706  0.78602  Biso   1.000  C
  H298     1.0000 0.94840  0.77681  0.73012  Biso   1.000  H
  C286     1.0000 0.94728  0.84706  0.78602  Biso   1.000  C
  H299     1.0000 0.94840  0.77676  0.73012  Biso   1.000  H
  H300     1.0000 0.05194  0.77681  0.76992  Biso   1.000  H
  H301     1.0000 0.05194  0.77676  0.76992  Biso   1.000  H
  C287     1.0000 0.85264  0.93270  0.84990  Biso   1.000  C
  C288     1.0000 0.85272  0.93270  0.84990  Biso   1.000  C
  H302     1.0000 0.82939  0.96881  0.92032  Biso   1.000  H
  H303     1.0000 0.72612  0.96871  0.88041  Biso   1.000  H
  H304     1.0000 0.72620  0.96871  0.88041  Biso   1.000  H
  H305     1.0000 0.07139  0.11437  0.96489  Biso   1.000  H
  H306     1.0000 0.97470  0.12490  0.99410  Biso   1.000  H
  H307     1.0000 0.04935  0.06469  0.00777  Biso   1.000  H
  H308     1.0000 0.68210  0.20838  0.92541  Biso   1.000  H
  N8       1.0000 0.59911  0.12530  0.92483  Biso   1.000  N
  H309     1.0000 0.59805  0.20091  0.87609  Biso   1.000  H
  H310     1.0000 0.59813  0.20091  0.87609  Biso   1.000  H
  C289     1.0000 0.45995  0.07999  0.60765  Biso   1.000  C
  C290     1.0000 0.35015  0.09470  0.53099  Biso   1.000  C
  C291     1.0000 0.84591  0.86826  0.77235  Biso   1.000  C
  C292     1.0000 0.00345  0.87043  0.83248  Biso   1.000  C
  C293     1.0000 0.79866  0.91121  0.80348  Biso   1.000  C
  C294     1.0000 0.95577  0.91204  0.86373  Biso   1.000  C
  C295     1.0000 0.54037  0.07999  0.89235  Biso   1.000  C
  C296     1.0000 0.65019  0.09470  0.96906  Biso   1.000  C
  C297     1.0000 0.65027  0.09470  0.96906  Biso   1.000  C
  C298     1.0000 0.44710  0.01520  0.58034  Biso   1.000  C
  O53      1.0000 0.50942  0.09209  0.64876  Biso   1.000  O
  C299     1.0000 0.38249  0.02401  0.53503  Biso   1.000  C
  O54      1.0000 0.29330  0.12279  0.49782  Biso   1.000  O
  H311     1.0000 0.80781  0.85370  0.74160  Biso   1.000  H
  H312     1.0000 0.80788  0.85370  0.74160  Biso   1.000  H
  O55      1.0000 0.10615  0.84863  0.84431  Biso   1.000  O
  O56      1.0000 0.69700  0.93398  0.79068  Biso   1.000  O
  H313     1.0000 0.99353  0.92651  0.89463  Biso   1.000  H
  O57      1.0000 0.49091  0.09209  0.85125  Biso   1.000  O
  C300     1.0000 0.55322  0.01520  0.91967  Biso   1.000  C
  C301     1.0000 0.61777  0.02401  0.96501  Biso   1.000  C
  C302     1.0000 0.61784  0.02401  0.96501  Biso   1.000  C
  O58      1.0000 0.70677  0.12279  0.00215  Biso   1.000  O
  C303     1.0000 0.48659  0.95479  0.59521  Biso   1.000  C
  C304     1.0000 0.35263  0.97201  0.50194  Biso   1.000  C
  C305     1.0000 0.35271  0.97201  0.50194  Biso   1.000  C
  C306     1.0000 0.17128  0.88189  0.88349  Biso   1.000  C
  C307     1.0000 0.65172  0.93172  0.73845  Biso   1.000  C
  C308     1.0000 0.51373  0.95479  0.90480  Biso   1.000  C
  C309     1.0000 0.64761  0.97201  0.99806  Biso   1.000  C
  C310     1.0000 0.45941  0.90191  0.56250  Biso   1.000  C
  H314     1.0000 0.53054  0.94918  0.62630  Biso   1.000  H
  C311     1.0000 0.39309  0.91052  0.51639  Biso   1.000  C
  H315     1.0000 0.30742  0.97811  0.47131  Biso   1.000  H
  H316     1.0000 0.16797  0.92833  0.87671  Biso   1.000  H
  H317     1.0000 0.24228  0.86688  0.88449  Biso   1.000  H
  H318     1.0000 0.14814  0.87318  0.91601  Biso   1.000  H
  H319     1.0000 0.14822  0.87318  0.91601  Biso   1.000  H
  H320     1.0000 0.70449  0.94092  0.71710  Biso   1.000  H
  H321     1.0000 0.59682  0.96399  0.73220  Biso   1.000  H
  H322     1.0000 0.62289  0.88882  0.73051  Biso   1.000  H
  H323     1.0000 0.70457  0.94092  0.71710  Biso   1.000  H
  H324     1.0000 0.62297  0.88882  0.73051  Biso   1.000  H
  H325     1.0000 0.46978  0.94918  0.87371  Biso   1.000  H
  C312     1.0000 0.54091  0.90191  0.93750  Biso   1.000  C
  C313     1.0000 0.60723  0.91052  0.98362  Biso   1.000  C
  H326     1.0000 0.69267  0.97811  0.02869  Biso   1.000  H
  H327     1.0000 0.48578  0.86029  0.57159  Biso   1.000  H
  H328     1.0000 0.37553  0.87461  0.49501  Biso   1.000  H
  H329     1.0000 0.37561  0.87461  0.49501  Biso   1.000  H
  H330     1.0000 0.51446  0.86029  0.92841  Biso   1.000  H
  H331     1.0000 0.51454  0.86029  0.92841  Biso   1.000  H
  H332     1.0000 0.62447  0.87461  0.00496  Biso   1.000  H
  Ne1      1.0000 0.50006  0.42960  0.25000  Biso   1.000  Ne
  He1      1.0000 0.76218  0.44058  0.42032  Biso   1.000  He
  He2      1.0000 0.31574  0.42112  0.14239  Biso   1.000  He
  Ar1      1.0000 0.49968  0.45511  0.24993  Biso   1.000  Ar
  Ne2      1.0000 0.01344  0.06937  0.75084  Biso   1.000  Ne
  He3      1.0000 0.19624  0.07886  0.86393  Biso   1.000  He
  He4      1.0000 0.71150  0.02260  0.53054  Biso   1.000  He
  Ar2      1.0000 0.00659  0.04865  0.75430  Biso   1.000  Ar
  Ne3      1.0000 0.50014  0.57037  0.75001  Biso   1.000  Ne
  He5      1.0000 0.70580  0.57728  0.86096  Biso   1.000  He
  He6      1.0000 0.33576  0.58031  0.63528  Biso   1.000  He
  Ar3      1.0000 0.49995  0.54515  0.74988  Biso   1.000  Ar
  Ne4      1.0000 0.98996  0.92954  0.24744  Biso   1.000  Ne
  He7      1.0000 0.29023  0.97990  0.47309  Biso   1.000  He
  He8      1.0000 0.71247  0.97568  0.03293  Biso   1.000  He
  Ar4      1.0000 0.99040  0.95051  0.24422  Biso   1.000  Ar
