data_image0
_cell_length_a       17.169
_cell_length_b       17.169
_cell_length_c       42.124
_cell_angle_alpha    90
_cell_angle_beta     90
_cell_angle_gamma    120

_symmetry_space_group_name_H-M    "P 1"
_symmetry_int_tables_number       1

loop_
  _symmetry_equiv_pos_as_xyz
  'x, y, z'

loop_
  _atom_site_label
  _atom_site_occupancy
  _atom_site_fract_x
  _atom_site_fract_y
  _atom_site_fract_z
  _atom_site_thermal_displace_type
  _atom_site_B_iso_or_equiv
  _atom_site_type_symbol
  C1       1.0000 0.75734  0.65977  0.45224  Biso   1.000  C
  C2       1.0000 0.76286  0.63038  0.41993  Biso   1.000  C
  N1       1.0000 0.81875  0.68136  0.47175  Biso   1.000  N
  H1       1.0000 0.70545  0.66246  0.45827  Biso   1.000  H
  C3       1.0000 0.69562  0.60308  0.39842  Biso   1.000  C
  C4       1.0000 0.84126  0.63179  0.40984  Biso   1.000  C
  C5       1.0000 0.81244  0.71976  0.50131  Biso   1.000  C
  C6       1.0000 0.69894  0.57779  0.36713  Biso   1.000  C
  H2       1.0000 0.64175  0.60099  0.40516  Biso   1.000  H
  C7       1.0000 0.85033  0.60368  0.37971  Biso   1.000  C
  H3       1.0000 0.89040  0.65284  0.42418  Biso   1.000  H
  C8       1.0000 0.83486  0.67396  0.52913  Biso   1.000  C
  C9       1.0000 0.87354  0.82065  0.50081  Biso   1.000  C
  H4       1.0000 0.74911  0.70645  0.50396  Biso   1.000  H
  C10      1.0000 0.62756  0.54826  0.34458  Biso   1.000  C
  C11      1.0000 0.77865  0.57530  0.35830  Biso   1.000  C
  C12      1.0000 0.93272  0.60597  0.37162  Biso   1.000  C
  N2       1.0000 0.76664  0.58297  0.53051  Biso   1.000  N
  C13      1.0000 0.83693  0.72017  0.56054  Biso   1.000  C
  H5       1.0000 0.89432  0.67827  0.52526  Biso   1.000  H
  C14      1.0000 0.87513  0.86355  0.53233  Biso   1.000  C
  H6       1.0000 0.93544  0.83484  0.49537  Biso   1.000  H
  H7       1.0000 0.85292  0.84674  0.48407  Biso   1.000  H
  N3       1.0000 0.55627  0.54698  0.35094  Biso   1.000  N
  H8       1.0000 0.63472  0.52916  0.32416  Biso   1.000  H
  H9       1.0000 0.78275  0.55438  0.33786  Biso   1.000  H
  N4       1.0000 0.94932  0.58687  0.34463  Biso   1.000  N
  H10      1.0000 0.97732  0.62305  0.38766  Biso   1.000  H
  C15      1.0000 0.79004  0.52237  0.53357  Biso   1.000  C
  C16      1.0000 0.90357  0.82199  0.55897  Biso   1.000  C
  H11      1.0000 0.85474  0.69347  0.57796  Biso   1.000  H
  H12      1.0000 0.77604  0.70974  0.56526  Biso   1.000  H
  H13      1.0000 0.81460  0.85454  0.53696  Biso   1.000  H
  H14      1.0000 0.91785  0.92906  0.53126  Biso   1.000  H
  C17      1.0000 0.48761  0.51847  0.32673  Biso   1.000  C
  C18      1.0000 0.03803  0.59864  0.33869  Biso   1.000  C
  C19      1.0000 0.72734  0.42539  0.53366  Biso   1.000  C
  H15      1.0000 0.85234  0.54248  0.53587  Biso   1.000  H
  H16      1.0000 0.90403  0.85017  0.57957  Biso   1.000  H
  H17      1.0000 0.96493  0.83289  0.55486  Biso   1.000  H
  C20      1.0000 0.40135  0.43938  0.33869  Biso   1.000  C
  C21      1.0000 0.47487  0.59689  0.31621  Biso   1.000  C
  H18      1.0000 0.50805  0.49796  0.30788  Biso   1.000  H
  C22      1.0000 0.03083  0.51235  0.32673  Biso   1.000  C
  C23      1.0000 0.08746  0.67477  0.31588  Biso   1.000  C
  H19      1.0000 0.07207  0.61498  0.35918  Biso   1.000  H
  C24      1.0000 0.63367  0.39250  0.53421  Biso   1.000  C
  C25      1.0000 0.75880  0.36634  0.53421  Biso   1.000  C
  C26      1.0000 0.32522  0.41268  0.31588  Biso   1.000  C
  N5       1.0000 0.41309  0.36244  0.34463  Biso   1.000  N
  H20      1.0000 0.38504  0.45706  0.35918  Biso   1.000  H
  C27      1.0000 0.39761  0.56878  0.29347  Biso   1.000  C
  H21      1.0000 0.46421  0.62426  0.33518  Biso   1.000  H
  H22      1.0000 0.53086  0.64329  0.30598  Biso   1.000  H
  N6       1.0000 0.99070  0.44375  0.35094  Biso   1.000  N
  H23      1.0000 0.98994  0.49197  0.30788  Biso   1.000  H
  C28      1.0000 0.12205  0.52519  0.31621  Biso   1.000  C
  C29      1.0000 0.18084  0.68856  0.30819  Biso   1.000  C
  H24      1.0000 0.09391  0.73066  0.32516  Biso   1.000  H
  H25      1.0000 0.05224  0.66199  0.29608  Biso   1.000  H
  C30      1.0000 0.57466  0.30197  0.53366  Biso   1.000  C
  H26      1.0000 0.61165  0.43339  0.53497  Biso   1.000  H
  C31      1.0000 0.69804  0.27265  0.53366  Biso   1.000  C
  H27      1.0000 0.82173  0.38840  0.53497  Biso   1.000  H
  C32      1.0000 0.31141  0.49224  0.30819  Biso   1.000  C
  H28      1.0000 0.26934  0.36324  0.32516  Biso   1.000  H
  H29      1.0000 0.33801  0.39028  0.29608  Biso   1.000  H
  C33      1.0000 0.39404  0.32679  0.37162  Biso   1.000  C
  H30      1.0000 0.41096  0.54840  0.27326  Biso   1.000  H
  H31      1.0000 0.38930  0.62076  0.28886  Biso   1.000  H
  C34      1.0000 0.92075  0.37246  0.34458  Biso   1.000  C
  C35      1.0000 0.17111  0.60234  0.29347  Biso   1.000  C
  H32      1.0000 0.16001  0.53575  0.33518  Biso   1.000  H
  H33      1.0000 0.11245  0.46917  0.30598  Biso   1.000  H
  H34      1.0000 0.21714  0.70349  0.32787  Biso   1.000  H
  H35      1.0000 0.21222  0.73920  0.29316  Biso   1.000  H
  C36      1.0000 0.47765  0.26767  0.53357  Biso   1.000  C
  C37      1.0000 0.60751  0.24118  0.53421  Biso   1.000  C
  C38      1.0000 0.73234  0.20997  0.53357  Biso   1.000  C
  H36      1.0000 0.29657  0.51369  0.32787  Biso   1.000  H
  H37      1.0000 0.26082  0.47307  0.29316  Biso   1.000  H
  C39      1.0000 0.39634  0.24669  0.37971  Biso   1.000  C
  H38      1.0000 0.37693  0.35430  0.38766  Biso   1.000  H
  C40      1.0000 0.87881  0.30103  0.36713  Biso   1.000  C
  H39      1.0000 0.89444  0.36526  0.32416  Biso   1.000  H
  H40      1.0000 0.13746  0.58909  0.27326  Biso   1.000  H
  H41      1.0000 0.23143  0.61068  0.28886  Biso   1.000  H
  N7       1.0000 0.41702  0.18367  0.53051  Biso   1.000  N
  H42      1.0000 0.45750  0.30984  0.53587  Biso   1.000  H
  H43      1.0000 0.56663  0.17829  0.53497  Biso   1.000  H
  N8       1.0000 0.81632  0.23337  0.53051  Biso   1.000  N
  H44      1.0000 0.69013  0.14769  0.53587  Biso   1.000  H
  C41      1.0000 0.42471  0.20338  0.35830  Biso   1.000  C
  C42      1.0000 0.36825  0.20950  0.40984  Biso   1.000  C
  C43      1.0000 0.79661  0.22134  0.35830  Biso   1.000  C
  C44      1.0000 0.90745  0.30440  0.39842  Biso   1.000  C
  C45      1.0000 0.32605  0.16087  0.52913  Biso   1.000  C
  C46      1.0000 0.83913  0.16518  0.52913  Biso   1.000  C
  C47      1.0000 0.42224  0.12119  0.36713  Biso   1.000  C
  H45      1.0000 0.44567  0.22840  0.33786  Biso   1.000  H
  C48      1.0000 0.36964  0.13249  0.41993  Biso   1.000  C
  H46      1.0000 0.34715  0.23754  0.42418  Biso   1.000  H
  C49      1.0000 0.75331  0.14964  0.37971  Biso   1.000  C
  H47      1.0000 0.77161  0.21723  0.33786  Biso   1.000  H
  C50      1.0000 0.86754  0.23714  0.41993  Biso   1.000  C
  H48      1.0000 0.95926  0.35827  0.40516  Biso   1.000  H
  C51      1.0000 0.28025  0.09268  0.50131  Biso   1.000  C
  C52      1.0000 0.27982  0.11675  0.56054  Biso   1.000  C
  H49      1.0000 0.32174  0.21609  0.52526  Biso   1.000  H
  C53      1.0000 0.90735  0.18757  0.50131  Biso   1.000  C
  C54      1.0000 0.88322  0.16309  0.56054  Biso   1.000  C
  H50      1.0000 0.78391  0.10566  0.52526  Biso   1.000  H
  C55      1.0000 0.45173  0.07929  0.34458  Biso   1.000  C
  C56      1.0000 0.39690  0.09254  0.39842  Biso   1.000  C
  C57      1.0000 0.34025  0.09759  0.45224  Biso   1.000  C
  C58      1.0000 0.67321  0.06725  0.37162  Biso   1.000  C
  C59      1.0000 0.79056  0.15879  0.40984  Biso   1.000  C
  C60      1.0000 0.90245  0.24266  0.45224  Biso   1.000  C
  N9       1.0000 0.31859  0.13733  0.47175  Biso   1.000  N
  C61      1.0000 0.17932  0.05286  0.50081  Biso   1.000  C
  H51      1.0000 0.29350  0.04264  0.50396  Biso   1.000  H
  C62      1.0000 0.17801  0.08158  0.55897  Biso   1.000  C
  H52      1.0000 0.30651  0.16128  0.57796  Biso   1.000  H
  H53      1.0000 0.29021  0.06625  0.56526  Biso   1.000  H
  N10      1.0000 0.86260  0.18125  0.47175  Biso   1.000  N
  C63      1.0000 0.94714  0.12644  0.50081  Biso   1.000  C
  H54      1.0000 0.95734  0.25086  0.50396  Biso   1.000  H
  C64      1.0000 0.91839  0.09644  0.55897  Biso   1.000  C
  H55      1.0000 0.83873  0.14527  0.57796  Biso   1.000  H
  H56      1.0000 0.93375  0.22396  0.56526  Biso   1.000  H
  N11      1.0000 0.45307  0.00928  0.35094  Biso   1.000  N
  H57      1.0000 0.47087  0.10559  0.32416  Biso   1.000  H
  H58      1.0000 0.39903  0.04076  0.40516  Biso   1.000  H
  H59      1.0000 0.33752  0.04298  0.45827  Biso   1.000  H
  N12      1.0000 0.63753  0.05064  0.34463  Biso   1.000  N
  H60      1.0000 0.64573  0.02266  0.38766  Biso   1.000  H
  H61      1.0000 0.76245  0.10956  0.42418  Biso   1.000  H
  H62      1.0000 0.95706  0.29458  0.45827  Biso   1.000  H
  C65      1.0000 0.13643  0.01157  0.53233  Biso   1.000  C
  H63      1.0000 0.16513  0.10055  0.49537  Biso   1.000  H
  H64      1.0000 0.15325  0.00619  0.48407  Biso   1.000  H
  H65      1.0000 0.14983  0.05387  0.57957  Biso   1.000  H
  H66      1.0000 0.16716  0.13209  0.55486  Biso   1.000  H
  C66      1.0000 0.98842  0.12489  0.53233  Biso   1.000  C
  H67      1.0000 0.89943  0.06456  0.49537  Biso   1.000  H
  H68      1.0000 0.99386  0.14709  0.48407  Biso   1.000  H
  H69      1.0000 0.94612  0.09597  0.57957  Biso   1.000  H
  H70      1.0000 0.86795  0.03504  0.55486  Biso   1.000  H
  C67      1.0000 0.48157  0.96913  0.32673  Biso   1.000  C
  C68      1.0000 0.56067  0.96193  0.33869  Biso   1.000  C
  H71      1.0000 0.14544  0.96005  0.53696  Biso   1.000  H
  H72      1.0000 0.07098  0.98877  0.53126  Biso   1.000  H
  H73      1.0000 0.03991  0.18535  0.53696  Biso   1.000  H
  H74      1.0000 0.01127  0.08219  0.53126  Biso   1.000  H
  H75      1.0000 0.50204  0.01009  0.30788  Biso   1.000  H
  C69      1.0000 0.40306  0.87793  0.31621  Biso   1.000  C
  C70      1.0000 0.58736  0.91257  0.31588  Biso   1.000  C
  H76      1.0000 0.54294  0.92797  0.35918  Biso   1.000  H
  C71      1.0000 0.43122  0.82884  0.29347  Biso   1.000  C
  H77      1.0000 0.37567  0.83993  0.33518  Biso   1.000  H
  H78      1.0000 0.35673  0.88755  0.30598  Biso   1.000  H
  C72      1.0000 0.50775  0.81915  0.30819  Biso   1.000  C
  H79      1.0000 0.63675  0.90604  0.32516  Biso   1.000  H
  H80      1.0000 0.60967  0.94774  0.29608  Biso   1.000  H
  H81      1.0000 0.45162  0.86253  0.27326  Biso   1.000  H
  H82      1.0000 0.37925  0.76858  0.28886  Biso   1.000  H
  H83      1.0000 0.48627  0.78283  0.32787  Biso   1.000  H
  H84      1.0000 0.52687  0.78774  0.29316  Biso   1.000  H
  N13      1.0000 0.68670  0.84735  0.46223  Biso   1.000  N
  C73      1.0000 0.72351  0.89557  0.43108  Biso   1.000  C
  C74      1.0000 0.66302  0.88548  0.48136  Biso   1.000  C
  C75      1.0000 0.67841  0.83786  0.40476  Biso   1.000  C
  H85      1.0000 0.71600  0.94903  0.43006  Biso   1.000  H
  H86      1.0000 0.78866  0.91648  0.42987  Biso   1.000  H
  C76      1.0000 0.62876  0.84970  0.51375  Biso   1.000  C
  H87      1.0000 0.66664  0.94036  0.47517  Biso   1.000  H
  N14      1.0000 0.58084  0.81338  0.40250  Biso   1.000  N
  H88      1.0000 0.68182  0.78224  0.40687  Biso   1.000  H
  H89      1.0000 0.70975  0.86840  0.38486  Biso   1.000  H
  C77      1.0000 0.61584  0.76328  0.52310  Biso   1.000  C
  C78      1.0000 0.60864  0.89799  0.53499  Biso   1.000  C
  C79      1.0000 0.52446  0.73207  0.40267  Biso   1.000  C
  C80      1.0000 0.58984  0.73375  0.55346  Biso   1.000  C
  H90      1.0000 0.62512  0.72709  0.50826  Biso   1.000  H
  C81      1.0000 0.57586  0.86328  0.56566  Biso   1.000  C
  H91      1.0000 0.61676  0.95489  0.52906  Biso   1.000  H
  C82      1.0000 0.42706  0.70059  0.40070  Biso   1.000  C
  H92      1.0000 0.54395  0.68916  0.40407  Biso   1.000  H
  C83      1.0000 0.58873  0.65036  0.56270  Biso   1.000  C
  C84      1.0000 0.57036  0.78298  0.57381  Biso   1.000  C
  C85      1.0000 0.55454  0.91117  0.58845  Biso   1.000  C
  C86      1.0000 0.36589  0.60644  0.40132  Biso   1.000  C
  C87      1.0000 0.39353  0.75944  0.40132  Biso   1.000  C
  N15      1.0000 0.57695  0.62177  0.59180  Biso   1.000  N
  H93      1.0000 0.59693  0.61619  0.54667  Biso   1.000  H
  H94      1.0000 0.55192  0.76079  0.59477  Biso   1.000  H
  N16      1.0000 0.56244  0.98999  0.58257  Biso   1.000  N
  H95      1.0000 0.53362  0.88494  0.60877  Biso   1.000  H
  C88      1.0000 0.27354  0.57295  0.40070  Biso   1.000  C
  H96      1.0000 0.38840  0.56595  0.40217  Biso   1.000  H
  C89      1.0000 0.29947  0.72649  0.40070  Biso   1.000  C
  H97      1.0000 0.43400  0.82246  0.40217  Biso   1.000  H
  C90      1.0000 0.58082  0.54134  0.59674  Biso   1.000  C
  C91      1.0000 0.53551  0.02745  0.60813  Biso   1.000  C
  C92      1.0000 0.20761  0.47556  0.40267  Biso   1.000  C
  C93      1.0000 0.24056  0.63408  0.40132  Biso   1.000  C
  C94      1.0000 0.26794  0.79240  0.40267  Biso   1.000  C
  C95      1.0000 0.49194  0.46446  0.60813  Biso   1.000  C
  H98      1.0000 0.62792  0.55317  0.61257  Biso   1.000  H
  H99      1.0000 0.59771  0.52398  0.57656  Biso   1.000  H
  C96      1.0000 0.45859  0.03949  0.59674  Biso   1.000  C
  H100     1.0000 0.51636  0.98670  0.62667  Biso   1.000  H
  H101     1.0000 0.58683  0.08630  0.61466  Biso   1.000  H
  N17      1.0000 0.23255  0.41920  0.40250  Biso   1.000  N
  H102     1.0000 0.14520  0.45606  0.40407  Biso   1.000  H
  H103     1.0000 0.17752  0.61155  0.40217  Biso   1.000  H
  N18      1.0000 0.18662  0.76745  0.40250  Biso   1.000  N
  H104     1.0000 0.31082  0.85474  0.40407  Biso   1.000  H
  N19      1.0000 0.42753  0.43756  0.58257  Biso   1.000  N
  H105     1.0000 0.49943  0.41315  0.61466  Biso   1.000  H
  H106     1.0000 0.47034  0.48370  0.62667  Biso   1.000  H
  N20      1.0000 0.37821  0.95516  0.59180  Biso   1.000  N
  H107     1.0000 0.44689  0.07480  0.61257  Biso   1.000  H
  H108     1.0000 0.47609  0.07379  0.57656  Biso   1.000  H
  C97      1.0000 0.15943  0.32155  0.40476  Biso   1.000  C
  C98      1.0000 0.16214  0.84055  0.40476  Biso   1.000  C
  C99      1.0000 0.35665  0.44550  0.58845  Biso   1.000  C
  C100     1.0000 0.34959  0.93834  0.56270  Biso   1.000  C
  C101     1.0000 0.17202  0.27649  0.43108  Biso   1.000  C
  H109     1.0000 0.10044  0.31818  0.40687  Biso   1.000  H
  H110     1.0000 0.15865  0.29027  0.38486  Biso   1.000  H
  C102     1.0000 0.10442  0.82798  0.43108  Biso   1.000  C
  H111     1.0000 0.21772  0.89954  0.40687  Biso   1.000  H
  H112     1.0000 0.13161  0.84136  0.38486  Biso   1.000  H
  C103     1.0000 0.28746  0.42418  0.56566  Biso   1.000  C
  H113     1.0000 0.35135  0.46635  0.60877  Biso   1.000  H
  C104     1.0000 0.26624  0.85609  0.55346  Biso   1.000  C
  H114     1.0000 0.38386  0.98078  0.54667  Biso   1.000  H
  N21      1.0000 0.16066  0.31327  0.46223  Biso   1.000  N
  H115     1.0000 0.23301  0.28395  0.43006  Biso   1.000  H
  H116     1.0000 0.12782  0.21138  0.42987  Biso   1.000  H
  N22      1.0000 0.15262  0.83934  0.46223  Biso   1.000  N
  H117     1.0000 0.05091  0.76698  0.43006  Biso   1.000  H
  H118     1.0000 0.08353  0.87216  0.42987  Biso   1.000  H
  C105     1.0000 0.28934  0.39136  0.53499  Biso   1.000  C
  C106     1.0000 0.21263  0.42969  0.57381  Biso   1.000  C
  C107     1.0000 0.23677  0.85259  0.52310  Biso   1.000  C
  C108     1.0000 0.21702  0.78735  0.57381  Biso   1.000  C
  C109     1.0000 0.22241  0.33695  0.48136  Biso   1.000  C
  C110     1.0000 0.11449  0.77753  0.48136  Biso   1.000  C
  C111     1.0000 0.22092  0.37125  0.51375  Biso   1.000  C
  H119     1.0000 0.33813  0.38329  0.52906  Biso   1.000  H
  C112     1.0000 0.14394  0.41019  0.55346  Biso   1.000  C
  H120     1.0000 0.20882  0.44805  0.59477  Biso   1.000  H
  C113     1.0000 0.15033  0.77908  0.51375  Biso   1.000  C
  H121     1.0000 0.27295  0.89806  0.50826  Biso   1.000  H
  C114     1.0000 0.13676  0.71257  0.56566  Biso   1.000  C
  H122     1.0000 0.23927  0.79119  0.59477  Biso   1.000  H
  H123     1.0000 0.27374  0.33338  0.47517  Biso   1.000  H
  H124     1.0000 0.05963  0.72629  0.47517  Biso   1.000  H
  C115     1.0000 0.14741  0.38416  0.52310  Biso   1.000  C
  C116     1.0000 0.06165  0.41126  0.56270  Biso   1.000  C
  C117     1.0000 0.10204  0.71068  0.53499  Biso   1.000  C
  C118     1.0000 0.08882  0.64336  0.58845  Biso   1.000  C
  H125     1.0000 0.10194  0.37488  0.50826  Biso   1.000  H
  N23      1.0000 0.04482  0.42303  0.59180  Biso   1.000  N
  H126     1.0000 0.01922  0.40306  0.54667  Biso   1.000  H
  H127     1.0000 0.04512  0.66186  0.52906  Biso   1.000  H
  N24      1.0000 0.01004  0.57247  0.58257  Biso   1.000  N
  H128     1.0000 0.11506  0.64867  0.60877  Biso   1.000  H
  C119     1.0000 0.96055  0.41920  0.59674  Biso   1.000  C
  C120     1.0000 0.97253  0.50804  0.60813  Biso   1.000  C
  H129     1.0000 0.92521  0.37205  0.61257  Biso   1.000  H
  H130     1.0000 0.92621  0.40225  0.57656  Biso   1.000  H
  H131     1.0000 0.01335  0.52970  0.62667  Biso   1.000  H
  H132     1.0000 0.91375  0.50058  0.61466  Biso   1.000  H
  C121     1.0000 0.83783  0.93572  0.62679  Biso   1.000  C
  C122     1.0000 0.78868  0.85851  0.64956  Biso   1.000  C
  C123     1.0000 0.84756  0.02194  0.64151  Biso   1.000  C
  H133     1.0000 0.80409  0.92240  0.60659  Biso   1.000  H
  H134     1.0000 0.89811  0.94399  0.62221  Biso   1.000  H
  C124     1.0000 0.69749  0.84573  0.66008  Biso   1.000  C
  H135     1.0000 0.82669  0.86907  0.66850  Biso   1.000  H
  H136     1.0000 0.77908  0.80249  0.63930  Biso   1.000  H
  C125     1.0000 0.75409  0.00808  0.64920  Biso   1.000  C
  H137     1.0000 0.88383  0.03680  0.66119  Biso   1.000  H
  H138     1.0000 0.87891  0.07251  0.62651  Biso   1.000  H
  N25      1.0000 0.65742  0.77713  0.68427  Biso   1.000  N
  C126     1.0000 0.70470  0.93202  0.67204  Biso   1.000  C
  H139     1.0000 0.65657  0.82529  0.64120  Biso   1.000  H
  H140     1.0000 0.71892  0.99531  0.62940  Biso   1.000  H
  H141     1.0000 0.76063  0.06404  0.65851  Biso   1.000  H
  C127     1.0000 0.58738  0.70577  0.67793  Biso   1.000  C
  N26      1.0000 0.61601  0.92018  0.67795  Biso   1.000  N
  H142     1.0000 0.73869  0.94830  0.69250  Biso   1.000  H
  C128     1.0000 0.54553  0.63442  0.70046  Biso   1.000  C
  H143     1.0000 0.56107  0.69858  0.65751  Biso   1.000  H
  C129     1.0000 0.59941  0.93928  0.70494  Biso   1.000  C
  C130     1.0000 0.46333  0.55472  0.69162  Biso   1.000  C
  C131     1.0000 0.57408  0.63771  0.73174  Biso   1.000  C
  C132     1.0000 0.51702  0.93700  0.71304  Biso   1.000  C
  H144     1.0000 0.64404  0.95643  0.72099  Biso   1.000  H
  C133     1.0000 0.42003  0.48303  0.71304  Biso   1.000  C
  H145     1.0000 0.43833  0.55062  0.67121  Biso   1.000  H
  C134     1.0000 0.53420  0.57052  0.75325  Biso   1.000  C
  H146     1.0000 0.62589  0.69158  0.73851  Biso   1.000  H
  C135     1.0000 0.44528  0.90861  0.69162  Biso   1.000  C
  C136     1.0000 0.50789  0.96511  0.74316  Biso   1.000  C
  C137     1.0000 0.33990  0.40057  0.70494  Biso   1.000  C
  C138     1.0000 0.45719  0.49210  0.74316  Biso   1.000  C
  C139     1.0000 0.56907  0.57597  0.78556  Biso   1.000  C
  C140     1.0000 0.36562  0.91110  0.70046  Biso   1.000  C
  H147     1.0000 0.44938  0.88770  0.67121  Biso   1.000  H
  C141     1.0000 0.42949  0.96370  0.75325  Biso   1.000  C
  H148     1.0000 0.55712  0.98623  0.75750  Biso   1.000  H
  N27      1.0000 0.30419  0.38403  0.67795  Biso   1.000  N
  H149     1.0000 0.31242  0.35598  0.72099  Biso   1.000  H
  H150     1.0000 0.42908  0.44287  0.75750  Biso   1.000  H
  N28      1.0000 0.52929  0.51457  0.80508  Biso   1.000  N
  H151     1.0000 0.62369  0.62789  0.79159  Biso   1.000  H
  C142     1.0000 0.29419  0.88158  0.67793  Biso   1.000  C
  C143     1.0000 0.36231  0.93639  0.73174  Biso   1.000  C
  C144     1.0000 0.42397  0.99309  0.78556  Biso   1.000  C
  C145     1.0000 0.22734  0.29532  0.67204  Biso   1.000  C
  C146     1.0000 0.57398  0.52089  0.83465  Biso   1.000  C
  N29      1.0000 0.22290  0.88030  0.68427  Biso   1.000  N
  H152     1.0000 0.30141  0.86248  0.65751  Biso   1.000  H
  H153     1.0000 0.30838  0.93431  0.73851  Biso   1.000  H
  H154     1.0000 0.37208  0.99578  0.79159  Biso   1.000  H
  N30      1.0000 0.48541  0.01474  0.80508  Biso   1.000  N
  C147     1.0000 0.25399  0.24588  0.64920  Biso   1.000  C
  C148     1.0000 0.14823  0.30251  0.66008  Biso   1.000  C
  H155     1.0000 0.20956  0.26129  0.69250  Biso   1.000  H
  C149     1.0000 0.50581  0.49849  0.86245  Biso   1.000  C
  C150     1.0000 0.61380  0.45982  0.83413  Biso   1.000  C
  H156     1.0000 0.62397  0.58418  0.83729  Biso   1.000  H
  C151     1.0000 0.15430  0.85178  0.66008  Biso   1.000  C
  C152     1.0000 0.47910  0.05315  0.83465  Biso   1.000  C
  C153     1.0000 0.17438  0.15247  0.64151  Biso   1.000  C
  H157     1.0000 0.30342  0.23943  0.65851  Biso   1.000  H
  H158     1.0000 0.27639  0.28113  0.62940  Biso   1.000  H
  C154     1.0000 0.06978  0.21132  0.64956  Biso   1.000  C
  N31      1.0000 0.11969  0.34260  0.68427  Biso   1.000  N
  H159     1.0000 0.16867  0.34340  0.64120  Biso   1.000  H
  N32      1.0000 0.48301  0.56669  0.86383  Biso   1.000  N
  C155     1.0000 0.54991  0.49641  0.89388  Biso   1.000  C
  H160     1.0000 0.45060  0.43897  0.85861  Biso   1.000  H
  C156     1.0000 0.65510  0.45821  0.86566  Biso   1.000  C
  H161     1.0000 0.56611  0.39788  0.82870  Biso   1.000  H
  H162     1.0000 0.66049  0.48040  0.81740  Biso   1.000  H
  C157     1.0000 0.06798  0.77269  0.67204  Biso   1.000  C
  C158     1.0000 0.14150  0.93020  0.64956  Biso   1.000  C
  H163     1.0000 0.17468  0.83127  0.64120  Biso   1.000  H
  C159     1.0000 0.50158  0.00734  0.86245  Biso   1.000  C
  C160     1.0000 0.54026  0.15403  0.83413  Biso   1.000  C
  H164     1.0000 0.41577  0.03983  0.83729  Biso   1.000  H
  C161     1.0000 0.09788  0.16222  0.62679  Biso   1.000  C
  H165     1.0000 0.15299  0.11622  0.66119  Biso   1.000  H
  H166     1.0000 0.19359  0.12113  0.62651  Biso   1.000  H
  H167     1.0000 0.04239  0.17332  0.66850  Biso   1.000  H
  H168     1.0000 0.02339  0.22093  0.63930  Biso   1.000  H
  C162     1.0000 0.11841  0.41261  0.67793  Biso   1.000  C
  C163     1.0000 0.39897  0.54329  0.86689  Biso   1.000  C
  C164     1.0000 0.58512  0.42983  0.89232  Biso   1.000  C
  H169     1.0000 0.50541  0.47859  0.91131  Biso   1.000  H
  H170     1.0000 0.60038  0.55727  0.89861  Biso   1.000  H
  H171     1.0000 0.70659  0.51867  0.87031  Biso   1.000  H
  H172     1.0000 0.67790  0.41550  0.86459  Biso   1.000  H
  N33      1.0000 0.07981  0.69582  0.67795  Biso   1.000  N
  H173     1.0000 0.05166  0.79038  0.69250  Biso   1.000  H
  C165     1.0000 0.99190  0.74599  0.64920  Biso   1.000  C
  C166     1.0000 0.06430  0.90209  0.62679  Biso   1.000  C
  H174     1.0000 0.13089  0.95758  0.66850  Biso   1.000  H
  H175     1.0000 0.19749  0.97661  0.63930  Biso   1.000  H
  N34      1.0000 0.43327  0.91628  0.86383  Biso   1.000  N
  C167     1.0000 0.50356  0.05348  0.89388  Biso   1.000  C
  H176     1.0000 0.56101  0.01158  0.85861  Biso   1.000  H
  C168     1.0000 0.54180  0.19694  0.86566  Biso   1.000  C
  H177     1.0000 0.60211  0.16822  0.82870  Biso   1.000  H
  H178     1.0000 0.51959  0.18012  0.81740  Biso   1.000  H
  H179     1.0000 0.11828  0.19591  0.60659  Biso   1.000  H
  H180     1.0000 0.04588  0.10189  0.62221  Biso   1.000  H
  C169     1.0000 0.08892  0.45451  0.70046  Biso   1.000  C
  H181     1.0000 0.13750  0.43891  0.65751  Biso   1.000  H
  C170     1.0000 0.36466  0.60597  0.86699  Biso   1.000  C
  H182     1.0000 0.35682  0.48101  0.86920  Biso   1.000  H
  H183     1.0000 0.61280  0.42929  0.91290  Biso   1.000  H
  H184     1.0000 0.53461  0.36842  0.88821  Biso   1.000  H
  C171     1.0000 0.06073  0.66011  0.70494  Biso   1.000  C
  H185     1.0000 0.00470  0.72360  0.62940  Biso   1.000  H
  C172     1.0000 0.97813  0.82562  0.64151  Biso   1.000  C
  H186     1.0000 0.93600  0.69663  0.65851  Biso   1.000  H
  H187     1.0000 0.07759  0.88171  0.60659  Biso   1.000  H
  H188     1.0000 0.05599  0.95408  0.62221  Biso   1.000  H
  C173     1.0000 0.45667  0.85568  0.86689  Biso   1.000  C
  C174     1.0000 0.57020  0.15531  0.89232  Biso   1.000  C
  H189     1.0000 0.52143  0.02678  0.91131  Biso   1.000  H
  H190     1.0000 0.44276  0.04312  0.89861  Biso   1.000  H
  H191     1.0000 0.48126  0.18792  0.87031  Biso   1.000  H
  H192     1.0000 0.58457  0.26244  0.86459  Biso   1.000  H
  C175     1.0000 0.09140  0.53669  0.69162  Biso   1.000  C
  C176     1.0000 0.06362  0.42593  0.73174  Biso   1.000  C
  C177     1.0000 0.27420  0.57449  0.86753  Biso   1.000  C
  C178     1.0000 0.42552  0.69972  0.86753  Biso   1.000  C
  C179     1.0000 0.06302  0.58001  0.71304  Biso   1.000  C
  H193     1.0000 0.04362  0.68761  0.72099  Biso   1.000  H
  H194     1.0000 0.96320  0.84701  0.66119  Biso   1.000  H
  H195     1.0000 0.92751  0.80639  0.62651  Biso   1.000  H
  C180     1.0000 0.39403  0.75870  0.86699  Biso   1.000  C
  H196     1.0000 0.51897  0.87579  0.86920  Biso   1.000  H
  H197     1.0000 0.57072  0.18349  0.91290  Biso   1.000  H
  H198     1.0000 0.63162  0.16620  0.88821  Biso   1.000  H
  H199     1.0000 0.11230  0.56171  0.67121  Biso   1.000  H
  C181     1.0000 0.03633  0.46581  0.75325  Biso   1.000  C
  H200     1.0000 0.06571  0.37407  0.73851  Biso   1.000  H
  C182     1.0000 0.24129  0.63529  0.86699  Biso   1.000  C
  H201     1.0000 0.23332  0.51161  0.86829  Biso   1.000  H
  H202     1.0000 0.48841  0.72171  0.86829  Biso   1.000  H
  C183     1.0000 0.03493  0.54281  0.74316  Biso   1.000  C
  C184     1.0000 0.30029  0.72582  0.86753  Biso   1.000  C
  C185     1.0000 0.00688  0.43090  0.78556  Biso   1.000  C
  C186     1.0000 0.14428  0.60099  0.86689  Biso   1.000  C
  H203     1.0000 0.01381  0.57093  0.75750  Biso   1.000  H
  H204     1.0000 0.27828  0.76671  0.86829  Biso   1.000  H
  H205     1.0000 0.00421  0.37629  0.79159  Biso   1.000  H
  N35      1.0000 0.98532  0.47072  0.80508  Biso   1.000  N
  N36      1.0000 0.08370  0.51699  0.86383  Biso   1.000  N
  H206     1.0000 0.12422  0.64323  0.86920  Biso   1.000  H
  C187     1.0000 0.94688  0.42599  0.83465  Biso   1.000  C
  C188     1.0000 0.99268  0.49419  0.86245  Biso   1.000  C
  C189     1.0000 0.84601  0.38618  0.83413  Biso   1.000  C
  H207     1.0000 0.96022  0.37602  0.83729  Biso   1.000  H
  C190     1.0000 0.94651  0.45007  0.89388  Biso   1.000  C
  H208     1.0000 0.98843  0.54941  0.85861  Biso   1.000  H
  C191     1.0000 0.80311  0.34488  0.86566  Biso   1.000  C
  H209     1.0000 0.83179  0.43393  0.82870  Biso   1.000  H
  H210     1.0000 0.81988  0.33950  0.81740  Biso   1.000  H
  C192     1.0000 0.84470  0.41490  0.89232  Biso   1.000  C
  H211     1.0000 0.97320  0.49459  0.91131  Biso   1.000  H
  H212     1.0000 0.95693  0.39963  0.89861  Biso   1.000  H
  H213     1.0000 0.81210  0.29343  0.87031  Biso   1.000  H
  H214     1.0000 0.73760  0.32208  0.86459  Biso   1.000  H
  H215     1.0000 0.81652  0.38719  0.91290  Biso   1.000  H
  H216     1.0000 0.83379  0.46540  0.88821  Biso   1.000  H
  C193     1.0000 0.86888  0.69414  0.27478  Biso   1.000  C
  C194     1.0000 0.79193  0.70611  0.26339  Biso   1.000  C
  N37      1.0000 0.89578  0.65661  0.24924  Biso   1.000  N
  H217     1.0000 0.92017  0.75292  0.28134  Biso   1.000  H
  H218     1.0000 0.84963  0.65331  0.29332  Biso   1.000  H
  N38      1.0000 0.71158  0.62184  0.25847  Biso   1.000  N
  H219     1.0000 0.78017  0.74142  0.27922  Biso   1.000  H
  H220     1.0000 0.80937  0.74041  0.24323  Biso   1.000  H
  C195     1.0000 0.88786  0.57785  0.25513  Biso   1.000  C
  C196     1.0000 0.68297  0.60503  0.22937  Biso   1.000  C
  C197     1.0000 0.90914  0.52990  0.23234  Biso   1.000  C
  H221     1.0000 0.86694  0.55163  0.27542  Biso   1.000  H
  C198     1.0000 0.59958  0.52271  0.22011  Biso   1.000  C
  H222     1.0000 0.71717  0.64746  0.21332  Biso   1.000  H
  C199     1.0000 0.90367  0.44967  0.24048  Biso   1.000  C
  C200     1.0000 0.94198  0.56461  0.20164  Biso   1.000  C
  C201     1.0000 0.55039  0.45404  0.24048  Biso   1.000  C
  C202     1.0000 0.57005  0.51921  0.18975  Biso   1.000  C
  C203     1.0000 0.92315  0.40044  0.22011  Biso   1.000  C
  H223     1.0000 0.88526  0.42741  0.26144  Biso   1.000  H
  C204     1.0000 0.96204  0.51632  0.18042  Biso   1.000  C
  H224     1.0000 0.95004  0.62150  0.19573  Biso   1.000  H
  C205     1.0000 0.47007  0.37925  0.23234  Biso   1.000  C
  H225     1.0000 0.57254  0.45780  0.26144  Biso   1.000  H
  C206     1.0000 0.48370  0.44577  0.18042  Biso   1.000  C
  H226     1.0000 0.60627  0.56474  0.17494  Biso   1.000  H
  C207     1.0000 0.92205  0.31704  0.22937  Biso   1.000  C
  C208     1.0000 0.94915  0.42996  0.18975  Biso   1.000  C
  C209     1.0000 0.99639  0.55216  0.14802  Biso   1.000  C
  C210     1.0000 0.42219  0.31005  0.25513  Biso   1.000  C
  C211     1.0000 0.43537  0.37730  0.20164  Biso   1.000  C
  C212     1.0000 0.44787  0.44422  0.14802  Biso   1.000  C
  N39      1.0000 0.91026  0.28846  0.25847  Biso   1.000  N
  H227     1.0000 0.93027  0.28281  0.21332  Biso   1.000  H
  H228     1.0000 0.95846  0.39371  0.17494  Biso   1.000  H
  H229     1.0000 0.99995  0.60704  0.14184  Biso   1.000  H
  N40      1.0000 0.02008  0.51403  0.12891  Biso   1.000  N
  N41      1.0000 0.34335  0.23916  0.24924  Biso   1.000  N
  H230     1.0000 0.44838  0.31536  0.27542  Biso   1.000  H
  H231     1.0000 0.37849  0.32854  0.19573  Biso   1.000  H
  N42      1.0000 0.48599  0.50603  0.12891  Biso   1.000  N
  H232     1.0000 0.39297  0.39290  0.14184  Biso   1.000  H
  C213     1.0000 0.91413  0.20802  0.26339  Biso   1.000  C
  C214     1.0000 0.05688  0.56225  0.09776  Biso   1.000  C
  C215     1.0000 0.30584  0.17473  0.27478  Biso   1.000  C
  C216     1.0000 0.43779  0.49466  0.09776  Biso   1.000  C
  C217     1.0000 0.82526  0.13115  0.27478  Biso   1.000  C
  H233     1.0000 0.96129  0.21986  0.27922  Biso   1.000  H
  H234     1.0000 0.93105  0.19060  0.24323  Biso   1.000  H
  C218     1.0000 0.01178  0.50455  0.07141  Biso   1.000  C
  H235     1.0000 0.04937  0.61572  0.09674  Biso   1.000  H
  H236     1.0000 0.12194  0.58310  0.09652  Biso   1.000  H
  C219     1.0000 0.29388  0.08582  0.26339  Biso   1.000  C
  H237     1.0000 0.24707  0.16726  0.28134  Biso   1.000  H
  H238     1.0000 0.34663  0.19632  0.29332  Biso   1.000  H
  C220     1.0000 0.49545  0.50724  0.07141  Biso   1.000  C
  H239     1.0000 0.38428  0.43366  0.09674  Biso   1.000  H
  H240     1.0000 0.41690  0.53885  0.09652  Biso   1.000  H
  N43      1.0000 0.76090  0.10425  0.24924  Biso   1.000  N
  H241     1.0000 0.83274  0.07983  0.28134  Biso   1.000  H
  H242     1.0000 0.80368  0.15031  0.29332  Biso   1.000  H
  N44      1.0000 0.91415  0.48007  0.06918  Biso   1.000  N
  H243     1.0000 0.01519  0.44893  0.07354  Biso   1.000  H
  H244     1.0000 0.04303  0.53501  0.05154  Biso   1.000  H
  N45      1.0000 0.37813  0.08972  0.25847  Biso   1.000  N
  H245     1.0000 0.25858  0.03874  0.27922  Biso   1.000  H
  H246     1.0000 0.25958  0.06894  0.24323  Biso   1.000  H
  N46      1.0000 0.51994  0.43413  0.06918  Biso   1.000  N
  H247     1.0000 0.55103  0.56622  0.07354  Biso   1.000  H
  H248     1.0000 0.46498  0.50804  0.05154  Biso   1.000  H
  C221     1.0000 0.68993  0.11211  0.25513  Biso   1.000  C
  C222     1.0000 0.85777  0.39875  0.06934  Biso   1.000  C
  C223     1.0000 0.39496  0.07795  0.22937  Biso   1.000  C
  C224     1.0000 0.60128  0.45902  0.06934  Biso   1.000  C
  C225     1.0000 0.62077  0.09086  0.23234  Biso   1.000  C
  H249     1.0000 0.68466  0.13303  0.27542  Biso   1.000  H
  C226     1.0000 0.76034  0.36721  0.06737  Biso   1.000  C
  H250     1.0000 0.87726  0.35585  0.07074  Biso   1.000  H
  C227     1.0000 0.47727  0.07681  0.22011  Biso   1.000  C
  H251     1.0000 0.35260  0.06974  0.21332  Biso   1.000  H
  C228     1.0000 0.63275  0.39311  0.06737  Biso   1.000  C
  H252     1.0000 0.64414  0.52143  0.07074  Biso   1.000  H
  C229     1.0000 0.54597  0.09631  0.24048  Biso   1.000  C
  C230     1.0000 0.62265  0.05804  0.20164  Biso   1.000  C
  C231     1.0000 0.72684  0.42613  0.06799  Biso   1.000  C
  C232     1.0000 0.69926  0.27312  0.06799  Biso   1.000  C
  C233     1.0000 0.48078  0.05084  0.18975  Biso   1.000  C
  C234     1.0000 0.57388  0.30076  0.06799  Biso   1.000  C
  H253     1.0000 0.54220  0.11474  0.26144  Biso   1.000  H
  C235     1.0000 0.55429  0.03793  0.18042  Biso   1.000  C
  H254     1.0000 0.67147  0.04990  0.19573  Biso   1.000  H
  H255     1.0000 0.76738  0.48915  0.06884  Biso   1.000  H
  C236     1.0000 0.60686  0.23963  0.06737  Biso   1.000  C
  H256     1.0000 0.72177  0.23263  0.06884  Biso   1.000  H
  H257     1.0000 0.43531  0.04156  0.17494  Biso   1.000  H
  H258     1.0000 0.51089  0.27823  0.06884  Biso   1.000  H
  C237     1.0000 0.55578  0.00363  0.14802  Biso   1.000  C
  C238     1.0000 0.54098  0.14224  0.06934  Biso   1.000  C
  H259     1.0000 0.60702  0.00000  0.14184  Biso   1.000  H
  N47      1.0000 0.49394  0.97989  0.12891  Biso   1.000  N
  N48      1.0000 0.56589  0.08582  0.06918  Biso   1.000  N
  H260     1.0000 0.47858  0.12274  0.07074  Biso   1.000  H
  C239     1.0000 0.50536  0.94310  0.09776  Biso   1.000  C
  C240     1.0000 0.49280  0.98823  0.07141  Biso   1.000  C
  H261     1.0000 0.56638  0.95063  0.09674  Biso   1.000  H
  H262     1.0000 0.46110  0.87800  0.09652  Biso   1.000  H
  H263     1.0000 0.43372  0.98480  0.07354  Biso   1.000  H
  H264     1.0000 0.49193  0.95689  0.05154  Biso   1.000  H
  C241     1.0000 0.61317  0.78345  0.22721  Biso   1.000  C
  C242     1.0000 0.51133  0.74821  0.22564  Biso   1.000  C
  C243     1.0000 0.65937  0.82751  0.19580  Biso   1.000  C
  H265     1.0000 0.63983  0.82791  0.24463  Biso   1.000  H
  H266     1.0000 0.62356  0.73294  0.23193  Biso   1.000  H
  C244     1.0000 0.46978  0.67827  0.19898  Biso   1.000  C
  H267     1.0000 0.48315  0.72050  0.24623  Biso   1.000  H
  H268     1.0000 0.50047  0.79872  0.22154  Biso   1.000  H
  C245     1.0000 0.61356  0.75931  0.16798  Biso   1.000  C
  N49      1.0000 0.75033  0.85030  0.19716  Biso   1.000  N
  H269     1.0000 0.65506  0.88272  0.19193  Biso   1.000  H
  C246     1.0000 0.51267  0.71956  0.16748  Biso   1.000  C
  H270     1.0000 0.47879  0.62675  0.20364  Biso   1.000  H
  H271     1.0000 0.40427  0.65547  0.19794  Biso   1.000  H
  N50      1.0000 0.65194  0.80403  0.13842  Biso   1.000  N
  H272     1.0000 0.62685  0.70934  0.17064  Biso   1.000  H
  C247     1.0000 0.81097  0.93431  0.20022  Biso   1.000  C
  H273     1.0000 0.49848  0.76724  0.16202  Biso   1.000  H
  H274     1.0000 0.48656  0.67282  0.15072  Biso   1.000  H
  C248     1.0000 0.67356  0.76422  0.11891  Biso   1.000  C
  C249     1.0000 0.90797  0.96861  0.20031  Biso   1.000  C
  H275     1.0000 0.79085  0.97654  0.20254  Biso   1.000  H
  C250     1.0000 0.70296  0.79912  0.08660  Biso   1.000  C
  H276     1.0000 0.67084  0.70961  0.12494  Biso   1.000  H
  C251     1.0000 0.94083  0.90781  0.20088  Biso   1.000  C
  C252     1.0000 0.96698  0.05913  0.20088  Biso   1.000  C
  C253     1.0000 0.70156  0.87613  0.07651  Biso   1.000  C
  C254     1.0000 0.73025  0.75924  0.06509  Biso   1.000  C
  H277     1.0000 0.89995  0.84492  0.20164  Biso   1.000  H
  C255     1.0000 0.03139  0.93935  0.20031  Biso   1.000  C
  H278     1.0000 0.94491  0.10002  0.20164  Biso   1.000  H
  C256     1.0000 0.06066  0.09202  0.20031  Biso   1.000  C
  C257     1.0000 0.72965  0.91332  0.04636  Biso   1.000  C
  H279     1.0000 0.68050  0.90424  0.09083  Biso   1.000  H
  C258     1.0000 0.75555  0.78782  0.03380  Biso   1.000  C
  H280     1.0000 0.73238  0.70746  0.07184  Biso   1.000  H
  C259     1.0000 0.06565  0.87660  0.20022  Biso   1.000  C
  C260     1.0000 0.09215  0.03304  0.20088  Biso   1.000  C
  C261     1.0000 0.12334  0.18907  0.20022  Biso   1.000  C
  C262     1.0000 0.75803  0.87001  0.02497  Biso   1.000  C
  C263     1.0000 0.72736  0.99342  0.03829  Biso   1.000  C
  C264     1.0000 0.78504  0.74592  0.01125  Biso   1.000  C
  N51      1.0000 0.14964  0.90001  0.19716  Biso   1.000  N
  H281     1.0000 0.02345  0.81432  0.20254  Biso   1.000  H
  H282     1.0000 0.15504  0.05503  0.20164  Biso   1.000  H
  N52      1.0000 0.09999  0.24966  0.19716  Biso   1.000  N
  H283     1.0000 0.18564  0.20918  0.20254  Biso   1.000  H
  H284     1.0000 0.77898  0.89503  0.00453  Biso   1.000  H
  N53      1.0000 0.74650  0.02914  0.01128  Biso   1.000  N
  H285     1.0000 0.71024  0.02093  0.05434  Biso   1.000  H
  N54      1.0000 0.78638  0.67591  0.01761  Biso   1.000  N
  H286     1.0000 0.80419  0.77222  0.99084  Biso   1.000  H
  C265     1.0000 0.17244  0.83181  0.19580  Biso   1.000  C
  C266     1.0000 0.16815  0.34066  0.19580  Biso   1.000  C
  C267     1.0000 0.73470  0.10608  0.00537  Biso   1.000  C
  C268     1.0000 0.81486  0.63583  0.99340  Biso   1.000  C
  C269     1.0000 0.24066  0.85421  0.16798  Biso   1.000  C
  C270     1.0000 0.21654  0.82972  0.22721  Biso   1.000  C
  H287     1.0000 0.11726  0.77236  0.19193  Biso   1.000  H
  C271     1.0000 0.14573  0.38646  0.16798  Biso   1.000  C
  C272     1.0000 0.17034  0.38686  0.22721  Biso   1.000  C
  H288     1.0000 0.22773  0.34496  0.19193  Biso   1.000  H
  C273     1.0000 0.82096  0.18517  0.99340  Biso   1.000  C
  C274     1.0000 0.65862  0.07937  0.98253  Biso   1.000  C
  H289     1.0000 0.71838  0.12376  0.02583  Biso   1.000  H
  C275     1.0000 0.89397  0.62863  0.00537  Biso   1.000  C
  C276     1.0000 0.73647  0.54463  0.98288  Biso   1.000  C
  H290     1.0000 0.83536  0.67672  0.97453  Biso   1.000  H
  N55      1.0000 0.19595  0.84795  0.13842  Biso   1.000  N
  C277     1.0000 0.28049  0.79314  0.16748  Biso   1.000  C
  H291     1.0000 0.29069  0.91756  0.17064  Biso   1.000  H
  C278     1.0000 0.25174  0.76314  0.22564  Biso   1.000  C
  H292     1.0000 0.17204  0.81190  0.24463  Biso   1.000  H
  H293     1.0000 0.26710  0.89066  0.23193  Biso   1.000  H
  N56      1.0000 0.15204  0.34806  0.13842  Biso   1.000  N
  C279     1.0000 0.20683  0.48734  0.16748  Biso   1.000  C
  H294     1.0000 0.08252  0.37314  0.17064  Biso   1.000  H
  C280     1.0000 0.23688  0.48862  0.22564  Biso   1.000  C
  H295     1.0000 0.18809  0.36016  0.24463  Biso   1.000  H
  H296     1.0000 0.10939  0.37644  0.23193  Biso   1.000  H
  C281     1.0000 0.80818  0.26352  0.98288  Biso   1.000  C
  H297     1.0000 0.84134  0.16465  0.97453  Biso   1.000  H
  N57      1.0000 0.88953  0.21362  0.01761  Biso   1.000  N
  C282     1.0000 0.64476  0.15894  0.97484  Biso   1.000  C
  H298     1.0000 0.60269  0.02994  0.99183  Biso   1.000  H
  H299     1.0000 0.67142  0.05698  0.96273  Biso   1.000  H
  N58      1.0000 0.97088  0.71734  0.01128  Biso   1.000  N
  H300     1.0000 0.87625  0.59460  0.02583  Biso   1.000  H
  C283     1.0000 0.92062  0.57920  0.98253  Biso   1.000  C
  H301     1.0000 0.70908  0.50663  0.00183  Biso   1.000  H
  C284     1.0000 0.76457  0.49553  0.96012  Biso   1.000  C
  H302     1.0000 0.69008  0.55425  0.97263  Biso   1.000  H
  C285     1.0000 0.23579  0.90935  0.11891  Biso   1.000  C
  C286     1.0000 0.32173  0.79152  0.19898  Biso   1.000  C
  H303     1.0000 0.23278  0.73126  0.16202  Biso   1.000  H
  H304     1.0000 0.32718  0.81372  0.15072  Biso   1.000  H
  H305     1.0000 0.27943  0.76260  0.24623  Biso   1.000  H
  H306     1.0000 0.20130  0.70174  0.22154  Biso   1.000  H
  C287     1.0000 0.09063  0.32647  0.11891  Biso   1.000  C
  C288     1.0000 0.20848  0.53025  0.19898  Biso   1.000  C
  H307     1.0000 0.26874  0.50153  0.16202  Biso   1.000  H
  H308     1.0000 0.18627  0.51344  0.15072  Biso   1.000  H
  H309     1.0000 0.23738  0.51687  0.24623  Biso   1.000  H
  H310     1.0000 0.29831  0.49952  0.22154  Biso   1.000  H
  C289     1.0000 0.73096  0.23547  0.96012  Biso   1.000  C
  H311     1.0000 0.86412  0.30993  0.97263  Biso   1.000  H
  H312     1.0000 0.79756  0.29096  0.00183  Biso   1.000  H
  C290     1.0000 0.96085  0.21496  0.01125  Biso   1.000  C
  H313     1.0000 0.62983  0.18032  0.99454  Biso   1.000  H
  H314     1.0000 0.59417  0.13977  0.95983  Biso   1.000  H
  C291     1.0000 0.00656  0.73395  0.03829  Biso   1.000  C
  C292     1.0000 0.84110  0.48585  0.97484  Biso   1.000  C
  H315     1.0000 0.97005  0.57274  0.99183  Biso   1.000  H
  H316     1.0000 0.94308  0.61444  0.96273  Biso   1.000  H
  H317     1.0000 0.78497  0.52923  0.93994  Biso   1.000  H
  H318     1.0000 0.71257  0.43521  0.95554  Biso   1.000  H
  C293     1.0000 0.20089  0.90384  0.08660  Biso   1.000  C
  H319     1.0000 0.29038  0.96121  0.12494  Biso   1.000  H
  H320     1.0000 0.37326  0.85205  0.20364  Biso   1.000  H
  H321     1.0000 0.34459  0.74882  0.19794  Biso   1.000  H
  C294     1.0000 0.09621  0.29708  0.08660  Biso   1.000  C
  H322     1.0000 0.03880  0.32916  0.12494  Biso   1.000  H
  H323     1.0000 0.14800  0.52124  0.20364  Biso   1.000  H
  H324     1.0000 0.25114  0.59576  0.19794  Biso   1.000  H
  H325     1.0000 0.74427  0.21503  0.93994  Biso   1.000  H
  H326     1.0000 0.72265  0.28746  0.95554  Biso   1.000  H
  H327     1.0000 0.96813  0.19586  0.99084  Biso   1.000  H
  C295     1.0000 0.03225  0.24442  0.03380  Biso   1.000  C
  H328     1.0000 0.97908  0.68936  0.05434  Biso   1.000  H
  C296     1.0000 0.08666  0.81634  0.04636  Biso   1.000  C
  H329     1.0000 0.81968  0.44953  0.99454  Biso   1.000  H
  H330     1.0000 0.86028  0.45444  0.95983  Biso   1.000  H
  C297     1.0000 0.12388  0.82542  0.07651  Biso   1.000  C
  C298     1.0000 0.24077  0.97103  0.06509  Biso   1.000  C
  C299     1.0000 0.02897  0.26977  0.06509  Biso   1.000  C
  C300     1.0000 0.17458  0.29842  0.07651  Biso   1.000  C
  C301     1.0000 0.11197  0.24193  0.02497  Biso   1.000  C
  C302     1.0000 0.12996  0.88803  0.02497  Biso   1.000  C
  H331     1.0000 0.09580  0.77626  0.09083  Biso   1.000  H
  C303     1.0000 0.21216  0.96773  0.03380  Biso   1.000  C
  H332     1.0000 0.29255  0.02497  0.07184  Biso   1.000  H
  H333     1.0000 0.97507  0.26762  0.07184  Biso   1.000  H
  C304     1.0000 0.18374  0.27038  0.04636  Biso   1.000  C
  H334     1.0000 0.22381  0.31954  0.09083  Biso   1.000  H
  H335     1.0000 0.11607  0.22101  0.00453  Biso   1.000  H
  H336     1.0000 0.10496  0.88393  0.00453  Biso   1.000  H
  C305     1.0000 0.25410  0.03916  0.01125  Biso   1.000  C
  C306     1.0000 0.26607  0.27267  0.03829  Biso   1.000  C
  H337     1.0000 0.22773  0.03196  0.99084  Biso   1.000  H
  N59      1.0000 0.32405  0.11045  0.01761  Biso   1.000  N
  N60      1.0000 0.28267  0.25357  0.01128  Biso   1.000  N
  H338     1.0000 0.31067  0.28975  0.05434  Biso   1.000  H
  C307     1.0000 0.36418  0.17905  0.99340  Biso   1.000  C
  C308     1.0000 0.37132  0.26533  0.00537  Biso   1.000  C
  C309     1.0000 0.45531  0.19183  0.98288  Biso   1.000  C
  H339     1.0000 0.32329  0.15867  0.97453  Biso   1.000  H
  C310     1.0000 0.42075  0.34147  0.98253  Biso   1.000  C
  H340     1.0000 0.40541  0.28168  0.02583  Biso   1.000  H
  C311     1.0000 0.50452  0.26903  0.96012  Biso   1.000  C
  H341     1.0000 0.44580  0.13587  0.97263  Biso   1.000  H
  H342     1.0000 0.49342  0.20245  0.00183  Biso   1.000  H
  C312     1.0000 0.51419  0.35525  0.97484  Biso   1.000  C
  H343     1.0000 0.42726  0.39736  0.99183  Biso   1.000  H
  H344     1.0000 0.38555  0.32862  0.96273  Biso   1.000  H
  H345     1.0000 0.47077  0.25572  0.93994  Biso   1.000  H
  H346     1.0000 0.56477  0.27737  0.95554  Biso   1.000  H
  H347     1.0000 0.55046  0.37012  0.99454  Biso   1.000  H
  H348     1.0000 0.54554  0.40583  0.95983  Biso   1.000  H
  C313     1.0000 0.87430  0.80888  0.73599  Biso   1.000  C
  N61      1.0000 0.89924  0.75252  0.73585  Biso   1.000  N
  C314     1.0000 0.94020  0.90633  0.73402  Biso   1.000  C
  H349     1.0000 0.81189  0.78937  0.73739  Biso   1.000  H
  C315     1.0000 0.82610  0.65493  0.73808  Biso   1.000  C
  C316     1.0000 0.90719  0.96740  0.73466  Biso   1.000  C
  C317     1.0000 0.03261  0.93982  0.73466  Biso   1.000  C
  C318     1.0000 0.83871  0.60980  0.76441  Biso   1.000  C
  H350     1.0000 0.76713  0.65150  0.74020  Biso   1.000  H
  H351     1.0000 0.82528  0.62359  0.71819  Biso   1.000  H
  H352     1.0000 0.84424  0.94493  0.73550  Biso   1.000  H
  C319     1.0000 0.96610  0.05980  0.73402  Biso   1.000  C
  H353     1.0000 0.05512  0.89933  0.73550  Biso   1.000  H
  C320     1.0000 0.09369  0.03391  0.73402  Biso   1.000  C
  N62      1.0000 0.82728  0.64659  0.79556  Biso   1.000  N
  H354     1.0000 0.89973  0.61733  0.76339  Biso   1.000  H
  H355     1.0000 0.79451  0.54470  0.76320  Biso   1.000  H
  C321     1.0000 0.93463  0.12571  0.73599  Biso   1.000  C
  C322     1.0000 0.06025  0.09283  0.73466  Biso   1.000  C
  C323     1.0000 0.19115  0.06539  0.73599  Biso   1.000  C
  C324     1.0000 0.88913  0.67033  0.81469  Biso   1.000  C
  N63      1.0000 0.85329  0.10083  0.73585  Biso   1.000  N
  H356     1.0000 0.97749  0.18813  0.73739  Biso   1.000  H
  H357     1.0000 0.10072  0.15584  0.73550  Biso   1.000  H
  N64      1.0000 0.24753  0.14670  0.73585  Biso   1.000  N
  H358     1.0000 0.21067  0.02254  0.73739  Biso   1.000  H
  C325     1.0000 0.88764  0.70463  0.84709  Biso   1.000  C
  H359     1.0000 0.94037  0.66670  0.80849  Biso   1.000  H
  C326     1.0000 0.82880  0.17394  0.73808  Biso   1.000  C
  C327     1.0000 0.34513  0.17125  0.73808  Biso   1.000  C
  C328     1.0000 0.81409  0.71748  0.85642  Biso   1.000  C
  C329     1.0000 0.95596  0.72467  0.86832  Biso   1.000  C
  C330     1.0000 0.77105  0.16129  0.76441  Biso   1.000  C
  H360     1.0000 0.88444  0.23292  0.74020  Biso   1.000  H
  H361     1.0000 0.79833  0.17474  0.71819  Biso   1.000  H
  C331     1.0000 0.39020  0.22888  0.76441  Biso   1.000  C
  H362     1.0000 0.34848  0.11563  0.74020  Biso   1.000  H
  H363     1.0000 0.37644  0.20171  0.71819  Biso   1.000  H
  C332     1.0000 0.81062  0.74350  0.88679  Biso   1.000  C
  H364     1.0000 0.76862  0.70819  0.84161  Biso   1.000  H
  C333     1.0000 0.95409  0.75749  0.89899  Biso   1.000  C
  H365     1.0000 0.00481  0.71660  0.86241  Biso   1.000  H
  N65      1.0000 0.81928  0.17272  0.79556  Biso   1.000  N
  H366     1.0000 0.71754  0.10029  0.76339  Biso   1.000  H
  H367     1.0000 0.75019  0.20555  0.76320  Biso   1.000  H
  N66      1.0000 0.35343  0.18073  0.79556  Biso   1.000  N
  H368     1.0000 0.38266  0.28242  0.76339  Biso   1.000  H
  H369     1.0000 0.45535  0.24980  0.76320  Biso   1.000  H
  C334     1.0000 0.72828  0.74458  0.89605  Biso   1.000  C
  C335     1.0000 0.87932  0.76301  0.90716  Biso   1.000  C
  C336     1.0000 0.02328  0.77881  0.92178  Biso   1.000  C
  C337     1.0000 0.78121  0.11092  0.81469  Biso   1.000  C
  C338     1.0000 0.32971  0.21879  0.81469  Biso   1.000  C
  N67      1.0000 0.71148  0.75642  0.92515  Biso   1.000  N
  H370     1.0000 0.68591  0.73637  0.88000  Biso   1.000  H
  H371     1.0000 0.87551  0.78137  0.92809  Biso   1.000  H
  N68      1.0000 0.09422  0.77088  0.91589  Biso   1.000  N
  H372     1.0000 0.01801  0.79973  0.94210  Biso   1.000  H
  C339     1.0000 0.81702  0.11240  0.84709  Biso   1.000  C
  H373     1.0000 0.72626  0.05960  0.80849  Biso   1.000  H
  C340     1.0000 0.29539  0.18301  0.84709  Biso   1.000  C
  H374     1.0000 0.33330  0.27374  0.80849  Biso   1.000  H
  C341     1.0000 0.62723  0.75252  0.93006  Biso   1.000  C
  C342     1.0000 0.15857  0.79778  0.94146  Biso   1.000  C
  C343     1.0000 0.90340  0.18591  0.85642  Biso   1.000  C
  C344     1.0000 0.76872  0.04400  0.86832  Biso   1.000  C
  C345     1.0000 0.28247  0.09659  0.85642  Biso   1.000  C
  C346     1.0000 0.27527  0.23130  0.86832  Biso   1.000  C
  C347     1.0000 0.63919  0.84143  0.94146  Biso   1.000  C
  H375     1.0000 0.59190  0.70537  0.94590  Biso   1.000  H
  H376     1.0000 0.59290  0.73557  0.90991  Biso   1.000  H
  C348     1.0000 0.24748  0.87472  0.93006  Biso   1.000  C
  H377     1.0000 0.16609  0.74653  0.94801  Biso   1.000  H
  H378     1.0000 0.13703  0.81701  0.96000  Biso   1.000  H
  C349     1.0000 0.93287  0.18940  0.88679  Biso   1.000  C
  H379     1.0000 0.93962  0.23144  0.84161  Biso   1.000  H
  C350     1.0000 0.80345  0.04588  0.89899  Biso   1.000  C
  H380     1.0000 0.71181  0.99517  0.86241  Biso   1.000  H
  C351     1.0000 0.25650  0.06713  0.88679  Biso   1.000  C
  H381     1.0000 0.29175  0.06041  0.84161  Biso   1.000  H
  C352     1.0000 0.24248  0.19660  0.89899  Biso   1.000  C
  H382     1.0000 0.28339  0.28820  0.86241  Biso   1.000  H
  N69      1.0000 0.67667  0.90579  0.91589  Biso   1.000  N
  H383     1.0000 0.58038  0.83389  0.94801  Biso   1.000  H
  H384     1.0000 0.67998  0.86302  0.96000  Biso   1.000  H
  N70      1.0000 0.24358  0.95509  0.92515  Biso   1.000  N
  H385     1.0000 0.29460  0.88649  0.94590  Biso   1.000  H
  H386     1.0000 0.26440  0.85730  0.90991  Biso   1.000  H
  C353     1.0000 0.88368  0.12074  0.90716  Biso   1.000  C
  C354     1.0000 0.01632  0.27172  0.89605  Biso   1.000  C
  C355     1.0000 0.75551  0.97668  0.92178  Biso   1.000  C
  C356     1.0000 0.25536  0.98367  0.89605  Biso   1.000  C
  C357     1.0000 0.23699  0.11630  0.90716  Biso   1.000  C
  C358     1.0000 0.22123  0.24449  0.92178  Biso   1.000  C
  H387     1.0000 0.90595  0.12450  0.92809  Biso   1.000  H
  N71      1.0000 0.04487  0.28854  0.92515  Biso   1.000  N
  H388     1.0000 0.05049  0.31409  0.88000  Biso   1.000  H
  H389     1.0000 0.78169  0.98199  0.94210  Biso   1.000  H
  H390     1.0000 0.26362  0.94951  0.88000  Biso   1.000  H
  H391     1.0000 0.21861  0.09410  0.92809  Biso   1.000  H
  N72      1.0000 0.22907  0.32331  0.91589  Biso   1.000  N
  H392     1.0000 0.20029  0.21832  0.94210  Biso   1.000  H
  C359     1.0000 0.12528  0.37281  0.93006  Biso   1.000  C
  C360     1.0000 0.20223  0.36084  0.94146  Biso   1.000  C
  H393     1.0000 0.11346  0.40812  0.94590  Biso   1.000  H
  H394     1.0000 0.14272  0.40711  0.90991  Biso   1.000  H
  H395     1.0000 0.25352  0.41962  0.94801  Biso   1.000  H
  H396     1.0000 0.18298  0.32001  0.96000  Biso   1.000  H
  Ne1      1.0000 0.66667  0.33333  0.17580  Biso   1.000  Ne
  He1      1.0000 0.66667  0.33331  0.24426  Biso   1.000  He
  He2      1.0000 0.47667  0.23506  0.14751  Biso   1.000  He
  He3      1.0000 0.74844  0.49993  0.15023  Biso   1.000  He
  He4      1.0000 0.75380  0.24986  0.14976  Biso   1.000  He
  Ar1      1.0000 0.66666  0.33333  0.16670  Biso   1.000  Ar
  Ne2      1.0000 0.66667  0.33333  0.42438  Biso   1.000  Ne
  He5      1.0000 0.59847  0.16315  0.45046  Biso   1.000  He
  He6      1.0000 0.84579  0.44084  0.45151  Biso   1.000  He
  He7      1.0000 0.55602  0.40696  0.45212  Biso   1.000  He
  He8      1.0000 0.66667  0.33335  0.35508  Biso   1.000  He
  Ar2      1.0000 0.66664  0.33327  0.43128  Biso   1.000  Ar
  Ne3      1.0000 1.00000  0.00000  0.09105  Biso   1.000  Ne
  He9      1.0000 0.93180  0.82978  0.11714  Biso   1.000  He
  He10     1.0000 0.17911  0.10747  0.11818  Biso   1.000  He
  He11     1.0000 0.88933  0.07363  0.11879  Biso   1.000  He
  He12     1.0000 0.99998  0.99999  0.02176  Biso   1.000  He
  Ar3      1.0000 0.00001  0.00002  0.09791  Biso   1.000  Ar
  Ne4      1.0000 0.33333  0.66667  0.50913  Biso   1.000  Ne
  He13     1.0000 0.33336  0.66669  0.57759  Biso   1.000  He
  He14     1.0000 0.13449  0.56335  0.47983  Biso   1.000  He
  He15     1.0000 0.42011  0.84499  0.48220  Biso   1.000  He
  He16     1.0000 0.43431  0.57291  0.48031  Biso   1.000  He
  Ar4      1.0000 0.33333  0.66666  0.50913  Biso   1.000  Ar
  Ne5      1.0000 0.33334  0.66667  0.75771  Biso   1.000  Ne
  He17     1.0000 0.49866  0.76569  0.78322  Biso   1.000  He
  He18     1.0000 0.24098  0.72885  0.78196  Biso   1.000  He
  He19     1.0000 0.25636  0.47364  0.78647  Biso   1.000  He
  He20     1.0000 0.33334  0.66667  0.68841  Biso   1.000  He
  Ar5      1.0000 0.33335  0.66669  0.75771  Biso   1.000  Ar
  Ne6      1.0000 0.00000  0.00001  0.84246  Biso   1.000  Ne
  He21     1.0000 0.99998  0.00002  0.91094  Biso   1.000  He
  He22     1.0000 0.80114  0.89663  0.81317  Biso   1.000  He
  He23     1.0000 0.08674  0.17832  0.81554  Biso   1.000  He
  He24     1.0000 0.10095  0.90622  0.81365  Biso   1.000  He
  Ar6      1.0000 0.99997  0.99998  0.84246  Biso   1.000  Ar
