data_image0
_cell_length_a       24.51
_cell_length_b       24.51
_cell_length_c       24.51
_cell_angle_alpha    90
_cell_angle_beta     90
_cell_angle_gamma    90

_symmetry_space_group_name_H-M    "P 1"
_symmetry_int_tables_number       1

loop_
  _symmetry_equiv_pos_as_xyz
  'x, y, z'

loop_
  _atom_site_label
  _atom_site_occupancy
  _atom_site_fract_x
  _atom_site_fract_y
  _atom_site_fract_z
  _atom_site_thermal_displace_type
  _atom_site_B_iso_or_equiv
  _atom_site_type_symbol
  C1       1.0000 0.38539  0.19270  0.36328  Biso   1.000  C
  C2       1.0000 0.39661  0.16002  0.31881  Biso   1.000  C
  C3       1.0000 0.33998  0.18119  0.39661  Biso   1.000  C
  H1       1.0000 0.40779  0.22232  0.37132  Biso   1.000  H
  C4       1.0000 0.44382  0.17421  0.28641  Biso   1.000  C
  C5       1.0000 0.36328  0.11461  0.30730  Biso   1.000  C
  C6       1.0000 0.32579  0.21359  0.44382  Biso   1.000  C
  C7       1.0000 0.30730  0.13672  0.38539  Biso   1.000  C
  N1       1.0000 0.47479  0.21240  0.29490  Biso   1.000  N
  H2       1.0000 0.45120  0.15218  0.25639  Biso   1.000  H
  C8       1.0000 0.31881  0.10339  0.33998  Biso   1.000  C
  H3       1.0000 0.37132  0.09221  0.27768  Biso   1.000  H
  N2       1.0000 0.28760  0.20510  0.47479  Biso   1.000  N
  H4       1.0000 0.34782  0.24361  0.45120  Biso   1.000  H
  H5       1.0000 0.27768  0.12868  0.40779  Biso   1.000  H
  C9       1.0000 0.52142  0.22142  0.25912  Biso   1.000  C
  C10      1.0000 0.28641  0.05618  0.32579  Biso   1.000  C
  C11      1.0000 0.27858  0.24088  0.52142  Biso   1.000  C
  C12      1.0000 0.52142  0.27858  0.24088  Biso   1.000  C
  C13      1.0000 0.57222  0.20710  0.29098  Biso   1.000  C
  H6       1.0000 0.51860  0.19731  0.22721  Biso   1.000  H
  N3       1.0000 0.29490  0.02521  0.28760  Biso   1.000  N
  H7       1.0000 0.25639  0.04880  0.34782  Biso   1.000  H
  C14      1.0000 0.22142  0.25912  0.52142  Biso   1.000  C
  C15      1.0000 0.29290  0.20902  0.57222  Biso   1.000  C
  H8       1.0000 0.30269  0.27279  0.51860  Biso   1.000  H
  N4       1.0000 0.47479  0.28760  0.20510  Biso   1.000  N
  C16      1.0000 0.57222  0.29290  0.20902  Biso   1.000  C
  H9       1.0000 0.51860  0.30269  0.27279  Biso   1.000  H
  C17      1.0000 0.62252  0.21987  0.25712  Biso   1.000  C
  H10      1.0000 0.57181  0.16858  0.30041  Biso   1.000  H
  H11      1.0000 0.57311  0.22791  0.32468  Biso   1.000  H
  C18      1.0000 0.25912  0.97858  0.27858  Biso   1.000  C
  N5       1.0000 0.21240  0.29490  0.47479  Biso   1.000  N
  C19      1.0000 0.20710  0.29098  0.57222  Biso   1.000  C
  H12      1.0000 0.19731  0.22721  0.51860  Biso   1.000  H
  C20      1.0000 0.28013  0.24288  0.62252  Biso   1.000  C
  H13      1.0000 0.33142  0.19959  0.57181  Biso   1.000  H
  H14      1.0000 0.27209  0.17532  0.57311  Biso   1.000  H
  C21      1.0000 0.44382  0.32579  0.21359  Biso   1.000  C
  C22      1.0000 0.62252  0.28013  0.24288  Biso   1.000  C
  H15      1.0000 0.57181  0.33142  0.19959  Biso   1.000  H
  H16      1.0000 0.57311  0.27209  0.17532  Biso   1.000  H
  H17      1.0000 0.65520  0.21081  0.27752  Biso   1.000  H
  H18      1.0000 0.62220  0.19829  0.22391  Biso   1.000  H
  C23      1.0000 0.24088  0.97858  0.22142  Biso   1.000  C
  C24      1.0000 0.29098  0.92778  0.29290  Biso   1.000  C
  H19      1.0000 0.22721  0.98140  0.30269  Biso   1.000  H
  C25      1.0000 0.17421  0.28641  0.44382  Biso   1.000  C
  C26      1.0000 0.21987  0.25712  0.62252  Biso   1.000  C
  H20      1.0000 0.16858  0.30041  0.57181  Biso   1.000  H
  H21      1.0000 0.22791  0.32468  0.57311  Biso   1.000  H
  H22      1.0000 0.28919  0.22248  0.65520  Biso   1.000  H
  H23      1.0000 0.30171  0.27609  0.62220  Biso   1.000  H
  C27      1.0000 0.39661  0.33998  0.18119  Biso   1.000  C
  H24      1.0000 0.45120  0.34782  0.24361  Biso   1.000  H
  H25      1.0000 0.65520  0.28919  0.22248  Biso   1.000  H
  H26      1.0000 0.62220  0.30171  0.27609  Biso   1.000  H
  N6       1.0000 0.20510  0.02521  0.21240  Biso   1.000  N
  C28      1.0000 0.20902  0.92778  0.20710  Biso   1.000  C
  H27      1.0000 0.27279  0.98140  0.19731  Biso   1.000  H
  C29      1.0000 0.25712  0.87748  0.28013  Biso   1.000  C
  H28      1.0000 0.30041  0.92819  0.33142  Biso   1.000  H
  H29      1.0000 0.32468  0.92689  0.27209  Biso   1.000  H
  C30      1.0000 0.16002  0.31881  0.39661  Biso   1.000  C
  H30      1.0000 0.15218  0.25639  0.45120  Biso   1.000  H
  H31      1.0000 0.21081  0.27752  0.65520  Biso   1.000  H
  H32      1.0000 0.19829  0.22391  0.62220  Biso   1.000  H
  C31      1.0000 0.38539  0.30730  0.13672  Biso   1.000  C
  C32      1.0000 0.36328  0.38539  0.19270  Biso   1.000  C
  C33      1.0000 0.21359  0.05618  0.17421  Biso   1.000  C
  C34      1.0000 0.24288  0.87748  0.21987  Biso   1.000  C
  H33      1.0000 0.19959  0.92819  0.16858  Biso   1.000  H
  H34      1.0000 0.17532  0.92689  0.22791  Biso   1.000  H
  H35      1.0000 0.27752  0.84480  0.28919  Biso   1.000  H
  H36      1.0000 0.22391  0.87780  0.30171  Biso   1.000  H
  C35      1.0000 0.19270  0.36328  0.38539  Biso   1.000  C
  C36      1.0000 0.11461  0.30730  0.36328  Biso   1.000  C
  C37      1.0000 0.33998  0.31881  0.10339  Biso   1.000  C
  H37      1.0000 0.40779  0.27768  0.12868  Biso   1.000  H
  C38      1.0000 0.31881  0.39661  0.16002  Biso   1.000  C
  H38      1.0000 0.37132  0.40779  0.22232  Biso   1.000  H
  C39      1.0000 0.18119  0.10339  0.16002  Biso   1.000  C
  H39      1.0000 0.24361  0.04880  0.15218  Biso   1.000  H
  H40      1.0000 0.22248  0.84480  0.21081  Biso   1.000  H
  H41      1.0000 0.27609  0.87780  0.19829  Biso   1.000  H
  C40      1.0000 0.18119  0.39661  0.33998  Biso   1.000  C
  H42      1.0000 0.22232  0.37132  0.40779  Biso   1.000  H
  C41      1.0000 0.10339  0.33998  0.31881  Biso   1.000  C
  H43      1.0000 0.09221  0.27768  0.37132  Biso   1.000  H
  C42      1.0000 0.32579  0.28641  0.05618  Biso   1.000  C
  C43      1.0000 0.30730  0.36328  0.11461  Biso   1.000  C
  C44      1.0000 0.28641  0.44382  0.17421  Biso   1.000  C
  C45      1.0000 0.19270  0.13672  0.11461  Biso   1.000  C
  C46      1.0000 0.13672  0.11461  0.19270  Biso   1.000  C
  C47      1.0000 0.21359  0.44382  0.32579  Biso   1.000  C
  C48      1.0000 0.13672  0.38539  0.30730  Biso   1.000  C
  C49      1.0000 0.05618  0.32579  0.28641  Biso   1.000  C
  N7       1.0000 0.28760  0.29490  0.02521  Biso   1.000  N
  H44      1.0000 0.34782  0.25639  0.04880  Biso   1.000  H
  H45      1.0000 0.27768  0.37132  0.09221  Biso   1.000  H
  N8       1.0000 0.29490  0.47479  0.21240  Biso   1.000  N
  H46      1.0000 0.25639  0.45120  0.15218  Biso   1.000  H
  C50      1.0000 0.16002  0.18119  0.10339  Biso   1.000  C
  H47      1.0000 0.22232  0.12868  0.09221  Biso   1.000  H
  C51      1.0000 0.10339  0.16002  0.18119  Biso   1.000  C
  H48      1.0000 0.12868  0.09221  0.22232  Biso   1.000  H
  N9       1.0000 0.20510  0.47479  0.28760  Biso   1.000  N
  H49      1.0000 0.24361  0.45120  0.34782  Biso   1.000  H
  H50      1.0000 0.12868  0.40779  0.27768  Biso   1.000  H
  N10      1.0000 0.02521  0.28760  0.29490  Biso   1.000  N
  H51      1.0000 0.04880  0.34782  0.25639  Biso   1.000  H
  C52      1.0000 0.27858  0.25912  0.97858  Biso   1.000  C
  C53      1.0000 0.25912  0.52142  0.22142  Biso   1.000  C
  C54      1.0000 0.17421  0.21359  0.05618  Biso   1.000  C
  C55      1.0000 0.11461  0.19270  0.13672  Biso   1.000  C
  C56      1.0000 0.05618  0.17421  0.21359  Biso   1.000  C
  C57      1.0000 0.24088  0.52142  0.27858  Biso   1.000  C
  C58      1.0000 0.97858  0.27858  0.25912  Biso   1.000  C
  C59      1.0000 0.22142  0.24088  0.97858  Biso   1.000  C
  C60      1.0000 0.29290  0.29098  0.92778  Biso   1.000  C
  H52      1.0000 0.30269  0.22721  0.98140  Biso   1.000  H
  C61      1.0000 0.29098  0.57222  0.20710  Biso   1.000  C
  H53      1.0000 0.22721  0.51860  0.19731  Biso   1.000  H
  N11      1.0000 0.21240  0.20510  0.02521  Biso   1.000  N
  H54      1.0000 0.15218  0.24361  0.04880  Biso   1.000  H
  H55      1.0000 0.09221  0.22232  0.12868  Biso   1.000  H
  N12      1.0000 0.02521  0.21240  0.20510  Biso   1.000  N
  H56      1.0000 0.04880  0.15218  0.24361  Biso   1.000  H
  C62      1.0000 0.20902  0.57222  0.29290  Biso   1.000  C
  H57      1.0000 0.27279  0.51860  0.30269  Biso   1.000  H
  C63      1.0000 0.97858  0.22142  0.24088  Biso   1.000  C
  C64      1.0000 0.92778  0.29290  0.29098  Biso   1.000  C
  H58      1.0000 0.98140  0.30269  0.22721  Biso   1.000  H
  C65      1.0000 0.20710  0.20902  0.92778  Biso   1.000  C
  H59      1.0000 0.19731  0.27279  0.98140  Biso   1.000  H
  C66      1.0000 0.28013  0.25712  0.87748  Biso   1.000  C
  H60      1.0000 0.33142  0.30041  0.92819  Biso   1.000  H
  H61      1.0000 0.27209  0.32468  0.92689  Biso   1.000  H
  C67      1.0000 0.25712  0.62252  0.21987  Biso   1.000  C
  H62      1.0000 0.30041  0.57181  0.16858  Biso   1.000  H
  H63      1.0000 0.32468  0.57311  0.22791  Biso   1.000  H
  C68      1.0000 0.24288  0.62252  0.28013  Biso   1.000  C
  H64      1.0000 0.19959  0.57181  0.33142  Biso   1.000  H
  H65      1.0000 0.17532  0.57311  0.27209  Biso   1.000  H
  C69      1.0000 0.92778  0.20710  0.20902  Biso   1.000  C
  H66      1.0000 0.98140  0.19731  0.27279  Biso   1.000  H
  C70      1.0000 0.87748  0.28013  0.25712  Biso   1.000  C
  H67      1.0000 0.92819  0.33142  0.30041  Biso   1.000  H
  H68      1.0000 0.92689  0.27209  0.32468  Biso   1.000  H
  C71      1.0000 0.21987  0.24288  0.87748  Biso   1.000  C
  H69      1.0000 0.16858  0.19959  0.92819  Biso   1.000  H
  H70      1.0000 0.22791  0.17532  0.92689  Biso   1.000  H
  H71      1.0000 0.28919  0.27752  0.84480  Biso   1.000  H
  H72      1.0000 0.30171  0.22391  0.87780  Biso   1.000  H
  H73      1.0000 0.27752  0.65520  0.21081  Biso   1.000  H
  H74      1.0000 0.22391  0.62220  0.19829  Biso   1.000  H
  H75      1.0000 0.22248  0.65520  0.28919  Biso   1.000  H
  H76      1.0000 0.27609  0.62220  0.30171  Biso   1.000  H
  C72      1.0000 0.87748  0.21987  0.24288  Biso   1.000  C
  H77      1.0000 0.92819  0.16858  0.19959  Biso   1.000  H
  H78      1.0000 0.92689  0.22791  0.17532  Biso   1.000  H
  H79      1.0000 0.84480  0.28919  0.27752  Biso   1.000  H
  H80      1.0000 0.87780  0.30171  0.22391  Biso   1.000  H
  H81      1.0000 0.21081  0.22248  0.84480  Biso   1.000  H
  H82      1.0000 0.19829  0.27609  0.87780  Biso   1.000  H
  H83      1.0000 0.84480  0.21081  0.22248  Biso   1.000  H
  H84      1.0000 0.87780  0.19829  0.27609  Biso   1.000  H
  C73      1.0000 0.53860  0.30261  0.42330  Biso   1.000  C
  N13      1.0000 0.54876  0.27421  0.46389  Biso   1.000  N
  C74      1.0000 0.57311  0.35071  0.40959  Biso   1.000  C
  H85      1.0000 0.50910  0.29380  0.40110  Biso   1.000  H
  C75      1.0000 0.51191  0.22913  0.47099  Biso   1.000  C
  C76      1.0000 0.55961  0.38270  0.36532  Biso   1.000  C
  C77      1.0000 0.61730  0.36532  0.44039  Biso   1.000  C
  C78      1.0000 0.48809  0.22913  0.52901  Biso   1.000  C
  H86      1.0000 0.53109  0.19510  0.46459  Biso   1.000  H
  H87      1.0000 0.48250  0.23178  0.44472  Biso   1.000  H
  C79      1.0000 0.59041  0.42689  0.35071  Biso   1.000  C
  H88      1.0000 0.52889  0.37389  0.34480  Biso   1.000  H
  C80      1.0000 0.64929  0.40959  0.42689  Biso   1.000  C
  H89      1.0000 0.62611  0.34480  0.47111  Biso   1.000  H
  N14      1.0000 0.45124  0.27421  0.53611  Biso   1.000  N
  H90      1.0000 0.46891  0.19510  0.53541  Biso   1.000  H
  H91      1.0000 0.51750  0.23178  0.55528  Biso   1.000  H
  C81      1.0000 0.57670  0.46140  0.30261  Biso   1.000  C
  C82      1.0000 0.63468  0.44039  0.38270  Biso   1.000  C
  C83      1.0000 0.69739  0.42330  0.46140  Biso   1.000  C
  C84      1.0000 0.46140  0.30261  0.57670  Biso   1.000  C
  N15      1.0000 0.53611  0.45124  0.27421  Biso   1.000  N
  H92      1.0000 0.59890  0.49090  0.29380  Biso   1.000  H
  H93      1.0000 0.65520  0.47111  0.37389  Biso   1.000  H
  N16      1.0000 0.72579  0.46389  0.45124  Biso   1.000  N
  H94      1.0000 0.70620  0.40110  0.49090  Biso   1.000  H
  C85      1.0000 0.42689  0.35071  0.59041  Biso   1.000  C
  H95      1.0000 0.49090  0.29380  0.59890  Biso   1.000  H
  C86      1.0000 0.52901  0.48809  0.22913  Biso   1.000  C
  C87      1.0000 0.77087  0.47099  0.48809  Biso   1.000  C
  C88      1.0000 0.44039  0.38270  0.63468  Biso   1.000  C
  C89      1.0000 0.38270  0.36532  0.55961  Biso   1.000  C
  C90      1.0000 0.47099  0.51191  0.22913  Biso   1.000  C
  H96      1.0000 0.53541  0.46891  0.19510  Biso   1.000  H
  H97      1.0000 0.55528  0.51750  0.23178  Biso   1.000  H
  C91      1.0000 0.77087  0.52901  0.51191  Biso   1.000  C
  H98      1.0000 0.80490  0.46459  0.46891  Biso   1.000  H
  H99      1.0000 0.76822  0.44472  0.51750  Biso   1.000  H
  C92      1.0000 0.40959  0.42689  0.64929  Biso   1.000  C
  H100     1.0000 0.47111  0.37389  0.65520  Biso   1.000  H
  C93      1.0000 0.35071  0.40959  0.57311  Biso   1.000  C
  H101     1.0000 0.37389  0.34480  0.52889  Biso   1.000  H
  N17      1.0000 0.46389  0.54876  0.27421  Biso   1.000  N
  H102     1.0000 0.46459  0.53109  0.19510  Biso   1.000  H
  H103     1.0000 0.44472  0.48250  0.23178  Biso   1.000  H
  N18      1.0000 0.72579  0.53611  0.54876  Biso   1.000  N
  H104     1.0000 0.80490  0.53541  0.53109  Biso   1.000  H
  H105     1.0000 0.76822  0.55528  0.48250  Biso   1.000  H
  C94      1.0000 0.42330  0.46140  0.69739  Biso   1.000  C
  C95      1.0000 0.36532  0.44039  0.61730  Biso   1.000  C
  C96      1.0000 0.30261  0.42330  0.53860  Biso   1.000  C
  C97      1.0000 0.42330  0.53860  0.30261  Biso   1.000  C
  C98      1.0000 0.69739  0.57670  0.53860  Biso   1.000  C
  N19      1.0000 0.46389  0.45124  0.72579  Biso   1.000  N
  H106     1.0000 0.40110  0.49090  0.70620  Biso   1.000  H
  H107     1.0000 0.34480  0.47111  0.62611  Biso   1.000  H
  N20      1.0000 0.27421  0.46389  0.54876  Biso   1.000  N
  H108     1.0000 0.29380  0.40110  0.50910  Biso   1.000  H
  C99      1.0000 0.40959  0.57311  0.35071  Biso   1.000  C
  H109     1.0000 0.40110  0.50910  0.29380  Biso   1.000  H
  C100     1.0000 0.64929  0.59041  0.57311  Biso   1.000  C
  H110     1.0000 0.70620  0.59890  0.50910  Biso   1.000  H
  C101     1.0000 0.47099  0.48809  0.77087  Biso   1.000  C
  C102     1.0000 0.22913  0.47099  0.51191  Biso   1.000  C
  C103     1.0000 0.36532  0.55961  0.38270  Biso   1.000  C
  C104     1.0000 0.44039  0.61730  0.36532  Biso   1.000  C
  C105     1.0000 0.61730  0.63468  0.55961  Biso   1.000  C
  C106     1.0000 0.63468  0.55961  0.61730  Biso   1.000  C
  C107     1.0000 0.52901  0.51191  0.77087  Biso   1.000  C
  H111     1.0000 0.46459  0.46891  0.80490  Biso   1.000  H
  H112     1.0000 0.44472  0.51750  0.76822  Biso   1.000  H
  C108     1.0000 0.22913  0.52901  0.48809  Biso   1.000  C
  H113     1.0000 0.19510  0.46459  0.53109  Biso   1.000  H
  H114     1.0000 0.23178  0.44472  0.48250  Biso   1.000  H
  C109     1.0000 0.35071  0.59041  0.42689  Biso   1.000  C
  H115     1.0000 0.34480  0.52889  0.37389  Biso   1.000  H
  C110     1.0000 0.42689  0.64929  0.40959  Biso   1.000  C
  H116     1.0000 0.47111  0.62611  0.34480  Biso   1.000  H
  C111     1.0000 0.57311  0.64929  0.59041  Biso   1.000  C
  H117     1.0000 0.62611  0.65520  0.52889  Biso   1.000  H
  C112     1.0000 0.59041  0.57311  0.64929  Biso   1.000  C
  H118     1.0000 0.65520  0.52889  0.62611  Biso   1.000  H
  N21      1.0000 0.53611  0.54876  0.72579  Biso   1.000  N
  H119     1.0000 0.53541  0.53109  0.80490  Biso   1.000  H
  H120     1.0000 0.55528  0.48250  0.76822  Biso   1.000  H
  N22      1.0000 0.27421  0.53611  0.45124  Biso   1.000  N
  H121     1.0000 0.19510  0.53541  0.46891  Biso   1.000  H
  H122     1.0000 0.23178  0.55528  0.51750  Biso   1.000  H
  C113     1.0000 0.30261  0.57670  0.46140  Biso   1.000  C
  C114     1.0000 0.38270  0.63468  0.44039  Biso   1.000  C
  C115     1.0000 0.46140  0.69739  0.42330  Biso   1.000  C
  C116     1.0000 0.53860  0.69739  0.57670  Biso   1.000  C
  C117     1.0000 0.55961  0.61730  0.63468  Biso   1.000  C
  C118     1.0000 0.57670  0.53860  0.69739  Biso   1.000  C
  H123     1.0000 0.29380  0.59890  0.49090  Biso   1.000  H
  H124     1.0000 0.37389  0.65520  0.47111  Biso   1.000  H
  N23      1.0000 0.45124  0.72579  0.46389  Biso   1.000  N
  H125     1.0000 0.49090  0.70620  0.40110  Biso   1.000  H
  N24      1.0000 0.54876  0.72579  0.53611  Biso   1.000  N
  H126     1.0000 0.50910  0.70620  0.59890  Biso   1.000  H
  H127     1.0000 0.52889  0.62611  0.65520  Biso   1.000  H
  H128     1.0000 0.59890  0.50910  0.70620  Biso   1.000  H
  C119     1.0000 0.48809  0.77087  0.47099  Biso   1.000  C
  C120     1.0000 0.51191  0.77087  0.52901  Biso   1.000  C
  H129     1.0000 0.46891  0.80490  0.46459  Biso   1.000  H
  H130     1.0000 0.51750  0.76822  0.44472  Biso   1.000  H
  H131     1.0000 0.53109  0.80490  0.53541  Biso   1.000  H
  H132     1.0000 0.48250  0.76822  0.55528  Biso   1.000  H
  C121     1.0000 0.53860  0.19739  0.07670  Biso   1.000  C
  N25      1.0000 0.54876  0.22579  0.03611  Biso   1.000  N
  C122     1.0000 0.57311  0.14929  0.09041  Biso   1.000  C
  H133     1.0000 0.50910  0.20620  0.09890  Biso   1.000  H
  C123     1.0000 0.51191  0.27087  0.02901  Biso   1.000  C
  C124     1.0000 0.61730  0.13468  0.05961  Biso   1.000  C
  C125     1.0000 0.55961  0.11730  0.13468  Biso   1.000  C
  H134     1.0000 0.53109  0.30490  0.03541  Biso   1.000  H
  H135     1.0000 0.48250  0.26822  0.05528  Biso   1.000  H
  C126     1.0000 0.48809  0.27087  0.97099  Biso   1.000  C
  H136     1.0000 0.62611  0.15520  0.02889  Biso   1.000  H
  C127     1.0000 0.64929  0.09041  0.07311  Biso   1.000  C
  C128     1.0000 0.59041  0.07311  0.14929  Biso   1.000  C
  H137     1.0000 0.52889  0.12611  0.15520  Biso   1.000  H
  N26      1.0000 0.45124  0.22579  0.96389  Biso   1.000  N
  H138     1.0000 0.46891  0.30490  0.96459  Biso   1.000  H
  H139     1.0000 0.51750  0.26822  0.94472  Biso   1.000  H
  C129     1.0000 0.69739  0.07670  0.03860  Biso   1.000  C
  C130     1.0000 0.63468  0.05961  0.11730  Biso   1.000  C
  C131     1.0000 0.57670  0.03860  0.19739  Biso   1.000  C
  C132     1.0000 0.46140  0.19739  0.92330  Biso   1.000  C
  N27      1.0000 0.72579  0.03611  0.04876  Biso   1.000  N
  H140     1.0000 0.70620  0.09890  0.00910  Biso   1.000  H
  H141     1.0000 0.65520  0.02889  0.12611  Biso   1.000  H
  N28      1.0000 0.53611  0.04876  0.22579  Biso   1.000  N
  H142     1.0000 0.59890  0.00910  0.20620  Biso   1.000  H
  C133     1.0000 0.42689  0.14929  0.90959  Biso   1.000  C
  H143     1.0000 0.49090  0.20620  0.90110  Biso   1.000  H
  C134     1.0000 0.77087  0.02901  0.01191  Biso   1.000  C
  C135     1.0000 0.52901  0.01191  0.27087  Biso   1.000  C
  C136     1.0000 0.38270  0.13468  0.94039  Biso   1.000  C
  C137     1.0000 0.44039  0.11730  0.86532  Biso   1.000  C
  H144     1.0000 0.80490  0.03541  0.03109  Biso   1.000  H
  C138     1.0000 0.77087  0.97099  0.98809  Biso   1.000  C
  H145     1.0000 0.76822  0.05528  0.98250  Biso   1.000  H
  H146     1.0000 0.53541  0.03109  0.30490  Biso   1.000  H
  C139     1.0000 0.47099  0.98809  0.27087  Biso   1.000  C
  H147     1.0000 0.55528  0.98250  0.26822  Biso   1.000  H
  C140     1.0000 0.35071  0.09041  0.92689  Biso   1.000  C
  H148     1.0000 0.37389  0.15520  0.97111  Biso   1.000  H
  C141     1.0000 0.40959  0.07311  0.85071  Biso   1.000  C
  H149     1.0000 0.47111  0.12611  0.84480  Biso   1.000  H
  N29      1.0000 0.72579  0.96389  0.95124  Biso   1.000  N
  H150     1.0000 0.80490  0.96459  0.96891  Biso   1.000  H
  H151     1.0000 0.76822  0.94472  0.01750  Biso   1.000  H
  H152     1.0000 0.44472  0.01750  0.26822  Biso   1.000  H
  N30      1.0000 0.46389  0.95124  0.22579  Biso   1.000  N
  H153     1.0000 0.46459  0.96891  0.30490  Biso   1.000  H
  C142     1.0000 0.30261  0.07670  0.96140  Biso   1.000  C
  C143     1.0000 0.36532  0.05961  0.88270  Biso   1.000  C
  C144     1.0000 0.42330  0.03860  0.80261  Biso   1.000  C
  C145     1.0000 0.69739  0.92330  0.96140  Biso   1.000  C
  C146     1.0000 0.42330  0.96140  0.19739  Biso   1.000  C
  N31      1.0000 0.27421  0.03611  0.95124  Biso   1.000  N
  H154     1.0000 0.29380  0.09890  0.99090  Biso   1.000  H
  H155     1.0000 0.34480  0.02889  0.87389  Biso   1.000  H
  N32      1.0000 0.46389  0.04876  0.77421  Biso   1.000  N
  H156     1.0000 0.40110  0.00910  0.79380  Biso   1.000  H
  C147     1.0000 0.64929  0.90959  0.92689  Biso   1.000  C
  H157     1.0000 0.70620  0.90110  0.99090  Biso   1.000  H
  C148     1.0000 0.40959  0.92689  0.14929  Biso   1.000  C
  H158     1.0000 0.40110  0.99090  0.20620  Biso   1.000  H
  C149     1.0000 0.22913  0.02901  0.98809  Biso   1.000  C
  C150     1.0000 0.47099  0.01191  0.72913  Biso   1.000  C
  C151     1.0000 0.63468  0.94039  0.88270  Biso   1.000  C
  C152     1.0000 0.61730  0.86532  0.94039  Biso   1.000  C
  C153     1.0000 0.36532  0.94039  0.11730  Biso   1.000  C
  C154     1.0000 0.44039  0.88270  0.13468  Biso   1.000  C
  H159     1.0000 0.23178  0.05528  0.01750  Biso   1.000  H
  C155     1.0000 0.22913  0.97099  0.01191  Biso   1.000  C
  H160     1.0000 0.19510  0.03541  0.96891  Biso   1.000  H
  C156     1.0000 0.52901  0.98809  0.72913  Biso   1.000  C
  H161     1.0000 0.44472  0.98250  0.73178  Biso   1.000  H
  H162     1.0000 0.46459  0.03109  0.69510  Biso   1.000  H
  C157     1.0000 0.59041  0.92689  0.85071  Biso   1.000  C
  H163     1.0000 0.65520  0.97111  0.87389  Biso   1.000  H
  C158     1.0000 0.57311  0.85071  0.90959  Biso   1.000  C
  H164     1.0000 0.62611  0.84480  0.97111  Biso   1.000  H
  C159     1.0000 0.35071  0.90959  0.07311  Biso   1.000  C
  H165     1.0000 0.34480  0.97111  0.12611  Biso   1.000  H
  C160     1.0000 0.42689  0.85071  0.09041  Biso   1.000  C
  H166     1.0000 0.47111  0.87389  0.15520  Biso   1.000  H
  H167     1.0000 0.23178  0.94472  0.98250  Biso   1.000  H
  N33      1.0000 0.27421  0.96389  0.04876  Biso   1.000  N
  H168     1.0000 0.19510  0.96459  0.03109  Biso   1.000  H
  N34      1.0000 0.53611  0.95124  0.77421  Biso   1.000  N
  H169     1.0000 0.53541  0.96891  0.69510  Biso   1.000  H
  H170     1.0000 0.55528  0.01750  0.73178  Biso   1.000  H
  C161     1.0000 0.57670  0.96140  0.80261  Biso   1.000  C
  C162     1.0000 0.55961  0.88270  0.86532  Biso   1.000  C
  C163     1.0000 0.53860  0.80261  0.92330  Biso   1.000  C
  C164     1.0000 0.30261  0.92330  0.03860  Biso   1.000  C
  C165     1.0000 0.38270  0.86532  0.05961  Biso   1.000  C
  C166     1.0000 0.46140  0.80261  0.07670  Biso   1.000  C
  H171     1.0000 0.59890  0.99090  0.79380  Biso   1.000  H
  H172     1.0000 0.52889  0.87389  0.84480  Biso   1.000  H
  N35      1.0000 0.54876  0.77421  0.96389  Biso   1.000  N
  H173     1.0000 0.50910  0.79380  0.90110  Biso   1.000  H
  H174     1.0000 0.29380  0.90110  0.00910  Biso   1.000  H
  H175     1.0000 0.37389  0.84480  0.02889  Biso   1.000  H
  N36      1.0000 0.45124  0.77421  0.03611  Biso   1.000  N
  H176     1.0000 0.49090  0.79380  0.09890  Biso   1.000  H
  C167     1.0000 0.51191  0.72913  0.97099  Biso   1.000  C
  C168     1.0000 0.48809  0.72913  0.02901  Biso   1.000  C
  H177     1.0000 0.53109  0.69510  0.96459  Biso   1.000  H
  H178     1.0000 0.48250  0.73178  0.94472  Biso   1.000  H
  H179     1.0000 0.46891  0.69510  0.03541  Biso   1.000  H
  H180     1.0000 0.51750  0.73178  0.05528  Biso   1.000  H
  C169     1.0000 0.53860  0.19739  0.07670  Biso   1.000  C
  N37      1.0000 0.54876  0.22579  0.03611  Biso   1.000  N
  C170     1.0000 0.57311  0.14929  0.09041  Biso   1.000  C
  H181     1.0000 0.50910  0.20620  0.09890  Biso   1.000  H
  C171     1.0000 0.51191  0.27087  0.02901  Biso   1.000  C
  C172     1.0000 0.61730  0.13468  0.05961  Biso   1.000  C
  C173     1.0000 0.55961  0.11730  0.13468  Biso   1.000  C
  H182     1.0000 0.53109  0.30490  0.03541  Biso   1.000  H
  H183     1.0000 0.48250  0.26822  0.05528  Biso   1.000  H
  C174     1.0000 0.48809  0.27087  0.97099  Biso   1.000  C
  H184     1.0000 0.62611  0.15520  0.02889  Biso   1.000  H
  C175     1.0000 0.64929  0.09041  0.07311  Biso   1.000  C
  C176     1.0000 0.59041  0.07311  0.14929  Biso   1.000  C
  H185     1.0000 0.52889  0.12611  0.15520  Biso   1.000  H
  N38      1.0000 0.45124  0.22579  0.96389  Biso   1.000  N
  H186     1.0000 0.46891  0.30490  0.96459  Biso   1.000  H
  H187     1.0000 0.51750  0.26822  0.94472  Biso   1.000  H
  C177     1.0000 0.69739  0.07670  0.03860  Biso   1.000  C
  C178     1.0000 0.63468  0.05961  0.11730  Biso   1.000  C
  C179     1.0000 0.57670  0.03860  0.19739  Biso   1.000  C
  C180     1.0000 0.46140  0.19739  0.92330  Biso   1.000  C
  N39      1.0000 0.72579  0.03611  0.04876  Biso   1.000  N
  H188     1.0000 0.70620  0.09890  0.00910  Biso   1.000  H
  H189     1.0000 0.65520  0.02889  0.12611  Biso   1.000  H
  N40      1.0000 0.53611  0.04876  0.22579  Biso   1.000  N
  H190     1.0000 0.59890  0.00910  0.20620  Biso   1.000  H
  C181     1.0000 0.42689  0.14929  0.90959  Biso   1.000  C
  H191     1.0000 0.49090  0.20620  0.90110  Biso   1.000  H
  C182     1.0000 0.77087  0.02901  0.01191  Biso   1.000  C
  C183     1.0000 0.52901  0.01191  0.27087  Biso   1.000  C
  C184     1.0000 0.38270  0.13468  0.94039  Biso   1.000  C
  C185     1.0000 0.44039  0.11730  0.86532  Biso   1.000  C
  H192     1.0000 0.80490  0.03541  0.03109  Biso   1.000  H
  C186     1.0000 0.77087  0.97099  0.98809  Biso   1.000  C
  H193     1.0000 0.76822  0.05528  0.98250  Biso   1.000  H
  H194     1.0000 0.53541  0.03109  0.30490  Biso   1.000  H
  C187     1.0000 0.47099  0.98809  0.27087  Biso   1.000  C
  H195     1.0000 0.55528  0.98250  0.26822  Biso   1.000  H
  C188     1.0000 0.35071  0.09041  0.92689  Biso   1.000  C
  H196     1.0000 0.37389  0.15520  0.97111  Biso   1.000  H
  C189     1.0000 0.40959  0.07311  0.85071  Biso   1.000  C
  H197     1.0000 0.47111  0.12611  0.84480  Biso   1.000  H
  N41      1.0000 0.72579  0.96389  0.95124  Biso   1.000  N
  H198     1.0000 0.80490  0.96459  0.96891  Biso   1.000  H
  H199     1.0000 0.76822  0.94472  0.01750  Biso   1.000  H
  H200     1.0000 0.44472  0.01750  0.26822  Biso   1.000  H
  N42      1.0000 0.46389  0.95124  0.22579  Biso   1.000  N
  H201     1.0000 0.46459  0.96891  0.30490  Biso   1.000  H
  C190     1.0000 0.30261  0.07670  0.96140  Biso   1.000  C
  C191     1.0000 0.36532  0.05961  0.88270  Biso   1.000  C
  C192     1.0000 0.42330  0.03860  0.80261  Biso   1.000  C
  C193     1.0000 0.69739  0.92330  0.96140  Biso   1.000  C
  C194     1.0000 0.42330  0.96140  0.19739  Biso   1.000  C
  N43      1.0000 0.27421  0.03611  0.95124  Biso   1.000  N
  H202     1.0000 0.29380  0.09890  0.99090  Biso   1.000  H
  H203     1.0000 0.34480  0.02889  0.87389  Biso   1.000  H
  N44      1.0000 0.46389  0.04876  0.77421  Biso   1.000  N
  H204     1.0000 0.40110  0.00910  0.79380  Biso   1.000  H
  C195     1.0000 0.64929  0.90959  0.92689  Biso   1.000  C
  H205     1.0000 0.70620  0.90110  0.99090  Biso   1.000  H
  C196     1.0000 0.40959  0.92689  0.14929  Biso   1.000  C
  H206     1.0000 0.40110  0.99090  0.20620  Biso   1.000  H
  C197     1.0000 0.22913  0.02901  0.98809  Biso   1.000  C
  C198     1.0000 0.47099  0.01191  0.72913  Biso   1.000  C
  C199     1.0000 0.63468  0.94039  0.88270  Biso   1.000  C
  C200     1.0000 0.61730  0.86532  0.94039  Biso   1.000  C
  C201     1.0000 0.36532  0.94039  0.11730  Biso   1.000  C
  C202     1.0000 0.44039  0.88270  0.13468  Biso   1.000  C
  H207     1.0000 0.23178  0.05528  0.01750  Biso   1.000  H
  C203     1.0000 0.22913  0.97099  0.01191  Biso   1.000  C
  H208     1.0000 0.19510  0.03541  0.96891  Biso   1.000  H
  C204     1.0000 0.52901  0.98809  0.72913  Biso   1.000  C
  H209     1.0000 0.44472  0.98250  0.73178  Biso   1.000  H
  H210     1.0000 0.46459  0.03109  0.69510  Biso   1.000  H
  C205     1.0000 0.59041  0.92689  0.85071  Biso   1.000  C
  H211     1.0000 0.65520  0.97111  0.87389  Biso   1.000  H
  C206     1.0000 0.57311  0.85071  0.90959  Biso   1.000  C
  H212     1.0000 0.62611  0.84480  0.97111  Biso   1.000  H
  C207     1.0000 0.35071  0.90959  0.07311  Biso   1.000  C
  H213     1.0000 0.34480  0.97111  0.12611  Biso   1.000  H
  C208     1.0000 0.42689  0.85071  0.09041  Biso   1.000  C
  H214     1.0000 0.47111  0.87389  0.15520  Biso   1.000  H
  H215     1.0000 0.23178  0.94472  0.98250  Biso   1.000  H
  N45      1.0000 0.27421  0.96389  0.04876  Biso   1.000  N
  H216     1.0000 0.19510  0.96459  0.03109  Biso   1.000  H
  N46      1.0000 0.53611  0.95124  0.77421  Biso   1.000  N
  H217     1.0000 0.53541  0.96891  0.69510  Biso   1.000  H
  H218     1.0000 0.55528  0.01750  0.73178  Biso   1.000  H
  C209     1.0000 0.57670  0.96140  0.80261  Biso   1.000  C
  C210     1.0000 0.55961  0.88270  0.86532  Biso   1.000  C
  C211     1.0000 0.53860  0.80261  0.92330  Biso   1.000  C
  C212     1.0000 0.30261  0.92330  0.03860  Biso   1.000  C
  C213     1.0000 0.38270  0.86532  0.05961  Biso   1.000  C
  C214     1.0000 0.46140  0.80261  0.07670  Biso   1.000  C
  H219     1.0000 0.59890  0.99090  0.79380  Biso   1.000  H
  H220     1.0000 0.52889  0.87389  0.84480  Biso   1.000  H
  N47      1.0000 0.54876  0.77421  0.96389  Biso   1.000  N
  H221     1.0000 0.50910  0.79380  0.90110  Biso   1.000  H
  H222     1.0000 0.29380  0.90110  0.00910  Biso   1.000  H
  H223     1.0000 0.37389  0.84480  0.02889  Biso   1.000  H
  N48      1.0000 0.45124  0.77421  0.03611  Biso   1.000  N
  H224     1.0000 0.49090  0.79380  0.09890  Biso   1.000  H
  C215     1.0000 0.51191  0.72913  0.97099  Biso   1.000  C
  C216     1.0000 0.48809  0.72913  0.02901  Biso   1.000  C
  H225     1.0000 0.53109  0.69510  0.96459  Biso   1.000  H
  H226     1.0000 0.48250  0.73178  0.94472  Biso   1.000  H
  H227     1.0000 0.46891  0.69510  0.03541  Biso   1.000  H
  H228     1.0000 0.51750  0.73178  0.05528  Biso   1.000  H
  C217     1.0000 0.53860  0.19739  0.07670  Biso   1.000  C
  N49      1.0000 0.54876  0.22579  0.03611  Biso   1.000  N
  C218     1.0000 0.57311  0.14929  0.09041  Biso   1.000  C
  H229     1.0000 0.50910  0.20620  0.09890  Biso   1.000  H
  C219     1.0000 0.51191  0.27087  0.02901  Biso   1.000  C
  C220     1.0000 0.61730  0.13468  0.05961  Biso   1.000  C
  C221     1.0000 0.55961  0.11730  0.13468  Biso   1.000  C
  H230     1.0000 0.53109  0.30490  0.03541  Biso   1.000  H
  H231     1.0000 0.48250  0.26822  0.05528  Biso   1.000  H
  C222     1.0000 0.48809  0.27087  0.97099  Biso   1.000  C
  H232     1.0000 0.62611  0.15520  0.02889  Biso   1.000  H
  C223     1.0000 0.64929  0.09041  0.07311  Biso   1.000  C
  C224     1.0000 0.59041  0.07311  0.14929  Biso   1.000  C
  H233     1.0000 0.52889  0.12611  0.15520  Biso   1.000  H
  N50      1.0000 0.45124  0.22579  0.96389  Biso   1.000  N
  H234     1.0000 0.46891  0.30490  0.96459  Biso   1.000  H
  H235     1.0000 0.51750  0.26822  0.94472  Biso   1.000  H
  C225     1.0000 0.69739  0.07670  0.03860  Biso   1.000  C
  C226     1.0000 0.63468  0.05961  0.11730  Biso   1.000  C
  C227     1.0000 0.57670  0.03860  0.19739  Biso   1.000  C
  C228     1.0000 0.46140  0.19739  0.92330  Biso   1.000  C
  N51      1.0000 0.72579  0.03611  0.04876  Biso   1.000  N
  H236     1.0000 0.70620  0.09890  0.00910  Biso   1.000  H
  H237     1.0000 0.65520  0.02889  0.12611  Biso   1.000  H
  N52      1.0000 0.53611  0.04876  0.22579  Biso   1.000  N
  H238     1.0000 0.59890  0.00910  0.20620  Biso   1.000  H
  C229     1.0000 0.42689  0.14929  0.90959  Biso   1.000  C
  H239     1.0000 0.49090  0.20620  0.90110  Biso   1.000  H
  C230     1.0000 0.77087  0.02901  0.01191  Biso   1.000  C
  C231     1.0000 0.52901  0.01191  0.27087  Biso   1.000  C
  C232     1.0000 0.38270  0.13468  0.94039  Biso   1.000  C
  C233     1.0000 0.44039  0.11730  0.86532  Biso   1.000  C
  H240     1.0000 0.80490  0.03541  0.03109  Biso   1.000  H
  C234     1.0000 0.77087  0.97099  0.98809  Biso   1.000  C
  H241     1.0000 0.76822  0.05528  0.98250  Biso   1.000  H
  H242     1.0000 0.53541  0.03109  0.30490  Biso   1.000  H
  C235     1.0000 0.47099  0.98809  0.27087  Biso   1.000  C
  H243     1.0000 0.55528  0.98250  0.26822  Biso   1.000  H
  C236     1.0000 0.35071  0.09041  0.92689  Biso   1.000  C
  H244     1.0000 0.37389  0.15520  0.97111  Biso   1.000  H
  C237     1.0000 0.40959  0.07311  0.85071  Biso   1.000  C
  H245     1.0000 0.47111  0.12611  0.84480  Biso   1.000  H
  N53      1.0000 0.72579  0.96389  0.95124  Biso   1.000  N
  H246     1.0000 0.80490  0.96459  0.96891  Biso   1.000  H
  H247     1.0000 0.76822  0.94472  0.01750  Biso   1.000  H
  H248     1.0000 0.44472  0.01750  0.26822  Biso   1.000  H
  N54      1.0000 0.46389  0.95124  0.22579  Biso   1.000  N
  H249     1.0000 0.46459  0.96891  0.30490  Biso   1.000  H
  C238     1.0000 0.30261  0.07670  0.96140  Biso   1.000  C
  C239     1.0000 0.36532  0.05961  0.88270  Biso   1.000  C
  C240     1.0000 0.42330  0.03860  0.80261  Biso   1.000  C
  C241     1.0000 0.69739  0.92330  0.96140  Biso   1.000  C
  C242     1.0000 0.42330  0.96140  0.19739  Biso   1.000  C
  N55      1.0000 0.27421  0.03611  0.95124  Biso   1.000  N
  H250     1.0000 0.29380  0.09890  0.99090  Biso   1.000  H
  H251     1.0000 0.34480  0.02889  0.87389  Biso   1.000  H
  N56      1.0000 0.46389  0.04876  0.77421  Biso   1.000  N
  H252     1.0000 0.40110  0.00910  0.79380  Biso   1.000  H
  C243     1.0000 0.64929  0.90959  0.92689  Biso   1.000  C
  H253     1.0000 0.70620  0.90110  0.99090  Biso   1.000  H
  C244     1.0000 0.40959  0.92689  0.14929  Biso   1.000  C
  H254     1.0000 0.40110  0.99090  0.20620  Biso   1.000  H
  C245     1.0000 0.22913  0.02901  0.98809  Biso   1.000  C
  C246     1.0000 0.47099  0.01191  0.72913  Biso   1.000  C
  C247     1.0000 0.63468  0.94039  0.88270  Biso   1.000  C
  C248     1.0000 0.61730  0.86532  0.94039  Biso   1.000  C
  C249     1.0000 0.36532  0.94039  0.11730  Biso   1.000  C
  C250     1.0000 0.44039  0.88270  0.13468  Biso   1.000  C
  H255     1.0000 0.23178  0.05528  0.01750  Biso   1.000  H
  C251     1.0000 0.22913  0.97099  0.01191  Biso   1.000  C
  H256     1.0000 0.19510  0.03541  0.96891  Biso   1.000  H
  C252     1.0000 0.52901  0.98809  0.72913  Biso   1.000  C
  H257     1.0000 0.44472  0.98250  0.73178  Biso   1.000  H
  H258     1.0000 0.46459  0.03109  0.69510  Biso   1.000  H
  C253     1.0000 0.59041  0.92689  0.85071  Biso   1.000  C
  H259     1.0000 0.65520  0.97111  0.87389  Biso   1.000  H
  C254     1.0000 0.57311  0.85071  0.90959  Biso   1.000  C
  H260     1.0000 0.62611  0.84480  0.97111  Biso   1.000  H
  C255     1.0000 0.35071  0.90959  0.07311  Biso   1.000  C
  H261     1.0000 0.34480  0.97111  0.12611  Biso   1.000  H
  C256     1.0000 0.42689  0.85071  0.09041  Biso   1.000  C
  H262     1.0000 0.47111  0.87389  0.15520  Biso   1.000  H
  H263     1.0000 0.23178  0.94472  0.98250  Biso   1.000  H
  N57      1.0000 0.27421  0.96389  0.04876  Biso   1.000  N
  H264     1.0000 0.19510  0.96459  0.03109  Biso   1.000  H
  N58      1.0000 0.53611  0.95124  0.77421  Biso   1.000  N
  H265     1.0000 0.53541  0.96891  0.69510  Biso   1.000  H
  H266     1.0000 0.55528  0.01750  0.73178  Biso   1.000  H
  C257     1.0000 0.57670  0.96140  0.80261  Biso   1.000  C
  C258     1.0000 0.55961  0.88270  0.86532  Biso   1.000  C
  C259     1.0000 0.53860  0.80261  0.92330  Biso   1.000  C
  C260     1.0000 0.30261  0.92330  0.03860  Biso   1.000  C
  C261     1.0000 0.38270  0.86532  0.05961  Biso   1.000  C
  C262     1.0000 0.46140  0.80261  0.07670  Biso   1.000  C
  H267     1.0000 0.59890  0.99090  0.79380  Biso   1.000  H
  H268     1.0000 0.52889  0.87389  0.84480  Biso   1.000  H
  N59      1.0000 0.54876  0.77421  0.96389  Biso   1.000  N
  H269     1.0000 0.50910  0.79380  0.90110  Biso   1.000  H
  H270     1.0000 0.29380  0.90110  0.00910  Biso   1.000  H
  H271     1.0000 0.37389  0.84480  0.02889  Biso   1.000  H
  N60      1.0000 0.45124  0.77421  0.03611  Biso   1.000  N
  H272     1.0000 0.49090  0.79380  0.09890  Biso   1.000  H
  C263     1.0000 0.51191  0.72913  0.97099  Biso   1.000  C
  C264     1.0000 0.48809  0.72913  0.02901  Biso   1.000  C
  H273     1.0000 0.53109  0.69510  0.96459  Biso   1.000  H
  H274     1.0000 0.48250  0.73178  0.94472  Biso   1.000  H
  H275     1.0000 0.46891  0.69510  0.03541  Biso   1.000  H
  H276     1.0000 0.51750  0.73178  0.05528  Biso   1.000  H
  C265     1.0000 0.53860  0.19739  0.07670  Biso   1.000  C
  N61      1.0000 0.54876  0.22579  0.03611  Biso   1.000  N
  C266     1.0000 0.57311  0.14929  0.09041  Biso   1.000  C
  H277     1.0000 0.50910  0.20620  0.09890  Biso   1.000  H
  C267     1.0000 0.51191  0.27087  0.02901  Biso   1.000  C
  C268     1.0000 0.61730  0.13468  0.05961  Biso   1.000  C
  C269     1.0000 0.55961  0.11730  0.13468  Biso   1.000  C
  H278     1.0000 0.53109  0.30490  0.03541  Biso   1.000  H
  H279     1.0000 0.48250  0.26822  0.05528  Biso   1.000  H
  C270     1.0000 0.48809  0.27087  0.97099  Biso   1.000  C
  H280     1.0000 0.62611  0.15520  0.02889  Biso   1.000  H
  C271     1.0000 0.64929  0.09041  0.07311  Biso   1.000  C
  C272     1.0000 0.59041  0.07311  0.14929  Biso   1.000  C
  H281     1.0000 0.52889  0.12611  0.15520  Biso   1.000  H
  N62      1.0000 0.45124  0.22579  0.96389  Biso   1.000  N
  H282     1.0000 0.46891  0.30490  0.96459  Biso   1.000  H
  H283     1.0000 0.51750  0.26822  0.94472  Biso   1.000  H
  C273     1.0000 0.69739  0.07670  0.03860  Biso   1.000  C
  C274     1.0000 0.63468  0.05961  0.11730  Biso   1.000  C
  C275     1.0000 0.57670  0.03860  0.19739  Biso   1.000  C
  C276     1.0000 0.46140  0.19739  0.92330  Biso   1.000  C
  N63      1.0000 0.72579  0.03611  0.04876  Biso   1.000  N
  H284     1.0000 0.70620  0.09890  0.00910  Biso   1.000  H
  H285     1.0000 0.65520  0.02889  0.12611  Biso   1.000  H
  N64      1.0000 0.53611  0.04876  0.22579  Biso   1.000  N
  H286     1.0000 0.59890  0.00910  0.20620  Biso   1.000  H
  C277     1.0000 0.42689  0.14929  0.90959  Biso   1.000  C
  H287     1.0000 0.49090  0.20620  0.90110  Biso   1.000  H
  C278     1.0000 0.77087  0.02901  0.01191  Biso   1.000  C
  C279     1.0000 0.52901  0.01191  0.27087  Biso   1.000  C
  C280     1.0000 0.38270  0.13468  0.94039  Biso   1.000  C
  C281     1.0000 0.44039  0.11730  0.86532  Biso   1.000  C
  H288     1.0000 0.80490  0.03541  0.03109  Biso   1.000  H
  C282     1.0000 0.77087  0.97099  0.98809  Biso   1.000  C
  H289     1.0000 0.76822  0.05528  0.98250  Biso   1.000  H
  H290     1.0000 0.53541  0.03109  0.30490  Biso   1.000  H
  C283     1.0000 0.47099  0.98809  0.27087  Biso   1.000  C
  H291     1.0000 0.55528  0.98250  0.26822  Biso   1.000  H
  C284     1.0000 0.35071  0.09041  0.92689  Biso   1.000  C
  H292     1.0000 0.37389  0.15520  0.97111  Biso   1.000  H
  C285     1.0000 0.40959  0.07311  0.85071  Biso   1.000  C
  H293     1.0000 0.47111  0.12611  0.84480  Biso   1.000  H
  N65      1.0000 0.72579  0.96389  0.95124  Biso   1.000  N
  H294     1.0000 0.80490  0.96459  0.96891  Biso   1.000  H
  H295     1.0000 0.76822  0.94472  0.01750  Biso   1.000  H
  H296     1.0000 0.44472  0.01750  0.26822  Biso   1.000  H
  N66      1.0000 0.46389  0.95124  0.22579  Biso   1.000  N
  H297     1.0000 0.46459  0.96891  0.30490  Biso   1.000  H
  C286     1.0000 0.30261  0.07670  0.96140  Biso   1.000  C
  C287     1.0000 0.36532  0.05961  0.88270  Biso   1.000  C
  C288     1.0000 0.42330  0.03860  0.80261  Biso   1.000  C
  C289     1.0000 0.69739  0.92330  0.96140  Biso   1.000  C
  C290     1.0000 0.42330  0.96140  0.19739  Biso   1.000  C
  N67      1.0000 0.27421  0.03611  0.95124  Biso   1.000  N
  H298     1.0000 0.29380  0.09890  0.99090  Biso   1.000  H
  H299     1.0000 0.34480  0.02889  0.87389  Biso   1.000  H
  N68      1.0000 0.46389  0.04876  0.77421  Biso   1.000  N
  H300     1.0000 0.40110  0.00910  0.79380  Biso   1.000  H
  C291     1.0000 0.64929  0.90959  0.92689  Biso   1.000  C
  H301     1.0000 0.70620  0.90110  0.99090  Biso   1.000  H
  C292     1.0000 0.40959  0.92689  0.14929  Biso   1.000  C
  H302     1.0000 0.40110  0.99090  0.20620  Biso   1.000  H
  C293     1.0000 0.22913  0.02901  0.98809  Biso   1.000  C
  C294     1.0000 0.47099  0.01191  0.72913  Biso   1.000  C
  C295     1.0000 0.63468  0.94039  0.88270  Biso   1.000  C
  C296     1.0000 0.61730  0.86532  0.94039  Biso   1.000  C
  C297     1.0000 0.36532  0.94039  0.11730  Biso   1.000  C
  C298     1.0000 0.44039  0.88270  0.13468  Biso   1.000  C
  H303     1.0000 0.23178  0.05528  0.01750  Biso   1.000  H
  C299     1.0000 0.22913  0.97099  0.01191  Biso   1.000  C
  H304     1.0000 0.19510  0.03541  0.96891  Biso   1.000  H
  C300     1.0000 0.52901  0.98809  0.72913  Biso   1.000  C
  H305     1.0000 0.44472  0.98250  0.73178  Biso   1.000  H
  H306     1.0000 0.46459  0.03109  0.69510  Biso   1.000  H
  C301     1.0000 0.59041  0.92689  0.85071  Biso   1.000  C
  H307     1.0000 0.65520  0.97111  0.87389  Biso   1.000  H
  C302     1.0000 0.57311  0.85071  0.90959  Biso   1.000  C
  H308     1.0000 0.62611  0.84480  0.97111  Biso   1.000  H
  C303     1.0000 0.35071  0.90959  0.07311  Biso   1.000  C
  H309     1.0000 0.34480  0.97111  0.12611  Biso   1.000  H
  C304     1.0000 0.42689  0.85071  0.09041  Biso   1.000  C
  H310     1.0000 0.47111  0.87389  0.15520  Biso   1.000  H
  H311     1.0000 0.23178  0.94472  0.98250  Biso   1.000  H
  N69      1.0000 0.27421  0.96389  0.04876  Biso   1.000  N
  H312     1.0000 0.19510  0.96459  0.03109  Biso   1.000  H
  N70      1.0000 0.53611  0.95124  0.77421  Biso   1.000  N
  H313     1.0000 0.53541  0.96891  0.69510  Biso   1.000  H
  H314     1.0000 0.55528  0.01750  0.73178  Biso   1.000  H
  C305     1.0000 0.57670  0.96140  0.80261  Biso   1.000  C
  C306     1.0000 0.55961  0.88270  0.86532  Biso   1.000  C
  C307     1.0000 0.53860  0.80261  0.92330  Biso   1.000  C
  C308     1.0000 0.30261  0.92330  0.03860  Biso   1.000  C
  C309     1.0000 0.38270  0.86532  0.05961  Biso   1.000  C
  C310     1.0000 0.46140  0.80261  0.07670  Biso   1.000  C
  H315     1.0000 0.59890  0.99090  0.79380  Biso   1.000  H
  H316     1.0000 0.52889  0.87389  0.84480  Biso   1.000  H
  N71      1.0000 0.54876  0.77421  0.96389  Biso   1.000  N
  H317     1.0000 0.50910  0.79380  0.90110  Biso   1.000  H
  H318     1.0000 0.29380  0.90110  0.00910  Biso   1.000  H
  H319     1.0000 0.37389  0.84480  0.02889  Biso   1.000  H
  N72      1.0000 0.45124  0.77421  0.03611  Biso   1.000  N
  H320     1.0000 0.49090  0.79380  0.09890  Biso   1.000  H
  C311     1.0000 0.51191  0.72913  0.97099  Biso   1.000  C
  C312     1.0000 0.48809  0.72913  0.02901  Biso   1.000  C
  H321     1.0000 0.53109  0.69510  0.96459  Biso   1.000  H
  H322     1.0000 0.48250  0.73178  0.94472  Biso   1.000  H
  H323     1.0000 0.46891  0.69510  0.03541  Biso   1.000  H
  H324     1.0000 0.51750  0.73178  0.05528  Biso   1.000  H
  C313     1.0000 0.19739  0.07670  0.53860  Biso   1.000  C
  N73      1.0000 0.22579  0.03611  0.54876  Biso   1.000  N
  C314     1.0000 0.14929  0.09041  0.57311  Biso   1.000  C
  H325     1.0000 0.20620  0.09890  0.50910  Biso   1.000  H
  C315     1.0000 0.27087  0.02901  0.51191  Biso   1.000  C
  C316     1.0000 0.13468  0.05961  0.61730  Biso   1.000  C
  C317     1.0000 0.11730  0.13468  0.55961  Biso   1.000  C
  H326     1.0000 0.30490  0.03541  0.53109  Biso   1.000  H
  H327     1.0000 0.26822  0.05528  0.48250  Biso   1.000  H
  C318     1.0000 0.27087  0.97099  0.48809  Biso   1.000  C
  H328     1.0000 0.15520  0.02889  0.62611  Biso   1.000  H
  C319     1.0000 0.09041  0.07311  0.64929  Biso   1.000  C
  C320     1.0000 0.07311  0.14929  0.59041  Biso   1.000  C
  H329     1.0000 0.12611  0.15520  0.52889  Biso   1.000  H
  N74      1.0000 0.22579  0.96389  0.45124  Biso   1.000  N
  H330     1.0000 0.30490  0.96459  0.46891  Biso   1.000  H
  H331     1.0000 0.26822  0.94472  0.51750  Biso   1.000  H
  C321     1.0000 0.07670  0.03860  0.69739  Biso   1.000  C
  C322     1.0000 0.05961  0.11730  0.63468  Biso   1.000  C
  C323     1.0000 0.03860  0.19739  0.57670  Biso   1.000  C
  C324     1.0000 0.19739  0.92330  0.46140  Biso   1.000  C
  N75      1.0000 0.03611  0.04876  0.72579  Biso   1.000  N
  H332     1.0000 0.09890  0.00910  0.70620  Biso   1.000  H
  H333     1.0000 0.02889  0.12611  0.65520  Biso   1.000  H
  N76      1.0000 0.04876  0.22579  0.53611  Biso   1.000  N
  H334     1.0000 0.00910  0.20620  0.59890  Biso   1.000  H
  C325     1.0000 0.14929  0.90959  0.42689  Biso   1.000  C
  H335     1.0000 0.20620  0.90110  0.49090  Biso   1.000  H
  C326     1.0000 0.02901  0.01191  0.77087  Biso   1.000  C
  C327     1.0000 0.01191  0.27087  0.52901  Biso   1.000  C
  C328     1.0000 0.13468  0.94039  0.38270  Biso   1.000  C
  C329     1.0000 0.11730  0.86532  0.44039  Biso   1.000  C
  H336     1.0000 0.03541  0.03109  0.80490  Biso   1.000  H
  C330     1.0000 0.97099  0.98809  0.77087  Biso   1.000  C
  H337     1.0000 0.05528  0.98250  0.76822  Biso   1.000  H
  H338     1.0000 0.03109  0.30490  0.53541  Biso   1.000  H
  C331     1.0000 0.98809  0.27087  0.47099  Biso   1.000  C
  H339     1.0000 0.98250  0.26822  0.55528  Biso   1.000  H
  C332     1.0000 0.09041  0.92689  0.35071  Biso   1.000  C
  H340     1.0000 0.15520  0.97111  0.37389  Biso   1.000  H
  C333     1.0000 0.07311  0.85071  0.40959  Biso   1.000  C
  H341     1.0000 0.12611  0.84480  0.47111  Biso   1.000  H
  N77      1.0000 0.96389  0.95124  0.72579  Biso   1.000  N
  H342     1.0000 0.96459  0.96891  0.80490  Biso   1.000  H
  H343     1.0000 0.94472  0.01750  0.76822  Biso   1.000  H
  H344     1.0000 0.01750  0.26822  0.44472  Biso   1.000  H
  N78      1.0000 0.95124  0.22579  0.46389  Biso   1.000  N
  H345     1.0000 0.96891  0.30490  0.46459  Biso   1.000  H
  C334     1.0000 0.07670  0.96140  0.30261  Biso   1.000  C
  C335     1.0000 0.05961  0.88270  0.36532  Biso   1.000  C
  C336     1.0000 0.03860  0.80261  0.42330  Biso   1.000  C
  C337     1.0000 0.92330  0.96140  0.69739  Biso   1.000  C
  C338     1.0000 0.96140  0.19739  0.42330  Biso   1.000  C
  N79      1.0000 0.03611  0.95124  0.27421  Biso   1.000  N
  H346     1.0000 0.09890  0.99090  0.29380  Biso   1.000  H
  H347     1.0000 0.02889  0.87389  0.34480  Biso   1.000  H
  N80      1.0000 0.04876  0.77421  0.46389  Biso   1.000  N
  H348     1.0000 0.00910  0.79380  0.40110  Biso   1.000  H
  C339     1.0000 0.90959  0.92689  0.64929  Biso   1.000  C
  H349     1.0000 0.90110  0.99090  0.70620  Biso   1.000  H
  C340     1.0000 0.92689  0.14929  0.40959  Biso   1.000  C
  H350     1.0000 0.99090  0.20620  0.40110  Biso   1.000  H
  C341     1.0000 0.02901  0.98809  0.22913  Biso   1.000  C
  C342     1.0000 0.01191  0.72913  0.47099  Biso   1.000  C
  C343     1.0000 0.94039  0.88270  0.63468  Biso   1.000  C
  C344     1.0000 0.86532  0.94039  0.61730  Biso   1.000  C
  C345     1.0000 0.94039  0.11730  0.36532  Biso   1.000  C
  C346     1.0000 0.88270  0.13468  0.44039  Biso   1.000  C
  H351     1.0000 0.05528  0.01750  0.23178  Biso   1.000  H
  C347     1.0000 0.97099  0.01191  0.22913  Biso   1.000  C
  H352     1.0000 0.03541  0.96891  0.19510  Biso   1.000  H
  C348     1.0000 0.98809  0.72913  0.52901  Biso   1.000  C
  H353     1.0000 0.98250  0.73178  0.44472  Biso   1.000  H
  H354     1.0000 0.03109  0.69510  0.46459  Biso   1.000  H
  C349     1.0000 0.92689  0.85071  0.59041  Biso   1.000  C
  H355     1.0000 0.97111  0.87389  0.65520  Biso   1.000  H
  C350     1.0000 0.85071  0.90959  0.57311  Biso   1.000  C
  H356     1.0000 0.84480  0.97111  0.62611  Biso   1.000  H
  C351     1.0000 0.90959  0.07311  0.35071  Biso   1.000  C
  H357     1.0000 0.97111  0.12611  0.34480  Biso   1.000  H
  C352     1.0000 0.85071  0.09041  0.42689  Biso   1.000  C
  H358     1.0000 0.87389  0.15520  0.47111  Biso   1.000  H
  H359     1.0000 0.94472  0.98250  0.23178  Biso   1.000  H
  N81      1.0000 0.96389  0.04876  0.27421  Biso   1.000  N
  H360     1.0000 0.96459  0.03109  0.19510  Biso   1.000  H
  N82      1.0000 0.95124  0.77421  0.53611  Biso   1.000  N
  H361     1.0000 0.96891  0.69510  0.53541  Biso   1.000  H
  H362     1.0000 0.01750  0.73178  0.55528  Biso   1.000  H
  C353     1.0000 0.96140  0.80261  0.57670  Biso   1.000  C
  C354     1.0000 0.88270  0.86532  0.55961  Biso   1.000  C
  C355     1.0000 0.80261  0.92330  0.53860  Biso   1.000  C
  C356     1.0000 0.92330  0.03860  0.30261  Biso   1.000  C
  C357     1.0000 0.86532  0.05961  0.38270  Biso   1.000  C
  C358     1.0000 0.80261  0.07670  0.46140  Biso   1.000  C
  H363     1.0000 0.99090  0.79380  0.59890  Biso   1.000  H
  H364     1.0000 0.87389  0.84480  0.52889  Biso   1.000  H
  N83      1.0000 0.77421  0.96389  0.54876  Biso   1.000  N
  H365     1.0000 0.79380  0.90110  0.50910  Biso   1.000  H
  H366     1.0000 0.90110  0.00910  0.29380  Biso   1.000  H
  H367     1.0000 0.84480  0.02889  0.37389  Biso   1.000  H
  N84      1.0000 0.77421  0.03611  0.45124  Biso   1.000  N
  H368     1.0000 0.79380  0.09890  0.49090  Biso   1.000  H
  C359     1.0000 0.72913  0.97099  0.51191  Biso   1.000  C
  C360     1.0000 0.72913  0.02901  0.48809  Biso   1.000  C
  H369     1.0000 0.69510  0.96459  0.53109  Biso   1.000  H
  H370     1.0000 0.73178  0.94472  0.48250  Biso   1.000  H
  H371     1.0000 0.69510  0.03541  0.46891  Biso   1.000  H
  H372     1.0000 0.73178  0.05528  0.51750  Biso   1.000  H
  C361     1.0000 0.19739  0.07670  0.53860  Biso   1.000  C
  N85      1.0000 0.22579  0.03611  0.54876  Biso   1.000  N
  C362     1.0000 0.14929  0.09041  0.57311  Biso   1.000  C
  H373     1.0000 0.20620  0.09890  0.50910  Biso   1.000  H
  C363     1.0000 0.27087  0.02901  0.51191  Biso   1.000  C
  C364     1.0000 0.13468  0.05961  0.61730  Biso   1.000  C
  C365     1.0000 0.11730  0.13468  0.55961  Biso   1.000  C
  H374     1.0000 0.30490  0.03541  0.53109  Biso   1.000  H
  H375     1.0000 0.26822  0.05528  0.48250  Biso   1.000  H
  C366     1.0000 0.27087  0.97099  0.48809  Biso   1.000  C
  H376     1.0000 0.15520  0.02889  0.62611  Biso   1.000  H
  C367     1.0000 0.09041  0.07311  0.64929  Biso   1.000  C
  C368     1.0000 0.07311  0.14929  0.59041  Biso   1.000  C
  H377     1.0000 0.12611  0.15520  0.52889  Biso   1.000  H
  N86      1.0000 0.22579  0.96389  0.45124  Biso   1.000  N
  H378     1.0000 0.30490  0.96459  0.46891  Biso   1.000  H
  H379     1.0000 0.26822  0.94472  0.51750  Biso   1.000  H
  C369     1.0000 0.07670  0.03860  0.69739  Biso   1.000  C
  C370     1.0000 0.05961  0.11730  0.63468  Biso   1.000  C
  C371     1.0000 0.03860  0.19739  0.57670  Biso   1.000  C
  C372     1.0000 0.19739  0.92330  0.46140  Biso   1.000  C
  N87      1.0000 0.03611  0.04876  0.72579  Biso   1.000  N
  H380     1.0000 0.09890  0.00910  0.70620  Biso   1.000  H
  H381     1.0000 0.02889  0.12611  0.65520  Biso   1.000  H
  N88      1.0000 0.04876  0.22579  0.53611  Biso   1.000  N
  H382     1.0000 0.00910  0.20620  0.59890  Biso   1.000  H
  C373     1.0000 0.14929  0.90959  0.42689  Biso   1.000  C
  H383     1.0000 0.20620  0.90110  0.49090  Biso   1.000  H
  C374     1.0000 0.02901  0.01191  0.77087  Biso   1.000  C
  C375     1.0000 0.01191  0.27087  0.52901  Biso   1.000  C
  C376     1.0000 0.13468  0.94039  0.38270  Biso   1.000  C
  C377     1.0000 0.11730  0.86532  0.44039  Biso   1.000  C
  H384     1.0000 0.03541  0.03109  0.80490  Biso   1.000  H
  C378     1.0000 0.97099  0.98809  0.77087  Biso   1.000  C
  H385     1.0000 0.05528  0.98250  0.76822  Biso   1.000  H
  H386     1.0000 0.03109  0.30490  0.53541  Biso   1.000  H
  C379     1.0000 0.98809  0.27087  0.47099  Biso   1.000  C
  H387     1.0000 0.98250  0.26822  0.55528  Biso   1.000  H
  C380     1.0000 0.09041  0.92689  0.35071  Biso   1.000  C
  H388     1.0000 0.15520  0.97111  0.37389  Biso   1.000  H
  C381     1.0000 0.07311  0.85071  0.40959  Biso   1.000  C
  H389     1.0000 0.12611  0.84480  0.47111  Biso   1.000  H
  N89      1.0000 0.96389  0.95124  0.72579  Biso   1.000  N
  H390     1.0000 0.96459  0.96891  0.80490  Biso   1.000  H
  H391     1.0000 0.94472  0.01750  0.76822  Biso   1.000  H
  H392     1.0000 0.01750  0.26822  0.44472  Biso   1.000  H
  N90      1.0000 0.95124  0.22579  0.46389  Biso   1.000  N
  H393     1.0000 0.96891  0.30490  0.46459  Biso   1.000  H
  C382     1.0000 0.07670  0.96140  0.30261  Biso   1.000  C
  C383     1.0000 0.05961  0.88270  0.36532  Biso   1.000  C
  C384     1.0000 0.03860  0.80261  0.42330  Biso   1.000  C
  C385     1.0000 0.92330  0.96140  0.69739  Biso   1.000  C
  C386     1.0000 0.96140  0.19739  0.42330  Biso   1.000  C
  N91      1.0000 0.03611  0.95124  0.27421  Biso   1.000  N
  H394     1.0000 0.09890  0.99090  0.29380  Biso   1.000  H
  H395     1.0000 0.02889  0.87389  0.34480  Biso   1.000  H
  N92      1.0000 0.04876  0.77421  0.46389  Biso   1.000  N
  H396     1.0000 0.00910  0.79380  0.40110  Biso   1.000  H
  C387     1.0000 0.90959  0.92689  0.64929  Biso   1.000  C
  H397     1.0000 0.90110  0.99090  0.70620  Biso   1.000  H
  C388     1.0000 0.92689  0.14929  0.40959  Biso   1.000  C
  H398     1.0000 0.99090  0.20620  0.40110  Biso   1.000  H
  C389     1.0000 0.02901  0.98809  0.22913  Biso   1.000  C
  C390     1.0000 0.01191  0.72913  0.47099  Biso   1.000  C
  C391     1.0000 0.94039  0.88270  0.63468  Biso   1.000  C
  C392     1.0000 0.86532  0.94039  0.61730  Biso   1.000  C
  C393     1.0000 0.94039  0.11730  0.36532  Biso   1.000  C
  C394     1.0000 0.88270  0.13468  0.44039  Biso   1.000  C
  H399     1.0000 0.05528  0.01750  0.23178  Biso   1.000  H
  C395     1.0000 0.97099  0.01191  0.22913  Biso   1.000  C
  H400     1.0000 0.03541  0.96891  0.19510  Biso   1.000  H
  C396     1.0000 0.98809  0.72913  0.52901  Biso   1.000  C
  H401     1.0000 0.98250  0.73178  0.44472  Biso   1.000  H
  H402     1.0000 0.03109  0.69510  0.46459  Biso   1.000  H
  C397     1.0000 0.92689  0.85071  0.59041  Biso   1.000  C
  H403     1.0000 0.97111  0.87389  0.65520  Biso   1.000  H
  C398     1.0000 0.85071  0.90959  0.57311  Biso   1.000  C
  H404     1.0000 0.84480  0.97111  0.62611  Biso   1.000  H
  C399     1.0000 0.90959  0.07311  0.35071  Biso   1.000  C
  H405     1.0000 0.97111  0.12611  0.34480  Biso   1.000  H
  C400     1.0000 0.85071  0.09041  0.42689  Biso   1.000  C
  H406     1.0000 0.87389  0.15520  0.47111  Biso   1.000  H
  H407     1.0000 0.94472  0.98250  0.23178  Biso   1.000  H
  N93      1.0000 0.96389  0.04876  0.27421  Biso   1.000  N
  H408     1.0000 0.96459  0.03109  0.19510  Biso   1.000  H
  N94      1.0000 0.95124  0.77421  0.53611  Biso   1.000  N
  H409     1.0000 0.96891  0.69510  0.53541  Biso   1.000  H
  H410     1.0000 0.01750  0.73178  0.55528  Biso   1.000  H
  C401     1.0000 0.96140  0.80261  0.57670  Biso   1.000  C
  C402     1.0000 0.88270  0.86532  0.55961  Biso   1.000  C
  C403     1.0000 0.80261  0.92330  0.53860  Biso   1.000  C
  C404     1.0000 0.92330  0.03860  0.30261  Biso   1.000  C
  C405     1.0000 0.86532  0.05961  0.38270  Biso   1.000  C
  C406     1.0000 0.80261  0.07670  0.46140  Biso   1.000  C
  H411     1.0000 0.99090  0.79380  0.59890  Biso   1.000  H
  H412     1.0000 0.87389  0.84480  0.52889  Biso   1.000  H
  N95      1.0000 0.77421  0.96389  0.54876  Biso   1.000  N
  H413     1.0000 0.79380  0.90110  0.50910  Biso   1.000  H
  H414     1.0000 0.90110  0.00910  0.29380  Biso   1.000  H
  H415     1.0000 0.84480  0.02889  0.37389  Biso   1.000  H
  N96      1.0000 0.77421  0.03611  0.45124  Biso   1.000  N
  H416     1.0000 0.79380  0.09890  0.49090  Biso   1.000  H
  C407     1.0000 0.72913  0.97099  0.51191  Biso   1.000  C
  C408     1.0000 0.72913  0.02901  0.48809  Biso   1.000  C
  H417     1.0000 0.69510  0.96459  0.53109  Biso   1.000  H
  H418     1.0000 0.73178  0.94472  0.48250  Biso   1.000  H
  H419     1.0000 0.69510  0.03541  0.46891  Biso   1.000  H
  H420     1.0000 0.73178  0.05528  0.51750  Biso   1.000  H
  C409     1.0000 0.19739  0.07670  0.53860  Biso   1.000  C
  N97      1.0000 0.22579  0.03611  0.54876  Biso   1.000  N
  C410     1.0000 0.14929  0.09041  0.57311  Biso   1.000  C
  H421     1.0000 0.20620  0.09890  0.50910  Biso   1.000  H
  C411     1.0000 0.27087  0.02901  0.51191  Biso   1.000  C
  C412     1.0000 0.13468  0.05961  0.61730  Biso   1.000  C
  C413     1.0000 0.11730  0.13468  0.55961  Biso   1.000  C
  H422     1.0000 0.30490  0.03541  0.53109  Biso   1.000  H
  H423     1.0000 0.26822  0.05528  0.48250  Biso   1.000  H
  C414     1.0000 0.27087  0.97099  0.48809  Biso   1.000  C
  H424     1.0000 0.15520  0.02889  0.62611  Biso   1.000  H
  C415     1.0000 0.09041  0.07311  0.64929  Biso   1.000  C
  C416     1.0000 0.07311  0.14929  0.59041  Biso   1.000  C
  H425     1.0000 0.12611  0.15520  0.52889  Biso   1.000  H
  N98      1.0000 0.22579  0.96389  0.45124  Biso   1.000  N
  H426     1.0000 0.30490  0.96459  0.46891  Biso   1.000  H
  H427     1.0000 0.26822  0.94472  0.51750  Biso   1.000  H
  C417     1.0000 0.07670  0.03860  0.69739  Biso   1.000  C
  C418     1.0000 0.05961  0.11730  0.63468  Biso   1.000  C
  C419     1.0000 0.03860  0.19739  0.57670  Biso   1.000  C
  C420     1.0000 0.19739  0.92330  0.46140  Biso   1.000  C
  N99      1.0000 0.03611  0.04876  0.72579  Biso   1.000  N
  H428     1.0000 0.09890  0.00910  0.70620  Biso   1.000  H
  H429     1.0000 0.02889  0.12611  0.65520  Biso   1.000  H
  N100     1.0000 0.04876  0.22579  0.53611  Biso   1.000  N
  H430     1.0000 0.00910  0.20620  0.59890  Biso   1.000  H
  C421     1.0000 0.14929  0.90959  0.42689  Biso   1.000  C
  H431     1.0000 0.20620  0.90110  0.49090  Biso   1.000  H
  C422     1.0000 0.02901  0.01191  0.77087  Biso   1.000  C
  C423     1.0000 0.01191  0.27087  0.52901  Biso   1.000  C
  C424     1.0000 0.13468  0.94039  0.38270  Biso   1.000  C
  C425     1.0000 0.11730  0.86532  0.44039  Biso   1.000  C
  H432     1.0000 0.03541  0.03109  0.80490  Biso   1.000  H
  C426     1.0000 0.97099  0.98809  0.77087  Biso   1.000  C
  H433     1.0000 0.05528  0.98250  0.76822  Biso   1.000  H
  H434     1.0000 0.03109  0.30490  0.53541  Biso   1.000  H
  C427     1.0000 0.98809  0.27087  0.47099  Biso   1.000  C
  H435     1.0000 0.98250  0.26822  0.55528  Biso   1.000  H
  C428     1.0000 0.09041  0.92689  0.35071  Biso   1.000  C
  H436     1.0000 0.15520  0.97111  0.37389  Biso   1.000  H
  C429     1.0000 0.07311  0.85071  0.40959  Biso   1.000  C
  H437     1.0000 0.12611  0.84480  0.47111  Biso   1.000  H
  N101     1.0000 0.96389  0.95124  0.72579  Biso   1.000  N
  H438     1.0000 0.96459  0.96891  0.80490  Biso   1.000  H
  H439     1.0000 0.94472  0.01750  0.76822  Biso   1.000  H
  H440     1.0000 0.01750  0.26822  0.44472  Biso   1.000  H
  N102     1.0000 0.95124  0.22579  0.46389  Biso   1.000  N
  H441     1.0000 0.96891  0.30490  0.46459  Biso   1.000  H
  C430     1.0000 0.07670  0.96140  0.30261  Biso   1.000  C
  C431     1.0000 0.05961  0.88270  0.36532  Biso   1.000  C
  C432     1.0000 0.03860  0.80261  0.42330  Biso   1.000  C
  C433     1.0000 0.92330  0.96140  0.69739  Biso   1.000  C
  C434     1.0000 0.96140  0.19739  0.42330  Biso   1.000  C
  N103     1.0000 0.03611  0.95124  0.27421  Biso   1.000  N
  H442     1.0000 0.09890  0.99090  0.29380  Biso   1.000  H
  H443     1.0000 0.02889  0.87389  0.34480  Biso   1.000  H
  N104     1.0000 0.04876  0.77421  0.46389  Biso   1.000  N
  H444     1.0000 0.00910  0.79380  0.40110  Biso   1.000  H
  C435     1.0000 0.90959  0.92689  0.64929  Biso   1.000  C
  H445     1.0000 0.90110  0.99090  0.70620  Biso   1.000  H
  C436     1.0000 0.92689  0.14929  0.40959  Biso   1.000  C
  H446     1.0000 0.99090  0.20620  0.40110  Biso   1.000  H
  C437     1.0000 0.02901  0.98809  0.22913  Biso   1.000  C
  C438     1.0000 0.01191  0.72913  0.47099  Biso   1.000  C
  C439     1.0000 0.94039  0.88270  0.63468  Biso   1.000  C
  C440     1.0000 0.86532  0.94039  0.61730  Biso   1.000  C
  C441     1.0000 0.94039  0.11730  0.36532  Biso   1.000  C
  C442     1.0000 0.88270  0.13468  0.44039  Biso   1.000  C
  H447     1.0000 0.05528  0.01750  0.23178  Biso   1.000  H
  C443     1.0000 0.97099  0.01191  0.22913  Biso   1.000  C
  H448     1.0000 0.03541  0.96891  0.19510  Biso   1.000  H
  C444     1.0000 0.98809  0.72913  0.52901  Biso   1.000  C
  H449     1.0000 0.98250  0.73178  0.44472  Biso   1.000  H
  H450     1.0000 0.03109  0.69510  0.46459  Biso   1.000  H
  C445     1.0000 0.92689  0.85071  0.59041  Biso   1.000  C
  H451     1.0000 0.97111  0.87389  0.65520  Biso   1.000  H
  C446     1.0000 0.85071  0.90959  0.57311  Biso   1.000  C
  H452     1.0000 0.84480  0.97111  0.62611  Biso   1.000  H
  C447     1.0000 0.90959  0.07311  0.35071  Biso   1.000  C
  H453     1.0000 0.97111  0.12611  0.34480  Biso   1.000  H
  C448     1.0000 0.85071  0.09041  0.42689  Biso   1.000  C
  H454     1.0000 0.87389  0.15520  0.47111  Biso   1.000  H
  H455     1.0000 0.94472  0.98250  0.23178  Biso   1.000  H
  N105     1.0000 0.96389  0.04876  0.27421  Biso   1.000  N
  H456     1.0000 0.96459  0.03109  0.19510  Biso   1.000  H
  N106     1.0000 0.95124  0.77421  0.53611  Biso   1.000  N
  H457     1.0000 0.96891  0.69510  0.53541  Biso   1.000  H
  H458     1.0000 0.01750  0.73178  0.55528  Biso   1.000  H
  C449     1.0000 0.96140  0.80261  0.57670  Biso   1.000  C
  C450     1.0000 0.88270  0.86532  0.55961  Biso   1.000  C
  C451     1.0000 0.80261  0.92330  0.53860  Biso   1.000  C
  C452     1.0000 0.92330  0.03860  0.30261  Biso   1.000  C
  C453     1.0000 0.86532  0.05961  0.38270  Biso   1.000  C
  C454     1.0000 0.80261  0.07670  0.46140  Biso   1.000  C
  H459     1.0000 0.99090  0.79380  0.59890  Biso   1.000  H
  H460     1.0000 0.87389  0.84480  0.52889  Biso   1.000  H
  N107     1.0000 0.77421  0.96389  0.54876  Biso   1.000  N
  H461     1.0000 0.79380  0.90110  0.50910  Biso   1.000  H
  H462     1.0000 0.90110  0.00910  0.29380  Biso   1.000  H
  H463     1.0000 0.84480  0.02889  0.37389  Biso   1.000  H
  N108     1.0000 0.77421  0.03611  0.45124  Biso   1.000  N
  H464     1.0000 0.79380  0.09890  0.49090  Biso   1.000  H
  C455     1.0000 0.72913  0.97099  0.51191  Biso   1.000  C
  C456     1.0000 0.72913  0.02901  0.48809  Biso   1.000  C
  H465     1.0000 0.69510  0.96459  0.53109  Biso   1.000  H
  H466     1.0000 0.73178  0.94472  0.48250  Biso   1.000  H
  H467     1.0000 0.69510  0.03541  0.46891  Biso   1.000  H
  H468     1.0000 0.73178  0.05528  0.51750  Biso   1.000  H
  C457     1.0000 0.19739  0.07670  0.53860  Biso   1.000  C
  N109     1.0000 0.22579  0.03611  0.54876  Biso   1.000  N
  C458     1.0000 0.14929  0.09041  0.57311  Biso   1.000  C
  H469     1.0000 0.20620  0.09890  0.50910  Biso   1.000  H
  C459     1.0000 0.27087  0.02901  0.51191  Biso   1.000  C
  C460     1.0000 0.13468  0.05961  0.61730  Biso   1.000  C
  C461     1.0000 0.11730  0.13468  0.55961  Biso   1.000  C
  H470     1.0000 0.30490  0.03541  0.53109  Biso   1.000  H
  H471     1.0000 0.26822  0.05528  0.48250  Biso   1.000  H
  C462     1.0000 0.27087  0.97099  0.48809  Biso   1.000  C
  H472     1.0000 0.15520  0.02889  0.62611  Biso   1.000  H
  C463     1.0000 0.09041  0.07311  0.64929  Biso   1.000  C
  C464     1.0000 0.07311  0.14929  0.59041  Biso   1.000  C
  H473     1.0000 0.12611  0.15520  0.52889  Biso   1.000  H
  N110     1.0000 0.22579  0.96389  0.45124  Biso   1.000  N
  H474     1.0000 0.30490  0.96459  0.46891  Biso   1.000  H
  H475     1.0000 0.26822  0.94472  0.51750  Biso   1.000  H
  C465     1.0000 0.07670  0.03860  0.69739  Biso   1.000  C
  C466     1.0000 0.05961  0.11730  0.63468  Biso   1.000  C
  C467     1.0000 0.03860  0.19739  0.57670  Biso   1.000  C
  C468     1.0000 0.19739  0.92330  0.46140  Biso   1.000  C
  N111     1.0000 0.03611  0.04876  0.72579  Biso   1.000  N
  H476     1.0000 0.09890  0.00910  0.70620  Biso   1.000  H
  H477     1.0000 0.02889  0.12611  0.65520  Biso   1.000  H
  N112     1.0000 0.04876  0.22579  0.53611  Biso   1.000  N
  H478     1.0000 0.00910  0.20620  0.59890  Biso   1.000  H
  C469     1.0000 0.14929  0.90959  0.42689  Biso   1.000  C
  H479     1.0000 0.20620  0.90110  0.49090  Biso   1.000  H
  C470     1.0000 0.02901  0.01191  0.77087  Biso   1.000  C
  C471     1.0000 0.01191  0.27087  0.52901  Biso   1.000  C
  C472     1.0000 0.13468  0.94039  0.38270  Biso   1.000  C
  C473     1.0000 0.11730  0.86532  0.44039  Biso   1.000  C
  H480     1.0000 0.03541  0.03109  0.80490  Biso   1.000  H
  C474     1.0000 0.97099  0.98809  0.77087  Biso   1.000  C
  H481     1.0000 0.05528  0.98250  0.76822  Biso   1.000  H
  H482     1.0000 0.03109  0.30490  0.53541  Biso   1.000  H
  C475     1.0000 0.98809  0.27087  0.47099  Biso   1.000  C
  H483     1.0000 0.98250  0.26822  0.55528  Biso   1.000  H
  C476     1.0000 0.09041  0.92689  0.35071  Biso   1.000  C
  H484     1.0000 0.15520  0.97111  0.37389  Biso   1.000  H
  C477     1.0000 0.07311  0.85071  0.40959  Biso   1.000  C
  H485     1.0000 0.12611  0.84480  0.47111  Biso   1.000  H
  N113     1.0000 0.96389  0.95124  0.72579  Biso   1.000  N
  H486     1.0000 0.96459  0.96891  0.80490  Biso   1.000  H
  H487     1.0000 0.94472  0.01750  0.76822  Biso   1.000  H
  H488     1.0000 0.01750  0.26822  0.44472  Biso   1.000  H
  N114     1.0000 0.95124  0.22579  0.46389  Biso   1.000  N
  H489     1.0000 0.96891  0.30490  0.46459  Biso   1.000  H
  C478     1.0000 0.07670  0.96140  0.30261  Biso   1.000  C
  C479     1.0000 0.05961  0.88270  0.36532  Biso   1.000  C
  C480     1.0000 0.03860  0.80261  0.42330  Biso   1.000  C
  C481     1.0000 0.92330  0.96140  0.69739  Biso   1.000  C
  C482     1.0000 0.96140  0.19739  0.42330  Biso   1.000  C
  N115     1.0000 0.03611  0.95124  0.27421  Biso   1.000  N
  H490     1.0000 0.09890  0.99090  0.29380  Biso   1.000  H
  H491     1.0000 0.02889  0.87389  0.34480  Biso   1.000  H
  N116     1.0000 0.04876  0.77421  0.46389  Biso   1.000  N
  H492     1.0000 0.00910  0.79380  0.40110  Biso   1.000  H
  C483     1.0000 0.90959  0.92689  0.64929  Biso   1.000  C
  H493     1.0000 0.90110  0.99090  0.70620  Biso   1.000  H
  C484     1.0000 0.92689  0.14929  0.40959  Biso   1.000  C
  H494     1.0000 0.99090  0.20620  0.40110  Biso   1.000  H
  C485     1.0000 0.02901  0.98809  0.22913  Biso   1.000  C
  C486     1.0000 0.01191  0.72913  0.47099  Biso   1.000  C
  C487     1.0000 0.94039  0.88270  0.63468  Biso   1.000  C
  C488     1.0000 0.86532  0.94039  0.61730  Biso   1.000  C
  C489     1.0000 0.94039  0.11730  0.36532  Biso   1.000  C
  C490     1.0000 0.88270  0.13468  0.44039  Biso   1.000  C
  H495     1.0000 0.05528  0.01750  0.23178  Biso   1.000  H
  C491     1.0000 0.97099  0.01191  0.22913  Biso   1.000  C
  H496     1.0000 0.03541  0.96891  0.19510  Biso   1.000  H
  C492     1.0000 0.98809  0.72913  0.52901  Biso   1.000  C
  H497     1.0000 0.98250  0.73178  0.44472  Biso   1.000  H
  H498     1.0000 0.03109  0.69510  0.46459  Biso   1.000  H
  C493     1.0000 0.92689  0.85071  0.59041  Biso   1.000  C
  H499     1.0000 0.97111  0.87389  0.65520  Biso   1.000  H
  C494     1.0000 0.85071  0.90959  0.57311  Biso   1.000  C
  H500     1.0000 0.84480  0.97111  0.62611  Biso   1.000  H
  C495     1.0000 0.90959  0.07311  0.35071  Biso   1.000  C
  H501     1.0000 0.97111  0.12611  0.34480  Biso   1.000  H
  C496     1.0000 0.85071  0.09041  0.42689  Biso   1.000  C
  H502     1.0000 0.87389  0.15520  0.47111  Biso   1.000  H
  H503     1.0000 0.94472  0.98250  0.23178  Biso   1.000  H
  N117     1.0000 0.96389  0.04876  0.27421  Biso   1.000  N
  H504     1.0000 0.96459  0.03109  0.19510  Biso   1.000  H
  N118     1.0000 0.95124  0.77421  0.53611  Biso   1.000  N
  H505     1.0000 0.96891  0.69510  0.53541  Biso   1.000  H
  H506     1.0000 0.01750  0.73178  0.55528  Biso   1.000  H
  C497     1.0000 0.96140  0.80261  0.57670  Biso   1.000  C
  C498     1.0000 0.88270  0.86532  0.55961  Biso   1.000  C
  C499     1.0000 0.80261  0.92330  0.53860  Biso   1.000  C
  C500     1.0000 0.92330  0.03860  0.30261  Biso   1.000  C
  C501     1.0000 0.86532  0.05961  0.38270  Biso   1.000  C
  C502     1.0000 0.80261  0.07670  0.46140  Biso   1.000  C
  H507     1.0000 0.99090  0.79380  0.59890  Biso   1.000  H
  H508     1.0000 0.87389  0.84480  0.52889  Biso   1.000  H
  N119     1.0000 0.77421  0.96389  0.54876  Biso   1.000  N
  H509     1.0000 0.79380  0.90110  0.50910  Biso   1.000  H
  H510     1.0000 0.90110  0.00910  0.29380  Biso   1.000  H
  H511     1.0000 0.84480  0.02889  0.37389  Biso   1.000  H
  N120     1.0000 0.77421  0.03611  0.45124  Biso   1.000  N
  H512     1.0000 0.79380  0.09890  0.49090  Biso   1.000  H
  C503     1.0000 0.72913  0.97099  0.51191  Biso   1.000  C
  C504     1.0000 0.72913  0.02901  0.48809  Biso   1.000  C
  H513     1.0000 0.69510  0.96459  0.53109  Biso   1.000  H
  H514     1.0000 0.73178  0.94472  0.48250  Biso   1.000  H
  H515     1.0000 0.69510  0.03541  0.46891  Biso   1.000  H
  H516     1.0000 0.73178  0.05528  0.51750  Biso   1.000  H
  C505     1.0000 0.07670  0.53860  0.19739  Biso   1.000  C
  N121     1.0000 0.03611  0.54876  0.22579  Biso   1.000  N
  C506     1.0000 0.09041  0.57311  0.14929  Biso   1.000  C
  H517     1.0000 0.09890  0.50910  0.20620  Biso   1.000  H
  C507     1.0000 0.02901  0.51191  0.27087  Biso   1.000  C
  C508     1.0000 0.05961  0.61730  0.13468  Biso   1.000  C
  C509     1.0000 0.13468  0.55961  0.11730  Biso   1.000  C
  H518     1.0000 0.03541  0.53109  0.30490  Biso   1.000  H
  H519     1.0000 0.05528  0.48250  0.26822  Biso   1.000  H
  C510     1.0000 0.97099  0.48809  0.27087  Biso   1.000  C
  H520     1.0000 0.02889  0.62611  0.15520  Biso   1.000  H
  C511     1.0000 0.07311  0.64929  0.09041  Biso   1.000  C
  C512     1.0000 0.14929  0.59041  0.07311  Biso   1.000  C
  H521     1.0000 0.15520  0.52889  0.12611  Biso   1.000  H
  N122     1.0000 0.96389  0.45124  0.22579  Biso   1.000  N
  H522     1.0000 0.96459  0.46891  0.30490  Biso   1.000  H
  H523     1.0000 0.94472  0.51750  0.26822  Biso   1.000  H
  C513     1.0000 0.03860  0.69739  0.07670  Biso   1.000  C
  C514     1.0000 0.11730  0.63468  0.05961  Biso   1.000  C
  C515     1.0000 0.19739  0.57670  0.03860  Biso   1.000  C
  C516     1.0000 0.92330  0.46140  0.19739  Biso   1.000  C
  N123     1.0000 0.04876  0.72579  0.03611  Biso   1.000  N
  H524     1.0000 0.00910  0.70620  0.09890  Biso   1.000  H
  H525     1.0000 0.12611  0.65520  0.02889  Biso   1.000  H
  N124     1.0000 0.22579  0.53611  0.04876  Biso   1.000  N
  H526     1.0000 0.20620  0.59890  0.00910  Biso   1.000  H
  C517     1.0000 0.90959  0.42689  0.14929  Biso   1.000  C
  H527     1.0000 0.90110  0.49090  0.20620  Biso   1.000  H
  C518     1.0000 0.01191  0.77087  0.02901  Biso   1.000  C
  C519     1.0000 0.27087  0.52901  0.01191  Biso   1.000  C
  C520     1.0000 0.94039  0.38270  0.13468  Biso   1.000  C
  C521     1.0000 0.86532  0.44039  0.11730  Biso   1.000  C
  H528     1.0000 0.03109  0.80490  0.03541  Biso   1.000  H
  C522     1.0000 0.98809  0.77087  0.97099  Biso   1.000  C
  H529     1.0000 0.98250  0.76822  0.05528  Biso   1.000  H
  H530     1.0000 0.30490  0.53541  0.03109  Biso   1.000  H
  C523     1.0000 0.27087  0.47099  0.98809  Biso   1.000  C
  H531     1.0000 0.26822  0.55528  0.98250  Biso   1.000  H
  C524     1.0000 0.92689  0.35071  0.09041  Biso   1.000  C
  H532     1.0000 0.97111  0.37389  0.15520  Biso   1.000  H
  C525     1.0000 0.85071  0.40959  0.07311  Biso   1.000  C
  H533     1.0000 0.84480  0.47111  0.12611  Biso   1.000  H
  N125     1.0000 0.95124  0.72579  0.96389  Biso   1.000  N
  H534     1.0000 0.96891  0.80490  0.96459  Biso   1.000  H
  H535     1.0000 0.01750  0.76822  0.94472  Biso   1.000  H
  H536     1.0000 0.26822  0.44472  0.01750  Biso   1.000  H
  N126     1.0000 0.22579  0.46389  0.95124  Biso   1.000  N
  H537     1.0000 0.30490  0.46459  0.96891  Biso   1.000  H
  C526     1.0000 0.96140  0.30261  0.07670  Biso   1.000  C
  C527     1.0000 0.88270  0.36532  0.05961  Biso   1.000  C
  C528     1.0000 0.80261  0.42330  0.03860  Biso   1.000  C
  C529     1.0000 0.96140  0.69739  0.92330  Biso   1.000  C
  C530     1.0000 0.19739  0.42330  0.96140  Biso   1.000  C
  N127     1.0000 0.95124  0.27421  0.03611  Biso   1.000  N
  H538     1.0000 0.99090  0.29380  0.09890  Biso   1.000  H
  H539     1.0000 0.87389  0.34480  0.02889  Biso   1.000  H
  N128     1.0000 0.77421  0.46389  0.04876  Biso   1.000  N
  H540     1.0000 0.79380  0.40110  0.00910  Biso   1.000  H
  C531     1.0000 0.92689  0.64929  0.90959  Biso   1.000  C
  H541     1.0000 0.99090  0.70620  0.90110  Biso   1.000  H
  C532     1.0000 0.14929  0.40959  0.92689  Biso   1.000  C
  H542     1.0000 0.20620  0.40110  0.99090  Biso   1.000  H
  C533     1.0000 0.98809  0.22913  0.02901  Biso   1.000  C
  C534     1.0000 0.72913  0.47099  0.01191  Biso   1.000  C
  C535     1.0000 0.88270  0.63468  0.94039  Biso   1.000  C
  C536     1.0000 0.94039  0.61730  0.86532  Biso   1.000  C
  C537     1.0000 0.11730  0.36532  0.94039  Biso   1.000  C
  C538     1.0000 0.13468  0.44039  0.88270  Biso   1.000  C
  H543     1.0000 0.01750  0.23178  0.05528  Biso   1.000  H
  H544     1.0000 0.96891  0.19510  0.03541  Biso   1.000  H
  C539     1.0000 0.01191  0.22913  0.97099  Biso   1.000  C
  C540     1.0000 0.72913  0.52901  0.98809  Biso   1.000  C
  H545     1.0000 0.73178  0.44472  0.98250  Biso   1.000  H
  H546     1.0000 0.69510  0.46459  0.03109  Biso   1.000  H
  C541     1.0000 0.85071  0.59041  0.92689  Biso   1.000  C
  H547     1.0000 0.87389  0.65520  0.97111  Biso   1.000  H
  C542     1.0000 0.90959  0.57311  0.85071  Biso   1.000  C
  H548     1.0000 0.97111  0.62611  0.84480  Biso   1.000  H
  C543     1.0000 0.07311  0.35071  0.90959  Biso   1.000  C
  H549     1.0000 0.12611  0.34480  0.97111  Biso   1.000  H
  C544     1.0000 0.09041  0.42689  0.85071  Biso   1.000  C
  H550     1.0000 0.15520  0.47111  0.87389  Biso   1.000  H
  H551     1.0000 0.98250  0.23178  0.94472  Biso   1.000  H
  N129     1.0000 0.04876  0.27421  0.96389  Biso   1.000  N
  H552     1.0000 0.03109  0.19510  0.96459  Biso   1.000  H
  N130     1.0000 0.77421  0.53611  0.95124  Biso   1.000  N
  H553     1.0000 0.69510  0.53541  0.96891  Biso   1.000  H
  H554     1.0000 0.73178  0.55528  0.01750  Biso   1.000  H
  C545     1.0000 0.80261  0.57670  0.96140  Biso   1.000  C
  C546     1.0000 0.86532  0.55961  0.88270  Biso   1.000  C
  C547     1.0000 0.92330  0.53860  0.80261  Biso   1.000  C
  C548     1.0000 0.03860  0.30261  0.92330  Biso   1.000  C
  C549     1.0000 0.05961  0.38270  0.86532  Biso   1.000  C
  C550     1.0000 0.07670  0.46140  0.80261  Biso   1.000  C
  H555     1.0000 0.79380  0.59890  0.99090  Biso   1.000  H
  H556     1.0000 0.84480  0.52889  0.87389  Biso   1.000  H
  N131     1.0000 0.96389  0.54876  0.77421  Biso   1.000  N
  H557     1.0000 0.90110  0.50910  0.79380  Biso   1.000  H
  H558     1.0000 0.00910  0.29380  0.90110  Biso   1.000  H
  H559     1.0000 0.02889  0.37389  0.84480  Biso   1.000  H
  N132     1.0000 0.03611  0.45124  0.77421  Biso   1.000  N
  H560     1.0000 0.09890  0.49090  0.79380  Biso   1.000  H
  C551     1.0000 0.97099  0.51191  0.72913  Biso   1.000  C
  C552     1.0000 0.02901  0.48809  0.72913  Biso   1.000  C
  H561     1.0000 0.96459  0.53109  0.69510  Biso   1.000  H
  H562     1.0000 0.94472  0.48250  0.73178  Biso   1.000  H
  H563     1.0000 0.03541  0.46891  0.69510  Biso   1.000  H
  H564     1.0000 0.05528  0.51750  0.73178  Biso   1.000  H
  C553     1.0000 0.07670  0.53860  0.19739  Biso   1.000  C
  N133     1.0000 0.03611  0.54876  0.22579  Biso   1.000  N
  C554     1.0000 0.09041  0.57311  0.14929  Biso   1.000  C
  H565     1.0000 0.09890  0.50910  0.20620  Biso   1.000  H
  C555     1.0000 0.02901  0.51191  0.27087  Biso   1.000  C
  C556     1.0000 0.05961  0.61730  0.13468  Biso   1.000  C
  C557     1.0000 0.13468  0.55961  0.11730  Biso   1.000  C
  H566     1.0000 0.03541  0.53109  0.30490  Biso   1.000  H
  H567     1.0000 0.05528  0.48250  0.26822  Biso   1.000  H
  C558     1.0000 0.97099  0.48809  0.27087  Biso   1.000  C
  H568     1.0000 0.02889  0.62611  0.15520  Biso   1.000  H
  C559     1.0000 0.07311  0.64929  0.09041  Biso   1.000  C
  C560     1.0000 0.14929  0.59041  0.07311  Biso   1.000  C
  H569     1.0000 0.15520  0.52889  0.12611  Biso   1.000  H
  N134     1.0000 0.96389  0.45124  0.22579  Biso   1.000  N
  H570     1.0000 0.96459  0.46891  0.30490  Biso   1.000  H
  H571     1.0000 0.94472  0.51750  0.26822  Biso   1.000  H
  C561     1.0000 0.03860  0.69739  0.07670  Biso   1.000  C
  C562     1.0000 0.11730  0.63468  0.05961  Biso   1.000  C
  C563     1.0000 0.19739  0.57670  0.03860  Biso   1.000  C
  C564     1.0000 0.92330  0.46140  0.19739  Biso   1.000  C
  N135     1.0000 0.04876  0.72579  0.03611  Biso   1.000  N
  H572     1.0000 0.00910  0.70620  0.09890  Biso   1.000  H
  H573     1.0000 0.12611  0.65520  0.02889  Biso   1.000  H
  N136     1.0000 0.22579  0.53611  0.04876  Biso   1.000  N
  H574     1.0000 0.20620  0.59890  0.00910  Biso   1.000  H
  C565     1.0000 0.90959  0.42689  0.14929  Biso   1.000  C
  H575     1.0000 0.90110  0.49090  0.20620  Biso   1.000  H
  C566     1.0000 0.01191  0.77087  0.02901  Biso   1.000  C
  C567     1.0000 0.27087  0.52901  0.01191  Biso   1.000  C
  C568     1.0000 0.94039  0.38270  0.13468  Biso   1.000  C
  C569     1.0000 0.86532  0.44039  0.11730  Biso   1.000  C
  H576     1.0000 0.03109  0.80490  0.03541  Biso   1.000  H
  C570     1.0000 0.98809  0.77087  0.97099  Biso   1.000  C
  H577     1.0000 0.98250  0.76822  0.05528  Biso   1.000  H
  H578     1.0000 0.30490  0.53541  0.03109  Biso   1.000  H
  C571     1.0000 0.27087  0.47099  0.98809  Biso   1.000  C
  H579     1.0000 0.26822  0.55528  0.98250  Biso   1.000  H
  C572     1.0000 0.92689  0.35071  0.09041  Biso   1.000  C
  H580     1.0000 0.97111  0.37389  0.15520  Biso   1.000  H
  C573     1.0000 0.85071  0.40959  0.07311  Biso   1.000  C
  H581     1.0000 0.84480  0.47111  0.12611  Biso   1.000  H
  N137     1.0000 0.95124  0.72579  0.96389  Biso   1.000  N
  H582     1.0000 0.96891  0.80490  0.96459  Biso   1.000  H
  H583     1.0000 0.01750  0.76822  0.94472  Biso   1.000  H
  H584     1.0000 0.26822  0.44472  0.01750  Biso   1.000  H
  N138     1.0000 0.22579  0.46389  0.95124  Biso   1.000  N
  H585     1.0000 0.30490  0.46459  0.96891  Biso   1.000  H
  C574     1.0000 0.96140  0.30261  0.07670  Biso   1.000  C
  C575     1.0000 0.88270  0.36532  0.05961  Biso   1.000  C
  C576     1.0000 0.80261  0.42330  0.03860  Biso   1.000  C
  C577     1.0000 0.96140  0.69739  0.92330  Biso   1.000  C
  C578     1.0000 0.19739  0.42330  0.96140  Biso   1.000  C
  N139     1.0000 0.95124  0.27421  0.03611  Biso   1.000  N
  H586     1.0000 0.99090  0.29380  0.09890  Biso   1.000  H
  H587     1.0000 0.87389  0.34480  0.02889  Biso   1.000  H
  N140     1.0000 0.77421  0.46389  0.04876  Biso   1.000  N
  H588     1.0000 0.79380  0.40110  0.00910  Biso   1.000  H
  C579     1.0000 0.92689  0.64929  0.90959  Biso   1.000  C
  H589     1.0000 0.99090  0.70620  0.90110  Biso   1.000  H
  C580     1.0000 0.14929  0.40959  0.92689  Biso   1.000  C
  H590     1.0000 0.20620  0.40110  0.99090  Biso   1.000  H
  C581     1.0000 0.98809  0.22913  0.02901  Biso   1.000  C
  C582     1.0000 0.72913  0.47099  0.01191  Biso   1.000  C
  C583     1.0000 0.88270  0.63468  0.94039  Biso   1.000  C
  C584     1.0000 0.94039  0.61730  0.86532  Biso   1.000  C
  C585     1.0000 0.11730  0.36532  0.94039  Biso   1.000  C
  C586     1.0000 0.13468  0.44039  0.88270  Biso   1.000  C
  H591     1.0000 0.01750  0.23178  0.05528  Biso   1.000  H
  H592     1.0000 0.96891  0.19510  0.03541  Biso   1.000  H
  C587     1.0000 0.01191  0.22913  0.97099  Biso   1.000  C
  C588     1.0000 0.72913  0.52901  0.98809  Biso   1.000  C
  H593     1.0000 0.73178  0.44472  0.98250  Biso   1.000  H
  H594     1.0000 0.69510  0.46459  0.03109  Biso   1.000  H
  C589     1.0000 0.85071  0.59041  0.92689  Biso   1.000  C
  H595     1.0000 0.87389  0.65520  0.97111  Biso   1.000  H
  C590     1.0000 0.90959  0.57311  0.85071  Biso   1.000  C
  H596     1.0000 0.97111  0.62611  0.84480  Biso   1.000  H
  C591     1.0000 0.07311  0.35071  0.90959  Biso   1.000  C
  H597     1.0000 0.12611  0.34480  0.97111  Biso   1.000  H
  C592     1.0000 0.09041  0.42689  0.85071  Biso   1.000  C
  H598     1.0000 0.15520  0.47111  0.87389  Biso   1.000  H
  H599     1.0000 0.98250  0.23178  0.94472  Biso   1.000  H
  N141     1.0000 0.04876  0.27421  0.96389  Biso   1.000  N
  H600     1.0000 0.03109  0.19510  0.96459  Biso   1.000  H
  N142     1.0000 0.77421  0.53611  0.95124  Biso   1.000  N
  H601     1.0000 0.69510  0.53541  0.96891  Biso   1.000  H
  H602     1.0000 0.73178  0.55528  0.01750  Biso   1.000  H
  C593     1.0000 0.80261  0.57670  0.96140  Biso   1.000  C
  C594     1.0000 0.86532  0.55961  0.88270  Biso   1.000  C
  C595     1.0000 0.92330  0.53860  0.80261  Biso   1.000  C
  C596     1.0000 0.03860  0.30261  0.92330  Biso   1.000  C
  C597     1.0000 0.05961  0.38270  0.86532  Biso   1.000  C
  C598     1.0000 0.07670  0.46140  0.80261  Biso   1.000  C
  H603     1.0000 0.79380  0.59890  0.99090  Biso   1.000  H
  H604     1.0000 0.84480  0.52889  0.87389  Biso   1.000  H
  N143     1.0000 0.96389  0.54876  0.77421  Biso   1.000  N
  H605     1.0000 0.90110  0.50910  0.79380  Biso   1.000  H
  H606     1.0000 0.00910  0.29380  0.90110  Biso   1.000  H
  H607     1.0000 0.02889  0.37389  0.84480  Biso   1.000  H
  N144     1.0000 0.03611  0.45124  0.77421  Biso   1.000  N
  H608     1.0000 0.09890  0.49090  0.79380  Biso   1.000  H
  C599     1.0000 0.97099  0.51191  0.72913  Biso   1.000  C
  C600     1.0000 0.02901  0.48809  0.72913  Biso   1.000  C
  H609     1.0000 0.96459  0.53109  0.69510  Biso   1.000  H
  H610     1.0000 0.94472  0.48250  0.73178  Biso   1.000  H
  H611     1.0000 0.03541  0.46891  0.69510  Biso   1.000  H
  H612     1.0000 0.05528  0.51750  0.73178  Biso   1.000  H
  C601     1.0000 0.07670  0.53860  0.19739  Biso   1.000  C
  N145     1.0000 0.03611  0.54876  0.22579  Biso   1.000  N
  C602     1.0000 0.09041  0.57311  0.14929  Biso   1.000  C
  H613     1.0000 0.09890  0.50910  0.20620  Biso   1.000  H
  C603     1.0000 0.02901  0.51191  0.27087  Biso   1.000  C
  C604     1.0000 0.05961  0.61730  0.13468  Biso   1.000  C
  C605     1.0000 0.13468  0.55961  0.11730  Biso   1.000  C
  H614     1.0000 0.03541  0.53109  0.30490  Biso   1.000  H
  H615     1.0000 0.05528  0.48250  0.26822  Biso   1.000  H
  C606     1.0000 0.97099  0.48809  0.27087  Biso   1.000  C
  H616     1.0000 0.02889  0.62611  0.15520  Biso   1.000  H
  C607     1.0000 0.07311  0.64929  0.09041  Biso   1.000  C
  C608     1.0000 0.14929  0.59041  0.07311  Biso   1.000  C
  H617     1.0000 0.15520  0.52889  0.12611  Biso   1.000  H
  N146     1.0000 0.96389  0.45124  0.22579  Biso   1.000  N
  H618     1.0000 0.96459  0.46891  0.30490  Biso   1.000  H
  H619     1.0000 0.94472  0.51750  0.26822  Biso   1.000  H
  C609     1.0000 0.03860  0.69739  0.07670  Biso   1.000  C
  C610     1.0000 0.11730  0.63468  0.05961  Biso   1.000  C
  C611     1.0000 0.19739  0.57670  0.03860  Biso   1.000  C
  C612     1.0000 0.92330  0.46140  0.19739  Biso   1.000  C
  N147     1.0000 0.04876  0.72579  0.03611  Biso   1.000  N
  H620     1.0000 0.00910  0.70620  0.09890  Biso   1.000  H
  H621     1.0000 0.12611  0.65520  0.02889  Biso   1.000  H
  N148     1.0000 0.22579  0.53611  0.04876  Biso   1.000  N
  H622     1.0000 0.20620  0.59890  0.00910  Biso   1.000  H
  C613     1.0000 0.90959  0.42689  0.14929  Biso   1.000  C
  H623     1.0000 0.90110  0.49090  0.20620  Biso   1.000  H
  C614     1.0000 0.01191  0.77087  0.02901  Biso   1.000  C
  C615     1.0000 0.27087  0.52901  0.01191  Biso   1.000  C
  C616     1.0000 0.94039  0.38270  0.13468  Biso   1.000  C
  C617     1.0000 0.86532  0.44039  0.11730  Biso   1.000  C
  H624     1.0000 0.03109  0.80490  0.03541  Biso   1.000  H
  C618     1.0000 0.98809  0.77087  0.97099  Biso   1.000  C
  H625     1.0000 0.98250  0.76822  0.05528  Biso   1.000  H
  H626     1.0000 0.30490  0.53541  0.03109  Biso   1.000  H
  C619     1.0000 0.27087  0.47099  0.98809  Biso   1.000  C
  H627     1.0000 0.26822  0.55528  0.98250  Biso   1.000  H
  C620     1.0000 0.92689  0.35071  0.09041  Biso   1.000  C
  H628     1.0000 0.97111  0.37389  0.15520  Biso   1.000  H
  C621     1.0000 0.85071  0.40959  0.07311  Biso   1.000  C
  H629     1.0000 0.84480  0.47111  0.12611  Biso   1.000  H
  N149     1.0000 0.95124  0.72579  0.96389  Biso   1.000  N
  H630     1.0000 0.96891  0.80490  0.96459  Biso   1.000  H
  H631     1.0000 0.01750  0.76822  0.94472  Biso   1.000  H
  H632     1.0000 0.26822  0.44472  0.01750  Biso   1.000  H
  N150     1.0000 0.22579  0.46389  0.95124  Biso   1.000  N
  H633     1.0000 0.30490  0.46459  0.96891  Biso   1.000  H
  C622     1.0000 0.96140  0.30261  0.07670  Biso   1.000  C
  C623     1.0000 0.88270  0.36532  0.05961  Biso   1.000  C
  C624     1.0000 0.80261  0.42330  0.03860  Biso   1.000  C
  C625     1.0000 0.96140  0.69739  0.92330  Biso   1.000  C
  C626     1.0000 0.19739  0.42330  0.96140  Biso   1.000  C
  N151     1.0000 0.95124  0.27421  0.03611  Biso   1.000  N
  H634     1.0000 0.99090  0.29380  0.09890  Biso   1.000  H
  H635     1.0000 0.87389  0.34480  0.02889  Biso   1.000  H
  N152     1.0000 0.77421  0.46389  0.04876  Biso   1.000  N
  H636     1.0000 0.79380  0.40110  0.00910  Biso   1.000  H
  C627     1.0000 0.92689  0.64929  0.90959  Biso   1.000  C
  H637     1.0000 0.99090  0.70620  0.90110  Biso   1.000  H
  C628     1.0000 0.14929  0.40959  0.92689  Biso   1.000  C
  H638     1.0000 0.20620  0.40110  0.99090  Biso   1.000  H
  C629     1.0000 0.98809  0.22913  0.02901  Biso   1.000  C
  C630     1.0000 0.72913  0.47099  0.01191  Biso   1.000  C
  C631     1.0000 0.88270  0.63468  0.94039  Biso   1.000  C
  C632     1.0000 0.94039  0.61730  0.86532  Biso   1.000  C
  C633     1.0000 0.11730  0.36532  0.94039  Biso   1.000  C
  C634     1.0000 0.13468  0.44039  0.88270  Biso   1.000  C
  H639     1.0000 0.01750  0.23178  0.05528  Biso   1.000  H
  H640     1.0000 0.96891  0.19510  0.03541  Biso   1.000  H
  C635     1.0000 0.01191  0.22913  0.97099  Biso   1.000  C
  C636     1.0000 0.72913  0.52901  0.98809  Biso   1.000  C
  H641     1.0000 0.73178  0.44472  0.98250  Biso   1.000  H
  H642     1.0000 0.69510  0.46459  0.03109  Biso   1.000  H
  C637     1.0000 0.85071  0.59041  0.92689  Biso   1.000  C
  H643     1.0000 0.87389  0.65520  0.97111  Biso   1.000  H
  C638     1.0000 0.90959  0.57311  0.85071  Biso   1.000  C
  H644     1.0000 0.97111  0.62611  0.84480  Biso   1.000  H
  C639     1.0000 0.07311  0.35071  0.90959  Biso   1.000  C
  H645     1.0000 0.12611  0.34480  0.97111  Biso   1.000  H
  C640     1.0000 0.09041  0.42689  0.85071  Biso   1.000  C
  H646     1.0000 0.15520  0.47111  0.87389  Biso   1.000  H
  H647     1.0000 0.98250  0.23178  0.94472  Biso   1.000  H
  N153     1.0000 0.04876  0.27421  0.96389  Biso   1.000  N
  H648     1.0000 0.03109  0.19510  0.96459  Biso   1.000  H
  N154     1.0000 0.77421  0.53611  0.95124  Biso   1.000  N
  H649     1.0000 0.69510  0.53541  0.96891  Biso   1.000  H
  H650     1.0000 0.73178  0.55528  0.01750  Biso   1.000  H
  C641     1.0000 0.80261  0.57670  0.96140  Biso   1.000  C
  C642     1.0000 0.86532  0.55961  0.88270  Biso   1.000  C
  C643     1.0000 0.92330  0.53860  0.80261  Biso   1.000  C
  C644     1.0000 0.03860  0.30261  0.92330  Biso   1.000  C
  C645     1.0000 0.05961  0.38270  0.86532  Biso   1.000  C
  C646     1.0000 0.07670  0.46140  0.80261  Biso   1.000  C
  H651     1.0000 0.79380  0.59890  0.99090  Biso   1.000  H
  H652     1.0000 0.84480  0.52889  0.87389  Biso   1.000  H
  N155     1.0000 0.96389  0.54876  0.77421  Biso   1.000  N
  H653     1.0000 0.90110  0.50910  0.79380  Biso   1.000  H
  H654     1.0000 0.00910  0.29380  0.90110  Biso   1.000  H
  H655     1.0000 0.02889  0.37389  0.84480  Biso   1.000  H
  N156     1.0000 0.03611  0.45124  0.77421  Biso   1.000  N
  H656     1.0000 0.09890  0.49090  0.79380  Biso   1.000  H
  C647     1.0000 0.97099  0.51191  0.72913  Biso   1.000  C
  C648     1.0000 0.02901  0.48809  0.72913  Biso   1.000  C
  H657     1.0000 0.96459  0.53109  0.69510  Biso   1.000  H
  H658     1.0000 0.94472  0.48250  0.73178  Biso   1.000  H
  H659     1.0000 0.03541  0.46891  0.69510  Biso   1.000  H
  H660     1.0000 0.05528  0.51750  0.73178  Biso   1.000  H
  C649     1.0000 0.07670  0.53860  0.19739  Biso   1.000  C
  N157     1.0000 0.03611  0.54876  0.22579  Biso   1.000  N
  C650     1.0000 0.09041  0.57311  0.14929  Biso   1.000  C
  H661     1.0000 0.09890  0.50910  0.20620  Biso   1.000  H
  C651     1.0000 0.02901  0.51191  0.27087  Biso   1.000  C
  C652     1.0000 0.05961  0.61730  0.13468  Biso   1.000  C
  C653     1.0000 0.13468  0.55961  0.11730  Biso   1.000  C
  H662     1.0000 0.03541  0.53109  0.30490  Biso   1.000  H
  H663     1.0000 0.05528  0.48250  0.26822  Biso   1.000  H
  C654     1.0000 0.97099  0.48809  0.27087  Biso   1.000  C
  H664     1.0000 0.02889  0.62611  0.15520  Biso   1.000  H
  C655     1.0000 0.07311  0.64929  0.09041  Biso   1.000  C
  C656     1.0000 0.14929  0.59041  0.07311  Biso   1.000  C
  H665     1.0000 0.15520  0.52889  0.12611  Biso   1.000  H
  N158     1.0000 0.96389  0.45124  0.22579  Biso   1.000  N
  H666     1.0000 0.96459  0.46891  0.30490  Biso   1.000  H
  H667     1.0000 0.94472  0.51750  0.26822  Biso   1.000  H
  C657     1.0000 0.03860  0.69739  0.07670  Biso   1.000  C
  C658     1.0000 0.11730  0.63468  0.05961  Biso   1.000  C
  C659     1.0000 0.19739  0.57670  0.03860  Biso   1.000  C
  C660     1.0000 0.92330  0.46140  0.19739  Biso   1.000  C
  N159     1.0000 0.04876  0.72579  0.03611  Biso   1.000  N
  H668     1.0000 0.00910  0.70620  0.09890  Biso   1.000  H
  H669     1.0000 0.12611  0.65520  0.02889  Biso   1.000  H
  N160     1.0000 0.22579  0.53611  0.04876  Biso   1.000  N
  H670     1.0000 0.20620  0.59890  0.00910  Biso   1.000  H
  C661     1.0000 0.90959  0.42689  0.14929  Biso   1.000  C
  H671     1.0000 0.90110  0.49090  0.20620  Biso   1.000  H
  C662     1.0000 0.01191  0.77087  0.02901  Biso   1.000  C
  C663     1.0000 0.27087  0.52901  0.01191  Biso   1.000  C
  C664     1.0000 0.94039  0.38270  0.13468  Biso   1.000  C
  C665     1.0000 0.86532  0.44039  0.11730  Biso   1.000  C
  H672     1.0000 0.03109  0.80490  0.03541  Biso   1.000  H
  C666     1.0000 0.98809  0.77087  0.97099  Biso   1.000  C
  H673     1.0000 0.98250  0.76822  0.05528  Biso   1.000  H
  H674     1.0000 0.30490  0.53541  0.03109  Biso   1.000  H
  C667     1.0000 0.27087  0.47099  0.98809  Biso   1.000  C
  H675     1.0000 0.26822  0.55528  0.98250  Biso   1.000  H
  C668     1.0000 0.92689  0.35071  0.09041  Biso   1.000  C
  H676     1.0000 0.97111  0.37389  0.15520  Biso   1.000  H
  C669     1.0000 0.85071  0.40959  0.07311  Biso   1.000  C
  H677     1.0000 0.84480  0.47111  0.12611  Biso   1.000  H
  N161     1.0000 0.95124  0.72579  0.96389  Biso   1.000  N
  H678     1.0000 0.96891  0.80490  0.96459  Biso   1.000  H
  H679     1.0000 0.01750  0.76822  0.94472  Biso   1.000  H
  H680     1.0000 0.26822  0.44472  0.01750  Biso   1.000  H
  N162     1.0000 0.22579  0.46389  0.95124  Biso   1.000  N
  H681     1.0000 0.30490  0.46459  0.96891  Biso   1.000  H
  C670     1.0000 0.96140  0.30261  0.07670  Biso   1.000  C
  C671     1.0000 0.88270  0.36532  0.05961  Biso   1.000  C
  C672     1.0000 0.80261  0.42330  0.03860  Biso   1.000  C
  C673     1.0000 0.96140  0.69739  0.92330  Biso   1.000  C
  C674     1.0000 0.19739  0.42330  0.96140  Biso   1.000  C
  N163     1.0000 0.95124  0.27421  0.03611  Biso   1.000  N
  H682     1.0000 0.99090  0.29380  0.09890  Biso   1.000  H
  H683     1.0000 0.87389  0.34480  0.02889  Biso   1.000  H
  N164     1.0000 0.77421  0.46389  0.04876  Biso   1.000  N
  H684     1.0000 0.79380  0.40110  0.00910  Biso   1.000  H
  C675     1.0000 0.92689  0.64929  0.90959  Biso   1.000  C
  H685     1.0000 0.99090  0.70620  0.90110  Biso   1.000  H
  C676     1.0000 0.14929  0.40959  0.92689  Biso   1.000  C
  H686     1.0000 0.20620  0.40110  0.99090  Biso   1.000  H
  C677     1.0000 0.98809  0.22913  0.02901  Biso   1.000  C
  C678     1.0000 0.72913  0.47099  0.01191  Biso   1.000  C
  C679     1.0000 0.88270  0.63468  0.94039  Biso   1.000  C
  C680     1.0000 0.94039  0.61730  0.86532  Biso   1.000  C
  C681     1.0000 0.11730  0.36532  0.94039  Biso   1.000  C
  C682     1.0000 0.13468  0.44039  0.88270  Biso   1.000  C
  H687     1.0000 0.01750  0.23178  0.05528  Biso   1.000  H
  H688     1.0000 0.96891  0.19510  0.03541  Biso   1.000  H
  C683     1.0000 0.01191  0.22913  0.97099  Biso   1.000  C
  C684     1.0000 0.72913  0.52901  0.98809  Biso   1.000  C
  H689     1.0000 0.73178  0.44472  0.98250  Biso   1.000  H
  H690     1.0000 0.69510  0.46459  0.03109  Biso   1.000  H
  C685     1.0000 0.85071  0.59041  0.92689  Biso   1.000  C
  H691     1.0000 0.87389  0.65520  0.97111  Biso   1.000  H
  C686     1.0000 0.90959  0.57311  0.85071  Biso   1.000  C
  H692     1.0000 0.97111  0.62611  0.84480  Biso   1.000  H
  C687     1.0000 0.07311  0.35071  0.90959  Biso   1.000  C
  H693     1.0000 0.12611  0.34480  0.97111  Biso   1.000  H
  C688     1.0000 0.09041  0.42689  0.85071  Biso   1.000  C
  H694     1.0000 0.15520  0.47111  0.87389  Biso   1.000  H
  H695     1.0000 0.98250  0.23178  0.94472  Biso   1.000  H
  N165     1.0000 0.04876  0.27421  0.96389  Biso   1.000  N
  H696     1.0000 0.03109  0.19510  0.96459  Biso   1.000  H
  N166     1.0000 0.77421  0.53611  0.95124  Biso   1.000  N
  H697     1.0000 0.69510  0.53541  0.96891  Biso   1.000  H
  H698     1.0000 0.73178  0.55528  0.01750  Biso   1.000  H
  C689     1.0000 0.80261  0.57670  0.96140  Biso   1.000  C
  C690     1.0000 0.86532  0.55961  0.88270  Biso   1.000  C
  C691     1.0000 0.92330  0.53860  0.80261  Biso   1.000  C
  C692     1.0000 0.03860  0.30261  0.92330  Biso   1.000  C
  C693     1.0000 0.05961  0.38270  0.86532  Biso   1.000  C
  C694     1.0000 0.07670  0.46140  0.80261  Biso   1.000  C
  H699     1.0000 0.79380  0.59890  0.99090  Biso   1.000  H
  H700     1.0000 0.84480  0.52889  0.87389  Biso   1.000  H
  N167     1.0000 0.96389  0.54876  0.77421  Biso   1.000  N
  H701     1.0000 0.90110  0.50910  0.79380  Biso   1.000  H
  H702     1.0000 0.00910  0.29380  0.90110  Biso   1.000  H
  H703     1.0000 0.02889  0.37389  0.84480  Biso   1.000  H
  N168     1.0000 0.03611  0.45124  0.77421  Biso   1.000  N
  H704     1.0000 0.09890  0.49090  0.79380  Biso   1.000  H
  C695     1.0000 0.97099  0.51191  0.72913  Biso   1.000  C
  C696     1.0000 0.02901  0.48809  0.72913  Biso   1.000  C
  H705     1.0000 0.96459  0.53109  0.69510  Biso   1.000  H
  H706     1.0000 0.94472  0.48250  0.73178  Biso   1.000  H
  H707     1.0000 0.03541  0.46891  0.69510  Biso   1.000  H
  H708     1.0000 0.05528  0.51750  0.73178  Biso   1.000  H
  C697     1.0000 0.71987  0.24288  0.37748  Biso   1.000  C
  C698     1.0000 0.70710  0.20902  0.42778  Biso   1.000  C
  C699     1.0000 0.78013  0.25712  0.37748  Biso   1.000  C
  H709     1.0000 0.71081  0.22248  0.34480  Biso   1.000  H
  H710     1.0000 0.69829  0.27609  0.37780  Biso   1.000  H
  C700     1.0000 0.72142  0.24088  0.47858  Biso   1.000  C
  H711     1.0000 0.66858  0.19959  0.42819  Biso   1.000  H
  H712     1.0000 0.72791  0.17532  0.42689  Biso   1.000  H
  C701     1.0000 0.79290  0.29098  0.42778  Biso   1.000  C
  H713     1.0000 0.78919  0.27752  0.34480  Biso   1.000  H
  H714     1.0000 0.80171  0.22391  0.37780  Biso   1.000  H
  N169     1.0000 0.71240  0.20510  0.52521  Biso   1.000  N
  C702     1.0000 0.77858  0.25912  0.47858  Biso   1.000  C
  H715     1.0000 0.69731  0.27279  0.48140  Biso   1.000  H
  H716     1.0000 0.83142  0.30041  0.42819  Biso   1.000  H
  H717     1.0000 0.77209  0.32468  0.42689  Biso   1.000  H
  C703     1.0000 0.67421  0.21359  0.55618  Biso   1.000  C
  N170     1.0000 0.78760  0.29490  0.52521  Biso   1.000  N
  H718     1.0000 0.80269  0.22721  0.48140  Biso   1.000  H
  C704     1.0000 0.66002  0.18119  0.60339  Biso   1.000  C
  H719     1.0000 0.65218  0.24361  0.54880  Biso   1.000  H
  C705     1.0000 0.82579  0.28641  0.55618  Biso   1.000  C
  C706     1.0000 0.69270  0.13672  0.61461  Biso   1.000  C
  C707     1.0000 0.61461  0.19270  0.63672  Biso   1.000  C
  C708     1.0000 0.83998  0.31881  0.60339  Biso   1.000  C
  H720     1.0000 0.84782  0.25639  0.54880  Biso   1.000  H
  C709     1.0000 0.68119  0.10339  0.66002  Biso   1.000  C
  H721     1.0000 0.72232  0.12868  0.59221  Biso   1.000  H
  C710     1.0000 0.60339  0.16002  0.68119  Biso   1.000  C
  H722     1.0000 0.59221  0.22232  0.62868  Biso   1.000  H
  C711     1.0000 0.80730  0.36328  0.61461  Biso   1.000  C
  C712     1.0000 0.88539  0.30730  0.63672  Biso   1.000  C
  C713     1.0000 0.71359  0.05618  0.67421  Biso   1.000  C
  C714     1.0000 0.63672  0.11461  0.69270  Biso   1.000  C
  C715     1.0000 0.55618  0.17421  0.71359  Biso   1.000  C
  C716     1.0000 0.81881  0.39661  0.66002  Biso   1.000  C
  H723     1.0000 0.77768  0.37132  0.59221  Biso   1.000  H
  C717     1.0000 0.89661  0.33998  0.68119  Biso   1.000  C
  H724     1.0000 0.90779  0.27768  0.62868  Biso   1.000  H
  N171     1.0000 0.70510  0.02521  0.71240  Biso   1.000  N
  H725     1.0000 0.74361  0.04880  0.65218  Biso   1.000  H
  H726     1.0000 0.62868  0.09221  0.72232  Biso   1.000  H
  N172     1.0000 0.52521  0.21240  0.70510  Biso   1.000  N
  H727     1.0000 0.54880  0.15218  0.74361  Biso   1.000  H
  C718     1.0000 0.78641  0.44382  0.67421  Biso   1.000  C
  C719     1.0000 0.86328  0.38539  0.69270  Biso   1.000  C
  C720     1.0000 0.94382  0.32579  0.71359  Biso   1.000  C
  C721     1.0000 0.74088  0.97858  0.72142  Biso   1.000  C
  C722     1.0000 0.47858  0.22142  0.74088  Biso   1.000  C
  N173     1.0000 0.79490  0.47479  0.71240  Biso   1.000  N
  H728     1.0000 0.75639  0.45120  0.65218  Biso   1.000  H
  H729     1.0000 0.87132  0.40779  0.72232  Biso   1.000  H
  N174     1.0000 0.97479  0.28760  0.70510  Biso   1.000  N
  H730     1.0000 0.95120  0.34782  0.74361  Biso   1.000  H
  C723     1.0000 0.75912  0.97858  0.77858  Biso   1.000  C
  C724     1.0000 0.70902  0.92778  0.70710  Biso   1.000  C
  H731     1.0000 0.77279  0.98140  0.69731  Biso   1.000  H
  C725     1.0000 0.47858  0.27858  0.75912  Biso   1.000  C
  C726     1.0000 0.42778  0.20710  0.70902  Biso   1.000  C
  H732     1.0000 0.48140  0.19731  0.77279  Biso   1.000  H
  C727     1.0000 0.75912  0.52142  0.72142  Biso   1.000  C
  C728     1.0000 0.02142  0.27858  0.74088  Biso   1.000  C
  N175     1.0000 0.79490  0.02521  0.78760  Biso   1.000  N
  C729     1.0000 0.79098  0.92778  0.79290  Biso   1.000  C
  H733     1.0000 0.72721  0.98140  0.80269  Biso   1.000  H
  C730     1.0000 0.74288  0.87748  0.71987  Biso   1.000  C
  H734     1.0000 0.69959  0.92819  0.66858  Biso   1.000  H
  H735     1.0000 0.67532  0.92689  0.72791  Biso   1.000  H
  N176     1.0000 0.52521  0.28760  0.79490  Biso   1.000  N
  C731     1.0000 0.42778  0.29290  0.79098  Biso   1.000  C
  H736     1.0000 0.48140  0.30269  0.72721  Biso   1.000  H
  C732     1.0000 0.37748  0.21987  0.74288  Biso   1.000  C
  H737     1.0000 0.42819  0.16858  0.69959  Biso   1.000  H
  H738     1.0000 0.42689  0.22791  0.67532  Biso   1.000  H
  C733     1.0000 0.74088  0.52142  0.77858  Biso   1.000  C
  C734     1.0000 0.79098  0.57222  0.70710  Biso   1.000  C
  H739     1.0000 0.72721  0.51860  0.69731  Biso   1.000  H
  C735     1.0000 0.02142  0.22142  0.75912  Biso   1.000  C
  C736     1.0000 0.07222  0.29290  0.70902  Biso   1.000  C
  H740     1.0000 0.01860  0.30269  0.77279  Biso   1.000  H
  C737     1.0000 0.78641  0.05618  0.82579  Biso   1.000  C
  C738     1.0000 0.75712  0.87748  0.78013  Biso   1.000  C
  H741     1.0000 0.80041  0.92819  0.83142  Biso   1.000  H
  H742     1.0000 0.82468  0.92689  0.77209  Biso   1.000  H
  H743     1.0000 0.72248  0.84480  0.71081  Biso   1.000  H
  H744     1.0000 0.77609  0.87780  0.69829  Biso   1.000  H
  C739     1.0000 0.55618  0.32579  0.78641  Biso   1.000  C
  C740     1.0000 0.37748  0.28013  0.75712  Biso   1.000  C
  H745     1.0000 0.42819  0.33142  0.80041  Biso   1.000  H
  H746     1.0000 0.42689  0.27209  0.82468  Biso   1.000  H
  H747     1.0000 0.34480  0.21081  0.72248  Biso   1.000  H
  H748     1.0000 0.37780  0.19829  0.77609  Biso   1.000  H
  N177     1.0000 0.70510  0.47479  0.78760  Biso   1.000  N
  C741     1.0000 0.70902  0.57222  0.79290  Biso   1.000  C
  H749     1.0000 0.77279  0.51860  0.80269  Biso   1.000  H
  C742     1.0000 0.75712  0.62252  0.71987  Biso   1.000  C
  H750     1.0000 0.80041  0.57181  0.66858  Biso   1.000  H
  H751     1.0000 0.82468  0.57311  0.72791  Biso   1.000  H
  N178     1.0000 0.97479  0.21240  0.79490  Biso   1.000  N
  C743     1.0000 0.07222  0.20710  0.79098  Biso   1.000  C
  H752     1.0000 0.01860  0.19731  0.72721  Biso   1.000  H
  C744     1.0000 0.12252  0.28013  0.74288  Biso   1.000  C
  H753     1.0000 0.07181  0.33142  0.69959  Biso   1.000  H
  H754     1.0000 0.07311  0.27209  0.67532  Biso   1.000  H
  C745     1.0000 0.81881  0.10339  0.83998  Biso   1.000  C
  H755     1.0000 0.75639  0.04880  0.84782  Biso   1.000  H
  H756     1.0000 0.77752  0.84480  0.78919  Biso   1.000  H
  H757     1.0000 0.72391  0.87780  0.80171  Biso   1.000  H
  C746     1.0000 0.60339  0.33998  0.81881  Biso   1.000  C
  H758     1.0000 0.54880  0.34782  0.75639  Biso   1.000  H
  H759     1.0000 0.34480  0.28919  0.77752  Biso   1.000  H
  H760     1.0000 0.37780  0.30171  0.72391  Biso   1.000  H
  C747     1.0000 0.71359  0.44382  0.82579  Biso   1.000  C
  C748     1.0000 0.74288  0.62252  0.78013  Biso   1.000  C
  H761     1.0000 0.69959  0.57181  0.83142  Biso   1.000  H
  H762     1.0000 0.67532  0.57311  0.77209  Biso   1.000  H
  H763     1.0000 0.77752  0.65520  0.71081  Biso   1.000  H
  H764     1.0000 0.72391  0.62220  0.69829  Biso   1.000  H
  C749     1.0000 0.94382  0.17421  0.78641  Biso   1.000  C
  C750     1.0000 0.12252  0.21987  0.75712  Biso   1.000  C
  H765     1.0000 0.07181  0.16858  0.80041  Biso   1.000  H
  H766     1.0000 0.07311  0.22791  0.82468  Biso   1.000  H
  H767     1.0000 0.15520  0.28919  0.72248  Biso   1.000  H
  H768     1.0000 0.12220  0.30171  0.77609  Biso   1.000  H
  C751     1.0000 0.86328  0.11461  0.80730  Biso   1.000  C
  C752     1.0000 0.80730  0.13672  0.88539  Biso   1.000  C
  C753     1.0000 0.61461  0.30730  0.86328  Biso   1.000  C
  C754     1.0000 0.63672  0.38539  0.80730  Biso   1.000  C
  C755     1.0000 0.68119  0.39661  0.83998  Biso   1.000  C
  H769     1.0000 0.74361  0.45120  0.84782  Biso   1.000  H
  H770     1.0000 0.72248  0.65520  0.78919  Biso   1.000  H
  H771     1.0000 0.77609  0.62220  0.80171  Biso   1.000  H
  C756     1.0000 0.89661  0.16002  0.81881  Biso   1.000  C
  H772     1.0000 0.95120  0.15218  0.75639  Biso   1.000  H
  H773     1.0000 0.15520  0.21081  0.77752  Biso   1.000  H
  H774     1.0000 0.12220  0.19829  0.72391  Biso   1.000  H
  H775     1.0000 0.87132  0.09221  0.77768  Biso   1.000  H
  C757     1.0000 0.83998  0.18119  0.89661  Biso   1.000  C
  H776     1.0000 0.77768  0.12868  0.90779  Biso   1.000  H
  C758     1.0000 0.66002  0.31881  0.89661  Biso   1.000  C
  H777     1.0000 0.59221  0.27768  0.87132  Biso   1.000  H
  H778     1.0000 0.62868  0.40779  0.77768  Biso   1.000  H
  C759     1.0000 0.69270  0.36328  0.88539  Biso   1.000  C
  C760     1.0000 0.88539  0.19270  0.86328  Biso   1.000  C
  C761     1.0000 0.82579  0.21359  0.94382  Biso   1.000  C
  C762     1.0000 0.67421  0.28641  0.94382  Biso   1.000  C
  H779     1.0000 0.72232  0.37132  0.90779  Biso   1.000  H
  H780     1.0000 0.90779  0.22232  0.87132  Biso   1.000  H
  N179     1.0000 0.78760  0.20510  0.97479  Biso   1.000  N
  H781     1.0000 0.84782  0.24361  0.95120  Biso   1.000  H
  N180     1.0000 0.71240  0.29490  0.97479  Biso   1.000  N
  H782     1.0000 0.65218  0.25639  0.95120  Biso   1.000  H
  C763     1.0000 0.77858  0.24088  0.02142  Biso   1.000  C
  C764     1.0000 0.72142  0.25912  0.02142  Biso   1.000  C
  C765     1.0000 0.79290  0.20902  0.07222  Biso   1.000  C
  H783     1.0000 0.80269  0.27279  0.01860  Biso   1.000  H
  C766     1.0000 0.70710  0.29098  0.07222  Biso   1.000  C
  H784     1.0000 0.69731  0.22721  0.01860  Biso   1.000  H
  C767     1.0000 0.78013  0.24288  0.12252  Biso   1.000  C
  H785     1.0000 0.83142  0.19959  0.07181  Biso   1.000  H
  H786     1.0000 0.77209  0.17532  0.07311  Biso   1.000  H
  C768     1.0000 0.71987  0.25712  0.12252  Biso   1.000  C
  H787     1.0000 0.66858  0.30041  0.07181  Biso   1.000  H
  H788     1.0000 0.72791  0.32468  0.07311  Biso   1.000  H
  H789     1.0000 0.78919  0.22248  0.15520  Biso   1.000  H
  H790     1.0000 0.80171  0.27609  0.12220  Biso   1.000  H
  H791     1.0000 0.71081  0.27752  0.15520  Biso   1.000  H
  H792     1.0000 0.69829  0.22391  0.12220  Biso   1.000  H
  C769     1.0000 0.37748  0.71987  0.24288  Biso   1.000  C
  C770     1.0000 0.42778  0.70710  0.20902  Biso   1.000  C
  C771     1.0000 0.37748  0.78013  0.25712  Biso   1.000  C
  H793     1.0000 0.34480  0.71081  0.22248  Biso   1.000  H
  H794     1.0000 0.37780  0.69829  0.27609  Biso   1.000  H
  C772     1.0000 0.47858  0.72142  0.24088  Biso   1.000  C
  H795     1.0000 0.42819  0.66858  0.19959  Biso   1.000  H
  H796     1.0000 0.42689  0.72791  0.17532  Biso   1.000  H
  C773     1.0000 0.42778  0.79290  0.29098  Biso   1.000  C
  H797     1.0000 0.34480  0.78919  0.27752  Biso   1.000  H
  H798     1.0000 0.37780  0.80171  0.22391  Biso   1.000  H
  N181     1.0000 0.52521  0.71240  0.20510  Biso   1.000  N
  C774     1.0000 0.47858  0.77858  0.25912  Biso   1.000  C
  H799     1.0000 0.48140  0.69731  0.27279  Biso   1.000  H
  H800     1.0000 0.42819  0.83142  0.30041  Biso   1.000  H
  H801     1.0000 0.42689  0.77209  0.32468  Biso   1.000  H
  C775     1.0000 0.55618  0.67421  0.21359  Biso   1.000  C
  N182     1.0000 0.52521  0.78760  0.29490  Biso   1.000  N
  H802     1.0000 0.48140  0.80269  0.22721  Biso   1.000  H
  C776     1.0000 0.60339  0.66002  0.18119  Biso   1.000  C
  H803     1.0000 0.54880  0.65218  0.24361  Biso   1.000  H
  C777     1.0000 0.55618  0.82579  0.28641  Biso   1.000  C
  C778     1.0000 0.61461  0.69270  0.13672  Biso   1.000  C
  C779     1.0000 0.63672  0.61461  0.19270  Biso   1.000  C
  C780     1.0000 0.60339  0.83998  0.31881  Biso   1.000  C
  H804     1.0000 0.54880  0.84782  0.25639  Biso   1.000  H
  C781     1.0000 0.66002  0.68119  0.10339  Biso   1.000  C
  H805     1.0000 0.59221  0.72232  0.12868  Biso   1.000  H
  C782     1.0000 0.68119  0.60339  0.16002  Biso   1.000  C
  H806     1.0000 0.62868  0.59221  0.22232  Biso   1.000  H
  C783     1.0000 0.61461  0.80730  0.36328  Biso   1.000  C
  C784     1.0000 0.63672  0.88539  0.30730  Biso   1.000  C
  C785     1.0000 0.67421  0.71359  0.05618  Biso   1.000  C
  C786     1.0000 0.69270  0.63672  0.11461  Biso   1.000  C
  C787     1.0000 0.71359  0.55618  0.17421  Biso   1.000  C
  C788     1.0000 0.66002  0.81881  0.39661  Biso   1.000  C
  H807     1.0000 0.59221  0.77768  0.37132  Biso   1.000  H
  C789     1.0000 0.68119  0.89661  0.33998  Biso   1.000  C
  H808     1.0000 0.62868  0.90779  0.27768  Biso   1.000  H
  N183     1.0000 0.71240  0.70510  0.02521  Biso   1.000  N
  H809     1.0000 0.65218  0.74361  0.04880  Biso   1.000  H
  H810     1.0000 0.72232  0.62868  0.09221  Biso   1.000  H
  N184     1.0000 0.70510  0.52521  0.21240  Biso   1.000  N
  H811     1.0000 0.74361  0.54880  0.15218  Biso   1.000  H
  C790     1.0000 0.67421  0.78641  0.44382  Biso   1.000  C
  C791     1.0000 0.69270  0.86328  0.38539  Biso   1.000  C
  C792     1.0000 0.71359  0.94382  0.32579  Biso   1.000  C
  C793     1.0000 0.72142  0.74088  0.97858  Biso   1.000  C
  C794     1.0000 0.74088  0.47858  0.22142  Biso   1.000  C
  N185     1.0000 0.71240  0.79490  0.47479  Biso   1.000  N
  H812     1.0000 0.65218  0.75639  0.45120  Biso   1.000  H
  H813     1.0000 0.72232  0.87132  0.40779  Biso   1.000  H
  N186     1.0000 0.70510  0.97479  0.28760  Biso   1.000  N
  H814     1.0000 0.74361  0.95120  0.34782  Biso   1.000  H
  C795     1.0000 0.77858  0.75912  0.97858  Biso   1.000  C
  C796     1.0000 0.70710  0.70902  0.92778  Biso   1.000  C
  H815     1.0000 0.69731  0.77279  0.98140  Biso   1.000  H
  C797     1.0000 0.75912  0.47858  0.27858  Biso   1.000  C
  C798     1.0000 0.70902  0.42778  0.20710  Biso   1.000  C
  H816     1.0000 0.77279  0.48140  0.19731  Biso   1.000  H
  C799     1.0000 0.72142  0.75912  0.52142  Biso   1.000  C
  C800     1.0000 0.74088  0.02142  0.27858  Biso   1.000  C
  N187     1.0000 0.78760  0.79490  0.02521  Biso   1.000  N
  C801     1.0000 0.79290  0.79098  0.92778  Biso   1.000  C
  H817     1.0000 0.80269  0.72721  0.98140  Biso   1.000  H
  C802     1.0000 0.71987  0.74288  0.87748  Biso   1.000  C
  H818     1.0000 0.66858  0.69959  0.92819  Biso   1.000  H
  H819     1.0000 0.72791  0.67532  0.92689  Biso   1.000  H
  N188     1.0000 0.79490  0.52521  0.28760  Biso   1.000  N
  C803     1.0000 0.79098  0.42778  0.29290  Biso   1.000  C
  H820     1.0000 0.72721  0.48140  0.30269  Biso   1.000  H
  C804     1.0000 0.74288  0.37748  0.21987  Biso   1.000  C
  H821     1.0000 0.69959  0.42819  0.16858  Biso   1.000  H
  H822     1.0000 0.67532  0.42689  0.22791  Biso   1.000  H
  C805     1.0000 0.77858  0.74088  0.52142  Biso   1.000  C
  C806     1.0000 0.70710  0.79098  0.57222  Biso   1.000  C
  H823     1.0000 0.69731  0.72721  0.51860  Biso   1.000  H
  C807     1.0000 0.75912  0.02142  0.22142  Biso   1.000  C
  C808     1.0000 0.70902  0.07222  0.29290  Biso   1.000  C
  H824     1.0000 0.77279  0.01860  0.30269  Biso   1.000  H
  C809     1.0000 0.82579  0.78641  0.05618  Biso   1.000  C
  C810     1.0000 0.78013  0.75712  0.87748  Biso   1.000  C
  H825     1.0000 0.83142  0.80041  0.92819  Biso   1.000  H
  H826     1.0000 0.77209  0.82468  0.92689  Biso   1.000  H
  H827     1.0000 0.71081  0.72248  0.84480  Biso   1.000  H
  H828     1.0000 0.69829  0.77609  0.87780  Biso   1.000  H
  C811     1.0000 0.78641  0.55618  0.32579  Biso   1.000  C
  C812     1.0000 0.75712  0.37748  0.28013  Biso   1.000  C
  H829     1.0000 0.80041  0.42819  0.33142  Biso   1.000  H
  H830     1.0000 0.82468  0.42689  0.27209  Biso   1.000  H
  H831     1.0000 0.72248  0.34480  0.21081  Biso   1.000  H
  H832     1.0000 0.77609  0.37780  0.19829  Biso   1.000  H
  N189     1.0000 0.78760  0.70510  0.47479  Biso   1.000  N
  C813     1.0000 0.79290  0.70902  0.57222  Biso   1.000  C
  H833     1.0000 0.80269  0.77279  0.51860  Biso   1.000  H
  C814     1.0000 0.71987  0.75712  0.62252  Biso   1.000  C
  H834     1.0000 0.66858  0.80041  0.57181  Biso   1.000  H
  H835     1.0000 0.72791  0.82468  0.57311  Biso   1.000  H
  N190     1.0000 0.79490  0.97479  0.21240  Biso   1.000  N
  C815     1.0000 0.79098  0.07222  0.20710  Biso   1.000  C
  H836     1.0000 0.72721  0.01860  0.19731  Biso   1.000  H
  C816     1.0000 0.74288  0.12252  0.28013  Biso   1.000  C
  H837     1.0000 0.69959  0.07181  0.33142  Biso   1.000  H
  H838     1.0000 0.67532  0.07311  0.27209  Biso   1.000  H
  C817     1.0000 0.83998  0.81881  0.10339  Biso   1.000  C
  H839     1.0000 0.84782  0.75639  0.04880  Biso   1.000  H
  H840     1.0000 0.78919  0.77752  0.84480  Biso   1.000  H
  H841     1.0000 0.80171  0.72391  0.87780  Biso   1.000  H
  C818     1.0000 0.81881  0.60339  0.33998  Biso   1.000  C
  H842     1.0000 0.75639  0.54880  0.34782  Biso   1.000  H
  H843     1.0000 0.77752  0.34480  0.28919  Biso   1.000  H
  H844     1.0000 0.72391  0.37780  0.30171  Biso   1.000  H
  C819     1.0000 0.82579  0.71359  0.44382  Biso   1.000  C
  C820     1.0000 0.78013  0.74288  0.62252  Biso   1.000  C
  H845     1.0000 0.83142  0.69959  0.57181  Biso   1.000  H
  H846     1.0000 0.77209  0.67532  0.57311  Biso   1.000  H
  H847     1.0000 0.71081  0.77752  0.65520  Biso   1.000  H
  H848     1.0000 0.69829  0.72391  0.62220  Biso   1.000  H
  C821     1.0000 0.78641  0.94382  0.17421  Biso   1.000  C
  C822     1.0000 0.75712  0.12252  0.21987  Biso   1.000  C
  H849     1.0000 0.80041  0.07181  0.16858  Biso   1.000  H
  H850     1.0000 0.82468  0.07311  0.22791  Biso   1.000  H
  H851     1.0000 0.72248  0.15520  0.28919  Biso   1.000  H
  H852     1.0000 0.77609  0.12220  0.30171  Biso   1.000  H
  C823     1.0000 0.80730  0.86328  0.11461  Biso   1.000  C
  C824     1.0000 0.88539  0.80730  0.13672  Biso   1.000  C
  C825     1.0000 0.86328  0.61461  0.30730  Biso   1.000  C
  C826     1.0000 0.80730  0.63672  0.38539  Biso   1.000  C
  C827     1.0000 0.83998  0.68119  0.39661  Biso   1.000  C
  H853     1.0000 0.84782  0.74361  0.45120  Biso   1.000  H
  H854     1.0000 0.78919  0.72248  0.65520  Biso   1.000  H
  H855     1.0000 0.80171  0.77609  0.62220  Biso   1.000  H
  C828     1.0000 0.81881  0.89661  0.16002  Biso   1.000  C
  H856     1.0000 0.75639  0.95120  0.15218  Biso   1.000  H
  H857     1.0000 0.77752  0.15520  0.21081  Biso   1.000  H
  H858     1.0000 0.72391  0.12220  0.19829  Biso   1.000  H
  H859     1.0000 0.77768  0.87132  0.09221  Biso   1.000  H
  C829     1.0000 0.89661  0.83998  0.18119  Biso   1.000  C
  H860     1.0000 0.90779  0.77768  0.12868  Biso   1.000  H
  C830     1.0000 0.89661  0.66002  0.31881  Biso   1.000  C
  H861     1.0000 0.87132  0.59221  0.27768  Biso   1.000  H
  H862     1.0000 0.77768  0.62868  0.40779  Biso   1.000  H
  C831     1.0000 0.88539  0.69270  0.36328  Biso   1.000  C
  C832     1.0000 0.86328  0.88539  0.19270  Biso   1.000  C
  C833     1.0000 0.94382  0.82579  0.21359  Biso   1.000  C
  C834     1.0000 0.94382  0.67421  0.28641  Biso   1.000  C
  H863     1.0000 0.90779  0.72232  0.37132  Biso   1.000  H
  H864     1.0000 0.87132  0.90779  0.22232  Biso   1.000  H
  N191     1.0000 0.97479  0.78760  0.20510  Biso   1.000  N
  H865     1.0000 0.95120  0.84782  0.24361  Biso   1.000  H
  N192     1.0000 0.97479  0.71240  0.29490  Biso   1.000  N
  H866     1.0000 0.95120  0.65218  0.25639  Biso   1.000  H
  C835     1.0000 0.02142  0.77858  0.24088  Biso   1.000  C
  C836     1.0000 0.02142  0.72142  0.25912  Biso   1.000  C
  C837     1.0000 0.07222  0.79290  0.20902  Biso   1.000  C
  H867     1.0000 0.01860  0.80269  0.27279  Biso   1.000  H
  C838     1.0000 0.07222  0.70710  0.29098  Biso   1.000  C
  H868     1.0000 0.01860  0.69731  0.22721  Biso   1.000  H
  C839     1.0000 0.12252  0.78013  0.24288  Biso   1.000  C
  H869     1.0000 0.07181  0.83142  0.19959  Biso   1.000  H
  H870     1.0000 0.07311  0.77209  0.17532  Biso   1.000  H
  C840     1.0000 0.12252  0.71987  0.25712  Biso   1.000  C
  H871     1.0000 0.07181  0.66858  0.30041  Biso   1.000  H
  H872     1.0000 0.07311  0.72791  0.32468  Biso   1.000  H
  H873     1.0000 0.15520  0.78919  0.22248  Biso   1.000  H
  H874     1.0000 0.12220  0.80171  0.27609  Biso   1.000  H
  H875     1.0000 0.15520  0.71081  0.27752  Biso   1.000  H
  H876     1.0000 0.12220  0.69829  0.22391  Biso   1.000  H
  C841     1.0000 0.24288  0.37748  0.71987  Biso   1.000  C
  C842     1.0000 0.20902  0.42778  0.70710  Biso   1.000  C
  C843     1.0000 0.25712  0.37748  0.78013  Biso   1.000  C
  H877     1.0000 0.22248  0.34480  0.71081  Biso   1.000  H
  H878     1.0000 0.27609  0.37780  0.69829  Biso   1.000  H
  C844     1.0000 0.24088  0.47858  0.72142  Biso   1.000  C
  H879     1.0000 0.19959  0.42819  0.66858  Biso   1.000  H
  H880     1.0000 0.17532  0.42689  0.72791  Biso   1.000  H
  C845     1.0000 0.29098  0.42778  0.79290  Biso   1.000  C
  H881     1.0000 0.27752  0.34480  0.78919  Biso   1.000  H
  H882     1.0000 0.22391  0.37780  0.80171  Biso   1.000  H
  N193     1.0000 0.20510  0.52521  0.71240  Biso   1.000  N
  C846     1.0000 0.25912  0.47858  0.77858  Biso   1.000  C
  H883     1.0000 0.27279  0.48140  0.69731  Biso   1.000  H
  H884     1.0000 0.30041  0.42819  0.83142  Biso   1.000  H
  H885     1.0000 0.32468  0.42689  0.77209  Biso   1.000  H
  C847     1.0000 0.21359  0.55618  0.67421  Biso   1.000  C
  N194     1.0000 0.29490  0.52521  0.78760  Biso   1.000  N
  H886     1.0000 0.22721  0.48140  0.80269  Biso   1.000  H
  C848     1.0000 0.18119  0.60339  0.66002  Biso   1.000  C
  H887     1.0000 0.24361  0.54880  0.65218  Biso   1.000  H
  C849     1.0000 0.28641  0.55618  0.82579  Biso   1.000  C
  C850     1.0000 0.13672  0.61461  0.69270  Biso   1.000  C
  C851     1.0000 0.19270  0.63672  0.61461  Biso   1.000  C
  C852     1.0000 0.31881  0.60339  0.83998  Biso   1.000  C
  H888     1.0000 0.25639  0.54880  0.84782  Biso   1.000  H
  C853     1.0000 0.10339  0.66002  0.68119  Biso   1.000  C
  H889     1.0000 0.12868  0.59221  0.72232  Biso   1.000  H
  C854     1.0000 0.16002  0.68119  0.60339  Biso   1.000  C
  H890     1.0000 0.22232  0.62868  0.59221  Biso   1.000  H
  C855     1.0000 0.30730  0.63672  0.88539  Biso   1.000  C
  C856     1.0000 0.36328  0.61461  0.80730  Biso   1.000  C
  C857     1.0000 0.05618  0.67421  0.71359  Biso   1.000  C
  C858     1.0000 0.11461  0.69270  0.63672  Biso   1.000  C
  C859     1.0000 0.17421  0.71359  0.55618  Biso   1.000  C
  C860     1.0000 0.33998  0.68119  0.89661  Biso   1.000  C
  H891     1.0000 0.27768  0.62868  0.90779  Biso   1.000  H
  C861     1.0000 0.39661  0.66002  0.81881  Biso   1.000  C
  H892     1.0000 0.37132  0.59221  0.77768  Biso   1.000  H
  N195     1.0000 0.02521  0.71240  0.70510  Biso   1.000  N
  H893     1.0000 0.04880  0.65218  0.74361  Biso   1.000  H
  H894     1.0000 0.09221  0.72232  0.62868  Biso   1.000  H
  N196     1.0000 0.21240  0.70510  0.52521  Biso   1.000  N
  H895     1.0000 0.15218  0.74361  0.54880  Biso   1.000  H
  C862     1.0000 0.32579  0.71359  0.94382  Biso   1.000  C
  C863     1.0000 0.38539  0.69270  0.86328  Biso   1.000  C
  C864     1.0000 0.44382  0.67421  0.78641  Biso   1.000  C
  C865     1.0000 0.97858  0.72142  0.74088  Biso   1.000  C
  C866     1.0000 0.22142  0.74088  0.47858  Biso   1.000  C
  N197     1.0000 0.28760  0.70510  0.97479  Biso   1.000  N
  H896     1.0000 0.34782  0.74361  0.95120  Biso   1.000  H
  H897     1.0000 0.40779  0.72232  0.87132  Biso   1.000  H
  N198     1.0000 0.47479  0.71240  0.79490  Biso   1.000  N
  H898     1.0000 0.45120  0.65218  0.75639  Biso   1.000  H
  C867     1.0000 0.97858  0.77858  0.75912  Biso   1.000  C
  C868     1.0000 0.92778  0.70710  0.70902  Biso   1.000  C
  H899     1.0000 0.98140  0.69731  0.77279  Biso   1.000  H
  C869     1.0000 0.27858  0.75912  0.47858  Biso   1.000  C
  C870     1.0000 0.20710  0.70902  0.42778  Biso   1.000  C
  H900     1.0000 0.19731  0.77279  0.48140  Biso   1.000  H
  C871     1.0000 0.27858  0.74088  0.02142  Biso   1.000  C
  C872     1.0000 0.52142  0.72142  0.75912  Biso   1.000  C
  N199     1.0000 0.02521  0.78760  0.79490  Biso   1.000  N
  C873     1.0000 0.92778  0.79290  0.79098  Biso   1.000  C
  H901     1.0000 0.98140  0.80269  0.72721  Biso   1.000  H
  C874     1.0000 0.87748  0.71987  0.74288  Biso   1.000  C
  H902     1.0000 0.92819  0.66858  0.69959  Biso   1.000  H
  H903     1.0000 0.92689  0.72791  0.67532  Biso   1.000  H
  N200     1.0000 0.28760  0.79490  0.52521  Biso   1.000  N
  C875     1.0000 0.29290  0.79098  0.42778  Biso   1.000  C
  H904     1.0000 0.30269  0.72721  0.48140  Biso   1.000  H
  C876     1.0000 0.21987  0.74288  0.37748  Biso   1.000  C
  H905     1.0000 0.16858  0.69959  0.42819  Biso   1.000  H
  H906     1.0000 0.22791  0.67532  0.42689  Biso   1.000  H
  C877     1.0000 0.22142  0.75912  0.02142  Biso   1.000  C
  C878     1.0000 0.29290  0.70902  0.07222  Biso   1.000  C
  H907     1.0000 0.30269  0.77279  0.01860  Biso   1.000  H
  C879     1.0000 0.52142  0.77858  0.74088  Biso   1.000  C
  C880     1.0000 0.57222  0.70710  0.79098  Biso   1.000  C
  H908     1.0000 0.51860  0.69731  0.72721  Biso   1.000  H
  C881     1.0000 0.05618  0.82579  0.78641  Biso   1.000  C
  C882     1.0000 0.87748  0.78013  0.75712  Biso   1.000  C
  H909     1.0000 0.92819  0.83142  0.80041  Biso   1.000  H
  H910     1.0000 0.92689  0.77209  0.82468  Biso   1.000  H
  H911     1.0000 0.84480  0.71081  0.72248  Biso   1.000  H
  H912     1.0000 0.87780  0.69829  0.77609  Biso   1.000  H
  C883     1.0000 0.32579  0.78641  0.55618  Biso   1.000  C
  C884     1.0000 0.28013  0.75712  0.37748  Biso   1.000  C
  H913     1.0000 0.33142  0.80041  0.42819  Biso   1.000  H
  H914     1.0000 0.27209  0.82468  0.42689  Biso   1.000  H
  H915     1.0000 0.21081  0.72248  0.34480  Biso   1.000  H
  H916     1.0000 0.19829  0.77609  0.37780  Biso   1.000  H
  N201     1.0000 0.21240  0.79490  0.97479  Biso   1.000  N
  C885     1.0000 0.20710  0.79098  0.07222  Biso   1.000  C
  H917     1.0000 0.19731  0.72721  0.01860  Biso   1.000  H
  C886     1.0000 0.28013  0.74288  0.12252  Biso   1.000  C
  H918     1.0000 0.33142  0.69959  0.07181  Biso   1.000  H
  H919     1.0000 0.27209  0.67532  0.07311  Biso   1.000  H
  N202     1.0000 0.47479  0.78760  0.70510  Biso   1.000  N
  C887     1.0000 0.57222  0.79290  0.70902  Biso   1.000  C
  H920     1.0000 0.51860  0.80269  0.77279  Biso   1.000  H
  C888     1.0000 0.62252  0.71987  0.75712  Biso   1.000  C
  H921     1.0000 0.57181  0.66858  0.80041  Biso   1.000  H
  H922     1.0000 0.57311  0.72791  0.82468  Biso   1.000  H
  C889     1.0000 0.10339  0.83998  0.81881  Biso   1.000  C
  H923     1.0000 0.04880  0.84782  0.75639  Biso   1.000  H
  H924     1.0000 0.84480  0.78919  0.77752  Biso   1.000  H
  H925     1.0000 0.87780  0.80171  0.72391  Biso   1.000  H
  C890     1.0000 0.33998  0.81881  0.60339  Biso   1.000  C
  H926     1.0000 0.34782  0.75639  0.54880  Biso   1.000  H
  H927     1.0000 0.28919  0.77752  0.34480  Biso   1.000  H
  H928     1.0000 0.30171  0.72391  0.37780  Biso   1.000  H
  C891     1.0000 0.17421  0.78641  0.94382  Biso   1.000  C
  C892     1.0000 0.21987  0.75712  0.12252  Biso   1.000  C
  H929     1.0000 0.16858  0.80041  0.07181  Biso   1.000  H
  H930     1.0000 0.22791  0.82468  0.07311  Biso   1.000  H
  H931     1.0000 0.28919  0.72248  0.15520  Biso   1.000  H
  H932     1.0000 0.30171  0.77609  0.12220  Biso   1.000  H
  C893     1.0000 0.44382  0.82579  0.71359  Biso   1.000  C
  C894     1.0000 0.62252  0.78013  0.74288  Biso   1.000  C
  H933     1.0000 0.57181  0.83142  0.69959  Biso   1.000  H
  H934     1.0000 0.57311  0.77209  0.67532  Biso   1.000  H
  H935     1.0000 0.65520  0.71081  0.77752  Biso   1.000  H
  H936     1.0000 0.62220  0.69829  0.72391  Biso   1.000  H
  C895     1.0000 0.13672  0.88539  0.80730  Biso   1.000  C
  C896     1.0000 0.11461  0.80730  0.86328  Biso   1.000  C
  C897     1.0000 0.30730  0.86328  0.61461  Biso   1.000  C
  C898     1.0000 0.38539  0.80730  0.63672  Biso   1.000  C
  C899     1.0000 0.16002  0.81881  0.89661  Biso   1.000  C
  H937     1.0000 0.15218  0.75639  0.95120  Biso   1.000  H
  H938     1.0000 0.21081  0.77752  0.15520  Biso   1.000  H
  H939     1.0000 0.19829  0.72391  0.12220  Biso   1.000  H
  C900     1.0000 0.39661  0.83998  0.68119  Biso   1.000  C
  H940     1.0000 0.45120  0.84782  0.74361  Biso   1.000  H
  H941     1.0000 0.65520  0.78919  0.72248  Biso   1.000  H
  H942     1.0000 0.62220  0.80171  0.77609  Biso   1.000  H
  H943     1.0000 0.12868  0.90779  0.77768  Biso   1.000  H
  C901     1.0000 0.18119  0.89661  0.83998  Biso   1.000  C
  H944     1.0000 0.09221  0.77768  0.87132  Biso   1.000  H
  C902     1.0000 0.31881  0.89661  0.66002  Biso   1.000  C
  H945     1.0000 0.27768  0.87132  0.59221  Biso   1.000  H
  H946     1.0000 0.40779  0.77768  0.62868  Biso   1.000  H
  C903     1.0000 0.19270  0.86328  0.88539  Biso   1.000  C
  C904     1.0000 0.36328  0.88539  0.69270  Biso   1.000  C
  C905     1.0000 0.21359  0.94382  0.82579  Biso   1.000  C
  C906     1.0000 0.28641  0.94382  0.67421  Biso   1.000  C
  H947     1.0000 0.22232  0.87132  0.90779  Biso   1.000  H
  H948     1.0000 0.37132  0.90779  0.72232  Biso   1.000  H
  N203     1.0000 0.20510  0.97479  0.78760  Biso   1.000  N
  H949     1.0000 0.24361  0.95120  0.84782  Biso   1.000  H
  N204     1.0000 0.29490  0.97479  0.71240  Biso   1.000  N
  H950     1.0000 0.25639  0.95120  0.65218  Biso   1.000  H
  C907     1.0000 0.24088  0.02142  0.77858  Biso   1.000  C
  C908     1.0000 0.25912  0.02142  0.72142  Biso   1.000  C
  C909     1.0000 0.20902  0.07222  0.79290  Biso   1.000  C
  H951     1.0000 0.27279  0.01860  0.80269  Biso   1.000  H
  C910     1.0000 0.29098  0.07222  0.70710  Biso   1.000  C
  H952     1.0000 0.22721  0.01860  0.69731  Biso   1.000  H
  C911     1.0000 0.24288  0.12252  0.78013  Biso   1.000  C
  H953     1.0000 0.19959  0.07181  0.83142  Biso   1.000  H
  H954     1.0000 0.17532  0.07311  0.77209  Biso   1.000  H
  C912     1.0000 0.25712  0.12252  0.71987  Biso   1.000  C
  H955     1.0000 0.30041  0.07181  0.66858  Biso   1.000  H
  H956     1.0000 0.32468  0.07311  0.72791  Biso   1.000  H
  H957     1.0000 0.22248  0.15520  0.78919  Biso   1.000  H
  H958     1.0000 0.27609  0.12220  0.80171  Biso   1.000  H
  H959     1.0000 0.27752  0.15520  0.71081  Biso   1.000  H
  H960     1.0000 0.22391  0.12220  0.69829  Biso   1.000  H
