data_image0
_cell_length_a       30.115
_cell_length_b       30.115
_cell_length_c       30.115
_cell_angle_alpha    90
_cell_angle_beta     90
_cell_angle_gamma    90

_symmetry_space_group_name_H-M    "P 1"
_symmetry_int_tables_number       1

loop_
  _symmetry_equiv_pos_as_xyz
  'x, y, z'

loop_
  _atom_site_label
  _atom_site_occupancy
  _atom_site_fract_x
  _atom_site_fract_y
  _atom_site_fract_z
  _atom_site_thermal_displace_type
  _atom_site_B_iso_or_equiv
  _atom_site_type_symbol
  N1       1.0000 0.37918  0.37918  0.37918  Biso   1.000  N
  C1       1.0000 0.41302  0.36301  0.35139  Biso   1.000  C
  C2       1.0000 0.36301  0.35139  0.41302  Biso   1.000  C
  C3       1.0000 0.35139  0.41302  0.36301  Biso   1.000  C
  C4       1.0000 0.45160  0.34614  0.37048  Biso   1.000  C
  C5       1.0000 0.41029  0.36314  0.30530  Biso   1.000  C
  C6       1.0000 0.36314  0.30530  0.41029  Biso   1.000  C
  C7       1.0000 0.34614  0.37048  0.45160  Biso   1.000  C
  C8       1.0000 0.30530  0.41029  0.36314  Biso   1.000  C
  C9       1.0000 0.37048  0.45160  0.34614  Biso   1.000  C
  C10      1.0000 0.48580  0.32964  0.34494  Biso   1.000  C
  H1       1.0000 0.45439  0.34601  0.40189  Biso   1.000  H
  C11      1.0000 0.44440  0.34680  0.27963  Biso   1.000  C
  H2       1.0000 0.38449  0.37470  0.29128  Biso   1.000  H
  H3       1.0000 0.37470  0.29128  0.38449  Biso   1.000  H
  C12      1.0000 0.34680  0.27963  0.44440  Biso   1.000  C
  H4       1.0000 0.34601  0.40189  0.45439  Biso   1.000  H
  C13      1.0000 0.32964  0.34494  0.48580  Biso   1.000  C
  H5       1.0000 0.29128  0.38449  0.37470  Biso   1.000  H
  C14      1.0000 0.27963  0.44440  0.34680  Biso   1.000  C
  H6       1.0000 0.40189  0.45439  0.34601  Biso   1.000  H
  C15      1.0000 0.34494  0.48580  0.32964  Biso   1.000  C
  C16      1.0000 0.48285  0.32940  0.29866  Biso   1.000  C
  H7       1.0000 0.51171  0.31831  0.35899  Biso   1.000  H
  H8       1.0000 0.44171  0.34740  0.24822  Biso   1.000  H
  C17      1.0000 0.32940  0.29866  0.48285  Biso   1.000  C
  H9       1.0000 0.34740  0.24822  0.44171  Biso   1.000  H
  H10      1.0000 0.31831  0.35899  0.51171  Biso   1.000  H
  C18      1.0000 0.29866  0.48285  0.32940  Biso   1.000  C
  H11      1.0000 0.24822  0.44171  0.34740  Biso   1.000  H
  H12      1.0000 0.35899  0.51171  0.31831  Biso   1.000  H
  C19      1.0000 0.51898  0.31177  0.27053  Biso   1.000  C
  C20      1.0000 0.31177  0.27053  0.51898  Biso   1.000  C
  C21      1.0000 0.27053  0.51898  0.31177  Biso   1.000  C
  N2       1.0000 0.55079  0.29015  0.28534  Biso   1.000  N
  H13      1.0000 0.51782  0.31728  0.23952  Biso   1.000  H
  N3       1.0000 0.29015  0.28534  0.55079  Biso   1.000  N
  H14      1.0000 0.31728  0.23952  0.51782  Biso   1.000  H
  N4       1.0000 0.28534  0.55079  0.29015  Biso   1.000  N
  H15      1.0000 0.23952  0.51782  0.31728  Biso   1.000  H
  C22      1.0000 0.58399  0.27571  0.25323  Biso   1.000  C
  C23      1.0000 0.27571  0.25323  0.58399  Biso   1.000  C
  C24      1.0000 0.25323  0.58399  0.27571  Biso   1.000  C
  C25      1.0000 0.58399  0.22427  0.24675  Biso   1.000  C
  H16      1.0000 0.57852  0.29059  0.22411  Biso   1.000  H
  C26      1.0000 0.63095  0.28521  0.26847  Biso   1.000  C
  C27      1.0000 0.22427  0.24675  0.58399  Biso   1.000  C
  H17      1.0000 0.29059  0.22411  0.57852  Biso   1.000  H
  C28      1.0000 0.28521  0.26847  0.63095  Biso   1.000  C
  C29      1.0000 0.24675  0.58399  0.22427  Biso   1.000  C
  H18      1.0000 0.22411  0.57852  0.29059  Biso   1.000  H
  C30      1.0000 0.26847  0.63095  0.28521  Biso   1.000  C
  N5       1.0000 0.55079  0.20986  0.21468  Biso   1.000  N
  H19      1.0000 0.57852  0.20940  0.27591  Biso   1.000  H
  C31      1.0000 0.63095  0.21478  0.23155  Biso   1.000  C
  C32      1.0000 0.65741  0.25609  0.23849  Biso   1.000  C
  C33      1.0000 0.65741  0.24390  0.26150  Biso   1.000  C
  H20      1.0000 0.64380  0.31001  0.25110  Biso   1.000  H
  H21      1.0000 0.63111  0.29361  0.30032  Biso   1.000  H
  N6       1.0000 0.20986  0.21468  0.55079  Biso   1.000  N
  H22      1.0000 0.20940  0.27591  0.57852  Biso   1.000  H
  C34      1.0000 0.21478  0.23155  0.63095  Biso   1.000  C
  H23      1.0000 0.31001  0.25110  0.64380  Biso   1.000  H
  H24      1.0000 0.29361  0.30032  0.63111  Biso   1.000  H
  C35      1.0000 0.24390  0.26150  0.65741  Biso   1.000  C
  C36      1.0000 0.25609  0.23849  0.65741  Biso   1.000  C
  N7       1.0000 0.21468  0.55079  0.20986  Biso   1.000  N
  H25      1.0000 0.27591  0.57852  0.20940  Biso   1.000  H
  C37      1.0000 0.23155  0.63095  0.21478  Biso   1.000  C
  H26      1.0000 0.25110  0.64380  0.31001  Biso   1.000  H
  H27      1.0000 0.30032  0.63111  0.29361  Biso   1.000  H
  C38      1.0000 0.23849  0.65741  0.25609  Biso   1.000  C
  C39      1.0000 0.26150  0.65741  0.24390  Biso   1.000  C
  C40      1.0000 0.51898  0.18825  0.22945  Biso   1.000  C
  H28      1.0000 0.64380  0.19000  0.24891  Biso   1.000  H
  H29      1.0000 0.63111  0.20641  0.19970  Biso   1.000  H
  H30      1.0000 0.68640  0.25110  0.24778  Biso   1.000  H
  H31      1.0000 0.68640  0.24891  0.25220  Biso   1.000  H
  H32      1.0000 0.66289  0.27119  0.20980  Biso   1.000  H
  H33      1.0000 0.66289  0.22879  0.29019  Biso   1.000  H
  C41      1.0000 0.18825  0.22945  0.51898  Biso   1.000  C
  H34      1.0000 0.19000  0.24891  0.64380  Biso   1.000  H
  H35      1.0000 0.20641  0.19970  0.63111  Biso   1.000  H
  H36      1.0000 0.25110  0.24778  0.68640  Biso   1.000  H
  H37      1.0000 0.22879  0.29019  0.66289  Biso   1.000  H
  H38      1.0000 0.24891  0.25220  0.68640  Biso   1.000  H
  H39      1.0000 0.27119  0.20980  0.66289  Biso   1.000  H
  C42      1.0000 0.22945  0.51898  0.18825  Biso   1.000  C
  H40      1.0000 0.24891  0.64380  0.19000  Biso   1.000  H
  H41      1.0000 0.19970  0.63111  0.20641  Biso   1.000  H
  H42      1.0000 0.24778  0.68640  0.25110  Biso   1.000  H
  H43      1.0000 0.25220  0.68640  0.24891  Biso   1.000  H
  H44      1.0000 0.20980  0.66289  0.27119  Biso   1.000  H
  H45      1.0000 0.29019  0.66289  0.22879  Biso   1.000  H
  C43      1.0000 0.48285  0.17058  0.20136  Biso   1.000  C
  H46      1.0000 0.51782  0.18270  0.26050  Biso   1.000  H
  C44      1.0000 0.17058  0.20136  0.48285  Biso   1.000  C
  H47      1.0000 0.18270  0.26050  0.51782  Biso   1.000  H
  C45      1.0000 0.20136  0.48285  0.17058  Biso   1.000  C
  H48      1.0000 0.26050  0.51782  0.18270  Biso   1.000  H
  C46      1.0000 0.44440  0.15318  0.22036  Biso   1.000  C
  C47      1.0000 0.48580  0.17038  0.15504  Biso   1.000  C
  C48      1.0000 0.15318  0.22036  0.44440  Biso   1.000  C
  C49      1.0000 0.17038  0.15504  0.48580  Biso   1.000  C
  C50      1.0000 0.22036  0.44440  0.15318  Biso   1.000  C
  C51      1.0000 0.15504  0.48580  0.17038  Biso   1.000  C
  C52      1.0000 0.41029  0.13688  0.19472  Biso   1.000  C
  H49      1.0000 0.44171  0.15261  0.25180  Biso   1.000  H
  C53      1.0000 0.45160  0.15388  0.12954  Biso   1.000  C
  H50      1.0000 0.51171  0.18170  0.14099  Biso   1.000  H
  C54      1.0000 0.13688  0.19472  0.41029  Biso   1.000  C
  H51      1.0000 0.15261  0.25180  0.44171  Biso   1.000  H
  C55      1.0000 0.15388  0.12954  0.45160  Biso   1.000  C
  H52      1.0000 0.18170  0.14099  0.51171  Biso   1.000  H
  C56      1.0000 0.19472  0.41029  0.13688  Biso   1.000  C
  H53      1.0000 0.25180  0.44171  0.15261  Biso   1.000  H
  C57      1.0000 0.12954  0.45160  0.15388  Biso   1.000  C
  H54      1.0000 0.14099  0.51171  0.18170  Biso   1.000  H
  C58      1.0000 0.41302  0.13697  0.14860  Biso   1.000  C
  H55      1.0000 0.38449  0.12529  0.20870  Biso   1.000  H
  H56      1.0000 0.45439  0.15401  0.09809  Biso   1.000  H
  C59      1.0000 0.13697  0.14860  0.41302  Biso   1.000  C
  H57      1.0000 0.12529  0.20870  0.38449  Biso   1.000  H
  H58      1.0000 0.15401  0.09809  0.45439  Biso   1.000  H
  C60      1.0000 0.14860  0.41302  0.13697  Biso   1.000  C
  H59      1.0000 0.20870  0.38449  0.12529  Biso   1.000  H
  H60      1.0000 0.09809  0.45439  0.15401  Biso   1.000  H
  N8       1.0000 0.37918  0.12084  0.12084  Biso   1.000  N
  N9       1.0000 0.12084  0.12084  0.37918  Biso   1.000  N
  N10      1.0000 0.12084  0.37918  0.12084  Biso   1.000  N
  C61      1.0000 0.35139  0.08697  0.13697  Biso   1.000  C
  C62      1.0000 0.36301  0.14860  0.08697  Biso   1.000  C
  C63      1.0000 0.14860  0.08697  0.36301  Biso   1.000  C
  C64      1.0000 0.08697  0.13697  0.35139  Biso   1.000  C
  C65      1.0000 0.13697  0.35139  0.08697  Biso   1.000  C
  C66      1.0000 0.08697  0.36301  0.14860  Biso   1.000  C
  C67      1.0000 0.30530  0.08972  0.13688  Biso   1.000  C
  C68      1.0000 0.37048  0.04838  0.15388  Biso   1.000  C
  C69      1.0000 0.36314  0.19472  0.08972  Biso   1.000  C
  C70      1.0000 0.34614  0.12954  0.04838  Biso   1.000  C
  C71      1.0000 0.12954  0.04838  0.34614  Biso   1.000  C
  C72      1.0000 0.19472  0.08972  0.36314  Biso   1.000  C
  C73      1.0000 0.08972  0.13688  0.30530  Biso   1.000  C
  C74      1.0000 0.04838  0.15388  0.37048  Biso   1.000  C
  C75      1.0000 0.15388  0.37048  0.04838  Biso   1.000  C
  C76      1.0000 0.13688  0.30530  0.08972  Biso   1.000  C
  C77      1.0000 0.08972  0.36314  0.19472  Biso   1.000  C
  C78      1.0000 0.04838  0.34614  0.12954  Biso   1.000  C
  H61      1.0000 0.29128  0.11549  0.12529  Biso   1.000  H
  C79      1.0000 0.27963  0.05559  0.15318  Biso   1.000  C
  H62      1.0000 0.40189  0.04559  0.15401  Biso   1.000  H
  C80      1.0000 0.34494  0.01418  0.17038  Biso   1.000  C
  H63      1.0000 0.37470  0.20870  0.11549  Biso   1.000  H
  C81      1.0000 0.34680  0.22036  0.05559  Biso   1.000  C
  H64      1.0000 0.34601  0.09809  0.04559  Biso   1.000  H
  C82      1.0000 0.32964  0.15504  0.01418  Biso   1.000  C
  C83      1.0000 0.15504  0.01418  0.32964  Biso   1.000  C
  H65      1.0000 0.09809  0.04559  0.34601  Biso   1.000  H
  C84      1.0000 0.22036  0.05559  0.34680  Biso   1.000  C
  H66      1.0000 0.20870  0.11549  0.37470  Biso   1.000  H
  H67      1.0000 0.11549  0.12529  0.29128  Biso   1.000  H
  C85      1.0000 0.05559  0.15318  0.27963  Biso   1.000  C
  H68      1.0000 0.04559  0.15401  0.40189  Biso   1.000  H
  C86      1.0000 0.01418  0.17038  0.34494  Biso   1.000  C
  C87      1.0000 0.17038  0.34494  0.01418  Biso   1.000  C
  H69      1.0000 0.15401  0.40189  0.04559  Biso   1.000  H
  C88      1.0000 0.15318  0.27963  0.05559  Biso   1.000  C
  H70      1.0000 0.12529  0.29128  0.11549  Biso   1.000  H
  H71      1.0000 0.11549  0.37470  0.20870  Biso   1.000  H
  C89      1.0000 0.05559  0.34680  0.22036  Biso   1.000  C
  H72      1.0000 0.04559  0.34601  0.09809  Biso   1.000  H
  C90      1.0000 0.01418  0.32964  0.15504  Biso   1.000  C
  C91      1.0000 0.29866  0.01713  0.17058  Biso   1.000  C
  H73      1.0000 0.24822  0.05831  0.15261  Biso   1.000  H
  H74      1.0000 0.35899  0.98831  0.18170  Biso   1.000  H
  C92      1.0000 0.32940  0.20136  0.01713  Biso   1.000  C
  H75      1.0000 0.34740  0.25180  0.05831  Biso   1.000  H
  H76      1.0000 0.31831  0.14099  0.98831  Biso   1.000  H
  C93      1.0000 0.20136  0.01713  0.32940  Biso   1.000  C
  H77      1.0000 0.14099  0.98831  0.31831  Biso   1.000  H
  H78      1.0000 0.25180  0.05831  0.34740  Biso   1.000  H
  C94      1.0000 0.01713  0.17058  0.29866  Biso   1.000  C
  H79      1.0000 0.05831  0.15261  0.24822  Biso   1.000  H
  H80      1.0000 0.98831  0.18170  0.35899  Biso   1.000  H
  C95      1.0000 0.17058  0.29866  0.01713  Biso   1.000  C
  H81      1.0000 0.18170  0.35899  0.98831  Biso   1.000  H
  H82      1.0000 0.15261  0.24822  0.05831  Biso   1.000  H
  C96      1.0000 0.01713  0.32940  0.20136  Biso   1.000  C
  H83      1.0000 0.05831  0.34740  0.25180  Biso   1.000  H
  H84      1.0000 0.98831  0.31831  0.14099  Biso   1.000  H
  C97      1.0000 0.27053  0.98104  0.18825  Biso   1.000  C
  C98      1.0000 0.31177  0.22945  0.98104  Biso   1.000  C
  C99      1.0000 0.22945  0.98104  0.31177  Biso   1.000  C
  C100     1.0000 0.98104  0.18825  0.27053  Biso   1.000  C
  C101     1.0000 0.18825  0.27053  0.98104  Biso   1.000  C
  C102     1.0000 0.98104  0.31177  0.22945  Biso   1.000  C
  N11      1.0000 0.28534  0.94919  0.20986  Biso   1.000  N
  H85      1.0000 0.23952  0.98220  0.18270  Biso   1.000  H
  N12      1.0000 0.29015  0.21468  0.94919  Biso   1.000  N
  H86      1.0000 0.31728  0.26050  0.98220  Biso   1.000  H
  N13      1.0000 0.21468  0.94919  0.29015  Biso   1.000  N
  H87      1.0000 0.26050  0.98220  0.31728  Biso   1.000  H
  N14      1.0000 0.94919  0.20986  0.28534  Biso   1.000  N
  H88      1.0000 0.98220  0.18270  0.23952  Biso   1.000  H
  N15      1.0000 0.20986  0.28534  0.94919  Biso   1.000  N
  H89      1.0000 0.18270  0.23952  0.98220  Biso   1.000  H
  N16      1.0000 0.94919  0.29015  0.21468  Biso   1.000  N
  H90      1.0000 0.98220  0.31728  0.26050  Biso   1.000  H
  C103     1.0000 0.25323  0.91602  0.22427  Biso   1.000  C
  C104     1.0000 0.27571  0.24675  0.91602  Biso   1.000  C
  C105     1.0000 0.24675  0.91602  0.27571  Biso   1.000  C
  C106     1.0000 0.91602  0.22427  0.25323  Biso   1.000  C
  C107     1.0000 0.22427  0.25323  0.91602  Biso   1.000  C
  C108     1.0000 0.91602  0.27571  0.24675  Biso   1.000  C
  H91      1.0000 0.22411  0.92150  0.20940  Biso   1.000  H
  C109     1.0000 0.26847  0.86904  0.21478  Biso   1.000  C
  H92      1.0000 0.29059  0.27591  0.92150  Biso   1.000  H
  C110     1.0000 0.28521  0.23155  0.86904  Biso   1.000  C
  H93      1.0000 0.27591  0.92150  0.29059  Biso   1.000  H
  C111     1.0000 0.23155  0.86904  0.28521  Biso   1.000  C
  H94      1.0000 0.92150  0.20940  0.22411  Biso   1.000  H
  C112     1.0000 0.86904  0.21478  0.26847  Biso   1.000  C
  H95      1.0000 0.20940  0.22411  0.92150  Biso   1.000  H
  C113     1.0000 0.21478  0.26847  0.86904  Biso   1.000  C
  H96      1.0000 0.92150  0.29059  0.27591  Biso   1.000  H
  C114     1.0000 0.86904  0.28521  0.23155  Biso   1.000  C
  C115     1.0000 0.23849  0.84260  0.24390  Biso   1.000  C
  H97      1.0000 0.25110  0.85618  0.19000  Biso   1.000  H
  H98      1.0000 0.30032  0.86890  0.20641  Biso   1.000  H
  C116     1.0000 0.26150  0.84260  0.25609  Biso   1.000  C
  H99      1.0000 0.31001  0.24891  0.85618  Biso   1.000  H
  H100     1.0000 0.29361  0.19970  0.86890  Biso   1.000  H
  C117     1.0000 0.25609  0.26150  0.84260  Biso   1.000  C
  C118     1.0000 0.24390  0.23849  0.84260  Biso   1.000  C
  H101     1.0000 0.24891  0.85618  0.31001  Biso   1.000  H
  H102     1.0000 0.19970  0.86890  0.29361  Biso   1.000  H
  H103     1.0000 0.85618  0.19000  0.25110  Biso   1.000  H
  H104     1.0000 0.86890  0.20641  0.30032  Biso   1.000  H
  C119     1.0000 0.84260  0.25609  0.26150  Biso   1.000  C
  C120     1.0000 0.84260  0.24390  0.23849  Biso   1.000  C
  H105     1.0000 0.19000  0.25110  0.85618  Biso   1.000  H
  H106     1.0000 0.20641  0.30032  0.86890  Biso   1.000  H
  H107     1.0000 0.85618  0.31001  0.24891  Biso   1.000  H
  H108     1.0000 0.86890  0.29361  0.19970  Biso   1.000  H
  H109     1.0000 0.25220  0.81361  0.25110  Biso   1.000  H
  H110     1.0000 0.20980  0.83709  0.22879  Biso   1.000  H
  H111     1.0000 0.24778  0.81361  0.24891  Biso   1.000  H
  H112     1.0000 0.29019  0.83709  0.27119  Biso   1.000  H
  H113     1.0000 0.24891  0.24778  0.81361  Biso   1.000  H
  H114     1.0000 0.27119  0.29019  0.83709  Biso   1.000  H
  H115     1.0000 0.25110  0.25220  0.81361  Biso   1.000  H
  H116     1.0000 0.22879  0.20980  0.83709  Biso   1.000  H
  H117     1.0000 0.81361  0.24891  0.24778  Biso   1.000  H
  H118     1.0000 0.83709  0.27119  0.29019  Biso   1.000  H
  H119     1.0000 0.81361  0.25110  0.25220  Biso   1.000  H
  H120     1.0000 0.83709  0.22879  0.20980  Biso   1.000  H
  C121     1.0000 0.52054  0.43822  0.26897  Biso   1.000  C
  C122     1.0000 0.54866  0.42059  0.23287  Biso   1.000  C
  N17      1.0000 0.53531  0.45984  0.30078  Biso   1.000  N
  H121     1.0000 0.48949  0.43271  0.26781  Biso   1.000  H
  C123     1.0000 0.52964  0.40319  0.19442  Biso   1.000  C
  C124     1.0000 0.59495  0.42036  0.23580  Biso   1.000  C
  C125     1.0000 0.50324  0.47428  0.33399  Biso   1.000  C
  C126     1.0000 0.55527  0.38685  0.16029  Biso   1.000  C
  H122     1.0000 0.49819  0.40259  0.19170  Biso   1.000  H
  C127     1.0000 0.62045  0.40389  0.20159  Biso   1.000  C
  H123     1.0000 0.60900  0.43171  0.26170  Biso   1.000  H
  C128     1.0000 0.49676  0.52572  0.33399  Biso   1.000  C
  H124     1.0000 0.47412  0.45941  0.32851  Biso   1.000  H
  C129     1.0000 0.51848  0.46478  0.38097  Biso   1.000  C
  C130     1.0000 0.60139  0.38698  0.16304  Biso   1.000  C
  H125     1.0000 0.54129  0.37529  0.13448  Biso   1.000  H
  H126     1.0000 0.65190  0.40398  0.20442  Biso   1.000  H
  N18      1.0000 0.46469  0.54016  0.30078  Biso   1.000  N
  H127     1.0000 0.52588  0.54059  0.32851  Biso   1.000  H
  C131     1.0000 0.48152  0.53522  0.38097  Biso   1.000  C
  H128     1.0000 0.50111  0.44001  0.39379  Biso   1.000  H
  H129     1.0000 0.55029  0.45638  0.38111  Biso   1.000  H
  C132     1.0000 0.51151  0.50609  0.40740  Biso   1.000  C
  C133     1.0000 0.48849  0.49391  0.40740  Biso   1.000  C
  N19      1.0000 0.62915  0.37085  0.12917  Biso   1.000  N
  C134     1.0000 0.47946  0.56178  0.26897  Biso   1.000  C
  H130     1.0000 0.49889  0.55999  0.39379  Biso   1.000  H
  H131     1.0000 0.44971  0.54362  0.38111  Biso   1.000  H
  H132     1.0000 0.50221  0.50111  0.43639  Biso   1.000  H
  H133     1.0000 0.49779  0.49889  0.43639  Biso   1.000  H
  H134     1.0000 0.54020  0.52120  0.41288  Biso   1.000  H
  H135     1.0000 0.45980  0.47880  0.41288  Biso   1.000  H
  C135     1.0000 0.61302  0.33697  0.10141  Biso   1.000  C
  C136     1.0000 0.66303  0.39861  0.11303  Biso   1.000  C
  H136     1.0000 0.51051  0.56729  0.26781  Biso   1.000  H
  C137     1.0000 0.45134  0.57941  0.23287  Biso   1.000  C
  C138     1.0000 0.61315  0.33973  0.05529  Biso   1.000  C
  C139     1.0000 0.59611  0.29839  0.12047  Biso   1.000  C
  C140     1.0000 0.66027  0.44473  0.11313  Biso   1.000  C
  C141     1.0000 0.70161  0.37955  0.09613  Biso   1.000  C
  C142     1.0000 0.40505  0.57964  0.23580  Biso   1.000  C
  C143     1.0000 0.47036  0.59681  0.19442  Biso   1.000  C
  H137     1.0000 0.62471  0.36550  0.04131  Biso   1.000  H
  C144     1.0000 0.59681  0.30560  0.02965  Biso   1.000  C
  H138     1.0000 0.59602  0.29560  0.15188  Biso   1.000  H
  C145     1.0000 0.57964  0.26419  0.09494  Biso   1.000  C
  H139     1.0000 0.63450  0.45871  0.12469  Biso   1.000  H
  C146     1.0000 0.69440  0.47036  0.09683  Biso   1.000  C
  H140     1.0000 0.70440  0.34810  0.09600  Biso   1.000  H
  C147     1.0000 0.73581  0.40505  0.07963  Biso   1.000  C
  C148     1.0000 0.37955  0.59611  0.20159  Biso   1.000  C
  H141     1.0000 0.39100  0.56829  0.26170  Biso   1.000  H
  C149     1.0000 0.44473  0.61315  0.16029  Biso   1.000  C
  H142     1.0000 0.50181  0.59741  0.19170  Biso   1.000  H
  C150     1.0000 0.57941  0.26714  0.04865  Biso   1.000  C
  H143     1.0000 0.59741  0.30828  0.99821  Biso   1.000  H
  H144     1.0000 0.56829  0.23829  0.10902  Biso   1.000  H
  C151     1.0000 0.73286  0.45134  0.07940  Biso   1.000  C
  H145     1.0000 0.69172  0.50181  0.09739  Biso   1.000  H
  H146     1.0000 0.76171  0.39100  0.06830  Biso   1.000  H
  C152     1.0000 0.39861  0.61302  0.16304  Biso   1.000  C
  H147     1.0000 0.34810  0.59602  0.20442  Biso   1.000  H
  H148     1.0000 0.45871  0.62471  0.13448  Biso   1.000  H
  C153     1.0000 0.56178  0.23101  0.02055  Biso   1.000  C
  C154     1.0000 0.76899  0.47946  0.06176  Biso   1.000  C
  N20      1.0000 0.37085  0.62915  0.12917  Biso   1.000  N
  N21      1.0000 0.54016  0.19920  0.03533  Biso   1.000  N
  H149     1.0000 0.56729  0.23221  0.98951  Biso   1.000  H
  N22      1.0000 0.80080  0.46469  0.04015  Biso   1.000  N
  H150     1.0000 0.76779  0.51051  0.06731  Biso   1.000  H
  C155     1.0000 0.33697  0.60139  0.11303  Biso   1.000  C
  C156     1.0000 0.38698  0.66303  0.10141  Biso   1.000  C
  C157     1.0000 0.52572  0.16600  0.00322  Biso   1.000  C
  C158     1.0000 0.83400  0.49676  0.02570  Biso   1.000  C
  C159     1.0000 0.33973  0.55527  0.11313  Biso   1.000  C
  C160     1.0000 0.29839  0.62045  0.09613  Biso   1.000  C
  C161     1.0000 0.38685  0.66027  0.05529  Biso   1.000  C
  C162     1.0000 0.40389  0.70161  0.12047  Biso   1.000  C
  C163     1.0000 0.53522  0.11904  0.01846  Biso   1.000  C
  C164     1.0000 0.47428  0.16600  0.99678  Biso   1.000  C
  H151     1.0000 0.54059  0.17151  0.97410  Biso   1.000  H
  H152     1.0000 0.82849  0.52588  0.04061  Biso   1.000  H
  C165     1.0000 0.88096  0.48152  0.03523  Biso   1.000  C
  C166     1.0000 0.83400  0.50324  0.97430  Biso   1.000  C
  H153     1.0000 0.36550  0.54129  0.12469  Biso   1.000  H
  C167     1.0000 0.30560  0.52964  0.09683  Biso   1.000  C
  H154     1.0000 0.29560  0.65190  0.09600  Biso   1.000  H
  C168     1.0000 0.26419  0.59495  0.07963  Biso   1.000  C
  H155     1.0000 0.37529  0.63450  0.04131  Biso   1.000  H
  C169     1.0000 0.40319  0.69440  0.02965  Biso   1.000  C
  H156     1.0000 0.40398  0.70440  0.15188  Biso   1.000  H
  C170     1.0000 0.42036  0.73581  0.09494  Biso   1.000  C
  H157     1.0000 0.55999  0.10619  0.00110  Biso   1.000  H
  H158     1.0000 0.54362  0.11891  0.05031  Biso   1.000  H
  C171     1.0000 0.49391  0.09261  0.01149  Biso   1.000  C
  C172     1.0000 0.50609  0.09261  0.98851  Biso   1.000  C
  H159     1.0000 0.45941  0.17151  0.02590  Biso   1.000  H
  N23      1.0000 0.45984  0.19920  0.96467  Biso   1.000  N
  C173     1.0000 0.46478  0.11904  0.98154  Biso   1.000  C
  H160     1.0000 0.89381  0.49889  0.06000  Biso   1.000  H
  H161     1.0000 0.88109  0.44971  0.04360  Biso   1.000  H
  C174     1.0000 0.90739  0.51151  0.00608  Biso   1.000  C
  C175     1.0000 0.90739  0.48849  0.99392  Biso   1.000  C
  N24      1.0000 0.80080  0.53531  0.95985  Biso   1.000  N
  H162     1.0000 0.82849  0.47412  0.95939  Biso   1.000  H
  C176     1.0000 0.88096  0.51848  0.96477  Biso   1.000  C
  C177     1.0000 0.26714  0.54866  0.07940  Biso   1.000  C
  H163     1.0000 0.30828  0.49819  0.09739  Biso   1.000  H
  H164     1.0000 0.23829  0.60900  0.06830  Biso   1.000  H
  C178     1.0000 0.42059  0.73286  0.04865  Biso   1.000  C
  H165     1.0000 0.40259  0.69172  0.99821  Biso   1.000  H
  H166     1.0000 0.43171  0.76171  0.10902  Biso   1.000  H
  H167     1.0000 0.47880  0.08710  0.04021  Biso   1.000  H
  H168     1.0000 0.49889  0.06359  0.00219  Biso   1.000  H
  H169     1.0000 0.50111  0.06359  0.99781  Biso   1.000  H
  H170     1.0000 0.52120  0.08710  0.95979  Biso   1.000  H
  C179     1.0000 0.43822  0.23101  0.97945  Biso   1.000  C
  H171     1.0000 0.44001  0.10619  0.99890  Biso   1.000  H
  H172     1.0000 0.45638  0.11891  0.94969  Biso   1.000  H
  H173     1.0000 0.93641  0.50221  0.00110  Biso   1.000  H
  H174     1.0000 0.91290  0.54020  0.02119  Biso   1.000  H
  H175     1.0000 0.93641  0.49779  0.99890  Biso   1.000  H
  H176     1.0000 0.91290  0.45980  0.97881  Biso   1.000  H
  C180     1.0000 0.76899  0.52054  0.93824  Biso   1.000  C
  H177     1.0000 0.89381  0.50111  0.94000  Biso   1.000  H
  H178     1.0000 0.88109  0.55029  0.95640  Biso   1.000  H
  C181     1.0000 0.23101  0.52054  0.06176  Biso   1.000  C
  C182     1.0000 0.43822  0.76899  0.02055  Biso   1.000  C
  H179     1.0000 0.43271  0.23221  0.01049  Biso   1.000  H
  C183     1.0000 0.42059  0.26714  0.95135  Biso   1.000  C
  H180     1.0000 0.76779  0.48949  0.93269  Biso   1.000  H
  C184     1.0000 0.73286  0.54866  0.92060  Biso   1.000  C
  N25      1.0000 0.19920  0.53531  0.04015  Biso   1.000  N
  H181     1.0000 0.23221  0.48949  0.06731  Biso   1.000  H
  N26      1.0000 0.45984  0.80080  0.03533  Biso   1.000  N
  H182     1.0000 0.43271  0.76779  0.98951  Biso   1.000  H
  C185     1.0000 0.42036  0.26419  0.90506  Biso   1.000  C
  C186     1.0000 0.40319  0.30560  0.97035  Biso   1.000  C
  C187     1.0000 0.73581  0.59495  0.92037  Biso   1.000  C
  C188     1.0000 0.69440  0.52964  0.90317  Biso   1.000  C
  C189     1.0000 0.16600  0.50324  0.02570  Biso   1.000  C
  C190     1.0000 0.47428  0.83400  0.00322  Biso   1.000  C
  C191     1.0000 0.40389  0.29839  0.87953  Biso   1.000  C
  H183     1.0000 0.43171  0.23829  0.89098  Biso   1.000  H
  H184     1.0000 0.40259  0.30828  0.00179  Biso   1.000  H
  C192     1.0000 0.38685  0.33973  0.94471  Biso   1.000  C
  C193     1.0000 0.70161  0.62045  0.90387  Biso   1.000  C
  H185     1.0000 0.76171  0.60900  0.93170  Biso   1.000  H
  C194     1.0000 0.66027  0.55527  0.88687  Biso   1.000  C
  H186     1.0000 0.69172  0.49819  0.90261  Biso   1.000  H
  H187     1.0000 0.17151  0.47412  0.04061  Biso   1.000  H
  C195     1.0000 0.11904  0.51848  0.03523  Biso   1.000  C
  C196     1.0000 0.16600  0.49676  0.97430  Biso   1.000  C
  C197     1.0000 0.46478  0.88096  0.01846  Biso   1.000  C
  C198     1.0000 0.52572  0.83400  0.99678  Biso   1.000  C
  H188     1.0000 0.45941  0.82849  0.97410  Biso   1.000  H
  C199     1.0000 0.38698  0.33697  0.89859  Biso   1.000  C
  H189     1.0000 0.40398  0.29560  0.84812  Biso   1.000  H
  H190     1.0000 0.37529  0.36550  0.95869  Biso   1.000  H
  C200     1.0000 0.66303  0.60139  0.88697  Biso   1.000  C
  H191     1.0000 0.70440  0.65190  0.90400  Biso   1.000  H
  H192     1.0000 0.63450  0.54129  0.87531  Biso   1.000  H
  H193     1.0000 0.10619  0.50111  0.06000  Biso   1.000  H
  H194     1.0000 0.11891  0.55029  0.04360  Biso   1.000  H
  C201     1.0000 0.09261  0.48849  0.00608  Biso   1.000  C
  C202     1.0000 0.09261  0.51151  0.99392  Biso   1.000  C
  N27      1.0000 0.19920  0.46469  0.95985  Biso   1.000  N
  H195     1.0000 0.17151  0.52588  0.95939  Biso   1.000  H
  C203     1.0000 0.11904  0.48152  0.96477  Biso   1.000  C
  H196     1.0000 0.44001  0.89381  0.00110  Biso   1.000  H
  H197     1.0000 0.45638  0.88109  0.05031  Biso   1.000  H
  C204     1.0000 0.50609  0.90739  0.01149  Biso   1.000  C
  C205     1.0000 0.49391  0.90739  0.98851  Biso   1.000  C
  H198     1.0000 0.54059  0.82849  0.02590  Biso   1.000  H
  N28      1.0000 0.54016  0.80080  0.96467  Biso   1.000  N
  C206     1.0000 0.53522  0.88096  0.98154  Biso   1.000  C
  N29      1.0000 0.37085  0.37085  0.87083  Biso   1.000  N
  N30      1.0000 0.62915  0.62915  0.87083  Biso   1.000  N
  H199     1.0000 0.06359  0.49779  0.00110  Biso   1.000  H
  H200     1.0000 0.08710  0.45980  0.02119  Biso   1.000  H
  H201     1.0000 0.06359  0.50221  0.99890  Biso   1.000  H
  H202     1.0000 0.08710  0.54020  0.97881  Biso   1.000  H
  C207     1.0000 0.23101  0.47946  0.93824  Biso   1.000  C
  H203     1.0000 0.10619  0.49889  0.94000  Biso   1.000  H
  H204     1.0000 0.11891  0.44971  0.95640  Biso   1.000  H
  H205     1.0000 0.50111  0.93641  0.00219  Biso   1.000  H
  H206     1.0000 0.52120  0.91290  0.04021  Biso   1.000  H
  H207     1.0000 0.49889  0.93641  0.99781  Biso   1.000  H
  H208     1.0000 0.47880  0.91290  0.95979  Biso   1.000  H
  C208     1.0000 0.56178  0.76899  0.97945  Biso   1.000  C
  H209     1.0000 0.55999  0.89381  0.99890  Biso   1.000  H
  H210     1.0000 0.54362  0.88109  0.94969  Biso   1.000  H
  C209     1.0000 0.33697  0.39861  0.88697  Biso   1.000  C
  C210     1.0000 0.39861  0.38698  0.83696  Biso   1.000  C
  C211     1.0000 0.60139  0.61302  0.83696  Biso   1.000  C
  C212     1.0000 0.61302  0.66303  0.89859  Biso   1.000  C
  C213     1.0000 0.26714  0.45134  0.92060  Biso   1.000  C
  H211     1.0000 0.23221  0.51051  0.93269  Biso   1.000  H
  C214     1.0000 0.57941  0.73286  0.95135  Biso   1.000  C
  H212     1.0000 0.56729  0.76779  0.01049  Biso   1.000  H
  C215     1.0000 0.33973  0.44473  0.88687  Biso   1.000  C
  C216     1.0000 0.29839  0.37955  0.90387  Biso   1.000  C
  C217     1.0000 0.44473  0.38685  0.83971  Biso   1.000  C
  C218     1.0000 0.37955  0.40389  0.79841  Biso   1.000  C
  C219     1.0000 0.55527  0.61315  0.83971  Biso   1.000  C
  C220     1.0000 0.62045  0.59611  0.79841  Biso   1.000  C
  C221     1.0000 0.61315  0.66027  0.94471  Biso   1.000  C
  C222     1.0000 0.59611  0.70161  0.87953  Biso   1.000  C
  C223     1.0000 0.30560  0.47036  0.90317  Biso   1.000  C
  C224     1.0000 0.26419  0.40505  0.92037  Biso   1.000  C
  C225     1.0000 0.59681  0.69440  0.97035  Biso   1.000  C
  C226     1.0000 0.57964  0.73581  0.90506  Biso   1.000  C
  H213     1.0000 0.36550  0.45871  0.87531  Biso   1.000  H
  H214     1.0000 0.29560  0.34810  0.90400  Biso   1.000  H
  H215     1.0000 0.45871  0.37529  0.86552  Biso   1.000  H
  C227     1.0000 0.47036  0.40319  0.80558  Biso   1.000  C
  H216     1.0000 0.34810  0.40398  0.79558  Biso   1.000  H
  C228     1.0000 0.40505  0.42036  0.76420  Biso   1.000  C
  H217     1.0000 0.54129  0.62471  0.86552  Biso   1.000  H
  C229     1.0000 0.52964  0.59681  0.80558  Biso   1.000  C
  H218     1.0000 0.65190  0.59602  0.79558  Biso   1.000  H
  C230     1.0000 0.59495  0.57964  0.76420  Biso   1.000  C
  H219     1.0000 0.62471  0.63450  0.95869  Biso   1.000  H
  H220     1.0000 0.59602  0.70440  0.84812  Biso   1.000  H
  H221     1.0000 0.30828  0.50181  0.90261  Biso   1.000  H
  H222     1.0000 0.23829  0.39100  0.93170  Biso   1.000  H
  H223     1.0000 0.59741  0.69172  0.00179  Biso   1.000  H
  H224     1.0000 0.56829  0.76171  0.89098  Biso   1.000  H
  C231     1.0000 0.45134  0.42059  0.76713  Biso   1.000  C
  H225     1.0000 0.50181  0.40259  0.80830  Biso   1.000  H
  H226     1.0000 0.39100  0.43171  0.73830  Biso   1.000  H
  C232     1.0000 0.54866  0.57941  0.76713  Biso   1.000  C
  H227     1.0000 0.49819  0.59741  0.80830  Biso   1.000  H
  H228     1.0000 0.60900  0.56829  0.73830  Biso   1.000  H
  C233     1.0000 0.47946  0.43822  0.73103  Biso   1.000  C
  C234     1.0000 0.52054  0.56178  0.73103  Biso   1.000  C
  N31      1.0000 0.46469  0.45984  0.69922  Biso   1.000  N
  H229     1.0000 0.51051  0.43271  0.73219  Biso   1.000  H
  N32      1.0000 0.53531  0.54016  0.69922  Biso   1.000  N
  H230     1.0000 0.48949  0.56729  0.73219  Biso   1.000  H
  C235     1.0000 0.49676  0.47428  0.66601  Biso   1.000  C
  C236     1.0000 0.50324  0.52572  0.66601  Biso   1.000  C
  H231     1.0000 0.52588  0.45941  0.67149  Biso   1.000  H
  C237     1.0000 0.48152  0.46478  0.61903  Biso   1.000  C
  H232     1.0000 0.47412  0.54059  0.67149  Biso   1.000  H
  C238     1.0000 0.51848  0.53522  0.61903  Biso   1.000  C
  H233     1.0000 0.49889  0.44001  0.60621  Biso   1.000  H
  H234     1.0000 0.44971  0.45638  0.61889  Biso   1.000  H
  C239     1.0000 0.51151  0.49391  0.59260  Biso   1.000  C
  C240     1.0000 0.48849  0.50609  0.59260  Biso   1.000  C
  H235     1.0000 0.50111  0.55999  0.60621  Biso   1.000  H
  H236     1.0000 0.55029  0.54362  0.61889  Biso   1.000  H
  H237     1.0000 0.49779  0.50111  0.56361  Biso   1.000  H
  H238     1.0000 0.54020  0.47880  0.58712  Biso   1.000  H
  H239     1.0000 0.50221  0.49889  0.56361  Biso   1.000  H
  H240     1.0000 0.45980  0.52120  0.58712  Biso   1.000  H
  C241     1.0000 0.52054  0.43822  0.26897  Biso   1.000  C
  C242     1.0000 0.54866  0.42059  0.23287  Biso   1.000  C
  N33      1.0000 0.53531  0.45984  0.30078  Biso   1.000  N
  H241     1.0000 0.48949  0.43271  0.26781  Biso   1.000  H
  C243     1.0000 0.52964  0.40319  0.19442  Biso   1.000  C
  C244     1.0000 0.59495  0.42036  0.23580  Biso   1.000  C
  C245     1.0000 0.50324  0.47428  0.33399  Biso   1.000  C
  C246     1.0000 0.55527  0.38685  0.16029  Biso   1.000  C
  H242     1.0000 0.49819  0.40259  0.19170  Biso   1.000  H
  C247     1.0000 0.62045  0.40389  0.20159  Biso   1.000  C
  H243     1.0000 0.60900  0.43171  0.26170  Biso   1.000  H
  C248     1.0000 0.49676  0.52572  0.33399  Biso   1.000  C
  H244     1.0000 0.47412  0.45941  0.32851  Biso   1.000  H
  C249     1.0000 0.51848  0.46478  0.38097  Biso   1.000  C
  C250     1.0000 0.60139  0.38698  0.16304  Biso   1.000  C
  H245     1.0000 0.54129  0.37529  0.13448  Biso   1.000  H
  H246     1.0000 0.65190  0.40398  0.20442  Biso   1.000  H
  N34      1.0000 0.46469  0.54016  0.30078  Biso   1.000  N
  H247     1.0000 0.52588  0.54059  0.32851  Biso   1.000  H
  C251     1.0000 0.48152  0.53522  0.38097  Biso   1.000  C
  H248     1.0000 0.50111  0.44001  0.39379  Biso   1.000  H
  H249     1.0000 0.55029  0.45638  0.38111  Biso   1.000  H
  C252     1.0000 0.51151  0.50609  0.40740  Biso   1.000  C
  C253     1.0000 0.48849  0.49391  0.40740  Biso   1.000  C
  N35      1.0000 0.62915  0.37085  0.12917  Biso   1.000  N
  C254     1.0000 0.47946  0.56178  0.26897  Biso   1.000  C
  H250     1.0000 0.49889  0.55999  0.39379  Biso   1.000  H
  H251     1.0000 0.44971  0.54362  0.38111  Biso   1.000  H
  H252     1.0000 0.50221  0.50111  0.43639  Biso   1.000  H
  H253     1.0000 0.49779  0.49889  0.43639  Biso   1.000  H
  H254     1.0000 0.54020  0.52120  0.41288  Biso   1.000  H
  H255     1.0000 0.45980  0.47880  0.41288  Biso   1.000  H
  C255     1.0000 0.61302  0.33697  0.10141  Biso   1.000  C
  C256     1.0000 0.66303  0.39861  0.11303  Biso   1.000  C
  H256     1.0000 0.51051  0.56729  0.26781  Biso   1.000  H
  C257     1.0000 0.45134  0.57941  0.23287  Biso   1.000  C
  C258     1.0000 0.61315  0.33973  0.05529  Biso   1.000  C
  C259     1.0000 0.59611  0.29839  0.12047  Biso   1.000  C
  C260     1.0000 0.66027  0.44473  0.11313  Biso   1.000  C
  C261     1.0000 0.70161  0.37955  0.09613  Biso   1.000  C
  C262     1.0000 0.40505  0.57964  0.23580  Biso   1.000  C
  C263     1.0000 0.47036  0.59681  0.19442  Biso   1.000  C
  H257     1.0000 0.62471  0.36550  0.04131  Biso   1.000  H
  C264     1.0000 0.59681  0.30560  0.02965  Biso   1.000  C
  H258     1.0000 0.59602  0.29560  0.15188  Biso   1.000  H
  C265     1.0000 0.57964  0.26419  0.09494  Biso   1.000  C
  H259     1.0000 0.63450  0.45871  0.12469  Biso   1.000  H
  C266     1.0000 0.69440  0.47036  0.09683  Biso   1.000  C
  H260     1.0000 0.70440  0.34810  0.09600  Biso   1.000  H
  C267     1.0000 0.73581  0.40505  0.07963  Biso   1.000  C
  C268     1.0000 0.37955  0.59611  0.20159  Biso   1.000  C
  H261     1.0000 0.39100  0.56829  0.26170  Biso   1.000  H
  C269     1.0000 0.44473  0.61315  0.16029  Biso   1.000  C
  H262     1.0000 0.50181  0.59741  0.19170  Biso   1.000  H
  C270     1.0000 0.57941  0.26714  0.04865  Biso   1.000  C
  H263     1.0000 0.59741  0.30828  0.99821  Biso   1.000  H
  H264     1.0000 0.56829  0.23829  0.10902  Biso   1.000  H
  C271     1.0000 0.73286  0.45134  0.07940  Biso   1.000  C
  H265     1.0000 0.69172  0.50181  0.09739  Biso   1.000  H
  H266     1.0000 0.76171  0.39100  0.06830  Biso   1.000  H
  C272     1.0000 0.39861  0.61302  0.16304  Biso   1.000  C
  H267     1.0000 0.34810  0.59602  0.20442  Biso   1.000  H
  H268     1.0000 0.45871  0.62471  0.13448  Biso   1.000  H
  C273     1.0000 0.56178  0.23101  0.02055  Biso   1.000  C
  C274     1.0000 0.76899  0.47946  0.06176  Biso   1.000  C
  N36      1.0000 0.37085  0.62915  0.12917  Biso   1.000  N
  N37      1.0000 0.54016  0.19920  0.03533  Biso   1.000  N
  H269     1.0000 0.56729  0.23221  0.98951  Biso   1.000  H
  N38      1.0000 0.80080  0.46469  0.04015  Biso   1.000  N
  H270     1.0000 0.76779  0.51051  0.06731  Biso   1.000  H
  C275     1.0000 0.33697  0.60139  0.11303  Biso   1.000  C
  C276     1.0000 0.38698  0.66303  0.10141  Biso   1.000  C
  C277     1.0000 0.52572  0.16600  0.00322  Biso   1.000  C
  C278     1.0000 0.83400  0.49676  0.02570  Biso   1.000  C
  C279     1.0000 0.33973  0.55527  0.11313  Biso   1.000  C
  C280     1.0000 0.29839  0.62045  0.09613  Biso   1.000  C
  C281     1.0000 0.38685  0.66027  0.05529  Biso   1.000  C
  C282     1.0000 0.40389  0.70161  0.12047  Biso   1.000  C
  C283     1.0000 0.53522  0.11904  0.01846  Biso   1.000  C
  C284     1.0000 0.47428  0.16600  0.99678  Biso   1.000  C
  H271     1.0000 0.54059  0.17151  0.97410  Biso   1.000  H
  H272     1.0000 0.82849  0.52588  0.04061  Biso   1.000  H
  C285     1.0000 0.88096  0.48152  0.03523  Biso   1.000  C
  C286     1.0000 0.83400  0.50324  0.97430  Biso   1.000  C
  H273     1.0000 0.36550  0.54129  0.12469  Biso   1.000  H
  C287     1.0000 0.30560  0.52964  0.09683  Biso   1.000  C
  H274     1.0000 0.29560  0.65190  0.09600  Biso   1.000  H
  C288     1.0000 0.26419  0.59495  0.07963  Biso   1.000  C
  H275     1.0000 0.37529  0.63450  0.04131  Biso   1.000  H
  C289     1.0000 0.40319  0.69440  0.02965  Biso   1.000  C
  H276     1.0000 0.40398  0.70440  0.15188  Biso   1.000  H
  C290     1.0000 0.42036  0.73581  0.09494  Biso   1.000  C
  H277     1.0000 0.55999  0.10619  0.00110  Biso   1.000  H
  H278     1.0000 0.54362  0.11891  0.05031  Biso   1.000  H
  C291     1.0000 0.49391  0.09261  0.01149  Biso   1.000  C
  C292     1.0000 0.50609  0.09261  0.98851  Biso   1.000  C
  H279     1.0000 0.45941  0.17151  0.02590  Biso   1.000  H
  N39      1.0000 0.45984  0.19920  0.96467  Biso   1.000  N
  C293     1.0000 0.46478  0.11904  0.98154  Biso   1.000  C
  H280     1.0000 0.89381  0.49889  0.06000  Biso   1.000  H
  H281     1.0000 0.88109  0.44971  0.04360  Biso   1.000  H
  C294     1.0000 0.90739  0.51151  0.00608  Biso   1.000  C
  C295     1.0000 0.90739  0.48849  0.99392  Biso   1.000  C
  N40      1.0000 0.80080  0.53531  0.95985  Biso   1.000  N
  H282     1.0000 0.82849  0.47412  0.95939  Biso   1.000  H
  C296     1.0000 0.88096  0.51848  0.96477  Biso   1.000  C
  C297     1.0000 0.26714  0.54866  0.07940  Biso   1.000  C
  H283     1.0000 0.30828  0.49819  0.09739  Biso   1.000  H
  H284     1.0000 0.23829  0.60900  0.06830  Biso   1.000  H
  C298     1.0000 0.42059  0.73286  0.04865  Biso   1.000  C
  H285     1.0000 0.40259  0.69172  0.99821  Biso   1.000  H
  H286     1.0000 0.43171  0.76171  0.10902  Biso   1.000  H
  H287     1.0000 0.50111  0.06359  0.99781  Biso   1.000  H
  H288     1.0000 0.47880  0.08710  0.04021  Biso   1.000  H
  H289     1.0000 0.49889  0.06359  0.00219  Biso   1.000  H
  H290     1.0000 0.52120  0.08710  0.95979  Biso   1.000  H
  C299     1.0000 0.43822  0.23101  0.97945  Biso   1.000  C
  H291     1.0000 0.44001  0.10619  0.99890  Biso   1.000  H
  H292     1.0000 0.45638  0.11891  0.94969  Biso   1.000  H
  H293     1.0000 0.93641  0.49779  0.99890  Biso   1.000  H
  H294     1.0000 0.93641  0.50221  0.00110  Biso   1.000  H
  H295     1.0000 0.91290  0.54020  0.02119  Biso   1.000  H
  H296     1.0000 0.91290  0.45980  0.97881  Biso   1.000  H
  C300     1.0000 0.76899  0.52054  0.93824  Biso   1.000  C
  H297     1.0000 0.89381  0.50111  0.94000  Biso   1.000  H
  H298     1.0000 0.88109  0.55029  0.95640  Biso   1.000  H
  C301     1.0000 0.23101  0.52054  0.06176  Biso   1.000  C
  C302     1.0000 0.43822  0.76899  0.02055  Biso   1.000  C
  H299     1.0000 0.43271  0.23221  0.01049  Biso   1.000  H
  C303     1.0000 0.42059  0.26714  0.95135  Biso   1.000  C
  H300     1.0000 0.76779  0.48949  0.93269  Biso   1.000  H
  C304     1.0000 0.73286  0.54866  0.92060  Biso   1.000  C
  N41      1.0000 0.19920  0.53531  0.04015  Biso   1.000  N
  H301     1.0000 0.23221  0.48949  0.06731  Biso   1.000  H
  N42      1.0000 0.45984  0.80080  0.03533  Biso   1.000  N
  H302     1.0000 0.43271  0.76779  0.98951  Biso   1.000  H
  C305     1.0000 0.42036  0.26419  0.90506  Biso   1.000  C
  C306     1.0000 0.40319  0.30560  0.97035  Biso   1.000  C
  C307     1.0000 0.73581  0.59495  0.92037  Biso   1.000  C
  C308     1.0000 0.69440  0.52964  0.90317  Biso   1.000  C
  C309     1.0000 0.16600  0.50324  0.02570  Biso   1.000  C
  C310     1.0000 0.47428  0.83400  0.00322  Biso   1.000  C
  C311     1.0000 0.40389  0.29839  0.87953  Biso   1.000  C
  H303     1.0000 0.43171  0.23829  0.89098  Biso   1.000  H
  H304     1.0000 0.40259  0.30828  0.00179  Biso   1.000  H
  C312     1.0000 0.38685  0.33973  0.94471  Biso   1.000  C
  C313     1.0000 0.70161  0.62045  0.90387  Biso   1.000  C
  H305     1.0000 0.76171  0.60900  0.93170  Biso   1.000  H
  C314     1.0000 0.66027  0.55527  0.88687  Biso   1.000  C
  H306     1.0000 0.69172  0.49819  0.90261  Biso   1.000  H
  H307     1.0000 0.17151  0.47412  0.04061  Biso   1.000  H
  C315     1.0000 0.11904  0.51848  0.03523  Biso   1.000  C
  C316     1.0000 0.16600  0.49676  0.97430  Biso   1.000  C
  C317     1.0000 0.46478  0.88096  0.01846  Biso   1.000  C
  C318     1.0000 0.52572  0.83400  0.99678  Biso   1.000  C
  H308     1.0000 0.45941  0.82849  0.97410  Biso   1.000  H
  C319     1.0000 0.38698  0.33697  0.89859  Biso   1.000  C
  H309     1.0000 0.40398  0.29560  0.84812  Biso   1.000  H
  H310     1.0000 0.37529  0.36550  0.95869  Biso   1.000  H
  C320     1.0000 0.66303  0.60139  0.88697  Biso   1.000  C
  H311     1.0000 0.70440  0.65190  0.90400  Biso   1.000  H
  H312     1.0000 0.63450  0.54129  0.87531  Biso   1.000  H
  H313     1.0000 0.10619  0.50111  0.06000  Biso   1.000  H
  H314     1.0000 0.11891  0.55029  0.04360  Biso   1.000  H
  C321     1.0000 0.09261  0.48849  0.00608  Biso   1.000  C
  C322     1.0000 0.09261  0.51151  0.99392  Biso   1.000  C
  N43      1.0000 0.19920  0.46469  0.95985  Biso   1.000  N
  H315     1.0000 0.17151  0.52588  0.95939  Biso   1.000  H
  C323     1.0000 0.11904  0.48152  0.96477  Biso   1.000  C
  H316     1.0000 0.44001  0.89381  0.00110  Biso   1.000  H
  H317     1.0000 0.45638  0.88109  0.05031  Biso   1.000  H
  C324     1.0000 0.50609  0.90739  0.01149  Biso   1.000  C
  C325     1.0000 0.49391  0.90739  0.98851  Biso   1.000  C
  H318     1.0000 0.54059  0.82849  0.02590  Biso   1.000  H
  N44      1.0000 0.54016  0.80080  0.96467  Biso   1.000  N
  C326     1.0000 0.53522  0.88096  0.98154  Biso   1.000  C
  N45      1.0000 0.37085  0.37085  0.87083  Biso   1.000  N
  N46      1.0000 0.62915  0.62915  0.87083  Biso   1.000  N
  H319     1.0000 0.06359  0.50221  0.99890  Biso   1.000  H
  H320     1.0000 0.06359  0.49779  0.00110  Biso   1.000  H
  H321     1.0000 0.08710  0.45980  0.02119  Biso   1.000  H
  H322     1.0000 0.08710  0.54020  0.97881  Biso   1.000  H
  C327     1.0000 0.23101  0.47946  0.93824  Biso   1.000  C
  H323     1.0000 0.10619  0.49889  0.94000  Biso   1.000  H
  H324     1.0000 0.11891  0.44971  0.95640  Biso   1.000  H
  H325     1.0000 0.49889  0.93641  0.99781  Biso   1.000  H
  H326     1.0000 0.50111  0.93641  0.00219  Biso   1.000  H
  H327     1.0000 0.52120  0.91290  0.04021  Biso   1.000  H
  H328     1.0000 0.47880  0.91290  0.95979  Biso   1.000  H
  C328     1.0000 0.56178  0.76899  0.97945  Biso   1.000  C
  H329     1.0000 0.55999  0.89381  0.99890  Biso   1.000  H
  H330     1.0000 0.54362  0.88109  0.94969  Biso   1.000  H
  C329     1.0000 0.33697  0.39861  0.88697  Biso   1.000  C
  C330     1.0000 0.39861  0.38698  0.83696  Biso   1.000  C
  C331     1.0000 0.60139  0.61302  0.83696  Biso   1.000  C
  C332     1.0000 0.61302  0.66303  0.89859  Biso   1.000  C
  C333     1.0000 0.26714  0.45134  0.92060  Biso   1.000  C
  H331     1.0000 0.23221  0.51051  0.93269  Biso   1.000  H
  C334     1.0000 0.57941  0.73286  0.95135  Biso   1.000  C
  H332     1.0000 0.56729  0.76779  0.01049  Biso   1.000  H
  C335     1.0000 0.33973  0.44473  0.88687  Biso   1.000  C
  C336     1.0000 0.29839  0.37955  0.90387  Biso   1.000  C
  C337     1.0000 0.44473  0.38685  0.83971  Biso   1.000  C
  C338     1.0000 0.37955  0.40389  0.79841  Biso   1.000  C
  C339     1.0000 0.55527  0.61315  0.83971  Biso   1.000  C
  C340     1.0000 0.62045  0.59611  0.79841  Biso   1.000  C
  C341     1.0000 0.61315  0.66027  0.94471  Biso   1.000  C
  C342     1.0000 0.59611  0.70161  0.87953  Biso   1.000  C
  C343     1.0000 0.30560  0.47036  0.90317  Biso   1.000  C
  C344     1.0000 0.26419  0.40505  0.92037  Biso   1.000  C
  C345     1.0000 0.59681  0.69440  0.97035  Biso   1.000  C
  C346     1.0000 0.57964  0.73581  0.90506  Biso   1.000  C
  H333     1.0000 0.36550  0.45871  0.87531  Biso   1.000  H
  H334     1.0000 0.29560  0.34810  0.90400  Biso   1.000  H
  H335     1.0000 0.45871  0.37529  0.86552  Biso   1.000  H
  C347     1.0000 0.47036  0.40319  0.80558  Biso   1.000  C
  H336     1.0000 0.34810  0.40398  0.79558  Biso   1.000  H
  C348     1.0000 0.40505  0.42036  0.76420  Biso   1.000  C
  H337     1.0000 0.54129  0.62471  0.86552  Biso   1.000  H
  C349     1.0000 0.52964  0.59681  0.80558  Biso   1.000  C
  H338     1.0000 0.65190  0.59602  0.79558  Biso   1.000  H
  C350     1.0000 0.59495  0.57964  0.76420  Biso   1.000  C
  H339     1.0000 0.62471  0.63450  0.95869  Biso   1.000  H
  H340     1.0000 0.59602  0.70440  0.84812  Biso   1.000  H
  H341     1.0000 0.30828  0.50181  0.90261  Biso   1.000  H
  H342     1.0000 0.23829  0.39100  0.93170  Biso   1.000  H
  H343     1.0000 0.59741  0.69172  0.00179  Biso   1.000  H
  H344     1.0000 0.56829  0.76171  0.89098  Biso   1.000  H
  C351     1.0000 0.45134  0.42059  0.76713  Biso   1.000  C
  H345     1.0000 0.50181  0.40259  0.80830  Biso   1.000  H
  H346     1.0000 0.39100  0.43171  0.73830  Biso   1.000  H
  C352     1.0000 0.54866  0.57941  0.76713  Biso   1.000  C
  H347     1.0000 0.49819  0.59741  0.80830  Biso   1.000  H
  H348     1.0000 0.60900  0.56829  0.73830  Biso   1.000  H
  C353     1.0000 0.47946  0.43822  0.73103  Biso   1.000  C
  C354     1.0000 0.52054  0.56178  0.73103  Biso   1.000  C
  N47      1.0000 0.46469  0.45984  0.69922  Biso   1.000  N
  H349     1.0000 0.51051  0.43271  0.73219  Biso   1.000  H
  N48      1.0000 0.53531  0.54016  0.69922  Biso   1.000  N
  H350     1.0000 0.48949  0.56729  0.73219  Biso   1.000  H
  C355     1.0000 0.49676  0.47428  0.66601  Biso   1.000  C
  C356     1.0000 0.50324  0.52572  0.66601  Biso   1.000  C
  H351     1.0000 0.52588  0.45941  0.67149  Biso   1.000  H
  C357     1.0000 0.48152  0.46478  0.61903  Biso   1.000  C
  H352     1.0000 0.47412  0.54059  0.67149  Biso   1.000  H
  C358     1.0000 0.51848  0.53522  0.61903  Biso   1.000  C
  H353     1.0000 0.49889  0.44001  0.60621  Biso   1.000  H
  H354     1.0000 0.44971  0.45638  0.61889  Biso   1.000  H
  C359     1.0000 0.51151  0.49391  0.59260  Biso   1.000  C
  C360     1.0000 0.48849  0.50609  0.59260  Biso   1.000  C
  H355     1.0000 0.50111  0.55999  0.60621  Biso   1.000  H
  H356     1.0000 0.55029  0.54362  0.61889  Biso   1.000  H
  H357     1.0000 0.49779  0.50111  0.56361  Biso   1.000  H
  H358     1.0000 0.54020  0.47880  0.58712  Biso   1.000  H
  H359     1.0000 0.50221  0.49889  0.56361  Biso   1.000  H
  H360     1.0000 0.45980  0.52120  0.58712  Biso   1.000  H
  C361     1.0000 0.43822  0.26897  0.52054  Biso   1.000  C
  N49      1.0000 0.45984  0.30078  0.53531  Biso   1.000  N
  H361     1.0000 0.43271  0.26781  0.48949  Biso   1.000  H
  C362     1.0000 0.42059  0.23287  0.54866  Biso   1.000  C
  C363     1.0000 0.47428  0.33399  0.50324  Biso   1.000  C
  C364     1.0000 0.42036  0.23580  0.59495  Biso   1.000  C
  C365     1.0000 0.40319  0.19442  0.52964  Biso   1.000  C
  C366     1.0000 0.52572  0.33399  0.49676  Biso   1.000  C
  H362     1.0000 0.45941  0.32851  0.47412  Biso   1.000  H
  C367     1.0000 0.46478  0.38097  0.51848  Biso   1.000  C
  C368     1.0000 0.40389  0.20159  0.62045  Biso   1.000  C
  H363     1.0000 0.43171  0.26170  0.60900  Biso   1.000  H
  C369     1.0000 0.38685  0.16029  0.55527  Biso   1.000  C
  H364     1.0000 0.40259  0.19170  0.49819  Biso   1.000  H
  N50      1.0000 0.54016  0.30078  0.46469  Biso   1.000  N
  H365     1.0000 0.54059  0.32851  0.52588  Biso   1.000  H
  C370     1.0000 0.53522  0.38097  0.48152  Biso   1.000  C
  C371     1.0000 0.50609  0.40740  0.51151  Biso   1.000  C
  C372     1.0000 0.49391  0.40740  0.48849  Biso   1.000  C
  H366     1.0000 0.44001  0.39379  0.50111  Biso   1.000  H
  H367     1.0000 0.45638  0.38111  0.55029  Biso   1.000  H
  C373     1.0000 0.38698  0.16304  0.60139  Biso   1.000  C
  H368     1.0000 0.40398  0.20442  0.65190  Biso   1.000  H
  H369     1.0000 0.37529  0.13448  0.54129  Biso   1.000  H
  C374     1.0000 0.56178  0.26897  0.47946  Biso   1.000  C
  H370     1.0000 0.55999  0.39379  0.49889  Biso   1.000  H
  H371     1.0000 0.54362  0.38111  0.44971  Biso   1.000  H
  H372     1.0000 0.50111  0.43639  0.50221  Biso   1.000  H
  H373     1.0000 0.49889  0.43639  0.49779  Biso   1.000  H
  H374     1.0000 0.52120  0.41288  0.54020  Biso   1.000  H
  H375     1.0000 0.47880  0.41288  0.45980  Biso   1.000  H
  N51      1.0000 0.37085  0.12917  0.62915  Biso   1.000  N
  C375     1.0000 0.57941  0.23287  0.45134  Biso   1.000  C
  H376     1.0000 0.56729  0.26781  0.51051  Biso   1.000  H
  C376     1.0000 0.33697  0.10141  0.61302  Biso   1.000  C
  C377     1.0000 0.39861  0.11303  0.66303  Biso   1.000  C
  C378     1.0000 0.59681  0.19442  0.47036  Biso   1.000  C
  C379     1.0000 0.57964  0.23580  0.40505  Biso   1.000  C
  C380     1.0000 0.33973  0.05529  0.61315  Biso   1.000  C
  C381     1.0000 0.29839  0.12047  0.59611  Biso   1.000  C
  C382     1.0000 0.44473  0.11313  0.66027  Biso   1.000  C
  C383     1.0000 0.37955  0.09613  0.70161  Biso   1.000  C
  C384     1.0000 0.61315  0.16029  0.44473  Biso   1.000  C
  H377     1.0000 0.59741  0.19170  0.50181  Biso   1.000  H
  C385     1.0000 0.59611  0.20159  0.37955  Biso   1.000  C
  H378     1.0000 0.56829  0.26170  0.39100  Biso   1.000  H
  H379     1.0000 0.36550  0.04131  0.62471  Biso   1.000  H
  C386     1.0000 0.30560  0.02965  0.59681  Biso   1.000  C
  H380     1.0000 0.29560  0.15188  0.59602  Biso   1.000  H
  C387     1.0000 0.26419  0.09494  0.57964  Biso   1.000  C
  H381     1.0000 0.45871  0.12469  0.63450  Biso   1.000  H
  C388     1.0000 0.47036  0.09683  0.69440  Biso   1.000  C
  H382     1.0000 0.34810  0.09600  0.70440  Biso   1.000  H
  C389     1.0000 0.40505  0.07963  0.73581  Biso   1.000  C
  C390     1.0000 0.61302  0.16304  0.39861  Biso   1.000  C
  H383     1.0000 0.62471  0.13448  0.45871  Biso   1.000  H
  H384     1.0000 0.59602  0.20442  0.34810  Biso   1.000  H
  C391     1.0000 0.26714  0.04865  0.57941  Biso   1.000  C
  H385     1.0000 0.30828  0.99821  0.59741  Biso   1.000  H
  H386     1.0000 0.23829  0.10902  0.56829  Biso   1.000  H
  C392     1.0000 0.45134  0.07940  0.73286  Biso   1.000  C
  H387     1.0000 0.50181  0.09739  0.69172  Biso   1.000  H
  H388     1.0000 0.39100  0.06830  0.76171  Biso   1.000  H
  N52      1.0000 0.62915  0.12917  0.37085  Biso   1.000  N
  C393     1.0000 0.23101  0.02055  0.56178  Biso   1.000  C
  C394     1.0000 0.47946  0.06176  0.76899  Biso   1.000  C
  C395     1.0000 0.60139  0.11303  0.33697  Biso   1.000  C
  C396     1.0000 0.66303  0.10141  0.38698  Biso   1.000  C
  N53      1.0000 0.19920  0.03533  0.54016  Biso   1.000  N
  H389     1.0000 0.23221  0.98951  0.56729  Biso   1.000  H
  N54      1.0000 0.46469  0.04015  0.80080  Biso   1.000  N
  H390     1.0000 0.51051  0.06731  0.76779  Biso   1.000  H
  C397     1.0000 0.55527  0.11313  0.33973  Biso   1.000  C
  C398     1.0000 0.62045  0.09613  0.29839  Biso   1.000  C
  C399     1.0000 0.66027  0.05529  0.38685  Biso   1.000  C
  C400     1.0000 0.70161  0.12047  0.40389  Biso   1.000  C
  C401     1.0000 0.16600  0.00322  0.52572  Biso   1.000  C
  C402     1.0000 0.49676  0.02570  0.83400  Biso   1.000  C
  C403     1.0000 0.52964  0.09683  0.30560  Biso   1.000  C
  H391     1.0000 0.54129  0.12469  0.36550  Biso   1.000  H
  C404     1.0000 0.59495  0.07963  0.26419  Biso   1.000  C
  H392     1.0000 0.65190  0.09600  0.29560  Biso   1.000  H
  H393     1.0000 0.63450  0.04131  0.37529  Biso   1.000  H
  C405     1.0000 0.69440  0.02965  0.40319  Biso   1.000  C
  H394     1.0000 0.70440  0.15188  0.40398  Biso   1.000  H
  C406     1.0000 0.73581  0.09494  0.42036  Biso   1.000  C
  C407     1.0000 0.16600  0.99678  0.47428  Biso   1.000  C
  C408     1.0000 0.11904  0.01846  0.53522  Biso   1.000  C
  H395     1.0000 0.17151  0.97410  0.54059  Biso   1.000  H
  C409     1.0000 0.50324  0.97430  0.83400  Biso   1.000  C
  H396     1.0000 0.52588  0.04061  0.82849  Biso   1.000  H
  C410     1.0000 0.48152  0.03523  0.88096  Biso   1.000  C
  C411     1.0000 0.54866  0.07940  0.26714  Biso   1.000  C
  H397     1.0000 0.49819  0.09739  0.30828  Biso   1.000  H
  H398     1.0000 0.60900  0.06830  0.23829  Biso   1.000  H
  C412     1.0000 0.73286  0.04865  0.42059  Biso   1.000  C
  H399     1.0000 0.69172  0.99821  0.40259  Biso   1.000  H
  H400     1.0000 0.76171  0.10902  0.43171  Biso   1.000  H
  N55      1.0000 0.19920  0.96467  0.45984  Biso   1.000  N
  H401     1.0000 0.17151  0.02590  0.45941  Biso   1.000  H
  C413     1.0000 0.11904  0.98154  0.46478  Biso   1.000  C
  C414     1.0000 0.09261  0.01149  0.49391  Biso   1.000  C
  C415     1.0000 0.09261  0.98851  0.50609  Biso   1.000  C
  H402     1.0000 0.10619  0.00110  0.55999  Biso   1.000  H
  H403     1.0000 0.11891  0.05031  0.54362  Biso   1.000  H
  N56      1.0000 0.53531  0.95985  0.80080  Biso   1.000  N
  H404     1.0000 0.47412  0.95939  0.82849  Biso   1.000  H
  C416     1.0000 0.51848  0.96477  0.88096  Biso   1.000  C
  H405     1.0000 0.49889  0.06000  0.89381  Biso   1.000  H
  H406     1.0000 0.44971  0.04360  0.88109  Biso   1.000  H
  C417     1.0000 0.51151  0.00608  0.90739  Biso   1.000  C
  C418     1.0000 0.48849  0.99392  0.90739  Biso   1.000  C
  C419     1.0000 0.52054  0.06176  0.23101  Biso   1.000  C
  C420     1.0000 0.76899  0.02055  0.43822  Biso   1.000  C
  C421     1.0000 0.23101  0.97945  0.43822  Biso   1.000  C
  H407     1.0000 0.10619  0.99890  0.44001  Biso   1.000  H
  H408     1.0000 0.11891  0.94969  0.45638  Biso   1.000  H
  H409     1.0000 0.08710  0.04021  0.47880  Biso   1.000  H
  H410     1.0000 0.06359  0.00219  0.49889  Biso   1.000  H
  H411     1.0000 0.06359  0.99781  0.50111  Biso   1.000  H
  H412     1.0000 0.08710  0.95979  0.52120  Biso   1.000  H
  C422     1.0000 0.52054  0.93824  0.76899  Biso   1.000  C
  H413     1.0000 0.50111  0.94000  0.89381  Biso   1.000  H
  H414     1.0000 0.55029  0.95640  0.88109  Biso   1.000  H
  H415     1.0000 0.50221  0.00110  0.93641  Biso   1.000  H
  H416     1.0000 0.54020  0.02119  0.91290  Biso   1.000  H
  H417     1.0000 0.49779  0.99890  0.93641  Biso   1.000  H
  H418     1.0000 0.45980  0.97881  0.91290  Biso   1.000  H
  N57      1.0000 0.53531  0.04015  0.19920  Biso   1.000  N
  H419     1.0000 0.48949  0.06731  0.23221  Biso   1.000  H
  N58      1.0000 0.80080  0.03533  0.45984  Biso   1.000  N
  H420     1.0000 0.76779  0.98951  0.43271  Biso   1.000  H
  C423     1.0000 0.26714  0.95135  0.42059  Biso   1.000  C
  H421     1.0000 0.23221  0.01049  0.43271  Biso   1.000  H
  C424     1.0000 0.54866  0.92060  0.73286  Biso   1.000  C
  H422     1.0000 0.48949  0.93269  0.76779  Biso   1.000  H
  C425     1.0000 0.50324  0.02570  0.16600  Biso   1.000  C
  C426     1.0000 0.83400  0.00322  0.47428  Biso   1.000  C
  C427     1.0000 0.30560  0.97035  0.40319  Biso   1.000  C
  C428     1.0000 0.26419  0.90506  0.42036  Biso   1.000  C
  C429     1.0000 0.52964  0.90317  0.69440  Biso   1.000  C
  C430     1.0000 0.59495  0.92037  0.73581  Biso   1.000  C
  H423     1.0000 0.47412  0.04061  0.17151  Biso   1.000  H
  C431     1.0000 0.51848  0.03523  0.11904  Biso   1.000  C
  C432     1.0000 0.49676  0.97430  0.16600  Biso   1.000  C
  C433     1.0000 0.88096  0.01846  0.46478  Biso   1.000  C
  C434     1.0000 0.83400  0.99678  0.52572  Biso   1.000  C
  H424     1.0000 0.82849  0.97410  0.45941  Biso   1.000  H
  C435     1.0000 0.33973  0.94471  0.38685  Biso   1.000  C
  H425     1.0000 0.30828  0.00179  0.40259  Biso   1.000  H
  C436     1.0000 0.29839  0.87953  0.40389  Biso   1.000  C
  H426     1.0000 0.23829  0.89098  0.43171  Biso   1.000  H
  C437     1.0000 0.55527  0.88687  0.66027  Biso   1.000  C
  H427     1.0000 0.49819  0.90261  0.69172  Biso   1.000  H
  C438     1.0000 0.62045  0.90387  0.70161  Biso   1.000  C
  H428     1.0000 0.60900  0.93170  0.76171  Biso   1.000  H
  H429     1.0000 0.50111  0.06000  0.10619  Biso   1.000  H
  H430     1.0000 0.55029  0.04360  0.11891  Biso   1.000  H
  C439     1.0000 0.48849  0.00608  0.09261  Biso   1.000  C
  C440     1.0000 0.51151  0.99392  0.09261  Biso   1.000  C
  N59      1.0000 0.46469  0.95985  0.19920  Biso   1.000  N
  H431     1.0000 0.52588  0.95939  0.17151  Biso   1.000  H
  C441     1.0000 0.48152  0.96477  0.11904  Biso   1.000  C
  H432     1.0000 0.89381  0.00110  0.44001  Biso   1.000  H
  H433     1.0000 0.88109  0.05031  0.45638  Biso   1.000  H
  C442     1.0000 0.90739  0.01149  0.50609  Biso   1.000  C
  C443     1.0000 0.90739  0.98851  0.49391  Biso   1.000  C
  H434     1.0000 0.82849  0.02590  0.54059  Biso   1.000  H
  N60      1.0000 0.80080  0.96467  0.54016  Biso   1.000  N
  C444     1.0000 0.88096  0.98154  0.53522  Biso   1.000  C
  C445     1.0000 0.33697  0.89859  0.38698  Biso   1.000  C
  H435     1.0000 0.36550  0.95869  0.37529  Biso   1.000  H
  H436     1.0000 0.29560  0.84812  0.40398  Biso   1.000  H
  C446     1.0000 0.60139  0.88697  0.66303  Biso   1.000  C
  H437     1.0000 0.54129  0.87531  0.63450  Biso   1.000  H
  H438     1.0000 0.65190  0.90400  0.70440  Biso   1.000  H
  H439     1.0000 0.49779  0.00110  0.06359  Biso   1.000  H
  H440     1.0000 0.45980  0.02119  0.08710  Biso   1.000  H
  H441     1.0000 0.50221  0.99890  0.06359  Biso   1.000  H
  H442     1.0000 0.54020  0.97881  0.08710  Biso   1.000  H
  C447     1.0000 0.47946  0.93824  0.23101  Biso   1.000  C
  H443     1.0000 0.49889  0.94000  0.10619  Biso   1.000  H
  H444     1.0000 0.44971  0.95640  0.11891  Biso   1.000  H
  H445     1.0000 0.93641  0.00219  0.50111  Biso   1.000  H
  H446     1.0000 0.91290  0.04021  0.52120  Biso   1.000  H
  H447     1.0000 0.93641  0.99781  0.49889  Biso   1.000  H
  H448     1.0000 0.91290  0.95979  0.47880  Biso   1.000  H
  C448     1.0000 0.76899  0.97945  0.56178  Biso   1.000  C
  H449     1.0000 0.89381  0.99890  0.55999  Biso   1.000  H
  H450     1.0000 0.88109  0.94969  0.54362  Biso   1.000  H
  N61      1.0000 0.37085  0.87083  0.37085  Biso   1.000  N
  N62      1.0000 0.62915  0.87083  0.62915  Biso   1.000  N
  H451     1.0000 0.51051  0.93269  0.23221  Biso   1.000  H
  C449     1.0000 0.45134  0.92060  0.26714  Biso   1.000  C
  H452     1.0000 0.76779  0.01049  0.56729  Biso   1.000  H
  C450     1.0000 0.73286  0.95135  0.57941  Biso   1.000  C
  C451     1.0000 0.39861  0.88697  0.33697  Biso   1.000  C
  C452     1.0000 0.38698  0.83696  0.39861  Biso   1.000  C
  C453     1.0000 0.66303  0.89859  0.61302  Biso   1.000  C
  C454     1.0000 0.61302  0.83696  0.60139  Biso   1.000  C
  C455     1.0000 0.40505  0.92037  0.26419  Biso   1.000  C
  C456     1.0000 0.47036  0.90317  0.30560  Biso   1.000  C
  C457     1.0000 0.73581  0.90506  0.57964  Biso   1.000  C
  C458     1.0000 0.69440  0.97035  0.59681  Biso   1.000  C
  C459     1.0000 0.37955  0.90387  0.29839  Biso   1.000  C
  C460     1.0000 0.44473  0.88687  0.33973  Biso   1.000  C
  C461     1.0000 0.38685  0.83971  0.44473  Biso   1.000  C
  C462     1.0000 0.40389  0.79841  0.37955  Biso   1.000  C
  C463     1.0000 0.70161  0.87953  0.59611  Biso   1.000  C
  C464     1.0000 0.66027  0.94471  0.61315  Biso   1.000  C
  C465     1.0000 0.61315  0.83971  0.55527  Biso   1.000  C
  C466     1.0000 0.59611  0.79841  0.62045  Biso   1.000  C
  H453     1.0000 0.39100  0.93170  0.23829  Biso   1.000  H
  H454     1.0000 0.50181  0.90261  0.30828  Biso   1.000  H
  H455     1.0000 0.76171  0.89098  0.56829  Biso   1.000  H
  H456     1.0000 0.69172  0.00179  0.59741  Biso   1.000  H
  H457     1.0000 0.34810  0.90400  0.29560  Biso   1.000  H
  H458     1.0000 0.45871  0.87531  0.36550  Biso   1.000  H
  H459     1.0000 0.37529  0.86552  0.45871  Biso   1.000  H
  C467     1.0000 0.40319  0.80558  0.47036  Biso   1.000  C
  H460     1.0000 0.40398  0.79558  0.34810  Biso   1.000  H
  C468     1.0000 0.42036  0.76420  0.40505  Biso   1.000  C
  H461     1.0000 0.70440  0.84812  0.59602  Biso   1.000  H
  H462     1.0000 0.63450  0.95869  0.62471  Biso   1.000  H
  H463     1.0000 0.62471  0.86552  0.54129  Biso   1.000  H
  C469     1.0000 0.59681  0.80558  0.52964  Biso   1.000  C
  H464     1.0000 0.59602  0.79558  0.65190  Biso   1.000  H
  C470     1.0000 0.57964  0.76420  0.59495  Biso   1.000  C
  C471     1.0000 0.42059  0.76713  0.45134  Biso   1.000  C
  H465     1.0000 0.40259  0.80830  0.50181  Biso   1.000  H
  H466     1.0000 0.43171  0.73830  0.39100  Biso   1.000  H
  C472     1.0000 0.57941  0.76713  0.54866  Biso   1.000  C
  H467     1.0000 0.59741  0.80830  0.49819  Biso   1.000  H
  H468     1.0000 0.56829  0.73830  0.60900  Biso   1.000  H
  C473     1.0000 0.43822  0.73103  0.47946  Biso   1.000  C
  C474     1.0000 0.56178  0.73103  0.52054  Biso   1.000  C
  N63      1.0000 0.45984  0.69922  0.46469  Biso   1.000  N
  H469     1.0000 0.43271  0.73219  0.51051  Biso   1.000  H
  N64      1.0000 0.54016  0.69922  0.53531  Biso   1.000  N
  H470     1.0000 0.56729  0.73219  0.48949  Biso   1.000  H
  C475     1.0000 0.47428  0.66601  0.49676  Biso   1.000  C
  C476     1.0000 0.52572  0.66601  0.50324  Biso   1.000  C
  H471     1.0000 0.45941  0.67149  0.52588  Biso   1.000  H
  C477     1.0000 0.46478  0.61903  0.48152  Biso   1.000  C
  H472     1.0000 0.54059  0.67149  0.47412  Biso   1.000  H
  C478     1.0000 0.53522  0.61903  0.51848  Biso   1.000  C
  H473     1.0000 0.44001  0.60621  0.49889  Biso   1.000  H
  H474     1.0000 0.45638  0.61889  0.44971  Biso   1.000  H
  C479     1.0000 0.50609  0.59260  0.48849  Biso   1.000  C
  C480     1.0000 0.49391  0.59260  0.51151  Biso   1.000  C
  H475     1.0000 0.55999  0.60621  0.50111  Biso   1.000  H
  H476     1.0000 0.54362  0.61889  0.55029  Biso   1.000  H
  H477     1.0000 0.50111  0.56361  0.49779  Biso   1.000  H
  H478     1.0000 0.49889  0.56361  0.50221  Biso   1.000  H
  H479     1.0000 0.52120  0.58712  0.45980  Biso   1.000  H
  H480     1.0000 0.47880  0.58712  0.54020  Biso   1.000  H
  C481     1.0000 0.43822  0.26897  0.52054  Biso   1.000  C
  N65      1.0000 0.45984  0.30078  0.53531  Biso   1.000  N
  H481     1.0000 0.43271  0.26781  0.48949  Biso   1.000  H
  C482     1.0000 0.42059  0.23287  0.54866  Biso   1.000  C
  C483     1.0000 0.47428  0.33399  0.50324  Biso   1.000  C
  C484     1.0000 0.42036  0.23580  0.59495  Biso   1.000  C
  C485     1.0000 0.40319  0.19442  0.52964  Biso   1.000  C
  C486     1.0000 0.52572  0.33399  0.49676  Biso   1.000  C
  H482     1.0000 0.45941  0.32851  0.47412  Biso   1.000  H
  C487     1.0000 0.46478  0.38097  0.51848  Biso   1.000  C
  C488     1.0000 0.40389  0.20159  0.62045  Biso   1.000  C
  H483     1.0000 0.43171  0.26170  0.60900  Biso   1.000  H
  C489     1.0000 0.38685  0.16029  0.55527  Biso   1.000  C
  H484     1.0000 0.40259  0.19170  0.49819  Biso   1.000  H
  N66      1.0000 0.54016  0.30078  0.46469  Biso   1.000  N
  H485     1.0000 0.54059  0.32851  0.52588  Biso   1.000  H
  C490     1.0000 0.53522  0.38097  0.48152  Biso   1.000  C
  C491     1.0000 0.50609  0.40740  0.51151  Biso   1.000  C
  C492     1.0000 0.49391  0.40740  0.48849  Biso   1.000  C
  H486     1.0000 0.44001  0.39379  0.50111  Biso   1.000  H
  H487     1.0000 0.45638  0.38111  0.55029  Biso   1.000  H
  C493     1.0000 0.38698  0.16304  0.60139  Biso   1.000  C
  H488     1.0000 0.40398  0.20442  0.65190  Biso   1.000  H
  H489     1.0000 0.37529  0.13448  0.54129  Biso   1.000  H
  C494     1.0000 0.56178  0.26897  0.47946  Biso   1.000  C
  H490     1.0000 0.55999  0.39379  0.49889  Biso   1.000  H
  H491     1.0000 0.54362  0.38111  0.44971  Biso   1.000  H
  H492     1.0000 0.50111  0.43639  0.50221  Biso   1.000  H
  H493     1.0000 0.49889  0.43639  0.49779  Biso   1.000  H
  H494     1.0000 0.52120  0.41288  0.54020  Biso   1.000  H
  H495     1.0000 0.47880  0.41288  0.45980  Biso   1.000  H
  N67      1.0000 0.37085  0.12917  0.62915  Biso   1.000  N
  C495     1.0000 0.57941  0.23287  0.45134  Biso   1.000  C
  H496     1.0000 0.56729  0.26781  0.51051  Biso   1.000  H
  C496     1.0000 0.33697  0.10141  0.61302  Biso   1.000  C
  C497     1.0000 0.39861  0.11303  0.66303  Biso   1.000  C
  C498     1.0000 0.59681  0.19442  0.47036  Biso   1.000  C
  C499     1.0000 0.57964  0.23580  0.40505  Biso   1.000  C
  C500     1.0000 0.33973  0.05529  0.61315  Biso   1.000  C
  C501     1.0000 0.29839  0.12047  0.59611  Biso   1.000  C
  C502     1.0000 0.44473  0.11313  0.66027  Biso   1.000  C
  C503     1.0000 0.37955  0.09613  0.70161  Biso   1.000  C
  C504     1.0000 0.61315  0.16029  0.44473  Biso   1.000  C
  H497     1.0000 0.59741  0.19170  0.50181  Biso   1.000  H
  C505     1.0000 0.59611  0.20159  0.37955  Biso   1.000  C
  H498     1.0000 0.56829  0.26170  0.39100  Biso   1.000  H
  H499     1.0000 0.36550  0.04131  0.62471  Biso   1.000  H
  C506     1.0000 0.30560  0.02965  0.59681  Biso   1.000  C
  H500     1.0000 0.29560  0.15188  0.59602  Biso   1.000  H
  C507     1.0000 0.26419  0.09494  0.57964  Biso   1.000  C
  H501     1.0000 0.45871  0.12469  0.63450  Biso   1.000  H
  C508     1.0000 0.47036  0.09683  0.69440  Biso   1.000  C
  H502     1.0000 0.34810  0.09600  0.70440  Biso   1.000  H
  C509     1.0000 0.40505  0.07963  0.73581  Biso   1.000  C
  C510     1.0000 0.61302  0.16304  0.39861  Biso   1.000  C
  H503     1.0000 0.62471  0.13448  0.45871  Biso   1.000  H
  H504     1.0000 0.59602  0.20442  0.34810  Biso   1.000  H
  C511     1.0000 0.26714  0.04865  0.57941  Biso   1.000  C
  H505     1.0000 0.30828  0.99821  0.59741  Biso   1.000  H
  H506     1.0000 0.23829  0.10902  0.56829  Biso   1.000  H
  C512     1.0000 0.45134  0.07940  0.73286  Biso   1.000  C
  H507     1.0000 0.50181  0.09739  0.69172  Biso   1.000  H
  H508     1.0000 0.39100  0.06830  0.76171  Biso   1.000  H
  N68      1.0000 0.62915  0.12917  0.37085  Biso   1.000  N
  C513     1.0000 0.23101  0.02055  0.56178  Biso   1.000  C
  C514     1.0000 0.47946  0.06176  0.76899  Biso   1.000  C
  C515     1.0000 0.60139  0.11303  0.33697  Biso   1.000  C
  C516     1.0000 0.66303  0.10141  0.38698  Biso   1.000  C
  N69      1.0000 0.19920  0.03533  0.54016  Biso   1.000  N
  H509     1.0000 0.23221  0.98951  0.56729  Biso   1.000  H
  N70      1.0000 0.46469  0.04015  0.80080  Biso   1.000  N
  H510     1.0000 0.51051  0.06731  0.76779  Biso   1.000  H
  C517     1.0000 0.55527  0.11313  0.33973  Biso   1.000  C
  C518     1.0000 0.62045  0.09613  0.29839  Biso   1.000  C
  C519     1.0000 0.66027  0.05529  0.38685  Biso   1.000  C
  C520     1.0000 0.70161  0.12047  0.40389  Biso   1.000  C
  C521     1.0000 0.16600  0.00322  0.52572  Biso   1.000  C
  C522     1.0000 0.49676  0.02570  0.83400  Biso   1.000  C
  C523     1.0000 0.52964  0.09683  0.30560  Biso   1.000  C
  H511     1.0000 0.54129  0.12469  0.36550  Biso   1.000  H
  C524     1.0000 0.59495  0.07963  0.26419  Biso   1.000  C
  H512     1.0000 0.65190  0.09600  0.29560  Biso   1.000  H
  H513     1.0000 0.63450  0.04131  0.37529  Biso   1.000  H
  C525     1.0000 0.69440  0.02965  0.40319  Biso   1.000  C
  H514     1.0000 0.70440  0.15188  0.40398  Biso   1.000  H
  C526     1.0000 0.73581  0.09494  0.42036  Biso   1.000  C
  C527     1.0000 0.16600  0.99678  0.47428  Biso   1.000  C
  C528     1.0000 0.11904  0.01846  0.53522  Biso   1.000  C
  H515     1.0000 0.17151  0.97410  0.54059  Biso   1.000  H
  C529     1.0000 0.50324  0.97430  0.83400  Biso   1.000  C
  H516     1.0000 0.52588  0.04061  0.82849  Biso   1.000  H
  C530     1.0000 0.48152  0.03523  0.88096  Biso   1.000  C
  C531     1.0000 0.54866  0.07940  0.26714  Biso   1.000  C
  H517     1.0000 0.49819  0.09739  0.30828  Biso   1.000  H
  H518     1.0000 0.60900  0.06830  0.23829  Biso   1.000  H
  C532     1.0000 0.73286  0.04865  0.42059  Biso   1.000  C
  H519     1.0000 0.69172  0.99821  0.40259  Biso   1.000  H
  H520     1.0000 0.76171  0.10902  0.43171  Biso   1.000  H
  N71      1.0000 0.19920  0.96467  0.45984  Biso   1.000  N
  H521     1.0000 0.17151  0.02590  0.45941  Biso   1.000  H
  C533     1.0000 0.11904  0.98154  0.46478  Biso   1.000  C
  C534     1.0000 0.09261  0.01149  0.49391  Biso   1.000  C
  C535     1.0000 0.09261  0.98851  0.50609  Biso   1.000  C
  H522     1.0000 0.10619  0.00110  0.55999  Biso   1.000  H
  H523     1.0000 0.11891  0.05031  0.54362  Biso   1.000  H
  N72      1.0000 0.53531  0.95985  0.80080  Biso   1.000  N
  H524     1.0000 0.47412  0.95939  0.82849  Biso   1.000  H
  C536     1.0000 0.51848  0.96477  0.88096  Biso   1.000  C
  H525     1.0000 0.49889  0.06000  0.89381  Biso   1.000  H
  H526     1.0000 0.44971  0.04360  0.88109  Biso   1.000  H
  C537     1.0000 0.51151  0.00608  0.90739  Biso   1.000  C
  C538     1.0000 0.48849  0.99392  0.90739  Biso   1.000  C
  C539     1.0000 0.52054  0.06176  0.23101  Biso   1.000  C
  C540     1.0000 0.76899  0.02055  0.43822  Biso   1.000  C
  C541     1.0000 0.23101  0.97945  0.43822  Biso   1.000  C
  H527     1.0000 0.10619  0.99890  0.44001  Biso   1.000  H
  H528     1.0000 0.11891  0.94969  0.45638  Biso   1.000  H
  H529     1.0000 0.06359  0.99781  0.50111  Biso   1.000  H
  H530     1.0000 0.08710  0.04021  0.47880  Biso   1.000  H
  H531     1.0000 0.06359  0.00219  0.49889  Biso   1.000  H
  H532     1.0000 0.08710  0.95979  0.52120  Biso   1.000  H
  C542     1.0000 0.52054  0.93824  0.76899  Biso   1.000  C
  H533     1.0000 0.50111  0.94000  0.89381  Biso   1.000  H
  H534     1.0000 0.55029  0.95640  0.88109  Biso   1.000  H
  H535     1.0000 0.49779  0.99890  0.93641  Biso   1.000  H
  H536     1.0000 0.50221  0.00110  0.93641  Biso   1.000  H
  H537     1.0000 0.54020  0.02119  0.91290  Biso   1.000  H
  H538     1.0000 0.45980  0.97881  0.91290  Biso   1.000  H
  N73      1.0000 0.53531  0.04015  0.19920  Biso   1.000  N
  H539     1.0000 0.48949  0.06731  0.23221  Biso   1.000  H
  N74      1.0000 0.80080  0.03533  0.45984  Biso   1.000  N
  H540     1.0000 0.76779  0.98951  0.43271  Biso   1.000  H
  C543     1.0000 0.26714  0.95135  0.42059  Biso   1.000  C
  H541     1.0000 0.23221  0.01049  0.43271  Biso   1.000  H
  C544     1.0000 0.54866  0.92060  0.73286  Biso   1.000  C
  H542     1.0000 0.48949  0.93269  0.76779  Biso   1.000  H
  C545     1.0000 0.50324  0.02570  0.16600  Biso   1.000  C
  C546     1.0000 0.83400  0.00322  0.47428  Biso   1.000  C
  C547     1.0000 0.30560  0.97035  0.40319  Biso   1.000  C
  C548     1.0000 0.26419  0.90506  0.42036  Biso   1.000  C
  C549     1.0000 0.52964  0.90317  0.69440  Biso   1.000  C
  C550     1.0000 0.59495  0.92037  0.73581  Biso   1.000  C
  H543     1.0000 0.47412  0.04061  0.17151  Biso   1.000  H
  C551     1.0000 0.51848  0.03523  0.11904  Biso   1.000  C
  C552     1.0000 0.49676  0.97430  0.16600  Biso   1.000  C
  C553     1.0000 0.88096  0.01846  0.46478  Biso   1.000  C
  C554     1.0000 0.83400  0.99678  0.52572  Biso   1.000  C
  H544     1.0000 0.82849  0.97410  0.45941  Biso   1.000  H
  C555     1.0000 0.33973  0.94471  0.38685  Biso   1.000  C
  H545     1.0000 0.30828  0.00179  0.40259  Biso   1.000  H
  C556     1.0000 0.29839  0.87953  0.40389  Biso   1.000  C
  H546     1.0000 0.23829  0.89098  0.43171  Biso   1.000  H
  C557     1.0000 0.55527  0.88687  0.66027  Biso   1.000  C
  H547     1.0000 0.49819  0.90261  0.69172  Biso   1.000  H
  C558     1.0000 0.62045  0.90387  0.70161  Biso   1.000  C
  H548     1.0000 0.60900  0.93170  0.76171  Biso   1.000  H
  H549     1.0000 0.50111  0.06000  0.10619  Biso   1.000  H
  H550     1.0000 0.55029  0.04360  0.11891  Biso   1.000  H
  C559     1.0000 0.48849  0.00608  0.09261  Biso   1.000  C
  C560     1.0000 0.51151  0.99392  0.09261  Biso   1.000  C
  N75      1.0000 0.46469  0.95985  0.19920  Biso   1.000  N
  H551     1.0000 0.52588  0.95939  0.17151  Biso   1.000  H
  C561     1.0000 0.48152  0.96477  0.11904  Biso   1.000  C
  H552     1.0000 0.89381  0.00110  0.44001  Biso   1.000  H
  H553     1.0000 0.88109  0.05031  0.45638  Biso   1.000  H
  C562     1.0000 0.90739  0.01149  0.50609  Biso   1.000  C
  C563     1.0000 0.90739  0.98851  0.49391  Biso   1.000  C
  H554     1.0000 0.82849  0.02590  0.54059  Biso   1.000  H
  N76      1.0000 0.80080  0.96467  0.54016  Biso   1.000  N
  C564     1.0000 0.88096  0.98154  0.53522  Biso   1.000  C
  C565     1.0000 0.33697  0.89859  0.38698  Biso   1.000  C
  H555     1.0000 0.36550  0.95869  0.37529  Biso   1.000  H
  H556     1.0000 0.29560  0.84812  0.40398  Biso   1.000  H
  C566     1.0000 0.60139  0.88697  0.66303  Biso   1.000  C
  H557     1.0000 0.54129  0.87531  0.63450  Biso   1.000  H
  H558     1.0000 0.65190  0.90400  0.70440  Biso   1.000  H
  H559     1.0000 0.50221  0.99890  0.06359  Biso   1.000  H
  H560     1.0000 0.49779  0.00110  0.06359  Biso   1.000  H
  H561     1.0000 0.45980  0.02119  0.08710  Biso   1.000  H
  H562     1.0000 0.54020  0.97881  0.08710  Biso   1.000  H
  C567     1.0000 0.47946  0.93824  0.23101  Biso   1.000  C
  H563     1.0000 0.49889  0.94000  0.10619  Biso   1.000  H
  H564     1.0000 0.44971  0.95640  0.11891  Biso   1.000  H
  H565     1.0000 0.93641  0.99781  0.49889  Biso   1.000  H
  H566     1.0000 0.93641  0.00219  0.50111  Biso   1.000  H
  H567     1.0000 0.91290  0.04021  0.52120  Biso   1.000  H
  H568     1.0000 0.91290  0.95979  0.47880  Biso   1.000  H
  C568     1.0000 0.76899  0.97945  0.56178  Biso   1.000  C
  H569     1.0000 0.89381  0.99890  0.55999  Biso   1.000  H
  H570     1.0000 0.88109  0.94969  0.54362  Biso   1.000  H
  N77      1.0000 0.37085  0.87083  0.37085  Biso   1.000  N
  N78      1.0000 0.62915  0.87083  0.62915  Biso   1.000  N
  H571     1.0000 0.51051  0.93269  0.23221  Biso   1.000  H
  C569     1.0000 0.45134  0.92060  0.26714  Biso   1.000  C
  H572     1.0000 0.76779  0.01049  0.56729  Biso   1.000  H
  C570     1.0000 0.73286  0.95135  0.57941  Biso   1.000  C
  C571     1.0000 0.39861  0.88697  0.33697  Biso   1.000  C
  C572     1.0000 0.38698  0.83696  0.39861  Biso   1.000  C
  C573     1.0000 0.66303  0.89859  0.61302  Biso   1.000  C
  C574     1.0000 0.61302  0.83696  0.60139  Biso   1.000  C
  C575     1.0000 0.40505  0.92037  0.26419  Biso   1.000  C
  C576     1.0000 0.47036  0.90317  0.30560  Biso   1.000  C
  C577     1.0000 0.73581  0.90506  0.57964  Biso   1.000  C
  C578     1.0000 0.69440  0.97035  0.59681  Biso   1.000  C
  C579     1.0000 0.37955  0.90387  0.29839  Biso   1.000  C
  C580     1.0000 0.44473  0.88687  0.33973  Biso   1.000  C
  C581     1.0000 0.38685  0.83971  0.44473  Biso   1.000  C
  C582     1.0000 0.40389  0.79841  0.37955  Biso   1.000  C
  C583     1.0000 0.70161  0.87953  0.59611  Biso   1.000  C
  C584     1.0000 0.66027  0.94471  0.61315  Biso   1.000  C
  C585     1.0000 0.61315  0.83971  0.55527  Biso   1.000  C
  C586     1.0000 0.59611  0.79841  0.62045  Biso   1.000  C
  H573     1.0000 0.39100  0.93170  0.23829  Biso   1.000  H
  H574     1.0000 0.50181  0.90261  0.30828  Biso   1.000  H
  H575     1.0000 0.76171  0.89098  0.56829  Biso   1.000  H
  H576     1.0000 0.69172  0.00179  0.59741  Biso   1.000  H
  H577     1.0000 0.34810  0.90400  0.29560  Biso   1.000  H
  H578     1.0000 0.45871  0.87531  0.36550  Biso   1.000  H
  H579     1.0000 0.37529  0.86552  0.45871  Biso   1.000  H
  C587     1.0000 0.40319  0.80558  0.47036  Biso   1.000  C
  H580     1.0000 0.40398  0.79558  0.34810  Biso   1.000  H
  C588     1.0000 0.42036  0.76420  0.40505  Biso   1.000  C
  H581     1.0000 0.70440  0.84812  0.59602  Biso   1.000  H
  H582     1.0000 0.63450  0.95869  0.62471  Biso   1.000  H
  H583     1.0000 0.62471  0.86552  0.54129  Biso   1.000  H
  C589     1.0000 0.59681  0.80558  0.52964  Biso   1.000  C
  H584     1.0000 0.59602  0.79558  0.65190  Biso   1.000  H
  C590     1.0000 0.57964  0.76420  0.59495  Biso   1.000  C
  C591     1.0000 0.42059  0.76713  0.45134  Biso   1.000  C
  H585     1.0000 0.40259  0.80830  0.50181  Biso   1.000  H
  H586     1.0000 0.43171  0.73830  0.39100  Biso   1.000  H
  C592     1.0000 0.57941  0.76713  0.54866  Biso   1.000  C
  H587     1.0000 0.59741  0.80830  0.49819  Biso   1.000  H
  H588     1.0000 0.56829  0.73830  0.60900  Biso   1.000  H
  C593     1.0000 0.43822  0.73103  0.47946  Biso   1.000  C
  C594     1.0000 0.56178  0.73103  0.52054  Biso   1.000  C
  N79      1.0000 0.45984  0.69922  0.46469  Biso   1.000  N
  H589     1.0000 0.43271  0.73219  0.51051  Biso   1.000  H
  N80      1.0000 0.54016  0.69922  0.53531  Biso   1.000  N
  H590     1.0000 0.56729  0.73219  0.48949  Biso   1.000  H
  C595     1.0000 0.47428  0.66601  0.49676  Biso   1.000  C
  C596     1.0000 0.52572  0.66601  0.50324  Biso   1.000  C
  H591     1.0000 0.45941  0.67149  0.52588  Biso   1.000  H
  C597     1.0000 0.46478  0.61903  0.48152  Biso   1.000  C
  H592     1.0000 0.54059  0.67149  0.47412  Biso   1.000  H
  C598     1.0000 0.53522  0.61903  0.51848  Biso   1.000  C
  H593     1.0000 0.44001  0.60621  0.49889  Biso   1.000  H
  H594     1.0000 0.45638  0.61889  0.44971  Biso   1.000  H
  C599     1.0000 0.50609  0.59260  0.48849  Biso   1.000  C
  C600     1.0000 0.49391  0.59260  0.51151  Biso   1.000  C
  H595     1.0000 0.55999  0.60621  0.50111  Biso   1.000  H
  H596     1.0000 0.54362  0.61889  0.55029  Biso   1.000  H
  H597     1.0000 0.50111  0.56361  0.49779  Biso   1.000  H
  H598     1.0000 0.49889  0.56361  0.50221  Biso   1.000  H
  H599     1.0000 0.52120  0.58712  0.45980  Biso   1.000  H
  H600     1.0000 0.47880  0.58712  0.54020  Biso   1.000  H
  C601     1.0000 0.26897  0.52054  0.43822  Biso   1.000  C
  C602     1.0000 0.23287  0.54866  0.42059  Biso   1.000  C
  N81      1.0000 0.30078  0.53531  0.45984  Biso   1.000  N
  H601     1.0000 0.26781  0.48949  0.43271  Biso   1.000  H
  C603     1.0000 0.19442  0.52964  0.40319  Biso   1.000  C
  C604     1.0000 0.23580  0.59495  0.42036  Biso   1.000  C
  C605     1.0000 0.33399  0.50324  0.47428  Biso   1.000  C
  C606     1.0000 0.16029  0.55527  0.38685  Biso   1.000  C
  H602     1.0000 0.19170  0.49819  0.40259  Biso   1.000  H
  C607     1.0000 0.20159  0.62045  0.40389  Biso   1.000  C
  H603     1.0000 0.26170  0.60900  0.43171  Biso   1.000  H
  C608     1.0000 0.33399  0.49676  0.52572  Biso   1.000  C
  H604     1.0000 0.32851  0.47412  0.45941  Biso   1.000  H
  C609     1.0000 0.38097  0.51848  0.46478  Biso   1.000  C
  C610     1.0000 0.16304  0.60139  0.38698  Biso   1.000  C
  H605     1.0000 0.13448  0.54129  0.37529  Biso   1.000  H
  H606     1.0000 0.20442  0.65190  0.40398  Biso   1.000  H
  N82      1.0000 0.30078  0.46469  0.54016  Biso   1.000  N
  H607     1.0000 0.32851  0.52588  0.54059  Biso   1.000  H
  C611     1.0000 0.38097  0.48152  0.53522  Biso   1.000  C
  H608     1.0000 0.39379  0.50111  0.44001  Biso   1.000  H
  H609     1.0000 0.38111  0.55029  0.45638  Biso   1.000  H
  C612     1.0000 0.40740  0.51151  0.50609  Biso   1.000  C
  C613     1.0000 0.40740  0.48849  0.49391  Biso   1.000  C
  N83      1.0000 0.12917  0.62915  0.37085  Biso   1.000  N
  C614     1.0000 0.26897  0.47946  0.56178  Biso   1.000  C
  H610     1.0000 0.39379  0.49889  0.55999  Biso   1.000  H
  H611     1.0000 0.38111  0.44971  0.54362  Biso   1.000  H
  H612     1.0000 0.43639  0.50221  0.50111  Biso   1.000  H
  H613     1.0000 0.43639  0.49779  0.49889  Biso   1.000  H
  H614     1.0000 0.41288  0.54020  0.52120  Biso   1.000  H
  H615     1.0000 0.41288  0.45980  0.47880  Biso   1.000  H
  C615     1.0000 0.10141  0.61302  0.33697  Biso   1.000  C
  C616     1.0000 0.11303  0.66303  0.39861  Biso   1.000  C
  H616     1.0000 0.26781  0.51051  0.56729  Biso   1.000  H
  C617     1.0000 0.23287  0.45134  0.57941  Biso   1.000  C
  C618     1.0000 0.05529  0.61315  0.33973  Biso   1.000  C
  C619     1.0000 0.12047  0.59611  0.29839  Biso   1.000  C
  C620     1.0000 0.11313  0.66027  0.44473  Biso   1.000  C
  C621     1.0000 0.09613  0.70161  0.37955  Biso   1.000  C
  C622     1.0000 0.23580  0.40505  0.57964  Biso   1.000  C
  C623     1.0000 0.19442  0.47036  0.59681  Biso   1.000  C
  H617     1.0000 0.04131  0.62471  0.36550  Biso   1.000  H
  C624     1.0000 0.02965  0.59681  0.30560  Biso   1.000  C
  H618     1.0000 0.15188  0.59602  0.29560  Biso   1.000  H
  C625     1.0000 0.09494  0.57964  0.26419  Biso   1.000  C
  H619     1.0000 0.12469  0.63450  0.45871  Biso   1.000  H
  C626     1.0000 0.09683  0.69440  0.47036  Biso   1.000  C
  H620     1.0000 0.09600  0.70440  0.34810  Biso   1.000  H
  C627     1.0000 0.07963  0.73581  0.40505  Biso   1.000  C
  C628     1.0000 0.20159  0.37955  0.59611  Biso   1.000  C
  H621     1.0000 0.26170  0.39100  0.56829  Biso   1.000  H
  C629     1.0000 0.16029  0.44473  0.61315  Biso   1.000  C
  H622     1.0000 0.19170  0.50181  0.59741  Biso   1.000  H
  C630     1.0000 0.04865  0.57941  0.26714  Biso   1.000  C
  H623     1.0000 0.99821  0.59741  0.30828  Biso   1.000  H
  H624     1.0000 0.10902  0.56829  0.23829  Biso   1.000  H
  C631     1.0000 0.07940  0.73286  0.45134  Biso   1.000  C
  H625     1.0000 0.09739  0.69172  0.50181  Biso   1.000  H
  H626     1.0000 0.06830  0.76171  0.39100  Biso   1.000  H
  C632     1.0000 0.16304  0.39861  0.61302  Biso   1.000  C
  H627     1.0000 0.20442  0.34810  0.59602  Biso   1.000  H
  H628     1.0000 0.13448  0.45871  0.62471  Biso   1.000  H
  C633     1.0000 0.02055  0.56178  0.23101  Biso   1.000  C
  C634     1.0000 0.06176  0.76899  0.47946  Biso   1.000  C
  N84      1.0000 0.12917  0.37085  0.62915  Biso   1.000  N
  N85      1.0000 0.03533  0.54016  0.19920  Biso   1.000  N
  H629     1.0000 0.98951  0.56729  0.23221  Biso   1.000  H
  N86      1.0000 0.04015  0.80080  0.46469  Biso   1.000  N
  H630     1.0000 0.06731  0.76779  0.51051  Biso   1.000  H
  C635     1.0000 0.10141  0.38698  0.66303  Biso   1.000  C
  C636     1.0000 0.11303  0.33697  0.60139  Biso   1.000  C
  C637     1.0000 0.00322  0.52572  0.16600  Biso   1.000  C
  C638     1.0000 0.02570  0.83400  0.49676  Biso   1.000  C
  C639     1.0000 0.05529  0.38685  0.66027  Biso   1.000  C
  C640     1.0000 0.12047  0.40389  0.70161  Biso   1.000  C
  C641     1.0000 0.11313  0.33973  0.55527  Biso   1.000  C
  C642     1.0000 0.09613  0.29839  0.62045  Biso   1.000  C
  C643     1.0000 0.01846  0.53522  0.11904  Biso   1.000  C
  C644     1.0000 0.99678  0.47428  0.16600  Biso   1.000  C
  H631     1.0000 0.97410  0.54059  0.17151  Biso   1.000  H
  H632     1.0000 0.04061  0.82849  0.52588  Biso   1.000  H
  C645     1.0000 0.03523  0.88096  0.48152  Biso   1.000  C
  C646     1.0000 0.97430  0.83400  0.50324  Biso   1.000  C
  H633     1.0000 0.04131  0.37529  0.63450  Biso   1.000  H
  C647     1.0000 0.02965  0.40319  0.69440  Biso   1.000  C
  H634     1.0000 0.15188  0.40398  0.70440  Biso   1.000  H
  C648     1.0000 0.09494  0.42036  0.73581  Biso   1.000  C
  H635     1.0000 0.12469  0.36550  0.54129  Biso   1.000  H
  C649     1.0000 0.09683  0.30560  0.52964  Biso   1.000  C
  H636     1.0000 0.09600  0.29560  0.65190  Biso   1.000  H
  C650     1.0000 0.07963  0.26419  0.59495  Biso   1.000  C
  H637     1.0000 0.00110  0.55999  0.10619  Biso   1.000  H
  H638     1.0000 0.05031  0.54362  0.11891  Biso   1.000  H
  C651     1.0000 0.01149  0.49391  0.09261  Biso   1.000  C
  C652     1.0000 0.98851  0.50609  0.09261  Biso   1.000  C
  H639     1.0000 0.02590  0.45941  0.17151  Biso   1.000  H
  N87      1.0000 0.96467  0.45984  0.19920  Biso   1.000  N
  C653     1.0000 0.98154  0.46478  0.11904  Biso   1.000  C
  H640     1.0000 0.06000  0.89381  0.49889  Biso   1.000  H
  H641     1.0000 0.04360  0.88109  0.44971  Biso   1.000  H
  C654     1.0000 0.00608  0.90739  0.51151  Biso   1.000  C
  C655     1.0000 0.99392  0.90739  0.48849  Biso   1.000  C
  N88      1.0000 0.95985  0.80080  0.53531  Biso   1.000  N
  H642     1.0000 0.95939  0.82849  0.47412  Biso   1.000  H
  C656     1.0000 0.96477  0.88096  0.51848  Biso   1.000  C
  C657     1.0000 0.04865  0.42059  0.73286  Biso   1.000  C
  H643     1.0000 0.99821  0.40259  0.69172  Biso   1.000  H
  H644     1.0000 0.10902  0.43171  0.76171  Biso   1.000  H
  C658     1.0000 0.07940  0.26714  0.54866  Biso   1.000  C
  H645     1.0000 0.09739  0.30828  0.49819  Biso   1.000  H
  H646     1.0000 0.06830  0.23829  0.60900  Biso   1.000  H
  H647     1.0000 0.04021  0.47880  0.08710  Biso   1.000  H
  H648     1.0000 0.00219  0.49889  0.06359  Biso   1.000  H
  H649     1.0000 0.99781  0.50111  0.06359  Biso   1.000  H
  H650     1.0000 0.95979  0.52120  0.08710  Biso   1.000  H
  C659     1.0000 0.97945  0.43822  0.23101  Biso   1.000  C
  H651     1.0000 0.99890  0.44001  0.10619  Biso   1.000  H
  H652     1.0000 0.94969  0.45638  0.11891  Biso   1.000  H
  H653     1.0000 0.00110  0.93641  0.50221  Biso   1.000  H
  H654     1.0000 0.02119  0.91290  0.54020  Biso   1.000  H
  H655     1.0000 0.99890  0.93641  0.49779  Biso   1.000  H
  H656     1.0000 0.97881  0.91290  0.45980  Biso   1.000  H
  C660     1.0000 0.93824  0.76899  0.52054  Biso   1.000  C
  H657     1.0000 0.94000  0.89381  0.50111  Biso   1.000  H
  H658     1.0000 0.95640  0.88109  0.55029  Biso   1.000  H
  C661     1.0000 0.02055  0.43822  0.76899  Biso   1.000  C
  C662     1.0000 0.06176  0.23101  0.52054  Biso   1.000  C
  H659     1.0000 0.01049  0.43271  0.23221  Biso   1.000  H
  C663     1.0000 0.95135  0.42059  0.26714  Biso   1.000  C
  H660     1.0000 0.93269  0.76779  0.48949  Biso   1.000  H
  C664     1.0000 0.92060  0.73286  0.54866  Biso   1.000  C
  N89      1.0000 0.03533  0.45984  0.80080  Biso   1.000  N
  H661     1.0000 0.98951  0.43271  0.76779  Biso   1.000  H
  N90      1.0000 0.04015  0.19920  0.53531  Biso   1.000  N
  H662     1.0000 0.06731  0.23221  0.48949  Biso   1.000  H
  C665     1.0000 0.90506  0.42036  0.26419  Biso   1.000  C
  C666     1.0000 0.97035  0.40319  0.30560  Biso   1.000  C
  C667     1.0000 0.92037  0.73581  0.59495  Biso   1.000  C
  C668     1.0000 0.90317  0.69440  0.52964  Biso   1.000  C
  C669     1.0000 0.00322  0.47428  0.83400  Biso   1.000  C
  C670     1.0000 0.02570  0.16600  0.50324  Biso   1.000  C
  C671     1.0000 0.87953  0.40389  0.29839  Biso   1.000  C
  H663     1.0000 0.89098  0.43171  0.23829  Biso   1.000  H
  H664     1.0000 0.00179  0.40259  0.30828  Biso   1.000  H
  C672     1.0000 0.94471  0.38685  0.33973  Biso   1.000  C
  C673     1.0000 0.90387  0.70161  0.62045  Biso   1.000  C
  H665     1.0000 0.93170  0.76171  0.60900  Biso   1.000  H
  C674     1.0000 0.88687  0.66027  0.55527  Biso   1.000  C
  H666     1.0000 0.90261  0.69172  0.49819  Biso   1.000  H
  C675     1.0000 0.01846  0.46478  0.88096  Biso   1.000  C
  C676     1.0000 0.99678  0.52572  0.83400  Biso   1.000  C
  H667     1.0000 0.97410  0.45941  0.82849  Biso   1.000  H
  H668     1.0000 0.04061  0.17151  0.47412  Biso   1.000  H
  C677     1.0000 0.03523  0.11904  0.51848  Biso   1.000  C
  C678     1.0000 0.97430  0.16600  0.49676  Biso   1.000  C
  C679     1.0000 0.89859  0.38698  0.33697  Biso   1.000  C
  H669     1.0000 0.84812  0.40398  0.29560  Biso   1.000  H
  H670     1.0000 0.95869  0.37529  0.36550  Biso   1.000  H
  C680     1.0000 0.88697  0.66303  0.60139  Biso   1.000  C
  H671     1.0000 0.90400  0.70440  0.65190  Biso   1.000  H
  H672     1.0000 0.87531  0.63450  0.54129  Biso   1.000  H
  H673     1.0000 0.00110  0.44001  0.89381  Biso   1.000  H
  H674     1.0000 0.05031  0.45638  0.88109  Biso   1.000  H
  C681     1.0000 0.01149  0.50609  0.90739  Biso   1.000  C
  C682     1.0000 0.98851  0.49391  0.90739  Biso   1.000  C
  H675     1.0000 0.02590  0.54059  0.82849  Biso   1.000  H
  N91      1.0000 0.96467  0.54016  0.80080  Biso   1.000  N
  C683     1.0000 0.98154  0.53522  0.88096  Biso   1.000  C
  H676     1.0000 0.06000  0.10619  0.50111  Biso   1.000  H
  H677     1.0000 0.04360  0.11891  0.55029  Biso   1.000  H
  C684     1.0000 0.00608  0.09261  0.48849  Biso   1.000  C
  C685     1.0000 0.99392  0.09261  0.51151  Biso   1.000  C
  N92      1.0000 0.95985  0.19920  0.46469  Biso   1.000  N
  H678     1.0000 0.95939  0.17151  0.52588  Biso   1.000  H
  C686     1.0000 0.96477  0.11904  0.48152  Biso   1.000  C
  N93      1.0000 0.87083  0.37085  0.37085  Biso   1.000  N
  N94      1.0000 0.87083  0.62915  0.62915  Biso   1.000  N
  H679     1.0000 0.00219  0.50111  0.93641  Biso   1.000  H
  H680     1.0000 0.04021  0.52120  0.91290  Biso   1.000  H
  H681     1.0000 0.99781  0.49889  0.93641  Biso   1.000  H
  H682     1.0000 0.95979  0.47880  0.91290  Biso   1.000  H
  C687     1.0000 0.97945  0.56178  0.76899  Biso   1.000  C
  H683     1.0000 0.99890  0.55999  0.89381  Biso   1.000  H
  H684     1.0000 0.94969  0.54362  0.88109  Biso   1.000  H
  H685     1.0000 0.00110  0.06359  0.49779  Biso   1.000  H
  H686     1.0000 0.02119  0.08710  0.45980  Biso   1.000  H
  H687     1.0000 0.99890  0.06359  0.50221  Biso   1.000  H
  H688     1.0000 0.97881  0.08710  0.54020  Biso   1.000  H
  C688     1.0000 0.93824  0.23101  0.47946  Biso   1.000  C
  H689     1.0000 0.94000  0.10619  0.49889  Biso   1.000  H
  H690     1.0000 0.95640  0.11891  0.44971  Biso   1.000  H
  C689     1.0000 0.83696  0.39861  0.38698  Biso   1.000  C
  C690     1.0000 0.88697  0.33697  0.39861  Biso   1.000  C
  C691     1.0000 0.83696  0.60139  0.61302  Biso   1.000  C
  C692     1.0000 0.89859  0.61302  0.66303  Biso   1.000  C
  C693     1.0000 0.95135  0.57941  0.73286  Biso   1.000  C
  H691     1.0000 0.01049  0.56729  0.76779  Biso   1.000  H
  C694     1.0000 0.92060  0.26714  0.45134  Biso   1.000  C
  H692     1.0000 0.93269  0.23221  0.51051  Biso   1.000  H
  C695     1.0000 0.83971  0.44473  0.38685  Biso   1.000  C
  C696     1.0000 0.79841  0.37955  0.40389  Biso   1.000  C
  C697     1.0000 0.88687  0.33973  0.44473  Biso   1.000  C
  C698     1.0000 0.90387  0.29839  0.37955  Biso   1.000  C
  C699     1.0000 0.83971  0.55527  0.61315  Biso   1.000  C
  C700     1.0000 0.79841  0.62045  0.59611  Biso   1.000  C
  C701     1.0000 0.94471  0.61315  0.66027  Biso   1.000  C
  C702     1.0000 0.87953  0.59611  0.70161  Biso   1.000  C
  C703     1.0000 0.97035  0.59681  0.69440  Biso   1.000  C
  C704     1.0000 0.90506  0.57964  0.73581  Biso   1.000  C
  C705     1.0000 0.90317  0.30560  0.47036  Biso   1.000  C
  C706     1.0000 0.92037  0.26419  0.40505  Biso   1.000  C
  H693     1.0000 0.86552  0.45871  0.37529  Biso   1.000  H
  C707     1.0000 0.80558  0.47036  0.40319  Biso   1.000  C
  H694     1.0000 0.79558  0.34810  0.40398  Biso   1.000  H
  C708     1.0000 0.76420  0.40505  0.42036  Biso   1.000  C
  H695     1.0000 0.87531  0.36550  0.45871  Biso   1.000  H
  H696     1.0000 0.90400  0.29560  0.34810  Biso   1.000  H
  H697     1.0000 0.86552  0.54129  0.62471  Biso   1.000  H
  C709     1.0000 0.80558  0.52964  0.59681  Biso   1.000  C
  H698     1.0000 0.79558  0.65190  0.59602  Biso   1.000  H
  C710     1.0000 0.76420  0.59495  0.57964  Biso   1.000  C
  H699     1.0000 0.95869  0.62471  0.63450  Biso   1.000  H
  H700     1.0000 0.84812  0.59602  0.70440  Biso   1.000  H
  H701     1.0000 0.00179  0.59741  0.69172  Biso   1.000  H
  H702     1.0000 0.89098  0.56829  0.76171  Biso   1.000  H
  H703     1.0000 0.90261  0.30828  0.50181  Biso   1.000  H
  H704     1.0000 0.93170  0.23829  0.39100  Biso   1.000  H
  C711     1.0000 0.76713  0.45134  0.42059  Biso   1.000  C
  H705     1.0000 0.80830  0.50181  0.40259  Biso   1.000  H
  H706     1.0000 0.73830  0.39100  0.43171  Biso   1.000  H
  C712     1.0000 0.76713  0.54866  0.57941  Biso   1.000  C
  H707     1.0000 0.80830  0.49819  0.59741  Biso   1.000  H
  H708     1.0000 0.73830  0.60900  0.56829  Biso   1.000  H
  C713     1.0000 0.73103  0.47946  0.43822  Biso   1.000  C
  C714     1.0000 0.73103  0.52054  0.56178  Biso   1.000  C
  N95      1.0000 0.69922  0.46469  0.45984  Biso   1.000  N
  H709     1.0000 0.73219  0.51051  0.43271  Biso   1.000  H
  N96      1.0000 0.69922  0.53531  0.54016  Biso   1.000  N
  H710     1.0000 0.73219  0.48949  0.56729  Biso   1.000  H
  C715     1.0000 0.66601  0.49676  0.47428  Biso   1.000  C
  C716     1.0000 0.66601  0.50324  0.52572  Biso   1.000  C
  H711     1.0000 0.67149  0.52588  0.45941  Biso   1.000  H
  C717     1.0000 0.61903  0.48152  0.46478  Biso   1.000  C
  H712     1.0000 0.67149  0.47412  0.54059  Biso   1.000  H
  C718     1.0000 0.61903  0.51848  0.53522  Biso   1.000  C
  C719     1.0000 0.59260  0.51151  0.49391  Biso   1.000  C
  H713     1.0000 0.60621  0.49889  0.44001  Biso   1.000  H
  H714     1.0000 0.61889  0.44971  0.45638  Biso   1.000  H
  C720     1.0000 0.59260  0.48849  0.50609  Biso   1.000  C
  H715     1.0000 0.60621  0.50111  0.55999  Biso   1.000  H
  H716     1.0000 0.61889  0.55029  0.54362  Biso   1.000  H
  H717     1.0000 0.56361  0.49779  0.50111  Biso   1.000  H
  H718     1.0000 0.58712  0.54020  0.47880  Biso   1.000  H
  H719     1.0000 0.56361  0.50221  0.49889  Biso   1.000  H
  H720     1.0000 0.58712  0.45980  0.52120  Biso   1.000  H
  C721     1.0000 0.26897  0.52054  0.43822  Biso   1.000  C
  C722     1.0000 0.23287  0.54866  0.42059  Biso   1.000  C
  N97      1.0000 0.30078  0.53531  0.45984  Biso   1.000  N
  H721     1.0000 0.26781  0.48949  0.43271  Biso   1.000  H
  C723     1.0000 0.19442  0.52964  0.40319  Biso   1.000  C
  C724     1.0000 0.23580  0.59495  0.42036  Biso   1.000  C
  C725     1.0000 0.33399  0.50324  0.47428  Biso   1.000  C
  C726     1.0000 0.16029  0.55527  0.38685  Biso   1.000  C
  H722     1.0000 0.19170  0.49819  0.40259  Biso   1.000  H
  C727     1.0000 0.20159  0.62045  0.40389  Biso   1.000  C
  H723     1.0000 0.26170  0.60900  0.43171  Biso   1.000  H
  C728     1.0000 0.33399  0.49676  0.52572  Biso   1.000  C
  H724     1.0000 0.32851  0.47412  0.45941  Biso   1.000  H
  C729     1.0000 0.38097  0.51848  0.46478  Biso   1.000  C
  C730     1.0000 0.16304  0.60139  0.38698  Biso   1.000  C
  H725     1.0000 0.13448  0.54129  0.37529  Biso   1.000  H
  H726     1.0000 0.20442  0.65190  0.40398  Biso   1.000  H
  N98      1.0000 0.30078  0.46469  0.54016  Biso   1.000  N
  H727     1.0000 0.32851  0.52588  0.54059  Biso   1.000  H
  C731     1.0000 0.38097  0.48152  0.53522  Biso   1.000  C
  H728     1.0000 0.39379  0.50111  0.44001  Biso   1.000  H
  H729     1.0000 0.38111  0.55029  0.45638  Biso   1.000  H
  C732     1.0000 0.40740  0.51151  0.50609  Biso   1.000  C
  C733     1.0000 0.40740  0.48849  0.49391  Biso   1.000  C
  N99      1.0000 0.12917  0.62915  0.37085  Biso   1.000  N
  C734     1.0000 0.26897  0.47946  0.56178  Biso   1.000  C
  H730     1.0000 0.39379  0.49889  0.55999  Biso   1.000  H
  H731     1.0000 0.38111  0.44971  0.54362  Biso   1.000  H
  H732     1.0000 0.43639  0.50221  0.50111  Biso   1.000  H
  H733     1.0000 0.43639  0.49779  0.49889  Biso   1.000  H
  H734     1.0000 0.41288  0.54020  0.52120  Biso   1.000  H
  H735     1.0000 0.41288  0.45980  0.47880  Biso   1.000  H
  C735     1.0000 0.10141  0.61302  0.33697  Biso   1.000  C
  C736     1.0000 0.11303  0.66303  0.39861  Biso   1.000  C
  H736     1.0000 0.26781  0.51051  0.56729  Biso   1.000  H
  C737     1.0000 0.23287  0.45134  0.57941  Biso   1.000  C
  C738     1.0000 0.05529  0.61315  0.33973  Biso   1.000  C
  C739     1.0000 0.12047  0.59611  0.29839  Biso   1.000  C
  C740     1.0000 0.11313  0.66027  0.44473  Biso   1.000  C
  C741     1.0000 0.09613  0.70161  0.37955  Biso   1.000  C
  C742     1.0000 0.23580  0.40505  0.57964  Biso   1.000  C
  C743     1.0000 0.19442  0.47036  0.59681  Biso   1.000  C
  H737     1.0000 0.04131  0.62471  0.36550  Biso   1.000  H
  C744     1.0000 0.02965  0.59681  0.30560  Biso   1.000  C
  H738     1.0000 0.15188  0.59602  0.29560  Biso   1.000  H
  C745     1.0000 0.09494  0.57964  0.26419  Biso   1.000  C
  H739     1.0000 0.12469  0.63450  0.45871  Biso   1.000  H
  C746     1.0000 0.09683  0.69440  0.47036  Biso   1.000  C
  H740     1.0000 0.09600  0.70440  0.34810  Biso   1.000  H
  C747     1.0000 0.07963  0.73581  0.40505  Biso   1.000  C
  C748     1.0000 0.20159  0.37955  0.59611  Biso   1.000  C
  H741     1.0000 0.26170  0.39100  0.56829  Biso   1.000  H
  C749     1.0000 0.16029  0.44473  0.61315  Biso   1.000  C
  H742     1.0000 0.19170  0.50181  0.59741  Biso   1.000  H
  C750     1.0000 0.04865  0.57941  0.26714  Biso   1.000  C
  H743     1.0000 0.99821  0.59741  0.30828  Biso   1.000  H
  H744     1.0000 0.10902  0.56829  0.23829  Biso   1.000  H
  C751     1.0000 0.07940  0.73286  0.45134  Biso   1.000  C
  H745     1.0000 0.09739  0.69172  0.50181  Biso   1.000  H
  H746     1.0000 0.06830  0.76171  0.39100  Biso   1.000  H
  C752     1.0000 0.16304  0.39861  0.61302  Biso   1.000  C
  H747     1.0000 0.20442  0.34810  0.59602  Biso   1.000  H
  H748     1.0000 0.13448  0.45871  0.62471  Biso   1.000  H
  C753     1.0000 0.02055  0.56178  0.23101  Biso   1.000  C
  C754     1.0000 0.06176  0.76899  0.47946  Biso   1.000  C
  N100     1.0000 0.12917  0.37085  0.62915  Biso   1.000  N
  N101     1.0000 0.03533  0.54016  0.19920  Biso   1.000  N
  H749     1.0000 0.98951  0.56729  0.23221  Biso   1.000  H
  N102     1.0000 0.04015  0.80080  0.46469  Biso   1.000  N
  H750     1.0000 0.06731  0.76779  0.51051  Biso   1.000  H
  C755     1.0000 0.10141  0.38698  0.66303  Biso   1.000  C
  C756     1.0000 0.11303  0.33697  0.60139  Biso   1.000  C
  C757     1.0000 0.00322  0.52572  0.16600  Biso   1.000  C
  C758     1.0000 0.02570  0.83400  0.49676  Biso   1.000  C
  C759     1.0000 0.05529  0.38685  0.66027  Biso   1.000  C
  C760     1.0000 0.12047  0.40389  0.70161  Biso   1.000  C
  C761     1.0000 0.11313  0.33973  0.55527  Biso   1.000  C
  C762     1.0000 0.09613  0.29839  0.62045  Biso   1.000  C
  C763     1.0000 0.01846  0.53522  0.11904  Biso   1.000  C
  C764     1.0000 0.99678  0.47428  0.16600  Biso   1.000  C
  H751     1.0000 0.97410  0.54059  0.17151  Biso   1.000  H
  H752     1.0000 0.04061  0.82849  0.52588  Biso   1.000  H
  C765     1.0000 0.03523  0.88096  0.48152  Biso   1.000  C
  C766     1.0000 0.97430  0.83400  0.50324  Biso   1.000  C
  H753     1.0000 0.04131  0.37529  0.63450  Biso   1.000  H
  C767     1.0000 0.02965  0.40319  0.69440  Biso   1.000  C
  H754     1.0000 0.15188  0.40398  0.70440  Biso   1.000  H
  C768     1.0000 0.09494  0.42036  0.73581  Biso   1.000  C
  H755     1.0000 0.12469  0.36550  0.54129  Biso   1.000  H
  C769     1.0000 0.09683  0.30560  0.52964  Biso   1.000  C
  H756     1.0000 0.09600  0.29560  0.65190  Biso   1.000  H
  C770     1.0000 0.07963  0.26419  0.59495  Biso   1.000  C
  H757     1.0000 0.00110  0.55999  0.10619  Biso   1.000  H
  H758     1.0000 0.05031  0.54362  0.11891  Biso   1.000  H
  C771     1.0000 0.01149  0.49391  0.09261  Biso   1.000  C
  C772     1.0000 0.98851  0.50609  0.09261  Biso   1.000  C
  H759     1.0000 0.02590  0.45941  0.17151  Biso   1.000  H
  N103     1.0000 0.96467  0.45984  0.19920  Biso   1.000  N
  C773     1.0000 0.98154  0.46478  0.11904  Biso   1.000  C
  H760     1.0000 0.06000  0.89381  0.49889  Biso   1.000  H
  H761     1.0000 0.04360  0.88109  0.44971  Biso   1.000  H
  C774     1.0000 0.00608  0.90739  0.51151  Biso   1.000  C
  C775     1.0000 0.99392  0.90739  0.48849  Biso   1.000  C
  N104     1.0000 0.95985  0.80080  0.53531  Biso   1.000  N
  H762     1.0000 0.95939  0.82849  0.47412  Biso   1.000  H
  C776     1.0000 0.96477  0.88096  0.51848  Biso   1.000  C
  C777     1.0000 0.04865  0.42059  0.73286  Biso   1.000  C
  H763     1.0000 0.99821  0.40259  0.69172  Biso   1.000  H
  H764     1.0000 0.10902  0.43171  0.76171  Biso   1.000  H
  C778     1.0000 0.07940  0.26714  0.54866  Biso   1.000  C
  H765     1.0000 0.09739  0.30828  0.49819  Biso   1.000  H
  H766     1.0000 0.06830  0.23829  0.60900  Biso   1.000  H
  H767     1.0000 0.99781  0.50111  0.06359  Biso   1.000  H
  H768     1.0000 0.04021  0.47880  0.08710  Biso   1.000  H
  H769     1.0000 0.00219  0.49889  0.06359  Biso   1.000  H
  H770     1.0000 0.95979  0.52120  0.08710  Biso   1.000  H
  C779     1.0000 0.97945  0.43822  0.23101  Biso   1.000  C
  H771     1.0000 0.99890  0.44001  0.10619  Biso   1.000  H
  H772     1.0000 0.94969  0.45638  0.11891  Biso   1.000  H
  H773     1.0000 0.99890  0.93641  0.49779  Biso   1.000  H
  H774     1.0000 0.00110  0.93641  0.50221  Biso   1.000  H
  H775     1.0000 0.02119  0.91290  0.54020  Biso   1.000  H
  H776     1.0000 0.97881  0.91290  0.45980  Biso   1.000  H
  C780     1.0000 0.93824  0.76899  0.52054  Biso   1.000  C
  H777     1.0000 0.94000  0.89381  0.50111  Biso   1.000  H
  H778     1.0000 0.95640  0.88109  0.55029  Biso   1.000  H
  C781     1.0000 0.02055  0.43822  0.76899  Biso   1.000  C
  C782     1.0000 0.06176  0.23101  0.52054  Biso   1.000  C
  H779     1.0000 0.01049  0.43271  0.23221  Biso   1.000  H
  C783     1.0000 0.95135  0.42059  0.26714  Biso   1.000  C
  H780     1.0000 0.93269  0.76779  0.48949  Biso   1.000  H
  C784     1.0000 0.92060  0.73286  0.54866  Biso   1.000  C
  N105     1.0000 0.03533  0.45984  0.80080  Biso   1.000  N
  H781     1.0000 0.98951  0.43271  0.76779  Biso   1.000  H
  N106     1.0000 0.04015  0.19920  0.53531  Biso   1.000  N
  H782     1.0000 0.06731  0.23221  0.48949  Biso   1.000  H
  C785     1.0000 0.90506  0.42036  0.26419  Biso   1.000  C
  C786     1.0000 0.97035  0.40319  0.30560  Biso   1.000  C
  C787     1.0000 0.92037  0.73581  0.59495  Biso   1.000  C
  C788     1.0000 0.90317  0.69440  0.52964  Biso   1.000  C
  C789     1.0000 0.00322  0.47428  0.83400  Biso   1.000  C
  C790     1.0000 0.02570  0.16600  0.50324  Biso   1.000  C
  C791     1.0000 0.87953  0.40389  0.29839  Biso   1.000  C
  H783     1.0000 0.89098  0.43171  0.23829  Biso   1.000  H
  H784     1.0000 0.00179  0.40259  0.30828  Biso   1.000  H
  C792     1.0000 0.94471  0.38685  0.33973  Biso   1.000  C
  C793     1.0000 0.90387  0.70161  0.62045  Biso   1.000  C
  H785     1.0000 0.93170  0.76171  0.60900  Biso   1.000  H
  C794     1.0000 0.88687  0.66027  0.55527  Biso   1.000  C
  H786     1.0000 0.90261  0.69172  0.49819  Biso   1.000  H
  C795     1.0000 0.01846  0.46478  0.88096  Biso   1.000  C
  C796     1.0000 0.99678  0.52572  0.83400  Biso   1.000  C
  H787     1.0000 0.97410  0.45941  0.82849  Biso   1.000  H
  H788     1.0000 0.04061  0.17151  0.47412  Biso   1.000  H
  C797     1.0000 0.03523  0.11904  0.51848  Biso   1.000  C
  C798     1.0000 0.97430  0.16600  0.49676  Biso   1.000  C
  C799     1.0000 0.89859  0.38698  0.33697  Biso   1.000  C
  H789     1.0000 0.84812  0.40398  0.29560  Biso   1.000  H
  H790     1.0000 0.95869  0.37529  0.36550  Biso   1.000  H
  C800     1.0000 0.88697  0.66303  0.60139  Biso   1.000  C
  H791     1.0000 0.90400  0.70440  0.65190  Biso   1.000  H
  H792     1.0000 0.87531  0.63450  0.54129  Biso   1.000  H
  H793     1.0000 0.00110  0.44001  0.89381  Biso   1.000  H
  H794     1.0000 0.05031  0.45638  0.88109  Biso   1.000  H
  C801     1.0000 0.01149  0.50609  0.90739  Biso   1.000  C
  C802     1.0000 0.98851  0.49391  0.90739  Biso   1.000  C
  H795     1.0000 0.02590  0.54059  0.82849  Biso   1.000  H
  N107     1.0000 0.96467  0.54016  0.80080  Biso   1.000  N
  C803     1.0000 0.98154  0.53522  0.88096  Biso   1.000  C
  H796     1.0000 0.06000  0.10619  0.50111  Biso   1.000  H
  H797     1.0000 0.04360  0.11891  0.55029  Biso   1.000  H
  C804     1.0000 0.00608  0.09261  0.48849  Biso   1.000  C
  C805     1.0000 0.99392  0.09261  0.51151  Biso   1.000  C
  N108     1.0000 0.95985  0.19920  0.46469  Biso   1.000  N
  H798     1.0000 0.95939  0.17151  0.52588  Biso   1.000  H
  C806     1.0000 0.96477  0.11904  0.48152  Biso   1.000  C
  N109     1.0000 0.87083  0.37085  0.37085  Biso   1.000  N
  N110     1.0000 0.87083  0.62915  0.62915  Biso   1.000  N
  H799     1.0000 0.99781  0.49889  0.93641  Biso   1.000  H
  H800     1.0000 0.00219  0.50111  0.93641  Biso   1.000  H
  H801     1.0000 0.04021  0.52120  0.91290  Biso   1.000  H
  H802     1.0000 0.95979  0.47880  0.91290  Biso   1.000  H
  C807     1.0000 0.97945  0.56178  0.76899  Biso   1.000  C
  H803     1.0000 0.99890  0.55999  0.89381  Biso   1.000  H
  H804     1.0000 0.94969  0.54362  0.88109  Biso   1.000  H
  H805     1.0000 0.99890  0.06359  0.50221  Biso   1.000  H
  H806     1.0000 0.00110  0.06359  0.49779  Biso   1.000  H
  H807     1.0000 0.02119  0.08710  0.45980  Biso   1.000  H
  H808     1.0000 0.97881  0.08710  0.54020  Biso   1.000  H
  C808     1.0000 0.93824  0.23101  0.47946  Biso   1.000  C
  H809     1.0000 0.94000  0.10619  0.49889  Biso   1.000  H
  H810     1.0000 0.95640  0.11891  0.44971  Biso   1.000  H
  C809     1.0000 0.83696  0.39861  0.38698  Biso   1.000  C
  C810     1.0000 0.88697  0.33697  0.39861  Biso   1.000  C
  C811     1.0000 0.83696  0.60139  0.61302  Biso   1.000  C
  C812     1.0000 0.89859  0.61302  0.66303  Biso   1.000  C
  C813     1.0000 0.95135  0.57941  0.73286  Biso   1.000  C
  H811     1.0000 0.01049  0.56729  0.76779  Biso   1.000  H
  C814     1.0000 0.92060  0.26714  0.45134  Biso   1.000  C
  H812     1.0000 0.93269  0.23221  0.51051  Biso   1.000  H
  C815     1.0000 0.83971  0.44473  0.38685  Biso   1.000  C
  C816     1.0000 0.79841  0.37955  0.40389  Biso   1.000  C
  C817     1.0000 0.88687  0.33973  0.44473  Biso   1.000  C
  C818     1.0000 0.90387  0.29839  0.37955  Biso   1.000  C
  C819     1.0000 0.83971  0.55527  0.61315  Biso   1.000  C
  C820     1.0000 0.79841  0.62045  0.59611  Biso   1.000  C
  C821     1.0000 0.94471  0.61315  0.66027  Biso   1.000  C
  C822     1.0000 0.87953  0.59611  0.70161  Biso   1.000  C
  C823     1.0000 0.97035  0.59681  0.69440  Biso   1.000  C
  C824     1.0000 0.90506  0.57964  0.73581  Biso   1.000  C
  C825     1.0000 0.90317  0.30560  0.47036  Biso   1.000  C
  C826     1.0000 0.92037  0.26419  0.40505  Biso   1.000  C
  H813     1.0000 0.86552  0.45871  0.37529  Biso   1.000  H
  C827     1.0000 0.80558  0.47036  0.40319  Biso   1.000  C
  H814     1.0000 0.79558  0.34810  0.40398  Biso   1.000  H
  C828     1.0000 0.76420  0.40505  0.42036  Biso   1.000  C
  H815     1.0000 0.87531  0.36550  0.45871  Biso   1.000  H
  H816     1.0000 0.90400  0.29560  0.34810  Biso   1.000  H
  H817     1.0000 0.86552  0.54129  0.62471  Biso   1.000  H
  C829     1.0000 0.80558  0.52964  0.59681  Biso   1.000  C
  H818     1.0000 0.79558  0.65190  0.59602  Biso   1.000  H
  C830     1.0000 0.76420  0.59495  0.57964  Biso   1.000  C
  H819     1.0000 0.95869  0.62471  0.63450  Biso   1.000  H
  H820     1.0000 0.84812  0.59602  0.70440  Biso   1.000  H
  H821     1.0000 0.00179  0.59741  0.69172  Biso   1.000  H
  H822     1.0000 0.89098  0.56829  0.76171  Biso   1.000  H
  H823     1.0000 0.90261  0.30828  0.50181  Biso   1.000  H
  H824     1.0000 0.93170  0.23829  0.39100  Biso   1.000  H
  C831     1.0000 0.76713  0.45134  0.42059  Biso   1.000  C
  H825     1.0000 0.80830  0.50181  0.40259  Biso   1.000  H
  H826     1.0000 0.73830  0.39100  0.43171  Biso   1.000  H
  C832     1.0000 0.76713  0.54866  0.57941  Biso   1.000  C
  H827     1.0000 0.80830  0.49819  0.59741  Biso   1.000  H
  H828     1.0000 0.73830  0.60900  0.56829  Biso   1.000  H
  C833     1.0000 0.73103  0.47946  0.43822  Biso   1.000  C
  C834     1.0000 0.73103  0.52054  0.56178  Biso   1.000  C
  N111     1.0000 0.69922  0.46469  0.45984  Biso   1.000  N
  H829     1.0000 0.73219  0.51051  0.43271  Biso   1.000  H
  N112     1.0000 0.69922  0.53531  0.54016  Biso   1.000  N
  H830     1.0000 0.73219  0.48949  0.56729  Biso   1.000  H
  C835     1.0000 0.66601  0.49676  0.47428  Biso   1.000  C
  C836     1.0000 0.66601  0.50324  0.52572  Biso   1.000  C
  H831     1.0000 0.67149  0.52588  0.45941  Biso   1.000  H
  C837     1.0000 0.61903  0.48152  0.46478  Biso   1.000  C
  H832     1.0000 0.67149  0.47412  0.54059  Biso   1.000  H
  C838     1.0000 0.61903  0.51848  0.53522  Biso   1.000  C
  C839     1.0000 0.59260  0.51151  0.49391  Biso   1.000  C
  H833     1.0000 0.60621  0.49889  0.44001  Biso   1.000  H
  H834     1.0000 0.61889  0.44971  0.45638  Biso   1.000  H
  C840     1.0000 0.59260  0.48849  0.50609  Biso   1.000  C
  H835     1.0000 0.60621  0.50111  0.55999  Biso   1.000  H
  H836     1.0000 0.61889  0.55029  0.54362  Biso   1.000  H
  H837     1.0000 0.56361  0.49779  0.50111  Biso   1.000  H
  H838     1.0000 0.58712  0.54020  0.47880  Biso   1.000  H
  H839     1.0000 0.56361  0.50221  0.49889  Biso   1.000  H
  H840     1.0000 0.58712  0.45980  0.52120  Biso   1.000  H
  C841     1.0000 0.62952  0.54840  0.34614  Biso   1.000  C
  C842     1.0000 0.64861  0.58698  0.36301  Biso   1.000  C
  H841     1.0000 0.59811  0.54561  0.34601  Biso   1.000  H
  C843     1.0000 0.65506  0.51420  0.32964  Biso   1.000  C
  N113     1.0000 0.62082  0.62082  0.37918  Biso   1.000  N
  C844     1.0000 0.69470  0.58971  0.36314  Biso   1.000  C
  C845     1.0000 0.70134  0.51715  0.32940  Biso   1.000  C
  H842     1.0000 0.64101  0.48829  0.31831  Biso   1.000  H
  C846     1.0000 0.58698  0.63699  0.35139  Biso   1.000  C
  C847     1.0000 0.63699  0.64861  0.41302  Biso   1.000  C
  H843     1.0000 0.70872  0.61551  0.37470  Biso   1.000  H
  C848     1.0000 0.72037  0.55560  0.34680  Biso   1.000  C
  C849     1.0000 0.72947  0.48102  0.31177  Biso   1.000  C
  C850     1.0000 0.54840  0.65386  0.37048  Biso   1.000  C
  C851     1.0000 0.58971  0.63686  0.30530  Biso   1.000  C
  C852     1.0000 0.63686  0.69470  0.41029  Biso   1.000  C
  C853     1.0000 0.65386  0.62952  0.45160  Biso   1.000  C
  H844     1.0000 0.75178  0.55829  0.34740  Biso   1.000  H
  N114     1.0000 0.71466  0.44921  0.29015  Biso   1.000  N
  H845     1.0000 0.76048  0.48218  0.31728  Biso   1.000  H
  C854     1.0000 0.51420  0.67036  0.34494  Biso   1.000  C
  H846     1.0000 0.54561  0.65399  0.40189  Biso   1.000  H
  C855     1.0000 0.55560  0.65320  0.27963  Biso   1.000  C
  H847     1.0000 0.61551  0.62530  0.29128  Biso   1.000  H
  H848     1.0000 0.62530  0.70872  0.38449  Biso   1.000  H
  C856     1.0000 0.65320  0.72037  0.44440  Biso   1.000  C
  H849     1.0000 0.65399  0.59811  0.45439  Biso   1.000  H
  C857     1.0000 0.67036  0.65506  0.48580  Biso   1.000  C
  C858     1.0000 0.74677  0.41601  0.27571  Biso   1.000  C
  C859     1.0000 0.51715  0.67060  0.29866  Biso   1.000  C
  H850     1.0000 0.48829  0.68169  0.35899  Biso   1.000  H
  H851     1.0000 0.55829  0.65260  0.24822  Biso   1.000  H
  C860     1.0000 0.67060  0.70134  0.48285  Biso   1.000  C
  H852     1.0000 0.65260  0.75178  0.44171  Biso   1.000  H
  H853     1.0000 0.68169  0.64101  0.51171  Biso   1.000  H
  H854     1.0000 0.77589  0.42148  0.29059  Biso   1.000  H
  C861     1.0000 0.73153  0.36905  0.28521  Biso   1.000  C
  C862     1.0000 0.75325  0.41601  0.22427  Biso   1.000  C
  C863     1.0000 0.48102  0.68823  0.27053  Biso   1.000  C
  C864     1.0000 0.68823  0.72947  0.51898  Biso   1.000  C
  H855     1.0000 0.74890  0.35620  0.31001  Biso   1.000  H
  H856     1.0000 0.69968  0.36889  0.29361  Biso   1.000  H
  C865     1.0000 0.73850  0.34259  0.24390  Biso   1.000  C
  C866     1.0000 0.76151  0.34259  0.25609  Biso   1.000  C
  N115     1.0000 0.78532  0.44921  0.20986  Biso   1.000  N
  H857     1.0000 0.72409  0.42148  0.20940  Biso   1.000  H
  C867     1.0000 0.76845  0.36905  0.21478  Biso   1.000  C
  N116     1.0000 0.44921  0.70985  0.28534  Biso   1.000  N
  H858     1.0000 0.48218  0.68272  0.23952  Biso   1.000  H
  N117     1.0000 0.70985  0.71466  0.55079  Biso   1.000  N
  H859     1.0000 0.68272  0.76048  0.51782  Biso   1.000  H
  H860     1.0000 0.75222  0.31360  0.25110  Biso   1.000  H
  H861     1.0000 0.70981  0.33711  0.22879  Biso   1.000  H
  H862     1.0000 0.74780  0.31360  0.24891  Biso   1.000  H
  H863     1.0000 0.79020  0.33711  0.27119  Biso   1.000  H
  C868     1.0000 0.77055  0.48102  0.18825  Biso   1.000  C
  H864     1.0000 0.75109  0.35620  0.19000  Biso   1.000  H
  H865     1.0000 0.80030  0.36889  0.20641  Biso   1.000  H
  C869     1.0000 0.41601  0.72429  0.25323  Biso   1.000  C
  C870     1.0000 0.72429  0.74677  0.58399  Biso   1.000  C
  H866     1.0000 0.73950  0.48218  0.18270  Biso   1.000  H
  C871     1.0000 0.79864  0.51715  0.17058  Biso   1.000  C
  C872     1.0000 0.36905  0.71479  0.26847  Biso   1.000  C
  C873     1.0000 0.41601  0.77573  0.24675  Biso   1.000  C
  H867     1.0000 0.42148  0.70941  0.22411  Biso   1.000  H
  C874     1.0000 0.77573  0.75325  0.58399  Biso   1.000  C
  H868     1.0000 0.70941  0.77589  0.57852  Biso   1.000  H
  C875     1.0000 0.71479  0.73153  0.63095  Biso   1.000  C
  C876     1.0000 0.84496  0.51420  0.17038  Biso   1.000  C
  C877     1.0000 0.77964  0.55560  0.15318  Biso   1.000  C
  H869     1.0000 0.35620  0.68999  0.25110  Biso   1.000  H
  H870     1.0000 0.36889  0.70639  0.30032  Biso   1.000  H
  C878     1.0000 0.34259  0.75610  0.26150  Biso   1.000  C
  C879     1.0000 0.34259  0.74391  0.23849  Biso   1.000  C
  C880     1.0000 0.36905  0.78522  0.23155  Biso   1.000  C
  N118     1.0000 0.44921  0.79014  0.21468  Biso   1.000  N
  H871     1.0000 0.42148  0.79060  0.27591  Biso   1.000  H
  N119     1.0000 0.79014  0.78532  0.55079  Biso   1.000  N
  H872     1.0000 0.79060  0.72409  0.57852  Biso   1.000  H
  C881     1.0000 0.78522  0.76845  0.63095  Biso   1.000  C
  H873     1.0000 0.68999  0.74890  0.64380  Biso   1.000  H
  H874     1.0000 0.70639  0.69968  0.63111  Biso   1.000  H
  C882     1.0000 0.74391  0.76151  0.65741  Biso   1.000  C
  C883     1.0000 0.75610  0.73850  0.65741  Biso   1.000  C
  C884     1.0000 0.87046  0.54840  0.15388  Biso   1.000  C
  H875     1.0000 0.85901  0.48829  0.18170  Biso   1.000  H
  C885     1.0000 0.80528  0.58971  0.13688  Biso   1.000  C
  H876     1.0000 0.74820  0.55829  0.15261  Biso   1.000  H
  H877     1.0000 0.31360  0.74890  0.24778  Biso   1.000  H
  H878     1.0000 0.33711  0.77121  0.29019  Biso   1.000  H
  H879     1.0000 0.31360  0.75109  0.25220  Biso   1.000  H
  H880     1.0000 0.33711  0.72881  0.20980  Biso   1.000  H
  H881     1.0000 0.35620  0.81000  0.24891  Biso   1.000  H
  H882     1.0000 0.36889  0.79359  0.19970  Biso   1.000  H
  C886     1.0000 0.48102  0.81175  0.22945  Biso   1.000  C
  C887     1.0000 0.81175  0.77055  0.51898  Biso   1.000  C
  H883     1.0000 0.81000  0.75109  0.64380  Biso   1.000  H
  H884     1.0000 0.79359  0.80030  0.63111  Biso   1.000  H
  H885     1.0000 0.75109  0.74780  0.68640  Biso   1.000  H
  H886     1.0000 0.72881  0.79020  0.66289  Biso   1.000  H
  H887     1.0000 0.74890  0.75222  0.68640  Biso   1.000  H
  H888     1.0000 0.77121  0.70981  0.66289  Biso   1.000  H
  C888     1.0000 0.85140  0.58698  0.13697  Biso   1.000  C
  H889     1.0000 0.90191  0.54561  0.15401  Biso   1.000  H
  H890     1.0000 0.79130  0.61551  0.12529  Biso   1.000  H
  H891     1.0000 0.48218  0.81730  0.26050  Biso   1.000  H
  C889     1.0000 0.51715  0.82942  0.20136  Biso   1.000  C
  H892     1.0000 0.81730  0.73950  0.51782  Biso   1.000  H
  C890     1.0000 0.82942  0.79864  0.48285  Biso   1.000  C
  N120     1.0000 0.87916  0.62082  0.12084  Biso   1.000  N
  C891     1.0000 0.51420  0.82962  0.15504  Biso   1.000  C
  C892     1.0000 0.55560  0.84682  0.22036  Biso   1.000  C
  C893     1.0000 0.82962  0.84496  0.48580  Biso   1.000  C
  C894     1.0000 0.84682  0.77964  0.44440  Biso   1.000  C
  C895     1.0000 0.86303  0.64861  0.08697  Biso   1.000  C
  C896     1.0000 0.91303  0.63699  0.14860  Biso   1.000  C
  C897     1.0000 0.54840  0.84612  0.12954  Biso   1.000  C
  H893     1.0000 0.48829  0.81830  0.14099  Biso   1.000  H
  C898     1.0000 0.58971  0.86312  0.19472  Biso   1.000  C
  H894     1.0000 0.55829  0.84739  0.25180  Biso   1.000  H
  C899     1.0000 0.84612  0.87046  0.45160  Biso   1.000  C
  H895     1.0000 0.81830  0.85901  0.51171  Biso   1.000  H
  C900     1.0000 0.86312  0.80528  0.41029  Biso   1.000  C
  H896     1.0000 0.84739  0.74820  0.44171  Biso   1.000  H
  C901     1.0000 0.84612  0.62952  0.04838  Biso   1.000  C
  C902     1.0000 0.86312  0.69470  0.08972  Biso   1.000  C
  C903     1.0000 0.91028  0.63686  0.19472  Biso   1.000  C
  C904     1.0000 0.95162  0.65386  0.12954  Biso   1.000  C
  C905     1.0000 0.58698  0.86303  0.14860  Biso   1.000  C
  H897     1.0000 0.54561  0.84599  0.09809  Biso   1.000  H
  H898     1.0000 0.61551  0.87471  0.20870  Biso   1.000  H
  C906     1.0000 0.86303  0.85140  0.41302  Biso   1.000  C
  H899     1.0000 0.84599  0.90191  0.45439  Biso   1.000  H
  H900     1.0000 0.87471  0.79130  0.38449  Biso   1.000  H
  C907     1.0000 0.82962  0.65506  0.01418  Biso   1.000  C
  H901     1.0000 0.84599  0.59811  0.04559  Biso   1.000  H
  C908     1.0000 0.84682  0.72037  0.05559  Biso   1.000  C
  H902     1.0000 0.87471  0.70872  0.11549  Biso   1.000  H
  H903     1.0000 0.88451  0.62530  0.20870  Biso   1.000  H
  C909     1.0000 0.94441  0.65320  0.22036  Biso   1.000  C
  H904     1.0000 0.95441  0.65399  0.09809  Biso   1.000  H
  C910     1.0000 0.98582  0.67036  0.15504  Biso   1.000  C
  N121     1.0000 0.62082  0.87916  0.12084  Biso   1.000  N
  N122     1.0000 0.87916  0.87916  0.37918  Biso   1.000  N
  C911     1.0000 0.82942  0.70134  0.01713  Biso   1.000  C
  H905     1.0000 0.81830  0.64101  0.98831  Biso   1.000  H
  H906     1.0000 0.84739  0.75178  0.05831  Biso   1.000  H
  C912     1.0000 0.98287  0.67060  0.20136  Biso   1.000  C
  H907     1.0000 0.94169  0.65260  0.25180  Biso   1.000  H
  H908     1.0000 0.01169  0.68169  0.14099  Biso   1.000  H
  C913     1.0000 0.63699  0.85140  0.08697  Biso   1.000  C
  C914     1.0000 0.64861  0.91303  0.13697  Biso   1.000  C
  C915     1.0000 0.85140  0.91303  0.36301  Biso   1.000  C
  C916     1.0000 0.91303  0.86303  0.35139  Biso   1.000  C
  C917     1.0000 0.81175  0.72947  0.98104  Biso   1.000  C
  C918     1.0000 0.01896  0.68823  0.22945  Biso   1.000  C
  C919     1.0000 0.63686  0.80528  0.08972  Biso   1.000  C
  C920     1.0000 0.65386  0.87046  0.04838  Biso   1.000  C
  C921     1.0000 0.69470  0.91028  0.13688  Biso   1.000  C
  C922     1.0000 0.62952  0.95162  0.15388  Biso   1.000  C
  C923     1.0000 0.87046  0.95162  0.34614  Biso   1.000  C
  C924     1.0000 0.80528  0.91028  0.36314  Biso   1.000  C
  C925     1.0000 0.91028  0.86312  0.30530  Biso   1.000  C
  C926     1.0000 0.95162  0.84612  0.37048  Biso   1.000  C
  N123     1.0000 0.79014  0.71466  0.94919  Biso   1.000  N
  H909     1.0000 0.81730  0.76048  0.98220  Biso   1.000  H
  N124     1.0000 0.05081  0.70985  0.21468  Biso   1.000  N
  H910     1.0000 0.01780  0.68272  0.26050  Biso   1.000  H
  H911     1.0000 0.62530  0.79130  0.11549  Biso   1.000  H
  C927     1.0000 0.65320  0.77964  0.05559  Biso   1.000  C
  H912     1.0000 0.65399  0.90191  0.04559  Biso   1.000  H
  C928     1.0000 0.67036  0.84496  0.01418  Biso   1.000  C
  H913     1.0000 0.70872  0.88451  0.12529  Biso   1.000  H
  C929     1.0000 0.72037  0.94441  0.15318  Biso   1.000  C
  H914     1.0000 0.59811  0.95441  0.15401  Biso   1.000  H
  C930     1.0000 0.65506  0.98582  0.17038  Biso   1.000  C
  C931     1.0000 0.84496  0.98582  0.32964  Biso   1.000  C
  H915     1.0000 0.90191  0.95441  0.34601  Biso   1.000  H
  C932     1.0000 0.77964  0.94441  0.34680  Biso   1.000  C
  H916     1.0000 0.79130  0.88451  0.37470  Biso   1.000  H
  H917     1.0000 0.88451  0.87471  0.29128  Biso   1.000  H
  C933     1.0000 0.94441  0.84682  0.27963  Biso   1.000  C
  H918     1.0000 0.95441  0.84599  0.40189  Biso   1.000  H
  C934     1.0000 0.98582  0.82962  0.34494  Biso   1.000  C
  C935     1.0000 0.77573  0.74677  0.91602  Biso   1.000  C
  C936     1.0000 0.08398  0.72429  0.24675  Biso   1.000  C
  C937     1.0000 0.67060  0.79864  0.01713  Biso   1.000  C
  H919     1.0000 0.65260  0.74820  0.05831  Biso   1.000  H
  H920     1.0000 0.68169  0.85901  0.98831  Biso   1.000  H
  C938     1.0000 0.70134  0.98287  0.17058  Biso   1.000  C
  H921     1.0000 0.75178  0.94169  0.15261  Biso   1.000  H
  H922     1.0000 0.64101  0.01169  0.18170  Biso   1.000  H
  C939     1.0000 0.79864  0.98287  0.32940  Biso   1.000  C
  H923     1.0000 0.85901  0.01169  0.31831  Biso   1.000  H
  H924     1.0000 0.74820  0.94169  0.34740  Biso   1.000  H
  C940     1.0000 0.98287  0.82942  0.29866  Biso   1.000  C
  H925     1.0000 0.94169  0.84739  0.24822  Biso   1.000  H
  H926     1.0000 0.01169  0.81830  0.35899  Biso   1.000  H
  C941     1.0000 0.72429  0.75325  0.91602  Biso   1.000  C
  H927     1.0000 0.79060  0.77589  0.92150  Biso   1.000  H
  C942     1.0000 0.78522  0.73153  0.86904  Biso   1.000  C
  C943     1.0000 0.08398  0.77573  0.25323  Biso   1.000  C
  H928     1.0000 0.07850  0.70941  0.27591  Biso   1.000  H
  C944     1.0000 0.13096  0.71479  0.23155  Biso   1.000  C
  C945     1.0000 0.68823  0.77055  0.98104  Biso   1.000  C
  C946     1.0000 0.72947  0.01896  0.18825  Biso   1.000  C
  C947     1.0000 0.77055  0.01896  0.31177  Biso   1.000  C
  C948     1.0000 0.01896  0.81175  0.27053  Biso   1.000  C
  N125     1.0000 0.70985  0.78532  0.94919  Biso   1.000  N
  H929     1.0000 0.70941  0.72409  0.92150  Biso   1.000  H
  C949     1.0000 0.71479  0.76845  0.86904  Biso   1.000  C
  C950     1.0000 0.75610  0.76151  0.84260  Biso   1.000  C
  C951     1.0000 0.74391  0.73850  0.84260  Biso   1.000  C
  H930     1.0000 0.81000  0.74890  0.85618  Biso   1.000  H
  H931     1.0000 0.79359  0.69968  0.86890  Biso   1.000  H
  N126     1.0000 0.05081  0.79014  0.28534  Biso   1.000  N
  H932     1.0000 0.07850  0.79060  0.22411  Biso   1.000  H
  C952     1.0000 0.13096  0.78522  0.26847  Biso   1.000  C
  H933     1.0000 0.14382  0.68999  0.24891  Biso   1.000  H
  H934     1.0000 0.13110  0.70639  0.19970  Biso   1.000  H
  C953     1.0000 0.15740  0.75610  0.23849  Biso   1.000  C
  C954     1.0000 0.15740  0.74391  0.26150  Biso   1.000  C
  H935     1.0000 0.68272  0.73950  0.98220  Biso   1.000  H
  N127     1.0000 0.71466  0.05081  0.20986  Biso   1.000  N
  H936     1.0000 0.76048  0.01780  0.18270  Biso   1.000  H
  N128     1.0000 0.78532  0.05081  0.29015  Biso   1.000  N
  H937     1.0000 0.73950  0.01780  0.31728  Biso   1.000  H
  H938     1.0000 0.01780  0.81730  0.23952  Biso   1.000  H
  H939     1.0000 0.68999  0.75109  0.85618  Biso   1.000  H
  H940     1.0000 0.70639  0.80030  0.86890  Biso   1.000  H
  H941     1.0000 0.74890  0.74780  0.81361  Biso   1.000  H
  H942     1.0000 0.77121  0.79020  0.83709  Biso   1.000  H
  H943     1.0000 0.75109  0.75222  0.81361  Biso   1.000  H
  H944     1.0000 0.72881  0.70981  0.83709  Biso   1.000  H
  H945     1.0000 0.14382  0.81000  0.25110  Biso   1.000  H
  H946     1.0000 0.13110  0.79359  0.30032  Biso   1.000  H
  H947     1.0000 0.18639  0.75109  0.24778  Biso   1.000  H
  H948     1.0000 0.18639  0.74890  0.25220  Biso   1.000  H
  H949     1.0000 0.16291  0.77121  0.20980  Biso   1.000  H
  H950     1.0000 0.16291  0.72881  0.29019  Biso   1.000  H
  C955     1.0000 0.74677  0.08398  0.22427  Biso   1.000  C
  C956     1.0000 0.75325  0.08398  0.27571  Biso   1.000  C
  H951     1.0000 0.77589  0.07850  0.20940  Biso   1.000  H
  C957     1.0000 0.73153  0.13096  0.21478  Biso   1.000  C
  H952     1.0000 0.72409  0.07850  0.29059  Biso   1.000  H
  C958     1.0000 0.76845  0.13096  0.28521  Biso   1.000  C
  H953     1.0000 0.74890  0.14382  0.19000  Biso   1.000  H
  H954     1.0000 0.69968  0.13110  0.20641  Biso   1.000  H
  C959     1.0000 0.73850  0.15740  0.25609  Biso   1.000  C
  C960     1.0000 0.76151  0.15740  0.24390  Biso   1.000  C
  H955     1.0000 0.75109  0.14382  0.31001  Biso   1.000  H
  H956     1.0000 0.80030  0.13110  0.29361  Biso   1.000  H
  H957     1.0000 0.74780  0.18639  0.25110  Biso   1.000  H
  H958     1.0000 0.75222  0.18639  0.24891  Biso   1.000  H
  H959     1.0000 0.70981  0.16291  0.27119  Biso   1.000  H
  H960     1.0000 0.79020  0.16291  0.22879  Biso   1.000  H
  C961     1.0000 0.54840  0.34614  0.62952  Biso   1.000  C
  C962     1.0000 0.58698  0.36301  0.64861  Biso   1.000  C
  H961     1.0000 0.54561  0.34601  0.59811  Biso   1.000  H
  C963     1.0000 0.51420  0.32964  0.65506  Biso   1.000  C
  N129     1.0000 0.62082  0.37918  0.62082  Biso   1.000  N
  C964     1.0000 0.58971  0.36314  0.69470  Biso   1.000  C
  C965     1.0000 0.51715  0.32940  0.70134  Biso   1.000  C
  H962     1.0000 0.48829  0.31831  0.64101  Biso   1.000  H
  C966     1.0000 0.63699  0.35139  0.58698  Biso   1.000  C
  C967     1.0000 0.64861  0.41302  0.63699  Biso   1.000  C
  H963     1.0000 0.61551  0.37470  0.70872  Biso   1.000  H
  C968     1.0000 0.55560  0.34680  0.72037  Biso   1.000  C
  C969     1.0000 0.48102  0.31177  0.72947  Biso   1.000  C
  C970     1.0000 0.65386  0.37048  0.54840  Biso   1.000  C
  C971     1.0000 0.63686  0.30530  0.58971  Biso   1.000  C
  C972     1.0000 0.69470  0.41029  0.63686  Biso   1.000  C
  C973     1.0000 0.62952  0.45160  0.65386  Biso   1.000  C
  H964     1.0000 0.55829  0.34740  0.75178  Biso   1.000  H
  N130     1.0000 0.44921  0.29015  0.71466  Biso   1.000  N
  H965     1.0000 0.48218  0.31728  0.76048  Biso   1.000  H
  C974     1.0000 0.67036  0.34494  0.51420  Biso   1.000  C
  H966     1.0000 0.65399  0.40189  0.54561  Biso   1.000  H
  C975     1.0000 0.65320  0.27963  0.55560  Biso   1.000  C
  H967     1.0000 0.62530  0.29128  0.61551  Biso   1.000  H
  H968     1.0000 0.70872  0.38449  0.62530  Biso   1.000  H
  C976     1.0000 0.72037  0.44440  0.65320  Biso   1.000  C
  H969     1.0000 0.59811  0.45439  0.65399  Biso   1.000  H
  C977     1.0000 0.65506  0.48580  0.67036  Biso   1.000  C
  C978     1.0000 0.41601  0.27571  0.74677  Biso   1.000  C
  C979     1.0000 0.67060  0.29866  0.51715  Biso   1.000  C
  H970     1.0000 0.68169  0.35899  0.48829  Biso   1.000  H
  H971     1.0000 0.65260  0.24822  0.55829  Biso   1.000  H
  C980     1.0000 0.70134  0.48285  0.67060  Biso   1.000  C
  H972     1.0000 0.75178  0.44171  0.65260  Biso   1.000  H
  H973     1.0000 0.64101  0.51171  0.68169  Biso   1.000  H
  C981     1.0000 0.41601  0.22427  0.75325  Biso   1.000  C
  H974     1.0000 0.42148  0.29059  0.77589  Biso   1.000  H
  C982     1.0000 0.36905  0.28521  0.73153  Biso   1.000  C
  C983     1.0000 0.68823  0.27053  0.48102  Biso   1.000  C
  C984     1.0000 0.72947  0.51898  0.68823  Biso   1.000  C
  N131     1.0000 0.44921  0.20986  0.78532  Biso   1.000  N
  H975     1.0000 0.42148  0.20940  0.72409  Biso   1.000  H
  C985     1.0000 0.36905  0.21478  0.76845  Biso   1.000  C
  H976     1.0000 0.35620  0.31001  0.74890  Biso   1.000  H
  H977     1.0000 0.36889  0.29361  0.69968  Biso   1.000  H
  C986     1.0000 0.34259  0.25609  0.76151  Biso   1.000  C
  C987     1.0000 0.34259  0.24390  0.73850  Biso   1.000  C
  N132     1.0000 0.70985  0.28534  0.44921  Biso   1.000  N
  H978     1.0000 0.68272  0.23952  0.48218  Biso   1.000  H
  N133     1.0000 0.71466  0.55079  0.70985  Biso   1.000  N
  H979     1.0000 0.76048  0.51782  0.68272  Biso   1.000  H
  C988     1.0000 0.48102  0.18825  0.77055  Biso   1.000  C
  H980     1.0000 0.35620  0.19000  0.75109  Biso   1.000  H
  H981     1.0000 0.36889  0.20641  0.80030  Biso   1.000  H
  H982     1.0000 0.31360  0.24891  0.74780  Biso   1.000  H
  H983     1.0000 0.33711  0.27119  0.79020  Biso   1.000  H
  H984     1.0000 0.31360  0.25110  0.75222  Biso   1.000  H
  H985     1.0000 0.33711  0.22879  0.70981  Biso   1.000  H
  C989     1.0000 0.72429  0.25323  0.41601  Biso   1.000  C
  C990     1.0000 0.74677  0.58399  0.72429  Biso   1.000  C
  H986     1.0000 0.48218  0.18270  0.73950  Biso   1.000  H
  C991     1.0000 0.51715  0.17058  0.79864  Biso   1.000  C
  C992     1.0000 0.71479  0.26847  0.36905  Biso   1.000  C
  C993     1.0000 0.77573  0.24675  0.41601  Biso   1.000  C
  H987     1.0000 0.70941  0.22411  0.42148  Biso   1.000  H
  C994     1.0000 0.75325  0.58399  0.77573  Biso   1.000  C
  H988     1.0000 0.77589  0.57852  0.70941  Biso   1.000  H
  C995     1.0000 0.73153  0.63095  0.71479  Biso   1.000  C
  C996     1.0000 0.51420  0.17038  0.84496  Biso   1.000  C
  C997     1.0000 0.55560  0.15318  0.77964  Biso   1.000  C
  H989     1.0000 0.68999  0.25110  0.35620  Biso   1.000  H
  H990     1.0000 0.70639  0.30032  0.36889  Biso   1.000  H
  C998     1.0000 0.75610  0.26150  0.34259  Biso   1.000  C
  C999     1.0000 0.74391  0.23849  0.34259  Biso   1.000  C
  C1000    1.0000 0.78522  0.23155  0.36905  Biso   1.000  C
  N134     1.0000 0.79014  0.21468  0.44921  Biso   1.000  N
  H991     1.0000 0.79060  0.27591  0.42148  Biso   1.000  H
  N135     1.0000 0.78532  0.55079  0.79014  Biso   1.000  N
  H992     1.0000 0.72409  0.57852  0.79060  Biso   1.000  H
  C1001    1.0000 0.76845  0.63095  0.78522  Biso   1.000  C
  H993     1.0000 0.74890  0.64380  0.68999  Biso   1.000  H
  H994     1.0000 0.69968  0.63111  0.70639  Biso   1.000  H
  C1002    1.0000 0.73850  0.65741  0.75610  Biso   1.000  C
  C1003    1.0000 0.76151  0.65741  0.74391  Biso   1.000  C
  C1004    1.0000 0.54840  0.15388  0.87046  Biso   1.000  C
  H995     1.0000 0.48829  0.18170  0.85901  Biso   1.000  H
  C1005    1.0000 0.58971  0.13688  0.80528  Biso   1.000  C
  H996     1.0000 0.55829  0.15261  0.74820  Biso   1.000  H
  H997     1.0000 0.74890  0.24778  0.31360  Biso   1.000  H
  H998     1.0000 0.77121  0.29019  0.33711  Biso   1.000  H
  H999     1.0000 0.75109  0.25220  0.31360  Biso   1.000  H
  H1000    1.0000 0.72881  0.20980  0.33711  Biso   1.000  H
  H1001    1.0000 0.81000  0.24891  0.35620  Biso   1.000  H
  H1002    1.0000 0.79359  0.19970  0.36889  Biso   1.000  H
  C1006    1.0000 0.81175  0.22945  0.48102  Biso   1.000  C
  C1007    1.0000 0.77055  0.51898  0.81175  Biso   1.000  C
  H1003    1.0000 0.75109  0.64380  0.81000  Biso   1.000  H
  H1004    1.0000 0.80030  0.63111  0.79359  Biso   1.000  H
  H1005    1.0000 0.74780  0.68640  0.75109  Biso   1.000  H
  H1006    1.0000 0.75222  0.68640  0.74890  Biso   1.000  H
  H1007    1.0000 0.70981  0.66289  0.77121  Biso   1.000  H
  H1008    1.0000 0.79020  0.66289  0.72881  Biso   1.000  H
  C1008    1.0000 0.58698  0.13697  0.85140  Biso   1.000  C
  H1009    1.0000 0.54561  0.15401  0.90191  Biso   1.000  H
  H1010    1.0000 0.61551  0.12529  0.79130  Biso   1.000  H
  H1011    1.0000 0.81730  0.26050  0.48218  Biso   1.000  H
  C1009    1.0000 0.82942  0.20136  0.51715  Biso   1.000  C
  H1012    1.0000 0.73950  0.51782  0.81730  Biso   1.000  H
  C1010    1.0000 0.79864  0.48285  0.82942  Biso   1.000  C
  N136     1.0000 0.62082  0.12084  0.87916  Biso   1.000  N
  C1011    1.0000 0.82962  0.15504  0.51420  Biso   1.000  C
  C1012    1.0000 0.84682  0.22036  0.55560  Biso   1.000  C
  C1013    1.0000 0.84496  0.48580  0.82962  Biso   1.000  C
  C1014    1.0000 0.77964  0.44440  0.84682  Biso   1.000  C
  C1015    1.0000 0.64861  0.08697  0.86303  Biso   1.000  C
  C1016    1.0000 0.63699  0.14860  0.91303  Biso   1.000  C
  C1017    1.0000 0.84612  0.12954  0.54840  Biso   1.000  C
  H1013    1.0000 0.81830  0.14099  0.48829  Biso   1.000  H
  C1018    1.0000 0.86312  0.19472  0.58971  Biso   1.000  C
  H1014    1.0000 0.84739  0.25180  0.55829  Biso   1.000  H
  C1019    1.0000 0.87046  0.45160  0.84612  Biso   1.000  C
  H1015    1.0000 0.85901  0.51171  0.81830  Biso   1.000  H
  C1020    1.0000 0.80528  0.41029  0.86312  Biso   1.000  C
  H1016    1.0000 0.74820  0.44171  0.84739  Biso   1.000  H
  C1021    1.0000 0.62952  0.04838  0.84612  Biso   1.000  C
  C1022    1.0000 0.69470  0.08972  0.86312  Biso   1.000  C
  C1023    1.0000 0.63686  0.19472  0.91028  Biso   1.000  C
  C1024    1.0000 0.65386  0.12954  0.95162  Biso   1.000  C
  C1025    1.0000 0.86303  0.14860  0.58698  Biso   1.000  C
  H1017    1.0000 0.84599  0.09809  0.54561  Biso   1.000  H
  H1018    1.0000 0.87471  0.20870  0.61551  Biso   1.000  H
  C1026    1.0000 0.85140  0.41302  0.86303  Biso   1.000  C
  H1019    1.0000 0.90191  0.45439  0.84599  Biso   1.000  H
  H1020    1.0000 0.79130  0.38449  0.87471  Biso   1.000  H
  C1027    1.0000 0.65506  0.01418  0.82962  Biso   1.000  C
  H1021    1.0000 0.59811  0.04559  0.84599  Biso   1.000  H
  C1028    1.0000 0.72037  0.05559  0.84682  Biso   1.000  C
  H1022    1.0000 0.70872  0.11549  0.87471  Biso   1.000  H
  H1023    1.0000 0.62530  0.20870  0.88451  Biso   1.000  H
  C1029    1.0000 0.65320  0.22036  0.94441  Biso   1.000  C
  H1024    1.0000 0.65399  0.09809  0.95441  Biso   1.000  H
  C1030    1.0000 0.67036  0.15504  0.98582  Biso   1.000  C
  N137     1.0000 0.87916  0.12084  0.62082  Biso   1.000  N
  N138     1.0000 0.87916  0.37918  0.87916  Biso   1.000  N
  C1031    1.0000 0.70134  0.01713  0.82942  Biso   1.000  C
  H1025    1.0000 0.64101  0.98831  0.81830  Biso   1.000  H
  H1026    1.0000 0.75178  0.05831  0.84739  Biso   1.000  H
  C1032    1.0000 0.67060  0.20136  0.98287  Biso   1.000  C
  H1027    1.0000 0.65260  0.25180  0.94169  Biso   1.000  H
  H1028    1.0000 0.68169  0.14099  0.01169  Biso   1.000  H
  C1033    1.0000 0.85140  0.08697  0.63699  Biso   1.000  C
  C1034    1.0000 0.91303  0.13697  0.64861  Biso   1.000  C
  C1035    1.0000 0.91303  0.36301  0.85140  Biso   1.000  C
  C1036    1.0000 0.86303  0.35139  0.91303  Biso   1.000  C
  C1037    1.0000 0.72947  0.98104  0.81175  Biso   1.000  C
  C1038    1.0000 0.68823  0.22945  0.01896  Biso   1.000  C
  C1039    1.0000 0.80528  0.08972  0.63686  Biso   1.000  C
  C1040    1.0000 0.87046  0.04838  0.65386  Biso   1.000  C
  C1041    1.0000 0.91028  0.13688  0.69470  Biso   1.000  C
  C1042    1.0000 0.95162  0.15388  0.62952  Biso   1.000  C
  C1043    1.0000 0.95162  0.34614  0.87046  Biso   1.000  C
  C1044    1.0000 0.91028  0.36314  0.80528  Biso   1.000  C
  C1045    1.0000 0.86312  0.30530  0.91028  Biso   1.000  C
  C1046    1.0000 0.84612  0.37048  0.95162  Biso   1.000  C
  N139     1.0000 0.71466  0.94919  0.79014  Biso   1.000  N
  H1029    1.0000 0.76048  0.98220  0.81730  Biso   1.000  H
  N140     1.0000 0.70985  0.21468  0.05081  Biso   1.000  N
  H1030    1.0000 0.68272  0.26050  0.01780  Biso   1.000  H
  H1031    1.0000 0.79130  0.11549  0.62530  Biso   1.000  H
  C1047    1.0000 0.77964  0.05559  0.65320  Biso   1.000  C
  H1032    1.0000 0.90191  0.04559  0.65399  Biso   1.000  H
  C1048    1.0000 0.84496  0.01418  0.67036  Biso   1.000  C
  H1033    1.0000 0.88451  0.12529  0.70872  Biso   1.000  H
  C1049    1.0000 0.94441  0.15318  0.72037  Biso   1.000  C
  H1034    1.0000 0.95441  0.15401  0.59811  Biso   1.000  H
  C1050    1.0000 0.98582  0.17038  0.65506  Biso   1.000  C
  C1051    1.0000 0.98582  0.32964  0.84496  Biso   1.000  C
  H1035    1.0000 0.95441  0.34601  0.90191  Biso   1.000  H
  C1052    1.0000 0.94441  0.34680  0.77964  Biso   1.000  C
  H1036    1.0000 0.88451  0.37470  0.79130  Biso   1.000  H
  H1037    1.0000 0.87471  0.29128  0.88451  Biso   1.000  H
  C1053    1.0000 0.84682  0.27963  0.94441  Biso   1.000  C
  H1038    1.0000 0.84599  0.40189  0.95441  Biso   1.000  H
  C1054    1.0000 0.82962  0.34494  0.98582  Biso   1.000  C
  C1055    1.0000 0.74677  0.91602  0.77573  Biso   1.000  C
  C1056    1.0000 0.72429  0.24675  0.08398  Biso   1.000  C
  C1057    1.0000 0.79864  0.01713  0.67060  Biso   1.000  C
  H1039    1.0000 0.74820  0.05831  0.65260  Biso   1.000  H
  H1040    1.0000 0.85901  0.98831  0.68169  Biso   1.000  H
  C1058    1.0000 0.98287  0.17058  0.70134  Biso   1.000  C
  H1041    1.0000 0.94169  0.15261  0.75178  Biso   1.000  H
  H1042    1.0000 0.01169  0.18170  0.64101  Biso   1.000  H
  C1059    1.0000 0.98287  0.32940  0.79864  Biso   1.000  C
  H1043    1.0000 0.01169  0.31831  0.85901  Biso   1.000  H
  H1044    1.0000 0.94169  0.34740  0.74820  Biso   1.000  H
  C1060    1.0000 0.82942  0.29866  0.98287  Biso   1.000  C
  H1045    1.0000 0.84739  0.24822  0.94169  Biso   1.000  H
  H1046    1.0000 0.81830  0.35899  0.01169  Biso   1.000  H
  C1061    1.0000 0.75325  0.91602  0.72429  Biso   1.000  C
  H1047    1.0000 0.77589  0.92150  0.79060  Biso   1.000  H
  C1062    1.0000 0.73153  0.86904  0.78522  Biso   1.000  C
  C1063    1.0000 0.77573  0.25323  0.08398  Biso   1.000  C
  H1048    1.0000 0.70941  0.27591  0.07850  Biso   1.000  H
  C1064    1.0000 0.71479  0.23155  0.13096  Biso   1.000  C
  C1065    1.0000 0.77055  0.98104  0.68823  Biso   1.000  C
  C1066    1.0000 0.01896  0.18825  0.72947  Biso   1.000  C
  C1067    1.0000 0.01896  0.31177  0.77055  Biso   1.000  C
  C1068    1.0000 0.81175  0.27053  0.01896  Biso   1.000  C
  N141     1.0000 0.78532  0.94919  0.70985  Biso   1.000  N
  H1049    1.0000 0.72409  0.92150  0.70941  Biso   1.000  H
  C1069    1.0000 0.76845  0.86904  0.71479  Biso   1.000  C
  C1070    1.0000 0.73850  0.84260  0.74391  Biso   1.000  C
  C1071    1.0000 0.76151  0.84260  0.75610  Biso   1.000  C
  H1050    1.0000 0.74890  0.85618  0.81000  Biso   1.000  H
  H1051    1.0000 0.69968  0.86890  0.79359  Biso   1.000  H
  N142     1.0000 0.79014  0.28534  0.05081  Biso   1.000  N
  H1052    1.0000 0.79060  0.22411  0.07850  Biso   1.000  H
  C1072    1.0000 0.78522  0.26847  0.13096  Biso   1.000  C
  H1053    1.0000 0.68999  0.24891  0.14382  Biso   1.000  H
  H1054    1.0000 0.70639  0.19970  0.13110  Biso   1.000  H
  C1073    1.0000 0.74391  0.26150  0.15740  Biso   1.000  C
  C1074    1.0000 0.75610  0.23849  0.15740  Biso   1.000  C
  H1055    1.0000 0.73950  0.98220  0.68272  Biso   1.000  H
  N143     1.0000 0.05081  0.20986  0.71466  Biso   1.000  N
  H1056    1.0000 0.01780  0.18270  0.76048  Biso   1.000  H
  N144     1.0000 0.05081  0.29015  0.78532  Biso   1.000  N
  H1057    1.0000 0.01780  0.31728  0.73950  Biso   1.000  H
  H1058    1.0000 0.81730  0.23952  0.01780  Biso   1.000  H
  H1059    1.0000 0.75109  0.85618  0.68999  Biso   1.000  H
  H1060    1.0000 0.80030  0.86890  0.70639  Biso   1.000  H
  H1061    1.0000 0.75222  0.81361  0.75109  Biso   1.000  H
  H1062    1.0000 0.70981  0.83709  0.72881  Biso   1.000  H
  H1063    1.0000 0.74780  0.81361  0.74890  Biso   1.000  H
  H1064    1.0000 0.79020  0.83709  0.77121  Biso   1.000  H
  H1065    1.0000 0.81000  0.25110  0.14382  Biso   1.000  H
  H1066    1.0000 0.79359  0.30032  0.13110  Biso   1.000  H
  H1067    1.0000 0.75109  0.24778  0.18639  Biso   1.000  H
  H1068    1.0000 0.72881  0.29019  0.16291  Biso   1.000  H
  H1069    1.0000 0.74890  0.25220  0.18639  Biso   1.000  H
  H1070    1.0000 0.77121  0.20980  0.16291  Biso   1.000  H
  C1075    1.0000 0.08398  0.22427  0.74677  Biso   1.000  C
  C1076    1.0000 0.08398  0.27571  0.75325  Biso   1.000  C
  H1071    1.0000 0.07850  0.20940  0.77589  Biso   1.000  H
  C1077    1.0000 0.13096  0.21478  0.73153  Biso   1.000  C
  H1072    1.0000 0.07850  0.29059  0.72409  Biso   1.000  H
  C1078    1.0000 0.13096  0.28521  0.76845  Biso   1.000  C
  H1073    1.0000 0.14382  0.19000  0.74890  Biso   1.000  H
  H1074    1.0000 0.13110  0.20641  0.69968  Biso   1.000  H
  C1079    1.0000 0.15740  0.25609  0.73850  Biso   1.000  C
  C1080    1.0000 0.15740  0.24390  0.76151  Biso   1.000  C
  H1075    1.0000 0.14382  0.31001  0.75109  Biso   1.000  H
  H1076    1.0000 0.13110  0.29361  0.80030  Biso   1.000  H
  H1077    1.0000 0.18639  0.25110  0.74780  Biso   1.000  H
  H1078    1.0000 0.18639  0.24891  0.75222  Biso   1.000  H
  H1079    1.0000 0.16291  0.27119  0.70981  Biso   1.000  H
  H1080    1.0000 0.16291  0.22879  0.79020  Biso   1.000  H
  C1081    1.0000 0.34614  0.62952  0.54840  Biso   1.000  C
  C1082    1.0000 0.36301  0.64861  0.58698  Biso   1.000  C
  H1081    1.0000 0.34601  0.59811  0.54561  Biso   1.000  H
  C1083    1.0000 0.32964  0.65506  0.51420  Biso   1.000  C
  N145     1.0000 0.37918  0.62082  0.62082  Biso   1.000  N
  C1084    1.0000 0.36314  0.69470  0.58971  Biso   1.000  C
  C1085    1.0000 0.32940  0.70134  0.51715  Biso   1.000  C
  H1082    1.0000 0.31831  0.64101  0.48829  Biso   1.000  H
  C1086    1.0000 0.35139  0.58698  0.63699  Biso   1.000  C
  C1087    1.0000 0.41302  0.63699  0.64861  Biso   1.000  C
  H1083    1.0000 0.37470  0.70872  0.61551  Biso   1.000  H
  C1088    1.0000 0.34680  0.72037  0.55560  Biso   1.000  C
  C1089    1.0000 0.31177  0.72947  0.48102  Biso   1.000  C
  C1090    1.0000 0.37048  0.54840  0.65386  Biso   1.000  C
  C1091    1.0000 0.30530  0.58971  0.63686  Biso   1.000  C
  C1092    1.0000 0.41029  0.63686  0.69470  Biso   1.000  C
  C1093    1.0000 0.45160  0.65386  0.62952  Biso   1.000  C
  H1084    1.0000 0.34740  0.75178  0.55829  Biso   1.000  H
  N146     1.0000 0.29015  0.71466  0.44921  Biso   1.000  N
  H1085    1.0000 0.31728  0.76048  0.48218  Biso   1.000  H
  C1094    1.0000 0.34494  0.51420  0.67036  Biso   1.000  C
  H1086    1.0000 0.40189  0.54561  0.65399  Biso   1.000  H
  C1095    1.0000 0.27963  0.55560  0.65320  Biso   1.000  C
  H1087    1.0000 0.29128  0.61551  0.62530  Biso   1.000  H
  H1088    1.0000 0.38449  0.62530  0.70872  Biso   1.000  H
  C1096    1.0000 0.44440  0.65320  0.72037  Biso   1.000  C
  H1089    1.0000 0.45439  0.65399  0.59811  Biso   1.000  H
  C1097    1.0000 0.48580  0.67036  0.65506  Biso   1.000  C
  C1098    1.0000 0.27571  0.74677  0.41601  Biso   1.000  C
  C1099    1.0000 0.29866  0.51715  0.67060  Biso   1.000  C
  H1090    1.0000 0.35899  0.48829  0.68169  Biso   1.000  H
  H1091    1.0000 0.24822  0.55829  0.65260  Biso   1.000  H
  C1100    1.0000 0.48285  0.67060  0.70134  Biso   1.000  C
  H1092    1.0000 0.44171  0.65260  0.75178  Biso   1.000  H
  H1093    1.0000 0.51171  0.68169  0.64101  Biso   1.000  H
  C1101    1.0000 0.22427  0.75325  0.41601  Biso   1.000  C
  H1094    1.0000 0.29059  0.77589  0.42148  Biso   1.000  H
  C1102    1.0000 0.28521  0.73153  0.36905  Biso   1.000  C
  C1103    1.0000 0.27053  0.48102  0.68823  Biso   1.000  C
  C1104    1.0000 0.51898  0.68823  0.72947  Biso   1.000  C
  N147     1.0000 0.20986  0.78532  0.44921  Biso   1.000  N
  H1095    1.0000 0.20940  0.72409  0.42148  Biso   1.000  H
  C1105    1.0000 0.21478  0.76845  0.36905  Biso   1.000  C
  H1096    1.0000 0.31001  0.74890  0.35620  Biso   1.000  H
  H1097    1.0000 0.29361  0.69968  0.36889  Biso   1.000  H
  C1106    1.0000 0.25609  0.76151  0.34259  Biso   1.000  C
  C1107    1.0000 0.24390  0.73850  0.34259  Biso   1.000  C
  N148     1.0000 0.28534  0.44921  0.70985  Biso   1.000  N
  H1098    1.0000 0.23952  0.48218  0.68272  Biso   1.000  H
  N149     1.0000 0.55079  0.70985  0.71466  Biso   1.000  N
  H1099    1.0000 0.51782  0.68272  0.76048  Biso   1.000  H
  C1108    1.0000 0.18825  0.77055  0.48102  Biso   1.000  C
  H1100    1.0000 0.19000  0.75109  0.35620  Biso   1.000  H
  H1101    1.0000 0.20641  0.80030  0.36889  Biso   1.000  H
  H1102    1.0000 0.24891  0.74780  0.31360  Biso   1.000  H
  H1103    1.0000 0.27119  0.79020  0.33711  Biso   1.000  H
  H1104    1.0000 0.25110  0.75222  0.31360  Biso   1.000  H
  H1105    1.0000 0.22879  0.70981  0.33711  Biso   1.000  H
  C1109    1.0000 0.25323  0.41601  0.72429  Biso   1.000  C
  C1110    1.0000 0.58399  0.72429  0.74677  Biso   1.000  C
  H1106    1.0000 0.18270  0.73950  0.48218  Biso   1.000  H
  C1111    1.0000 0.17058  0.79864  0.51715  Biso   1.000  C
  C1112    1.0000 0.26847  0.36905  0.71479  Biso   1.000  C
  C1113    1.0000 0.24675  0.41601  0.77573  Biso   1.000  C
  H1107    1.0000 0.22411  0.42148  0.70941  Biso   1.000  H
  C1114    1.0000 0.58399  0.77573  0.75325  Biso   1.000  C
  H1108    1.0000 0.57852  0.70941  0.77589  Biso   1.000  H
  C1115    1.0000 0.63095  0.71479  0.73153  Biso   1.000  C
  C1116    1.0000 0.17038  0.84496  0.51420  Biso   1.000  C
  C1117    1.0000 0.15318  0.77964  0.55560  Biso   1.000  C
  C1118    1.0000 0.23849  0.34259  0.74391  Biso   1.000  C
  H1109    1.0000 0.25110  0.35620  0.68999  Biso   1.000  H
  H1110    1.0000 0.30032  0.36889  0.70639  Biso   1.000  H
  C1119    1.0000 0.26150  0.34259  0.75610  Biso   1.000  C
  C1120    1.0000 0.23155  0.36905  0.78522  Biso   1.000  C
  N150     1.0000 0.21468  0.44921  0.79014  Biso   1.000  N
  H1111    1.0000 0.27591  0.42148  0.79060  Biso   1.000  H
  N151     1.0000 0.55079  0.79014  0.78532  Biso   1.000  N
  H1112    1.0000 0.57852  0.79060  0.72409  Biso   1.000  H
  C1121    1.0000 0.63095  0.78522  0.76845  Biso   1.000  C
  H1113    1.0000 0.64380  0.68999  0.74890  Biso   1.000  H
  H1114    1.0000 0.63111  0.70639  0.69968  Biso   1.000  H
  C1122    1.0000 0.65741  0.75610  0.73850  Biso   1.000  C
  C1123    1.0000 0.65741  0.74391  0.76151  Biso   1.000  C
  C1124    1.0000 0.15388  0.87046  0.54840  Biso   1.000  C
  H1115    1.0000 0.18170  0.85901  0.48829  Biso   1.000  H
  C1125    1.0000 0.13688  0.80528  0.58971  Biso   1.000  C
  H1116    1.0000 0.15261  0.74820  0.55829  Biso   1.000  H
  H1117    1.0000 0.25220  0.31360  0.75109  Biso   1.000  H
  H1118    1.0000 0.20980  0.33711  0.72881  Biso   1.000  H
  H1119    1.0000 0.24778  0.31360  0.74890  Biso   1.000  H
  H1120    1.0000 0.29019  0.33711  0.77121  Biso   1.000  H
  H1121    1.0000 0.24891  0.35620  0.81000  Biso   1.000  H
  H1122    1.0000 0.19970  0.36889  0.79359  Biso   1.000  H
  C1126    1.0000 0.22945  0.48102  0.81175  Biso   1.000  C
  C1127    1.0000 0.51898  0.81175  0.77055  Biso   1.000  C
  H1123    1.0000 0.64380  0.81000  0.75109  Biso   1.000  H
  H1124    1.0000 0.63111  0.79359  0.80030  Biso   1.000  H
  H1125    1.0000 0.68640  0.75109  0.74780  Biso   1.000  H
  H1126    1.0000 0.68640  0.74890  0.75222  Biso   1.000  H
  H1127    1.0000 0.66289  0.77121  0.70981  Biso   1.000  H
  H1128    1.0000 0.66289  0.72881  0.79020  Biso   1.000  H
  C1128    1.0000 0.13697  0.85140  0.58698  Biso   1.000  C
  H1129    1.0000 0.15401  0.90191  0.54561  Biso   1.000  H
  H1130    1.0000 0.12529  0.79130  0.61551  Biso   1.000  H
  H1131    1.0000 0.26050  0.48218  0.81730  Biso   1.000  H
  C1129    1.0000 0.20136  0.51715  0.82942  Biso   1.000  C
  H1132    1.0000 0.51782  0.81730  0.73950  Biso   1.000  H
  C1130    1.0000 0.48285  0.82942  0.79864  Biso   1.000  C
  N152     1.0000 0.12084  0.87916  0.62082  Biso   1.000  N
  C1131    1.0000 0.15504  0.51420  0.82962  Biso   1.000  C
  C1132    1.0000 0.22036  0.55560  0.84682  Biso   1.000  C
  C1133    1.0000 0.48580  0.82962  0.84496  Biso   1.000  C
  C1134    1.0000 0.44440  0.84682  0.77964  Biso   1.000  C
  C1135    1.0000 0.08697  0.86303  0.64861  Biso   1.000  C
  C1136    1.0000 0.14860  0.91303  0.63699  Biso   1.000  C
  C1137    1.0000 0.12954  0.54840  0.84612  Biso   1.000  C
  H1133    1.0000 0.14099  0.48829  0.81830  Biso   1.000  H
  C1138    1.0000 0.19472  0.58971  0.86312  Biso   1.000  C
  H1134    1.0000 0.25180  0.55829  0.84739  Biso   1.000  H
  C1139    1.0000 0.45160  0.84612  0.87046  Biso   1.000  C
  H1135    1.0000 0.51171  0.81830  0.85901  Biso   1.000  H
  C1140    1.0000 0.41029  0.86312  0.80528  Biso   1.000  C
  H1136    1.0000 0.44171  0.84739  0.74820  Biso   1.000  H
  C1141    1.0000 0.04838  0.84612  0.62952  Biso   1.000  C
  C1142    1.0000 0.08972  0.86312  0.69470  Biso   1.000  C
  C1143    1.0000 0.19472  0.91028  0.63686  Biso   1.000  C
  C1144    1.0000 0.12954  0.95162  0.65386  Biso   1.000  C
  C1145    1.0000 0.14860  0.58698  0.86303  Biso   1.000  C
  H1137    1.0000 0.09809  0.54561  0.84599  Biso   1.000  H
  H1138    1.0000 0.20870  0.61551  0.87471  Biso   1.000  H
  C1146    1.0000 0.41302  0.86303  0.85140  Biso   1.000  C
  H1139    1.0000 0.45439  0.84599  0.90191  Biso   1.000  H
  H1140    1.0000 0.38449  0.87471  0.79130  Biso   1.000  H
  C1147    1.0000 0.01418  0.82962  0.65506  Biso   1.000  C
  H1141    1.0000 0.04559  0.84599  0.59811  Biso   1.000  H
  C1148    1.0000 0.05559  0.84682  0.72037  Biso   1.000  C
  H1142    1.0000 0.11549  0.87471  0.70872  Biso   1.000  H
  H1143    1.0000 0.20870  0.88451  0.62530  Biso   1.000  H
  C1149    1.0000 0.22036  0.94441  0.65320  Biso   1.000  C
  H1144    1.0000 0.09809  0.95441  0.65399  Biso   1.000  H
  C1150    1.0000 0.15504  0.98582  0.67036  Biso   1.000  C
  N153     1.0000 0.12084  0.62082  0.87916  Biso   1.000  N
  N154     1.0000 0.37918  0.87916  0.87916  Biso   1.000  N
  C1151    1.0000 0.01713  0.82942  0.70134  Biso   1.000  C
  H1145    1.0000 0.98831  0.81830  0.64101  Biso   1.000  H
  H1146    1.0000 0.05831  0.84739  0.75178  Biso   1.000  H
  C1152    1.0000 0.20136  0.98287  0.67060  Biso   1.000  C
  H1147    1.0000 0.25180  0.94169  0.65260  Biso   1.000  H
  H1148    1.0000 0.14099  0.01169  0.68169  Biso   1.000  H
  C1153    1.0000 0.08697  0.63699  0.85140  Biso   1.000  C
  C1154    1.0000 0.13697  0.64861  0.91303  Biso   1.000  C
  C1155    1.0000 0.36301  0.85140  0.91303  Biso   1.000  C
  C1156    1.0000 0.35139  0.91303  0.86303  Biso   1.000  C
  C1157    1.0000 0.98104  0.81175  0.72947  Biso   1.000  C
  C1158    1.0000 0.22945  0.01896  0.68823  Biso   1.000  C
  C1159    1.0000 0.08972  0.63686  0.80528  Biso   1.000  C
  C1160    1.0000 0.04838  0.65386  0.87046  Biso   1.000  C
  C1161    1.0000 0.13688  0.69470  0.91028  Biso   1.000  C
  C1162    1.0000 0.15388  0.62952  0.95162  Biso   1.000  C
  C1163    1.0000 0.34614  0.87046  0.95162  Biso   1.000  C
  C1164    1.0000 0.36314  0.80528  0.91028  Biso   1.000  C
  C1165    1.0000 0.30530  0.91028  0.86312  Biso   1.000  C
  C1166    1.0000 0.37048  0.95162  0.84612  Biso   1.000  C
  N155     1.0000 0.94919  0.79014  0.71466  Biso   1.000  N
  H1149    1.0000 0.98220  0.81730  0.76048  Biso   1.000  H
  N156     1.0000 0.21468  0.05081  0.70985  Biso   1.000  N
  H1150    1.0000 0.26050  0.01780  0.68272  Biso   1.000  H
  H1151    1.0000 0.11549  0.62530  0.79130  Biso   1.000  H
  C1167    1.0000 0.05559  0.65320  0.77964  Biso   1.000  C
  H1152    1.0000 0.04559  0.65399  0.90191  Biso   1.000  H
  C1168    1.0000 0.01418  0.67036  0.84496  Biso   1.000  C
  H1153    1.0000 0.12529  0.70872  0.88451  Biso   1.000  H
  C1169    1.0000 0.15318  0.72037  0.94441  Biso   1.000  C
  H1154    1.0000 0.15401  0.59811  0.95441  Biso   1.000  H
  C1170    1.0000 0.17038  0.65506  0.98582  Biso   1.000  C
  C1171    1.0000 0.32964  0.84496  0.98582  Biso   1.000  C
  H1155    1.0000 0.34601  0.90191  0.95441  Biso   1.000  H
  C1172    1.0000 0.34680  0.77964  0.94441  Biso   1.000  C
  H1156    1.0000 0.37470  0.79130  0.88451  Biso   1.000  H
  H1157    1.0000 0.29128  0.88451  0.87471  Biso   1.000  H
  C1173    1.0000 0.27963  0.94441  0.84682  Biso   1.000  C
  H1158    1.0000 0.40189  0.95441  0.84599  Biso   1.000  H
  C1174    1.0000 0.34494  0.98582  0.82962  Biso   1.000  C
  C1175    1.0000 0.91602  0.77573  0.74677  Biso   1.000  C
  C1176    1.0000 0.24675  0.08398  0.72429  Biso   1.000  C
  C1177    1.0000 0.01713  0.67060  0.79864  Biso   1.000  C
  H1159    1.0000 0.05831  0.65260  0.74820  Biso   1.000  H
  H1160    1.0000 0.98831  0.68169  0.85901  Biso   1.000  H
  C1178    1.0000 0.17058  0.70134  0.98287  Biso   1.000  C
  H1161    1.0000 0.15261  0.75178  0.94169  Biso   1.000  H
  H1162    1.0000 0.18170  0.64101  0.01169  Biso   1.000  H
  C1179    1.0000 0.32940  0.79864  0.98287  Biso   1.000  C
  H1163    1.0000 0.31831  0.85901  0.01169  Biso   1.000  H
  H1164    1.0000 0.34740  0.74820  0.94169  Biso   1.000  H
  C1180    1.0000 0.29866  0.98287  0.82942  Biso   1.000  C
  H1165    1.0000 0.24822  0.94169  0.84739  Biso   1.000  H
  H1166    1.0000 0.35899  0.01169  0.81830  Biso   1.000  H
  C1181    1.0000 0.91602  0.72429  0.75325  Biso   1.000  C
  H1167    1.0000 0.92150  0.79060  0.77589  Biso   1.000  H
  C1182    1.0000 0.86904  0.78522  0.73153  Biso   1.000  C
  C1183    1.0000 0.25323  0.08398  0.77573  Biso   1.000  C
  H1168    1.0000 0.27591  0.07850  0.70941  Biso   1.000  H
  C1184    1.0000 0.23155  0.13096  0.71479  Biso   1.000  C
  C1185    1.0000 0.98104  0.68823  0.77055  Biso   1.000  C
  C1186    1.0000 0.18825  0.72947  0.01896  Biso   1.000  C
  C1187    1.0000 0.31177  0.77055  0.01896  Biso   1.000  C
  C1188    1.0000 0.27053  0.01896  0.81175  Biso   1.000  C
  N157     1.0000 0.94919  0.70985  0.78532  Biso   1.000  N
  H1169    1.0000 0.92150  0.70941  0.72409  Biso   1.000  H
  C1189    1.0000 0.86904  0.71479  0.76845  Biso   1.000  C
  C1190    1.0000 0.84260  0.75610  0.76151  Biso   1.000  C
  C1191    1.0000 0.84260  0.74391  0.73850  Biso   1.000  C
  H1170    1.0000 0.85618  0.81000  0.74890  Biso   1.000  H
  H1171    1.0000 0.86890  0.79359  0.69968  Biso   1.000  H
  N158     1.0000 0.28534  0.05081  0.79014  Biso   1.000  N
  H1172    1.0000 0.22411  0.07850  0.79060  Biso   1.000  H
  C1192    1.0000 0.26847  0.13096  0.78522  Biso   1.000  C
  H1173    1.0000 0.24891  0.14382  0.68999  Biso   1.000  H
  H1174    1.0000 0.19970  0.13110  0.70639  Biso   1.000  H
  C1193    1.0000 0.23849  0.15740  0.75610  Biso   1.000  C
  C1194    1.0000 0.26150  0.15740  0.74391  Biso   1.000  C
  H1175    1.0000 0.98220  0.68272  0.73950  Biso   1.000  H
  N159     1.0000 0.20986  0.71466  0.05081  Biso   1.000  N
  H1176    1.0000 0.18270  0.76048  0.01780  Biso   1.000  H
  N160     1.0000 0.29015  0.78532  0.05081  Biso   1.000  N
  H1177    1.0000 0.31728  0.73950  0.01780  Biso   1.000  H
  H1178    1.0000 0.23952  0.01780  0.81730  Biso   1.000  H
  H1179    1.0000 0.85618  0.68999  0.75109  Biso   1.000  H
  H1180    1.0000 0.86890  0.70639  0.80030  Biso   1.000  H
  H1181    1.0000 0.81361  0.74890  0.74780  Biso   1.000  H
  H1182    1.0000 0.83709  0.77121  0.79020  Biso   1.000  H
  H1183    1.0000 0.81361  0.75109  0.75222  Biso   1.000  H
  H1184    1.0000 0.83709  0.72881  0.70981  Biso   1.000  H
  H1185    1.0000 0.25110  0.14382  0.81000  Biso   1.000  H
  H1186    1.0000 0.30032  0.13110  0.79359  Biso   1.000  H
  H1187    1.0000 0.24778  0.18639  0.75109  Biso   1.000  H
  H1188    1.0000 0.25220  0.18639  0.74890  Biso   1.000  H
  H1189    1.0000 0.20980  0.16291  0.77121  Biso   1.000  H
  H1190    1.0000 0.29019  0.16291  0.72881  Biso   1.000  H
  C1195    1.0000 0.22427  0.74677  0.08398  Biso   1.000  C
  C1196    1.0000 0.27571  0.75325  0.08398  Biso   1.000  C
  H1191    1.0000 0.20940  0.77589  0.07850  Biso   1.000  H
  C1197    1.0000 0.21478  0.73153  0.13096  Biso   1.000  C
  H1192    1.0000 0.29059  0.72409  0.07850  Biso   1.000  H
  C1198    1.0000 0.28521  0.76845  0.13096  Biso   1.000  C
  H1193    1.0000 0.19000  0.74890  0.14382  Biso   1.000  H
  H1194    1.0000 0.20641  0.69968  0.13110  Biso   1.000  H
  C1199    1.0000 0.24390  0.76151  0.15740  Biso   1.000  C
  C1200    1.0000 0.25609  0.73850  0.15740  Biso   1.000  C
  H1195    1.0000 0.31001  0.75109  0.14382  Biso   1.000  H
  H1196    1.0000 0.29361  0.80030  0.13110  Biso   1.000  H
  H1197    1.0000 0.25110  0.74780  0.18639  Biso   1.000  H
  H1198    1.0000 0.22879  0.79020  0.16291  Biso   1.000  H
  H1199    1.0000 0.24891  0.75222  0.18639  Biso   1.000  H
  H1200    1.0000 0.27119  0.70981  0.16291  Biso   1.000  H
  C1201    1.0000 0.26897  0.97945  0.06176  Biso   1.000  C
  N161     1.0000 0.30078  0.96467  0.04015  Biso   1.000  N
  H1201    1.0000 0.26781  0.01049  0.06731  Biso   1.000  H
  C1202    1.0000 0.23287  0.95135  0.07940  Biso   1.000  C
  C1203    1.0000 0.33399  0.99678  0.02570  Biso   1.000  C
  C1204    1.0000 0.23580  0.90506  0.07963  Biso   1.000  C
  C1205    1.0000 0.19442  0.97035  0.09683  Biso   1.000  C
  C1206    1.0000 0.38097  0.98154  0.03523  Biso   1.000  C
  C1207    1.0000 0.33399  0.00322  0.97430  Biso   1.000  C
  H1202    1.0000 0.32851  0.02590  0.04061  Biso   1.000  H
  C1208    1.0000 0.20159  0.87953  0.09613  Biso   1.000  C
  H1203    1.0000 0.26170  0.89098  0.06830  Biso   1.000  H
  H1204    1.0000 0.19170  0.00179  0.09739  Biso   1.000  H
  C1209    1.0000 0.16029  0.94471  0.11313  Biso   1.000  C
  C1210    1.0000 0.40740  0.01149  0.00608  Biso   1.000  C
  C1211    1.0000 0.40740  0.98851  0.99392  Biso   1.000  C
  H1205    1.0000 0.39379  0.99890  0.06000  Biso   1.000  H
  H1206    1.0000 0.38111  0.94969  0.04360  Biso   1.000  H
  C1212    1.0000 0.38097  0.01846  0.96477  Biso   1.000  C
  H1207    1.0000 0.32851  0.97410  0.95939  Biso   1.000  H
  N162     1.0000 0.30078  0.03533  0.95985  Biso   1.000  N
  C1213    1.0000 0.16304  0.89859  0.11303  Biso   1.000  C
  H1208    1.0000 0.20442  0.84812  0.09600  Biso   1.000  H
  H1209    1.0000 0.13448  0.95869  0.12469  Biso   1.000  H
  H1210    1.0000 0.43639  0.00219  0.00110  Biso   1.000  H
  H1211    1.0000 0.41288  0.04021  0.02119  Biso   1.000  H
  H1212    1.0000 0.43639  0.99781  0.99890  Biso   1.000  H
  H1213    1.0000 0.41288  0.95979  0.97881  Biso   1.000  H
  H1214    1.0000 0.39379  0.00110  0.94000  Biso   1.000  H
  H1215    1.0000 0.38111  0.05031  0.95640  Biso   1.000  H
  C1214    1.0000 0.26897  0.02055  0.93824  Biso   1.000  C
  N163     1.0000 0.12917  0.87083  0.12917  Biso   1.000  N
  H1216    1.0000 0.26781  0.98951  0.93269  Biso   1.000  H
  C1215    1.0000 0.23287  0.04865  0.92060  Biso   1.000  C
  C1216    1.0000 0.10141  0.88697  0.16304  Biso   1.000  C
  C1217    1.0000 0.11303  0.83696  0.10141  Biso   1.000  C
  C1218    1.0000 0.23580  0.09494  0.92037  Biso   1.000  C
  C1219    1.0000 0.19442  0.02965  0.90317  Biso   1.000  C
  C1220    1.0000 0.05529  0.88687  0.16029  Biso   1.000  C
  C1221    1.0000 0.12047  0.90387  0.20159  Biso   1.000  C
  C1222    1.0000 0.11313  0.83971  0.05529  Biso   1.000  C
  C1223    1.0000 0.09613  0.79841  0.12047  Biso   1.000  C
  C1224    1.0000 0.20159  0.12047  0.90387  Biso   1.000  C
  H1217    1.0000 0.26170  0.10902  0.93170  Biso   1.000  H
  H1218    1.0000 0.19170  0.99821  0.90261  Biso   1.000  H
  C1225    1.0000 0.16029  0.05529  0.88687  Biso   1.000  C
  H1219    1.0000 0.04131  0.87531  0.13448  Biso   1.000  H
  C1226    1.0000 0.02965  0.90317  0.19442  Biso   1.000  C
  H1220    1.0000 0.15188  0.90400  0.20442  Biso   1.000  H
  C1227    1.0000 0.09494  0.92037  0.23580  Biso   1.000  C
  H1221    1.0000 0.12469  0.86552  0.04131  Biso   1.000  H
  C1228    1.0000 0.09683  0.80558  0.02965  Biso   1.000  C
  H1222    1.0000 0.09600  0.79558  0.15188  Biso   1.000  H
  C1229    1.0000 0.07963  0.76420  0.09494  Biso   1.000  C
  C1230    1.0000 0.16304  0.10141  0.88697  Biso   1.000  C
  H1223    1.0000 0.20442  0.15188  0.90400  Biso   1.000  H
  H1224    1.0000 0.13448  0.04131  0.87531  Biso   1.000  H
  H1225    1.0000 0.99821  0.90261  0.19170  Biso   1.000  H
  C1231    1.0000 0.04865  0.92060  0.23287  Biso   1.000  C
  H1226    1.0000 0.10902  0.93170  0.26170  Biso   1.000  H
  H1227    1.0000 0.09739  0.80830  0.99821  Biso   1.000  H
  C1232    1.0000 0.07940  0.76713  0.04865  Biso   1.000  C
  H1228    1.0000 0.06830  0.73830  0.10902  Biso   1.000  H
  N164     1.0000 0.12917  0.12917  0.87083  Biso   1.000  N
  C1233    1.0000 0.02055  0.93824  0.26897  Biso   1.000  C
  C1234    1.0000 0.06176  0.73103  0.02055  Biso   1.000  C
  C1235    1.0000 0.10141  0.11303  0.83696  Biso   1.000  C
  C1236    1.0000 0.11303  0.16304  0.89859  Biso   1.000  C
  H1229    1.0000 0.98951  0.93269  0.26781  Biso   1.000  H
  N165     1.0000 0.03533  0.95985  0.30078  Biso   1.000  N
  H1230    1.0000 0.06731  0.73219  0.98951  Biso   1.000  H
  N166     1.0000 0.04015  0.69922  0.03533  Biso   1.000  N
  C1237    1.0000 0.05529  0.11313  0.83971  Biso   1.000  C
  C1238    1.0000 0.12047  0.09613  0.79841  Biso   1.000  C
  C1239    1.0000 0.11313  0.16029  0.94471  Biso   1.000  C
  C1240    1.0000 0.09613  0.20159  0.87953  Biso   1.000  C
  C1241    1.0000 0.00322  0.97430  0.33399  Biso   1.000  C
  C1242    1.0000 0.02570  0.66601  0.00322  Biso   1.000  C
  H1231    1.0000 0.04131  0.12469  0.86552  Biso   1.000  H
  C1243    1.0000 0.02965  0.09683  0.80558  Biso   1.000  C
  H1232    1.0000 0.15188  0.09600  0.79558  Biso   1.000  H
  C1244    1.0000 0.09494  0.07963  0.76420  Biso   1.000  C
  H1233    1.0000 0.12469  0.13448  0.95869  Biso   1.000  H
  C1245    1.0000 0.09683  0.19442  0.97035  Biso   1.000  C
  H1234    1.0000 0.09600  0.20442  0.84812  Biso   1.000  H
  C1246    1.0000 0.07963  0.23580  0.90506  Biso   1.000  C
  H1235    1.0000 0.97410  0.95939  0.32851  Biso   1.000  H
  C1247    1.0000 0.99678  0.02570  0.33399  Biso   1.000  C
  C1248    1.0000 0.01846  0.96477  0.38097  Biso   1.000  C
  C1249    1.0000 0.97430  0.66601  0.99678  Biso   1.000  C
  H1236    1.0000 0.04061  0.67149  0.97410  Biso   1.000  H
  C1250    1.0000 0.03523  0.61903  0.01846  Biso   1.000  C
  H1237    1.0000 0.99821  0.09739  0.80830  Biso   1.000  H
  C1251    1.0000 0.04865  0.07940  0.76713  Biso   1.000  C
  H1238    1.0000 0.10902  0.06830  0.73830  Biso   1.000  H
  H1239    1.0000 0.09739  0.19170  0.00179  Biso   1.000  H
  C1252    1.0000 0.07940  0.23287  0.95135  Biso   1.000  C
  H1240    1.0000 0.06830  0.26170  0.89098  Biso   1.000  H
  H1241    1.0000 0.02590  0.04061  0.32851  Biso   1.000  H
  N167     1.0000 0.96467  0.04015  0.30078  Biso   1.000  N
  C1253    1.0000 0.98154  0.03523  0.38097  Biso   1.000  C
  C1254    1.0000 0.01149  0.00608  0.40740  Biso   1.000  C
  C1255    1.0000 0.98851  0.99392  0.40740  Biso   1.000  C
  H1242    1.0000 0.00110  0.94000  0.39379  Biso   1.000  H
  H1243    1.0000 0.05031  0.95640  0.38111  Biso   1.000  H
  N168     1.0000 0.95985  0.69922  0.96467  Biso   1.000  N
  C1256    1.0000 0.96477  0.61903  0.98154  Biso   1.000  C
  H1244    1.0000 0.95939  0.67149  0.02590  Biso   1.000  H
  C1257    1.0000 0.99392  0.59260  0.01149  Biso   1.000  C
  C1258    1.0000 0.00608  0.59260  0.98851  Biso   1.000  C
  H1245    1.0000 0.06000  0.60621  0.00110  Biso   1.000  H
  H1246    1.0000 0.04360  0.61889  0.05031  Biso   1.000  H
  C1259    1.0000 0.02055  0.06176  0.73103  Biso   1.000  C
  C1260    1.0000 0.06176  0.26897  0.97945  Biso   1.000  C
  C1261    1.0000 0.97945  0.06176  0.26897  Biso   1.000  C
  H1247    1.0000 0.99890  0.06000  0.39379  Biso   1.000  H
  H1248    1.0000 0.94969  0.04360  0.38111  Biso   1.000  H
  H1249    1.0000 0.00219  0.00110  0.43639  Biso   1.000  H
  H1250    1.0000 0.04021  0.02119  0.41288  Biso   1.000  H
  H1251    1.0000 0.99781  0.99890  0.43639  Biso   1.000  H
  H1252    1.0000 0.95979  0.97881  0.41288  Biso   1.000  H
  C1262    1.0000 0.93824  0.73103  0.97945  Biso   1.000  C
  H1253    1.0000 0.94000  0.60621  0.99890  Biso   1.000  H
  H1254    1.0000 0.95640  0.61889  0.94969  Biso   1.000  H
  H1255    1.0000 0.97881  0.58712  0.04021  Biso   1.000  H
  H1256    1.0000 0.99890  0.56361  0.00219  Biso   1.000  H
  H1257    1.0000 0.00110  0.56361  0.99781  Biso   1.000  H
  H1258    1.0000 0.02119  0.58712  0.95979  Biso   1.000  H
  H1259    1.0000 0.98951  0.06731  0.73219  Biso   1.000  H
  N169     1.0000 0.03533  0.04015  0.69922  Biso   1.000  N
  H1260    1.0000 0.06731  0.26781  0.01049  Biso   1.000  H
  N170     1.0000 0.04015  0.30078  0.96467  Biso   1.000  N
  H1261    1.0000 0.01049  0.06731  0.26781  Biso   1.000  H
  C1263    1.0000 0.95135  0.07940  0.23287  Biso   1.000  C
  C1264    1.0000 0.92060  0.76713  0.95135  Biso   1.000  C
  H1262    1.0000 0.93269  0.73219  0.01049  Biso   1.000  H
  C1265    1.0000 0.00322  0.02570  0.66601  Biso   1.000  C
  C1266    1.0000 0.02570  0.33399  0.99678  Biso   1.000  C
  C1267    1.0000 0.90506  0.07963  0.23580  Biso   1.000  C
  C1268    1.0000 0.97035  0.09683  0.19442  Biso   1.000  C
  C1269    1.0000 0.92037  0.76420  0.90506  Biso   1.000  C
  C1270    1.0000 0.90317  0.80558  0.97035  Biso   1.000  C
  C1271    1.0000 0.99678  0.97430  0.66601  Biso   1.000  C
  H1263    1.0000 0.97410  0.04061  0.67149  Biso   1.000  H
  C1272    1.0000 0.01846  0.03523  0.61903  Biso   1.000  C
  H1264    1.0000 0.04061  0.32851  0.02590  Biso   1.000  H
  C1273    1.0000 0.97430  0.33399  0.00322  Biso   1.000  C
  C1274    1.0000 0.03523  0.38097  0.98154  Biso   1.000  C
  C1275    1.0000 0.87953  0.09613  0.20159  Biso   1.000  C
  H1265    1.0000 0.89098  0.06830  0.26170  Biso   1.000  H
  H1266    1.0000 0.00179  0.09739  0.19170  Biso   1.000  H
  C1276    1.0000 0.94471  0.11313  0.16029  Biso   1.000  C
  C1277    1.0000 0.90387  0.79841  0.87953  Biso   1.000  C
  H1267    1.0000 0.93170  0.73830  0.89098  Biso   1.000  H
  C1278    1.0000 0.88687  0.83971  0.94471  Biso   1.000  C
  H1268    1.0000 0.90261  0.80830  0.00179  Biso   1.000  H
  N171     1.0000 0.96467  0.95985  0.69922  Biso   1.000  N
  C1279    1.0000 0.98154  0.96477  0.61903  Biso   1.000  C
  H1269    1.0000 0.02590  0.95939  0.67149  Biso   1.000  H
  C1280    1.0000 0.98851  0.00608  0.59260  Biso   1.000  C
  C1281    1.0000 0.01149  0.99392  0.59260  Biso   1.000  C
  H1270    1.0000 0.00110  0.06000  0.60621  Biso   1.000  H
  H1271    1.0000 0.05031  0.04360  0.61889  Biso   1.000  H
  H1272    1.0000 0.95939  0.32851  0.97410  Biso   1.000  H
  N172     1.0000 0.95985  0.30078  0.03533  Biso   1.000  N
  C1282    1.0000 0.96477  0.38097  0.01846  Biso   1.000  C
  C1283    1.0000 0.00608  0.40740  0.01149  Biso   1.000  C
  C1284    1.0000 0.99392  0.40740  0.98851  Biso   1.000  C
  H1273    1.0000 0.06000  0.39379  0.99890  Biso   1.000  H
  H1274    1.0000 0.04360  0.38111  0.94969  Biso   1.000  H
  C1285    1.0000 0.89859  0.11303  0.16304  Biso   1.000  C
  H1275    1.0000 0.84812  0.09600  0.20442  Biso   1.000  H
  H1276    1.0000 0.95869  0.12469  0.13448  Biso   1.000  H
  C1286    1.0000 0.88697  0.83696  0.89859  Biso   1.000  C
  H1277    1.0000 0.90400  0.79558  0.84812  Biso   1.000  H
  H1278    1.0000 0.87531  0.86552  0.95869  Biso   1.000  H
  C1287    1.0000 0.97945  0.93824  0.73103  Biso   1.000  C
  H1279    1.0000 0.99890  0.94000  0.60621  Biso   1.000  H
  H1280    1.0000 0.94969  0.95640  0.61889  Biso   1.000  H
  H1281    1.0000 0.99781  0.00110  0.56361  Biso   1.000  H
  H1282    1.0000 0.95979  0.02119  0.58712  Biso   1.000  H
  H1283    1.0000 0.00219  0.99890  0.56361  Biso   1.000  H
  H1284    1.0000 0.04021  0.97881  0.58712  Biso   1.000  H
  C1288    1.0000 0.93824  0.26897  0.02055  Biso   1.000  C
  H1285    1.0000 0.94000  0.39379  0.00110  Biso   1.000  H
  H1286    1.0000 0.95640  0.38111  0.05031  Biso   1.000  H
  H1287    1.0000 0.00110  0.43639  0.00219  Biso   1.000  H
  H1288    1.0000 0.02119  0.41288  0.04021  Biso   1.000  H
  H1289    1.0000 0.99890  0.43639  0.99781  Biso   1.000  H
  H1290    1.0000 0.97881  0.41288  0.95979  Biso   1.000  H
  N173     1.0000 0.87083  0.12917  0.12917  Biso   1.000  N
  N174     1.0000 0.87083  0.87083  0.87083  Biso   1.000  N
  C1289    1.0000 0.95135  0.92060  0.76713  Biso   1.000  C
  H1291    1.0000 0.01049  0.93269  0.73219  Biso   1.000  H
  H1292    1.0000 0.93269  0.26781  0.98951  Biso   1.000  H
  C1290    1.0000 0.92060  0.23287  0.04865  Biso   1.000  C
  C1291    1.0000 0.88697  0.16304  0.10141  Biso   1.000  C
  C1292    1.0000 0.83696  0.10141  0.11303  Biso   1.000  C
  C1293    1.0000 0.89859  0.88697  0.83696  Biso   1.000  C
  C1294    1.0000 0.83696  0.89859  0.88697  Biso   1.000  C
  C1295    1.0000 0.90506  0.92037  0.76420  Biso   1.000  C
  C1296    1.0000 0.97035  0.90317  0.80558  Biso   1.000  C
  C1297    1.0000 0.92037  0.23580  0.09494  Biso   1.000  C
  C1298    1.0000 0.90317  0.19442  0.02965  Biso   1.000  C
  C1299    1.0000 0.90387  0.20159  0.12047  Biso   1.000  C
  C1300    1.0000 0.88687  0.16029  0.05529  Biso   1.000  C
  C1301    1.0000 0.83971  0.05529  0.11313  Biso   1.000  C
  C1302    1.0000 0.79841  0.12047  0.09613  Biso   1.000  C
  C1303    1.0000 0.87953  0.90387  0.79841  Biso   1.000  C
  C1304    1.0000 0.94471  0.88687  0.83971  Biso   1.000  C
  C1305    1.0000 0.83971  0.94471  0.88687  Biso   1.000  C
  C1306    1.0000 0.79841  0.87953  0.90387  Biso   1.000  C
  H1293    1.0000 0.89098  0.93170  0.73830  Biso   1.000  H
  H1294    1.0000 0.00179  0.90261  0.80830  Biso   1.000  H
  H1295    1.0000 0.93170  0.26170  0.10902  Biso   1.000  H
  H1296    1.0000 0.90261  0.19170  0.99821  Biso   1.000  H
  H1297    1.0000 0.90400  0.20442  0.15188  Biso   1.000  H
  H1298    1.0000 0.87531  0.13448  0.04131  Biso   1.000  H
  H1299    1.0000 0.86552  0.04131  0.12469  Biso   1.000  H
  C1307    1.0000 0.80558  0.02965  0.09683  Biso   1.000  C
  H1300    1.0000 0.79558  0.15188  0.09600  Biso   1.000  H
  C1308    1.0000 0.76420  0.09494  0.07963  Biso   1.000  C
  H1301    1.0000 0.84812  0.90400  0.79558  Biso   1.000  H
  H1302    1.0000 0.95869  0.87531  0.86552  Biso   1.000  H
  H1303    1.0000 0.86552  0.95869  0.87531  Biso   1.000  H
  C1309    1.0000 0.80558  0.97035  0.90317  Biso   1.000  C
  H1304    1.0000 0.79558  0.84812  0.90400  Biso   1.000  H
  C1310    1.0000 0.76420  0.90506  0.92037  Biso   1.000  C
  H1305    1.0000 0.80830  0.99821  0.09739  Biso   1.000  H
  C1311    1.0000 0.76713  0.04865  0.07940  Biso   1.000  C
  H1306    1.0000 0.73830  0.10902  0.06830  Biso   1.000  H
  C1312    1.0000 0.76713  0.95135  0.92060  Biso   1.000  C
  H1307    1.0000 0.80830  0.00179  0.90261  Biso   1.000  H
  H1308    1.0000 0.73830  0.89098  0.93170  Biso   1.000  H
  C1313    1.0000 0.73103  0.02055  0.06176  Biso   1.000  C
  C1314    1.0000 0.73103  0.97945  0.93824  Biso   1.000  C
  H1309    1.0000 0.73219  0.98951  0.06731  Biso   1.000  H
  N175     1.0000 0.69922  0.03533  0.04015  Biso   1.000  N
  N176     1.0000 0.69922  0.96467  0.95985  Biso   1.000  N
  H1310    1.0000 0.73219  0.01049  0.93269  Biso   1.000  H
  C1315    1.0000 0.66601  0.00322  0.02570  Biso   1.000  C
  C1316    1.0000 0.66601  0.99678  0.97430  Biso   1.000  C
  H1311    1.0000 0.67149  0.97410  0.04061  Biso   1.000  H
  C1317    1.0000 0.61903  0.01846  0.03523  Biso   1.000  C
  C1318    1.0000 0.61903  0.98154  0.96477  Biso   1.000  C
  H1312    1.0000 0.67149  0.02590  0.95939  Biso   1.000  H
  C1319    1.0000 0.59260  0.98851  0.00608  Biso   1.000  C
  C1320    1.0000 0.59260  0.01149  0.99392  Biso   1.000  C
  H1313    1.0000 0.60621  0.00110  0.06000  Biso   1.000  H
  H1314    1.0000 0.61889  0.05031  0.04360  Biso   1.000  H
  H1315    1.0000 0.60621  0.99890  0.94000  Biso   1.000  H
  H1316    1.0000 0.61889  0.94969  0.95640  Biso   1.000  H
  H1317    1.0000 0.56361  0.99781  0.00110  Biso   1.000  H
  H1318    1.0000 0.58712  0.95979  0.02119  Biso   1.000  H
  H1319    1.0000 0.56361  0.00219  0.99890  Biso   1.000  H
  H1320    1.0000 0.58712  0.04021  0.97881  Biso   1.000  H
  C1321    1.0000 0.26897  0.97945  0.06176  Biso   1.000  C
  N177     1.0000 0.30078  0.96467  0.04015  Biso   1.000  N
  H1321    1.0000 0.26781  0.01049  0.06731  Biso   1.000  H
  C1322    1.0000 0.23287  0.95135  0.07940  Biso   1.000  C
  C1323    1.0000 0.33399  0.99678  0.02570  Biso   1.000  C
  C1324    1.0000 0.23580  0.90506  0.07963  Biso   1.000  C
  C1325    1.0000 0.19442  0.97035  0.09683  Biso   1.000  C
  C1326    1.0000 0.38097  0.98154  0.03523  Biso   1.000  C
  C1327    1.0000 0.33399  0.00322  0.97430  Biso   1.000  C
  H1322    1.0000 0.32851  0.02590  0.04061  Biso   1.000  H
  C1328    1.0000 0.20159  0.87953  0.09613  Biso   1.000  C
  H1323    1.0000 0.26170  0.89098  0.06830  Biso   1.000  H
  H1324    1.0000 0.19170  0.00179  0.09739  Biso   1.000  H
  C1329    1.0000 0.16029  0.94471  0.11313  Biso   1.000  C
  C1330    1.0000 0.40740  0.01149  0.00608  Biso   1.000  C
  C1331    1.0000 0.40740  0.98851  0.99392  Biso   1.000  C
  H1325    1.0000 0.39379  0.99890  0.06000  Biso   1.000  H
  H1326    1.0000 0.38111  0.94969  0.04360  Biso   1.000  H
  C1332    1.0000 0.38097  0.01846  0.96477  Biso   1.000  C
  H1327    1.0000 0.32851  0.97410  0.95939  Biso   1.000  H
  N178     1.0000 0.30078  0.03533  0.95985  Biso   1.000  N
  C1333    1.0000 0.16304  0.89859  0.11303  Biso   1.000  C
  H1328    1.0000 0.20442  0.84812  0.09600  Biso   1.000  H
  H1329    1.0000 0.13448  0.95869  0.12469  Biso   1.000  H
  H1330    1.0000 0.43639  0.99781  0.99890  Biso   1.000  H
  H1331    1.0000 0.43639  0.00219  0.00110  Biso   1.000  H
  H1332    1.0000 0.41288  0.04021  0.02119  Biso   1.000  H
  H1333    1.0000 0.41288  0.95979  0.97881  Biso   1.000  H
  H1334    1.0000 0.39379  0.00110  0.94000  Biso   1.000  H
  H1335    1.0000 0.38111  0.05031  0.95640  Biso   1.000  H
  C1334    1.0000 0.26897  0.02055  0.93824  Biso   1.000  C
  N179     1.0000 0.12917  0.87083  0.12917  Biso   1.000  N
  H1336    1.0000 0.26781  0.98951  0.93269  Biso   1.000  H
  C1335    1.0000 0.23287  0.04865  0.92060  Biso   1.000  C
  C1336    1.0000 0.10141  0.88697  0.16304  Biso   1.000  C
  C1337    1.0000 0.11303  0.83696  0.10141  Biso   1.000  C
  C1338    1.0000 0.23580  0.09494  0.92037  Biso   1.000  C
  C1339    1.0000 0.19442  0.02965  0.90317  Biso   1.000  C
  C1340    1.0000 0.05529  0.88687  0.16029  Biso   1.000  C
  C1341    1.0000 0.12047  0.90387  0.20159  Biso   1.000  C
  C1342    1.0000 0.11313  0.83971  0.05529  Biso   1.000  C
  C1343    1.0000 0.09613  0.79841  0.12047  Biso   1.000  C
  C1344    1.0000 0.20159  0.12047  0.90387  Biso   1.000  C
  H1337    1.0000 0.26170  0.10902  0.93170  Biso   1.000  H
  H1338    1.0000 0.19170  0.99821  0.90261  Biso   1.000  H
  C1345    1.0000 0.16029  0.05529  0.88687  Biso   1.000  C
  H1339    1.0000 0.04131  0.87531  0.13448  Biso   1.000  H
  C1346    1.0000 0.02965  0.90317  0.19442  Biso   1.000  C
  H1340    1.0000 0.15188  0.90400  0.20442  Biso   1.000  H
  C1347    1.0000 0.09494  0.92037  0.23580  Biso   1.000  C
  H1341    1.0000 0.12469  0.86552  0.04131  Biso   1.000  H
  C1348    1.0000 0.09683  0.80558  0.02965  Biso   1.000  C
  H1342    1.0000 0.09600  0.79558  0.15188  Biso   1.000  H
  C1349    1.0000 0.07963  0.76420  0.09494  Biso   1.000  C
  C1350    1.0000 0.16304  0.10141  0.88697  Biso   1.000  C
  H1343    1.0000 0.20442  0.15188  0.90400  Biso   1.000  H
  H1344    1.0000 0.13448  0.04131  0.87531  Biso   1.000  H
  H1345    1.0000 0.99821  0.90261  0.19170  Biso   1.000  H
  C1351    1.0000 0.04865  0.92060  0.23287  Biso   1.000  C
  H1346    1.0000 0.10902  0.93170  0.26170  Biso   1.000  H
  H1347    1.0000 0.09739  0.80830  0.99821  Biso   1.000  H
  C1352    1.0000 0.07940  0.76713  0.04865  Biso   1.000  C
  H1348    1.0000 0.06830  0.73830  0.10902  Biso   1.000  H
  N180     1.0000 0.12917  0.12917  0.87083  Biso   1.000  N
  C1353    1.0000 0.02055  0.93824  0.26897  Biso   1.000  C
  C1354    1.0000 0.06176  0.73103  0.02055  Biso   1.000  C
  C1355    1.0000 0.10141  0.11303  0.83696  Biso   1.000  C
  C1356    1.0000 0.11303  0.16304  0.89859  Biso   1.000  C
  H1349    1.0000 0.98951  0.93269  0.26781  Biso   1.000  H
  N181     1.0000 0.03533  0.95985  0.30078  Biso   1.000  N
  H1350    1.0000 0.06731  0.73219  0.98951  Biso   1.000  H
  N182     1.0000 0.04015  0.69922  0.03533  Biso   1.000  N
  C1357    1.0000 0.05529  0.11313  0.83971  Biso   1.000  C
  C1358    1.0000 0.12047  0.09613  0.79841  Biso   1.000  C
  C1359    1.0000 0.11313  0.16029  0.94471  Biso   1.000  C
  C1360    1.0000 0.09613  0.20159  0.87953  Biso   1.000  C
  C1361    1.0000 0.00322  0.97430  0.33399  Biso   1.000  C
  C1362    1.0000 0.02570  0.66601  0.00322  Biso   1.000  C
  H1351    1.0000 0.04131  0.12469  0.86552  Biso   1.000  H
  C1363    1.0000 0.02965  0.09683  0.80558  Biso   1.000  C
  H1352    1.0000 0.15188  0.09600  0.79558  Biso   1.000  H
  C1364    1.0000 0.09494  0.07963  0.76420  Biso   1.000  C
  H1353    1.0000 0.12469  0.13448  0.95869  Biso   1.000  H
  C1365    1.0000 0.09683  0.19442  0.97035  Biso   1.000  C
  H1354    1.0000 0.09600  0.20442  0.84812  Biso   1.000  H
  C1366    1.0000 0.07963  0.23580  0.90506  Biso   1.000  C
  H1355    1.0000 0.97410  0.95939  0.32851  Biso   1.000  H
  C1367    1.0000 0.99678  0.02570  0.33399  Biso   1.000  C
  C1368    1.0000 0.01846  0.96477  0.38097  Biso   1.000  C
  C1369    1.0000 0.97430  0.66601  0.99678  Biso   1.000  C
  H1356    1.0000 0.04061  0.67149  0.97410  Biso   1.000  H
  C1370    1.0000 0.03523  0.61903  0.01846  Biso   1.000  C
  H1357    1.0000 0.99821  0.09739  0.80830  Biso   1.000  H
  C1371    1.0000 0.04865  0.07940  0.76713  Biso   1.000  C
  H1358    1.0000 0.10902  0.06830  0.73830  Biso   1.000  H
  H1359    1.0000 0.09739  0.19170  0.00179  Biso   1.000  H
  C1372    1.0000 0.07940  0.23287  0.95135  Biso   1.000  C
  H1360    1.0000 0.06830  0.26170  0.89098  Biso   1.000  H
  H1361    1.0000 0.02590  0.04061  0.32851  Biso   1.000  H
  N183     1.0000 0.96467  0.04015  0.30078  Biso   1.000  N
  C1373    1.0000 0.98154  0.03523  0.38097  Biso   1.000  C
  C1374    1.0000 0.01149  0.00608  0.40740  Biso   1.000  C
  C1375    1.0000 0.98851  0.99392  0.40740  Biso   1.000  C
  H1362    1.0000 0.00110  0.94000  0.39379  Biso   1.000  H
  H1363    1.0000 0.05031  0.95640  0.38111  Biso   1.000  H
  N184     1.0000 0.95985  0.69922  0.96467  Biso   1.000  N
  C1376    1.0000 0.96477  0.61903  0.98154  Biso   1.000  C
  H1364    1.0000 0.95939  0.67149  0.02590  Biso   1.000  H
  C1377    1.0000 0.99392  0.59260  0.01149  Biso   1.000  C
  C1378    1.0000 0.00608  0.59260  0.98851  Biso   1.000  C
  H1365    1.0000 0.06000  0.60621  0.00110  Biso   1.000  H
  H1366    1.0000 0.04360  0.61889  0.05031  Biso   1.000  H
  C1379    1.0000 0.02055  0.06176  0.73103  Biso   1.000  C
  C1380    1.0000 0.06176  0.26897  0.97945  Biso   1.000  C
  C1381    1.0000 0.97945  0.06176  0.26897  Biso   1.000  C
  H1367    1.0000 0.99890  0.06000  0.39379  Biso   1.000  H
  H1368    1.0000 0.94969  0.04360  0.38111  Biso   1.000  H
  H1369    1.0000 0.99781  0.99890  0.43639  Biso   1.000  H
  H1370    1.0000 0.00219  0.00110  0.43639  Biso   1.000  H
  H1371    1.0000 0.04021  0.02119  0.41288  Biso   1.000  H
  H1372    1.0000 0.95979  0.97881  0.41288  Biso   1.000  H
  C1382    1.0000 0.93824  0.73103  0.97945  Biso   1.000  C
  H1373    1.0000 0.94000  0.60621  0.99890  Biso   1.000  H
  H1374    1.0000 0.95640  0.61889  0.94969  Biso   1.000  H
  H1375    1.0000 0.97881  0.58712  0.04021  Biso   1.000  H
  H1376    1.0000 0.99890  0.56361  0.00219  Biso   1.000  H
  H1377    1.0000 0.00110  0.56361  0.99781  Biso   1.000  H
  H1378    1.0000 0.02119  0.58712  0.95979  Biso   1.000  H
  H1379    1.0000 0.98951  0.06731  0.73219  Biso   1.000  H
  N185     1.0000 0.03533  0.04015  0.69922  Biso   1.000  N
  H1380    1.0000 0.06731  0.26781  0.01049  Biso   1.000  H
  N186     1.0000 0.04015  0.30078  0.96467  Biso   1.000  N
  H1381    1.0000 0.01049  0.06731  0.26781  Biso   1.000  H
  C1383    1.0000 0.95135  0.07940  0.23287  Biso   1.000  C
  C1384    1.0000 0.92060  0.76713  0.95135  Biso   1.000  C
  H1382    1.0000 0.93269  0.73219  0.01049  Biso   1.000  H
  C1385    1.0000 0.00322  0.02570  0.66601  Biso   1.000  C
  C1386    1.0000 0.02570  0.33399  0.99678  Biso   1.000  C
  C1387    1.0000 0.90506  0.07963  0.23580  Biso   1.000  C
  C1388    1.0000 0.97035  0.09683  0.19442  Biso   1.000  C
  C1389    1.0000 0.92037  0.76420  0.90506  Biso   1.000  C
  C1390    1.0000 0.90317  0.80558  0.97035  Biso   1.000  C
  C1391    1.0000 0.99678  0.97430  0.66601  Biso   1.000  C
  H1383    1.0000 0.97410  0.04061  0.67149  Biso   1.000  H
  C1392    1.0000 0.01846  0.03523  0.61903  Biso   1.000  C
  H1384    1.0000 0.04061  0.32851  0.02590  Biso   1.000  H
  C1393    1.0000 0.97430  0.33399  0.00322  Biso   1.000  C
  C1394    1.0000 0.03523  0.38097  0.98154  Biso   1.000  C
  C1395    1.0000 0.87953  0.09613  0.20159  Biso   1.000  C
  H1385    1.0000 0.89098  0.06830  0.26170  Biso   1.000  H
  H1386    1.0000 0.00179  0.09739  0.19170  Biso   1.000  H
  C1396    1.0000 0.94471  0.11313  0.16029  Biso   1.000  C
  C1397    1.0000 0.90387  0.79841  0.87953  Biso   1.000  C
  H1387    1.0000 0.93170  0.73830  0.89098  Biso   1.000  H
  C1398    1.0000 0.88687  0.83971  0.94471  Biso   1.000  C
  H1388    1.0000 0.90261  0.80830  0.00179  Biso   1.000  H
  N187     1.0000 0.96467  0.95985  0.69922  Biso   1.000  N
  C1399    1.0000 0.98154  0.96477  0.61903  Biso   1.000  C
  H1389    1.0000 0.02590  0.95939  0.67149  Biso   1.000  H
  C1400    1.0000 0.98851  0.00608  0.59260  Biso   1.000  C
  C1401    1.0000 0.01149  0.99392  0.59260  Biso   1.000  C
  H1390    1.0000 0.00110  0.06000  0.60621  Biso   1.000  H
  H1391    1.0000 0.05031  0.04360  0.61889  Biso   1.000  H
  H1392    1.0000 0.95939  0.32851  0.97410  Biso   1.000  H
  N188     1.0000 0.95985  0.30078  0.03533  Biso   1.000  N
  C1402    1.0000 0.96477  0.38097  0.01846  Biso   1.000  C
  C1403    1.0000 0.00608  0.40740  0.01149  Biso   1.000  C
  C1404    1.0000 0.99392  0.40740  0.98851  Biso   1.000  C
  H1393    1.0000 0.06000  0.39379  0.99890  Biso   1.000  H
  H1394    1.0000 0.04360  0.38111  0.94969  Biso   1.000  H
  C1405    1.0000 0.89859  0.11303  0.16304  Biso   1.000  C
  H1395    1.0000 0.84812  0.09600  0.20442  Biso   1.000  H
  H1396    1.0000 0.95869  0.12469  0.13448  Biso   1.000  H
  C1406    1.0000 0.88697  0.83696  0.89859  Biso   1.000  C
  H1397    1.0000 0.90400  0.79558  0.84812  Biso   1.000  H
  H1398    1.0000 0.87531  0.86552  0.95869  Biso   1.000  H
  C1407    1.0000 0.97945  0.93824  0.73103  Biso   1.000  C
  H1399    1.0000 0.99890  0.94000  0.60621  Biso   1.000  H
  H1400    1.0000 0.94969  0.95640  0.61889  Biso   1.000  H
  H1401    1.0000 0.99781  0.00110  0.56361  Biso   1.000  H
  H1402    1.0000 0.95979  0.02119  0.58712  Biso   1.000  H
  H1403    1.0000 0.00219  0.99890  0.56361  Biso   1.000  H
  H1404    1.0000 0.04021  0.97881  0.58712  Biso   1.000  H
  C1408    1.0000 0.93824  0.26897  0.02055  Biso   1.000  C
  H1405    1.0000 0.94000  0.39379  0.00110  Biso   1.000  H
  H1406    1.0000 0.95640  0.38111  0.05031  Biso   1.000  H
  H1407    1.0000 0.99890  0.43639  0.99781  Biso   1.000  H
  H1408    1.0000 0.00110  0.43639  0.00219  Biso   1.000  H
  H1409    1.0000 0.02119  0.41288  0.04021  Biso   1.000  H
  H1410    1.0000 0.97881  0.41288  0.95979  Biso   1.000  H
  N189     1.0000 0.87083  0.12917  0.12917  Biso   1.000  N
  N190     1.0000 0.87083  0.87083  0.87083  Biso   1.000  N
  C1409    1.0000 0.95135  0.92060  0.76713  Biso   1.000  C
  H1411    1.0000 0.01049  0.93269  0.73219  Biso   1.000  H
  H1412    1.0000 0.93269  0.26781  0.98951  Biso   1.000  H
  C1410    1.0000 0.92060  0.23287  0.04865  Biso   1.000  C
  C1411    1.0000 0.88697  0.16304  0.10141  Biso   1.000  C
  C1412    1.0000 0.83696  0.10141  0.11303  Biso   1.000  C
  C1413    1.0000 0.89859  0.88697  0.83696  Biso   1.000  C
  C1414    1.0000 0.83696  0.89859  0.88697  Biso   1.000  C
  C1415    1.0000 0.90506  0.92037  0.76420  Biso   1.000  C
  C1416    1.0000 0.97035  0.90317  0.80558  Biso   1.000  C
  C1417    1.0000 0.92037  0.23580  0.09494  Biso   1.000  C
  C1418    1.0000 0.90317  0.19442  0.02965  Biso   1.000  C
  C1419    1.0000 0.90387  0.20159  0.12047  Biso   1.000  C
  C1420    1.0000 0.88687  0.16029  0.05529  Biso   1.000  C
  C1421    1.0000 0.83971  0.05529  0.11313  Biso   1.000  C
  C1422    1.0000 0.79841  0.12047  0.09613  Biso   1.000  C
  C1423    1.0000 0.87953  0.90387  0.79841  Biso   1.000  C
  C1424    1.0000 0.94471  0.88687  0.83971  Biso   1.000  C
  C1425    1.0000 0.83971  0.94471  0.88687  Biso   1.000  C
  C1426    1.0000 0.79841  0.87953  0.90387  Biso   1.000  C
  H1413    1.0000 0.89098  0.93170  0.73830  Biso   1.000  H
  H1414    1.0000 0.00179  0.90261  0.80830  Biso   1.000  H
  H1415    1.0000 0.93170  0.26170  0.10902  Biso   1.000  H
  H1416    1.0000 0.90261  0.19170  0.99821  Biso   1.000  H
  H1417    1.0000 0.90400  0.20442  0.15188  Biso   1.000  H
  H1418    1.0000 0.87531  0.13448  0.04131  Biso   1.000  H
  H1419    1.0000 0.86552  0.04131  0.12469  Biso   1.000  H
  C1427    1.0000 0.80558  0.02965  0.09683  Biso   1.000  C
  H1420    1.0000 0.79558  0.15188  0.09600  Biso   1.000  H
  C1428    1.0000 0.76420  0.09494  0.07963  Biso   1.000  C
  H1421    1.0000 0.84812  0.90400  0.79558  Biso   1.000  H
  H1422    1.0000 0.95869  0.87531  0.86552  Biso   1.000  H
  H1423    1.0000 0.86552  0.95869  0.87531  Biso   1.000  H
  C1429    1.0000 0.80558  0.97035  0.90317  Biso   1.000  C
  H1424    1.0000 0.79558  0.84812  0.90400  Biso   1.000  H
  C1430    1.0000 0.76420  0.90506  0.92037  Biso   1.000  C
  H1425    1.0000 0.80830  0.99821  0.09739  Biso   1.000  H
  C1431    1.0000 0.76713  0.04865  0.07940  Biso   1.000  C
  H1426    1.0000 0.73830  0.10902  0.06830  Biso   1.000  H
  C1432    1.0000 0.76713  0.95135  0.92060  Biso   1.000  C
  H1427    1.0000 0.80830  0.00179  0.90261  Biso   1.000  H
  H1428    1.0000 0.73830  0.89098  0.93170  Biso   1.000  H
  C1433    1.0000 0.73103  0.02055  0.06176  Biso   1.000  C
  C1434    1.0000 0.73103  0.97945  0.93824  Biso   1.000  C
  H1429    1.0000 0.73219  0.98951  0.06731  Biso   1.000  H
  N191     1.0000 0.69922  0.03533  0.04015  Biso   1.000  N
  N192     1.0000 0.69922  0.96467  0.95985  Biso   1.000  N
  H1430    1.0000 0.73219  0.01049  0.93269  Biso   1.000  H
  C1435    1.0000 0.66601  0.00322  0.02570  Biso   1.000  C
  C1436    1.0000 0.66601  0.99678  0.97430  Biso   1.000  C
  H1431    1.0000 0.67149  0.97410  0.04061  Biso   1.000  H
  C1437    1.0000 0.61903  0.01846  0.03523  Biso   1.000  C
  C1438    1.0000 0.61903  0.98154  0.96477  Biso   1.000  C
  H1432    1.0000 0.67149  0.02590  0.95939  Biso   1.000  H
  C1439    1.0000 0.59260  0.98851  0.00608  Biso   1.000  C
  C1440    1.0000 0.59260  0.01149  0.99392  Biso   1.000  C
  H1433    1.0000 0.60621  0.00110  0.06000  Biso   1.000  H
  H1434    1.0000 0.61889  0.05031  0.04360  Biso   1.000  H
  H1435    1.0000 0.60621  0.99890  0.94000  Biso   1.000  H
  H1436    1.0000 0.61889  0.94969  0.95640  Biso   1.000  H
  H1437    1.0000 0.56361  0.99781  0.00110  Biso   1.000  H
  H1438    1.0000 0.58712  0.95979  0.02119  Biso   1.000  H
  H1439    1.0000 0.56361  0.00219  0.99890  Biso   1.000  H
  H1440    1.0000 0.58712  0.04021  0.97881  Biso   1.000  H
  C1441    1.0000 0.26897  0.97945  0.06176  Biso   1.000  C
  N193     1.0000 0.30078  0.96467  0.04015  Biso   1.000  N
  H1441    1.0000 0.26781  0.01049  0.06731  Biso   1.000  H
  C1442    1.0000 0.23287  0.95135  0.07940  Biso   1.000  C
  C1443    1.0000 0.33399  0.99678  0.02570  Biso   1.000  C
  C1444    1.0000 0.23580  0.90506  0.07963  Biso   1.000  C
  C1445    1.0000 0.19442  0.97035  0.09683  Biso   1.000  C
  C1446    1.0000 0.38097  0.98154  0.03523  Biso   1.000  C
  C1447    1.0000 0.33399  0.00322  0.97430  Biso   1.000  C
  H1442    1.0000 0.32851  0.02590  0.04061  Biso   1.000  H
  C1448    1.0000 0.20159  0.87953  0.09613  Biso   1.000  C
  H1443    1.0000 0.26170  0.89098  0.06830  Biso   1.000  H
  H1444    1.0000 0.19170  0.00179  0.09739  Biso   1.000  H
  C1449    1.0000 0.16029  0.94471  0.11313  Biso   1.000  C
  C1450    1.0000 0.40740  0.01149  0.00608  Biso   1.000  C
  C1451    1.0000 0.40740  0.98851  0.99392  Biso   1.000  C
  H1445    1.0000 0.39379  0.99890  0.06000  Biso   1.000  H
  H1446    1.0000 0.38111  0.94969  0.04360  Biso   1.000  H
  C1452    1.0000 0.38097  0.01846  0.96477  Biso   1.000  C
  H1447    1.0000 0.32851  0.97410  0.95939  Biso   1.000  H
  N194     1.0000 0.30078  0.03533  0.95985  Biso   1.000  N
  C1453    1.0000 0.16304  0.89859  0.11303  Biso   1.000  C
  H1448    1.0000 0.20442  0.84812  0.09600  Biso   1.000  H
  H1449    1.0000 0.13448  0.95869  0.12469  Biso   1.000  H
  H1450    1.0000 0.43639  0.99781  0.99890  Biso   1.000  H
  H1451    1.0000 0.43639  0.00219  0.00110  Biso   1.000  H
  H1452    1.0000 0.41288  0.04021  0.02119  Biso   1.000  H
  H1453    1.0000 0.41288  0.95979  0.97881  Biso   1.000  H
  H1454    1.0000 0.39379  0.00110  0.94000  Biso   1.000  H
  H1455    1.0000 0.38111  0.05031  0.95640  Biso   1.000  H
  C1454    1.0000 0.26897  0.02055  0.93824  Biso   1.000  C
  N195     1.0000 0.12917  0.87083  0.12917  Biso   1.000  N
  H1456    1.0000 0.26781  0.98951  0.93269  Biso   1.000  H
  C1455    1.0000 0.23287  0.04865  0.92060  Biso   1.000  C
  C1456    1.0000 0.10141  0.88697  0.16304  Biso   1.000  C
  C1457    1.0000 0.11303  0.83696  0.10141  Biso   1.000  C
  C1458    1.0000 0.23580  0.09494  0.92037  Biso   1.000  C
  C1459    1.0000 0.19442  0.02965  0.90317  Biso   1.000  C
  C1460    1.0000 0.05529  0.88687  0.16029  Biso   1.000  C
  C1461    1.0000 0.12047  0.90387  0.20159  Biso   1.000  C
  C1462    1.0000 0.11313  0.83971  0.05529  Biso   1.000  C
  C1463    1.0000 0.09613  0.79841  0.12047  Biso   1.000  C
  C1464    1.0000 0.20159  0.12047  0.90387  Biso   1.000  C
  H1457    1.0000 0.26170  0.10902  0.93170  Biso   1.000  H
  H1458    1.0000 0.19170  0.99821  0.90261  Biso   1.000  H
  C1465    1.0000 0.16029  0.05529  0.88687  Biso   1.000  C
  H1459    1.0000 0.04131  0.87531  0.13448  Biso   1.000  H
  C1466    1.0000 0.02965  0.90317  0.19442  Biso   1.000  C
  H1460    1.0000 0.15188  0.90400  0.20442  Biso   1.000  H
  C1467    1.0000 0.09494  0.92037  0.23580  Biso   1.000  C
  H1461    1.0000 0.12469  0.86552  0.04131  Biso   1.000  H
  C1468    1.0000 0.09683  0.80558  0.02965  Biso   1.000  C
  H1462    1.0000 0.09600  0.79558  0.15188  Biso   1.000  H
  C1469    1.0000 0.07963  0.76420  0.09494  Biso   1.000  C
  C1470    1.0000 0.16304  0.10141  0.88697  Biso   1.000  C
  H1463    1.0000 0.20442  0.15188  0.90400  Biso   1.000  H
  H1464    1.0000 0.13448  0.04131  0.87531  Biso   1.000  H
  H1465    1.0000 0.99821  0.90261  0.19170  Biso   1.000  H
  C1471    1.0000 0.04865  0.92060  0.23287  Biso   1.000  C
  H1466    1.0000 0.10902  0.93170  0.26170  Biso   1.000  H
  H1467    1.0000 0.09739  0.80830  0.99821  Biso   1.000  H
  C1472    1.0000 0.07940  0.76713  0.04865  Biso   1.000  C
  H1468    1.0000 0.06830  0.73830  0.10902  Biso   1.000  H
  N196     1.0000 0.12917  0.12917  0.87083  Biso   1.000  N
  C1473    1.0000 0.02055  0.93824  0.26897  Biso   1.000  C
  C1474    1.0000 0.06176  0.73103  0.02055  Biso   1.000  C
  C1475    1.0000 0.10141  0.11303  0.83696  Biso   1.000  C
  C1476    1.0000 0.11303  0.16304  0.89859  Biso   1.000  C
  H1469    1.0000 0.98951  0.93269  0.26781  Biso   1.000  H
  N197     1.0000 0.03533  0.95985  0.30078  Biso   1.000  N
  H1470    1.0000 0.06731  0.73219  0.98951  Biso   1.000  H
  N198     1.0000 0.04015  0.69922  0.03533  Biso   1.000  N
  C1477    1.0000 0.05529  0.11313  0.83971  Biso   1.000  C
  C1478    1.0000 0.12047  0.09613  0.79841  Biso   1.000  C
  C1479    1.0000 0.11313  0.16029  0.94471  Biso   1.000  C
  C1480    1.0000 0.09613  0.20159  0.87953  Biso   1.000  C
  C1481    1.0000 0.00322  0.97430  0.33399  Biso   1.000  C
  C1482    1.0000 0.02570  0.66601  0.00322  Biso   1.000  C
  H1471    1.0000 0.04131  0.12469  0.86552  Biso   1.000  H
  C1483    1.0000 0.02965  0.09683  0.80558  Biso   1.000  C
  H1472    1.0000 0.15188  0.09600  0.79558  Biso   1.000  H
  C1484    1.0000 0.09494  0.07963  0.76420  Biso   1.000  C
  H1473    1.0000 0.12469  0.13448  0.95869  Biso   1.000  H
  C1485    1.0000 0.09683  0.19442  0.97035  Biso   1.000  C
  H1474    1.0000 0.09600  0.20442  0.84812  Biso   1.000  H
  C1486    1.0000 0.07963  0.23580  0.90506  Biso   1.000  C
  H1475    1.0000 0.97410  0.95939  0.32851  Biso   1.000  H
  C1487    1.0000 0.99678  0.02570  0.33399  Biso   1.000  C
  C1488    1.0000 0.01846  0.96477  0.38097  Biso   1.000  C
  C1489    1.0000 0.97430  0.66601  0.99678  Biso   1.000  C
  H1476    1.0000 0.04061  0.67149  0.97410  Biso   1.000  H
  C1490    1.0000 0.03523  0.61903  0.01846  Biso   1.000  C
  H1477    1.0000 0.99821  0.09739  0.80830  Biso   1.000  H
  C1491    1.0000 0.04865  0.07940  0.76713  Biso   1.000  C
  H1478    1.0000 0.10902  0.06830  0.73830  Biso   1.000  H
  H1479    1.0000 0.09739  0.19170  0.00179  Biso   1.000  H
  C1492    1.0000 0.07940  0.23287  0.95135  Biso   1.000  C
  H1480    1.0000 0.06830  0.26170  0.89098  Biso   1.000  H
  H1481    1.0000 0.02590  0.04061  0.32851  Biso   1.000  H
  N199     1.0000 0.96467  0.04015  0.30078  Biso   1.000  N
  C1493    1.0000 0.98154  0.03523  0.38097  Biso   1.000  C
  C1494    1.0000 0.01149  0.00608  0.40740  Biso   1.000  C
  C1495    1.0000 0.98851  0.99392  0.40740  Biso   1.000  C
  H1482    1.0000 0.00110  0.94000  0.39379  Biso   1.000  H
  H1483    1.0000 0.05031  0.95640  0.38111  Biso   1.000  H
  N200     1.0000 0.95985  0.69922  0.96467  Biso   1.000  N
  C1496    1.0000 0.96477  0.61903  0.98154  Biso   1.000  C
  H1484    1.0000 0.95939  0.67149  0.02590  Biso   1.000  H
  C1497    1.0000 0.99392  0.59260  0.01149  Biso   1.000  C
  C1498    1.0000 0.00608  0.59260  0.98851  Biso   1.000  C
  H1485    1.0000 0.06000  0.60621  0.00110  Biso   1.000  H
  H1486    1.0000 0.04360  0.61889  0.05031  Biso   1.000  H
  C1499    1.0000 0.02055  0.06176  0.73103  Biso   1.000  C
  C1500    1.0000 0.06176  0.26897  0.97945  Biso   1.000  C
  C1501    1.0000 0.97945  0.06176  0.26897  Biso   1.000  C
  H1487    1.0000 0.99890  0.06000  0.39379  Biso   1.000  H
  H1488    1.0000 0.94969  0.04360  0.38111  Biso   1.000  H
  H1489    1.0000 0.99781  0.99890  0.43639  Biso   1.000  H
  H1490    1.0000 0.00219  0.00110  0.43639  Biso   1.000  H
  H1491    1.0000 0.04021  0.02119  0.41288  Biso   1.000  H
  H1492    1.0000 0.95979  0.97881  0.41288  Biso   1.000  H
  C1502    1.0000 0.93824  0.73103  0.97945  Biso   1.000  C
  H1493    1.0000 0.94000  0.60621  0.99890  Biso   1.000  H
  H1494    1.0000 0.95640  0.61889  0.94969  Biso   1.000  H
  H1495    1.0000 0.97881  0.58712  0.04021  Biso   1.000  H
  H1496    1.0000 0.99890  0.56361  0.00219  Biso   1.000  H
  H1497    1.0000 0.00110  0.56361  0.99781  Biso   1.000  H
  H1498    1.0000 0.02119  0.58712  0.95979  Biso   1.000  H
  H1499    1.0000 0.98951  0.06731  0.73219  Biso   1.000  H
  N201     1.0000 0.03533  0.04015  0.69922  Biso   1.000  N
  H1500    1.0000 0.06731  0.26781  0.01049  Biso   1.000  H
  N202     1.0000 0.04015  0.30078  0.96467  Biso   1.000  N
  H1501    1.0000 0.01049  0.06731  0.26781  Biso   1.000  H
  C1503    1.0000 0.95135  0.07940  0.23287  Biso   1.000  C
  C1504    1.0000 0.92060  0.76713  0.95135  Biso   1.000  C
  H1502    1.0000 0.93269  0.73219  0.01049  Biso   1.000  H
  C1505    1.0000 0.00322  0.02570  0.66601  Biso   1.000  C
  C1506    1.0000 0.02570  0.33399  0.99678  Biso   1.000  C
  C1507    1.0000 0.90506  0.07963  0.23580  Biso   1.000  C
  C1508    1.0000 0.97035  0.09683  0.19442  Biso   1.000  C
  C1509    1.0000 0.92037  0.76420  0.90506  Biso   1.000  C
  C1510    1.0000 0.90317  0.80558  0.97035  Biso   1.000  C
  C1511    1.0000 0.99678  0.97430  0.66601  Biso   1.000  C
  H1503    1.0000 0.97410  0.04061  0.67149  Biso   1.000  H
  C1512    1.0000 0.01846  0.03523  0.61903  Biso   1.000  C
  H1504    1.0000 0.04061  0.32851  0.02590  Biso   1.000  H
  C1513    1.0000 0.97430  0.33399  0.00322  Biso   1.000  C
  C1514    1.0000 0.03523  0.38097  0.98154  Biso   1.000  C
  C1515    1.0000 0.87953  0.09613  0.20159  Biso   1.000  C
  H1505    1.0000 0.89098  0.06830  0.26170  Biso   1.000  H
  H1506    1.0000 0.00179  0.09739  0.19170  Biso   1.000  H
  C1516    1.0000 0.94471  0.11313  0.16029  Biso   1.000  C
  C1517    1.0000 0.90387  0.79841  0.87953  Biso   1.000  C
  H1507    1.0000 0.93170  0.73830  0.89098  Biso   1.000  H
  C1518    1.0000 0.88687  0.83971  0.94471  Biso   1.000  C
  H1508    1.0000 0.90261  0.80830  0.00179  Biso   1.000  H
  N203     1.0000 0.96467  0.95985  0.69922  Biso   1.000  N
  C1519    1.0000 0.98154  0.96477  0.61903  Biso   1.000  C
  H1509    1.0000 0.02590  0.95939  0.67149  Biso   1.000  H
  C1520    1.0000 0.98851  0.00608  0.59260  Biso   1.000  C
  C1521    1.0000 0.01149  0.99392  0.59260  Biso   1.000  C
  H1510    1.0000 0.00110  0.06000  0.60621  Biso   1.000  H
  H1511    1.0000 0.05031  0.04360  0.61889  Biso   1.000  H
  H1512    1.0000 0.95939  0.32851  0.97410  Biso   1.000  H
  N204     1.0000 0.95985  0.30078  0.03533  Biso   1.000  N
  C1522    1.0000 0.96477  0.38097  0.01846  Biso   1.000  C
  C1523    1.0000 0.00608  0.40740  0.01149  Biso   1.000  C
  C1524    1.0000 0.99392  0.40740  0.98851  Biso   1.000  C
  H1513    1.0000 0.06000  0.39379  0.99890  Biso   1.000  H
  H1514    1.0000 0.04360  0.38111  0.94969  Biso   1.000  H
  C1525    1.0000 0.89859  0.11303  0.16304  Biso   1.000  C
  H1515    1.0000 0.84812  0.09600  0.20442  Biso   1.000  H
  H1516    1.0000 0.95869  0.12469  0.13448  Biso   1.000  H
  C1526    1.0000 0.88697  0.83696  0.89859  Biso   1.000  C
  H1517    1.0000 0.90400  0.79558  0.84812  Biso   1.000  H
  H1518    1.0000 0.87531  0.86552  0.95869  Biso   1.000  H
  C1527    1.0000 0.97945  0.93824  0.73103  Biso   1.000  C
  H1519    1.0000 0.99890  0.94000  0.60621  Biso   1.000  H
  H1520    1.0000 0.94969  0.95640  0.61889  Biso   1.000  H
  H1521    1.0000 0.99781  0.00110  0.56361  Biso   1.000  H
  H1522    1.0000 0.95979  0.02119  0.58712  Biso   1.000  H
  H1523    1.0000 0.00219  0.99890  0.56361  Biso   1.000  H
  H1524    1.0000 0.04021  0.97881  0.58712  Biso   1.000  H
  C1528    1.0000 0.93824  0.26897  0.02055  Biso   1.000  C
  H1525    1.0000 0.94000  0.39379  0.00110  Biso   1.000  H
  H1526    1.0000 0.95640  0.38111  0.05031  Biso   1.000  H
  H1527    1.0000 0.99890  0.43639  0.99781  Biso   1.000  H
  H1528    1.0000 0.00110  0.43639  0.00219  Biso   1.000  H
  H1529    1.0000 0.02119  0.41288  0.04021  Biso   1.000  H
  H1530    1.0000 0.97881  0.41288  0.95979  Biso   1.000  H
  N205     1.0000 0.87083  0.12917  0.12917  Biso   1.000  N
  N206     1.0000 0.87083  0.87083  0.87083  Biso   1.000  N
  C1529    1.0000 0.95135  0.92060  0.76713  Biso   1.000  C
  H1531    1.0000 0.01049  0.93269  0.73219  Biso   1.000  H
  H1532    1.0000 0.93269  0.26781  0.98951  Biso   1.000  H
  C1530    1.0000 0.92060  0.23287  0.04865  Biso   1.000  C
  C1531    1.0000 0.88697  0.16304  0.10141  Biso   1.000  C
  C1532    1.0000 0.83696  0.10141  0.11303  Biso   1.000  C
  C1533    1.0000 0.89859  0.88697  0.83696  Biso   1.000  C
  C1534    1.0000 0.83696  0.89859  0.88697  Biso   1.000  C
  C1535    1.0000 0.90506  0.92037  0.76420  Biso   1.000  C
  C1536    1.0000 0.97035  0.90317  0.80558  Biso   1.000  C
  C1537    1.0000 0.92037  0.23580  0.09494  Biso   1.000  C
  C1538    1.0000 0.90317  0.19442  0.02965  Biso   1.000  C
  C1539    1.0000 0.90387  0.20159  0.12047  Biso   1.000  C
  C1540    1.0000 0.88687  0.16029  0.05529  Biso   1.000  C
  C1541    1.0000 0.83971  0.05529  0.11313  Biso   1.000  C
  C1542    1.0000 0.79841  0.12047  0.09613  Biso   1.000  C
  C1543    1.0000 0.87953  0.90387  0.79841  Biso   1.000  C
  C1544    1.0000 0.94471  0.88687  0.83971  Biso   1.000  C
  C1545    1.0000 0.83971  0.94471  0.88687  Biso   1.000  C
  C1546    1.0000 0.79841  0.87953  0.90387  Biso   1.000  C
  H1533    1.0000 0.89098  0.93170  0.73830  Biso   1.000  H
  H1534    1.0000 0.00179  0.90261  0.80830  Biso   1.000  H
  H1535    1.0000 0.93170  0.26170  0.10902  Biso   1.000  H
  H1536    1.0000 0.90261  0.19170  0.99821  Biso   1.000  H
  H1537    1.0000 0.90400  0.20442  0.15188  Biso   1.000  H
  H1538    1.0000 0.87531  0.13448  0.04131  Biso   1.000  H
  H1539    1.0000 0.86552  0.04131  0.12469  Biso   1.000  H
  C1547    1.0000 0.80558  0.02965  0.09683  Biso   1.000  C
  H1540    1.0000 0.79558  0.15188  0.09600  Biso   1.000  H
  C1548    1.0000 0.76420  0.09494  0.07963  Biso   1.000  C
  H1541    1.0000 0.84812  0.90400  0.79558  Biso   1.000  H
  H1542    1.0000 0.95869  0.87531  0.86552  Biso   1.000  H
  H1543    1.0000 0.86552  0.95869  0.87531  Biso   1.000  H
  C1549    1.0000 0.80558  0.97035  0.90317  Biso   1.000  C
  H1544    1.0000 0.79558  0.84812  0.90400  Biso   1.000  H
  C1550    1.0000 0.76420  0.90506  0.92037  Biso   1.000  C
  H1545    1.0000 0.80830  0.99821  0.09739  Biso   1.000  H
  C1551    1.0000 0.76713  0.04865  0.07940  Biso   1.000  C
  H1546    1.0000 0.73830  0.10902  0.06830  Biso   1.000  H
  C1552    1.0000 0.76713  0.95135  0.92060  Biso   1.000  C
  H1547    1.0000 0.80830  0.00179  0.90261  Biso   1.000  H
  H1548    1.0000 0.73830  0.89098  0.93170  Biso   1.000  H
  C1553    1.0000 0.73103  0.02055  0.06176  Biso   1.000  C
  C1554    1.0000 0.73103  0.97945  0.93824  Biso   1.000  C
  H1549    1.0000 0.73219  0.98951  0.06731  Biso   1.000  H
  N207     1.0000 0.69922  0.03533  0.04015  Biso   1.000  N
  N208     1.0000 0.69922  0.96467  0.95985  Biso   1.000  N
  H1550    1.0000 0.73219  0.01049  0.93269  Biso   1.000  H
  C1555    1.0000 0.66601  0.00322  0.02570  Biso   1.000  C
  C1556    1.0000 0.66601  0.99678  0.97430  Biso   1.000  C
  H1551    1.0000 0.67149  0.97410  0.04061  Biso   1.000  H
  C1557    1.0000 0.61903  0.01846  0.03523  Biso   1.000  C
  C1558    1.0000 0.61903  0.98154  0.96477  Biso   1.000  C
  H1552    1.0000 0.67149  0.02590  0.95939  Biso   1.000  H
  C1559    1.0000 0.59260  0.98851  0.00608  Biso   1.000  C
  C1560    1.0000 0.59260  0.01149  0.99392  Biso   1.000  C
  H1553    1.0000 0.60621  0.00110  0.06000  Biso   1.000  H
  H1554    1.0000 0.61889  0.05031  0.04360  Biso   1.000  H
  H1555    1.0000 0.60621  0.99890  0.94000  Biso   1.000  H
  H1556    1.0000 0.61889  0.94969  0.95640  Biso   1.000  H
  H1557    1.0000 0.56361  0.99781  0.00110  Biso   1.000  H
  H1558    1.0000 0.58712  0.95979  0.02119  Biso   1.000  H
  H1559    1.0000 0.56361  0.00219  0.99890  Biso   1.000  H
  H1560    1.0000 0.58712  0.04021  0.97881  Biso   1.000  H
  C1561    1.0000 0.26897  0.97945  0.06176  Biso   1.000  C
  N209     1.0000 0.30078  0.96467  0.04015  Biso   1.000  N
  H1561    1.0000 0.26781  0.01049  0.06731  Biso   1.000  H
  C1562    1.0000 0.23287  0.95135  0.07940  Biso   1.000  C
  C1563    1.0000 0.33399  0.99678  0.02570  Biso   1.000  C
  C1564    1.0000 0.23580  0.90506  0.07963  Biso   1.000  C
  C1565    1.0000 0.19442  0.97035  0.09683  Biso   1.000  C
  C1566    1.0000 0.38097  0.98154  0.03523  Biso   1.000  C
  C1567    1.0000 0.33399  0.00322  0.97430  Biso   1.000  C
  H1562    1.0000 0.32851  0.02590  0.04061  Biso   1.000  H
  C1568    1.0000 0.20159  0.87953  0.09613  Biso   1.000  C
  H1563    1.0000 0.26170  0.89098  0.06830  Biso   1.000  H
  H1564    1.0000 0.19170  0.00179  0.09739  Biso   1.000  H
  C1569    1.0000 0.16029  0.94471  0.11313  Biso   1.000  C
  C1570    1.0000 0.40740  0.01149  0.00608  Biso   1.000  C
  C1571    1.0000 0.40740  0.98851  0.99392  Biso   1.000  C
  H1565    1.0000 0.39379  0.99890  0.06000  Biso   1.000  H
  H1566    1.0000 0.38111  0.94969  0.04360  Biso   1.000  H
  C1572    1.0000 0.38097  0.01846  0.96477  Biso   1.000  C
  H1567    1.0000 0.32851  0.97410  0.95939  Biso   1.000  H
  N210     1.0000 0.30078  0.03533  0.95985  Biso   1.000  N
  C1573    1.0000 0.16304  0.89859  0.11303  Biso   1.000  C
  H1568    1.0000 0.20442  0.84812  0.09600  Biso   1.000  H
  H1569    1.0000 0.13448  0.95869  0.12469  Biso   1.000  H
  H1570    1.0000 0.43639  0.99781  0.99890  Biso   1.000  H
  H1571    1.0000 0.43639  0.00219  0.00110  Biso   1.000  H
  H1572    1.0000 0.41288  0.04021  0.02119  Biso   1.000  H
  H1573    1.0000 0.41288  0.95979  0.97881  Biso   1.000  H
  H1574    1.0000 0.39379  0.00110  0.94000  Biso   1.000  H
  H1575    1.0000 0.38111  0.05031  0.95640  Biso   1.000  H
  C1574    1.0000 0.26897  0.02055  0.93824  Biso   1.000  C
  N211     1.0000 0.12917  0.87083  0.12917  Biso   1.000  N
  H1576    1.0000 0.26781  0.98951  0.93269  Biso   1.000  H
  C1575    1.0000 0.23287  0.04865  0.92060  Biso   1.000  C
  C1576    1.0000 0.10141  0.88697  0.16304  Biso   1.000  C
  C1577    1.0000 0.11303  0.83696  0.10141  Biso   1.000  C
  C1578    1.0000 0.23580  0.09494  0.92037  Biso   1.000  C
  C1579    1.0000 0.19442  0.02965  0.90317  Biso   1.000  C
  C1580    1.0000 0.05529  0.88687  0.16029  Biso   1.000  C
  C1581    1.0000 0.12047  0.90387  0.20159  Biso   1.000  C
  C1582    1.0000 0.11313  0.83971  0.05529  Biso   1.000  C
  C1583    1.0000 0.09613  0.79841  0.12047  Biso   1.000  C
  C1584    1.0000 0.20159  0.12047  0.90387  Biso   1.000  C
  H1577    1.0000 0.26170  0.10902  0.93170  Biso   1.000  H
  H1578    1.0000 0.19170  0.99821  0.90261  Biso   1.000  H
  C1585    1.0000 0.16029  0.05529  0.88687  Biso   1.000  C
  H1579    1.0000 0.04131  0.87531  0.13448  Biso   1.000  H
  C1586    1.0000 0.02965  0.90317  0.19442  Biso   1.000  C
  H1580    1.0000 0.15188  0.90400  0.20442  Biso   1.000  H
  C1587    1.0000 0.09494  0.92037  0.23580  Biso   1.000  C
  H1581    1.0000 0.12469  0.86552  0.04131  Biso   1.000  H
  C1588    1.0000 0.09683  0.80558  0.02965  Biso   1.000  C
  H1582    1.0000 0.09600  0.79558  0.15188  Biso   1.000  H
  C1589    1.0000 0.07963  0.76420  0.09494  Biso   1.000  C
  C1590    1.0000 0.16304  0.10141  0.88697  Biso   1.000  C
  H1583    1.0000 0.20442  0.15188  0.90400  Biso   1.000  H
  H1584    1.0000 0.13448  0.04131  0.87531  Biso   1.000  H
  H1585    1.0000 0.99821  0.90261  0.19170  Biso   1.000  H
  C1591    1.0000 0.04865  0.92060  0.23287  Biso   1.000  C
  H1586    1.0000 0.10902  0.93170  0.26170  Biso   1.000  H
  H1587    1.0000 0.09739  0.80830  0.99821  Biso   1.000  H
  C1592    1.0000 0.07940  0.76713  0.04865  Biso   1.000  C
  H1588    1.0000 0.06830  0.73830  0.10902  Biso   1.000  H
  N212     1.0000 0.12917  0.12917  0.87083  Biso   1.000  N
  C1593    1.0000 0.02055  0.93824  0.26897  Biso   1.000  C
  C1594    1.0000 0.06176  0.73103  0.02055  Biso   1.000  C
  C1595    1.0000 0.10141  0.11303  0.83696  Biso   1.000  C
  C1596    1.0000 0.11303  0.16304  0.89859  Biso   1.000  C
  H1589    1.0000 0.98951  0.93269  0.26781  Biso   1.000  H
  N213     1.0000 0.03533  0.95985  0.30078  Biso   1.000  N
  H1590    1.0000 0.06731  0.73219  0.98951  Biso   1.000  H
  N214     1.0000 0.04015  0.69922  0.03533  Biso   1.000  N
  C1597    1.0000 0.05529  0.11313  0.83971  Biso   1.000  C
  C1598    1.0000 0.12047  0.09613  0.79841  Biso   1.000  C
  C1599    1.0000 0.11313  0.16029  0.94471  Biso   1.000  C
  C1600    1.0000 0.09613  0.20159  0.87953  Biso   1.000  C
  C1601    1.0000 0.00322  0.97430  0.33399  Biso   1.000  C
  C1602    1.0000 0.02570  0.66601  0.00322  Biso   1.000  C
  H1591    1.0000 0.04131  0.12469  0.86552  Biso   1.000  H
  C1603    1.0000 0.02965  0.09683  0.80558  Biso   1.000  C
  H1592    1.0000 0.15188  0.09600  0.79558  Biso   1.000  H
  C1604    1.0000 0.09494  0.07963  0.76420  Biso   1.000  C
  H1593    1.0000 0.12469  0.13448  0.95869  Biso   1.000  H
  C1605    1.0000 0.09683  0.19442  0.97035  Biso   1.000  C
  H1594    1.0000 0.09600  0.20442  0.84812  Biso   1.000  H
  C1606    1.0000 0.07963  0.23580  0.90506  Biso   1.000  C
  H1595    1.0000 0.97410  0.95939  0.32851  Biso   1.000  H
  C1607    1.0000 0.99678  0.02570  0.33399  Biso   1.000  C
  C1608    1.0000 0.01846  0.96477  0.38097  Biso   1.000  C
  C1609    1.0000 0.97430  0.66601  0.99678  Biso   1.000  C
  H1596    1.0000 0.04061  0.67149  0.97410  Biso   1.000  H
  C1610    1.0000 0.03523  0.61903  0.01846  Biso   1.000  C
  H1597    1.0000 0.99821  0.09739  0.80830  Biso   1.000  H
  C1611    1.0000 0.04865  0.07940  0.76713  Biso   1.000  C
  H1598    1.0000 0.10902  0.06830  0.73830  Biso   1.000  H
  H1599    1.0000 0.09739  0.19170  0.00179  Biso   1.000  H
  C1612    1.0000 0.07940  0.23287  0.95135  Biso   1.000  C
  H1600    1.0000 0.06830  0.26170  0.89098  Biso   1.000  H
  H1601    1.0000 0.02590  0.04061  0.32851  Biso   1.000  H
  N215     1.0000 0.96467  0.04015  0.30078  Biso   1.000  N
  C1613    1.0000 0.98154  0.03523  0.38097  Biso   1.000  C
  C1614    1.0000 0.01149  0.00608  0.40740  Biso   1.000  C
  C1615    1.0000 0.98851  0.99392  0.40740  Biso   1.000  C
  H1602    1.0000 0.00110  0.94000  0.39379  Biso   1.000  H
  H1603    1.0000 0.05031  0.95640  0.38111  Biso   1.000  H
  N216     1.0000 0.95985  0.69922  0.96467  Biso   1.000  N
  C1616    1.0000 0.96477  0.61903  0.98154  Biso   1.000  C
  H1604    1.0000 0.95939  0.67149  0.02590  Biso   1.000  H
  C1617    1.0000 0.99392  0.59260  0.01149  Biso   1.000  C
  C1618    1.0000 0.00608  0.59260  0.98851  Biso   1.000  C
  H1605    1.0000 0.06000  0.60621  0.00110  Biso   1.000  H
  H1606    1.0000 0.04360  0.61889  0.05031  Biso   1.000  H
  C1619    1.0000 0.02055  0.06176  0.73103  Biso   1.000  C
  C1620    1.0000 0.06176  0.26897  0.97945  Biso   1.000  C
  C1621    1.0000 0.97945  0.06176  0.26897  Biso   1.000  C
  H1607    1.0000 0.99890  0.06000  0.39379  Biso   1.000  H
  H1608    1.0000 0.94969  0.04360  0.38111  Biso   1.000  H
  H1609    1.0000 0.99781  0.99890  0.43639  Biso   1.000  H
  H1610    1.0000 0.00219  0.00110  0.43639  Biso   1.000  H
  H1611    1.0000 0.04021  0.02119  0.41288  Biso   1.000  H
  H1612    1.0000 0.95979  0.97881  0.41288  Biso   1.000  H
  C1622    1.0000 0.93824  0.73103  0.97945  Biso   1.000  C
  H1613    1.0000 0.94000  0.60621  0.99890  Biso   1.000  H
  H1614    1.0000 0.95640  0.61889  0.94969  Biso   1.000  H
  H1615    1.0000 0.97881  0.58712  0.04021  Biso   1.000  H
  H1616    1.0000 0.99890  0.56361  0.00219  Biso   1.000  H
  H1617    1.0000 0.00110  0.56361  0.99781  Biso   1.000  H
  H1618    1.0000 0.02119  0.58712  0.95979  Biso   1.000  H
  H1619    1.0000 0.98951  0.06731  0.73219  Biso   1.000  H
  N217     1.0000 0.03533  0.04015  0.69922  Biso   1.000  N
  H1620    1.0000 0.06731  0.26781  0.01049  Biso   1.000  H
  N218     1.0000 0.04015  0.30078  0.96467  Biso   1.000  N
  H1621    1.0000 0.01049  0.06731  0.26781  Biso   1.000  H
  C1623    1.0000 0.95135  0.07940  0.23287  Biso   1.000  C
  C1624    1.0000 0.92060  0.76713  0.95135  Biso   1.000  C
  H1622    1.0000 0.93269  0.73219  0.01049  Biso   1.000  H
  C1625    1.0000 0.00322  0.02570  0.66601  Biso   1.000  C
  C1626    1.0000 0.02570  0.33399  0.99678  Biso   1.000  C
  C1627    1.0000 0.90506  0.07963  0.23580  Biso   1.000  C
  C1628    1.0000 0.97035  0.09683  0.19442  Biso   1.000  C
  C1629    1.0000 0.92037  0.76420  0.90506  Biso   1.000  C
  C1630    1.0000 0.90317  0.80558  0.97035  Biso   1.000  C
  C1631    1.0000 0.99678  0.97430  0.66601  Biso   1.000  C
  H1623    1.0000 0.97410  0.04061  0.67149  Biso   1.000  H
  C1632    1.0000 0.01846  0.03523  0.61903  Biso   1.000  C
  H1624    1.0000 0.04061  0.32851  0.02590  Biso   1.000  H
  C1633    1.0000 0.97430  0.33399  0.00322  Biso   1.000  C
  C1634    1.0000 0.03523  0.38097  0.98154  Biso   1.000  C
  C1635    1.0000 0.87953  0.09613  0.20159  Biso   1.000  C
  H1625    1.0000 0.89098  0.06830  0.26170  Biso   1.000  H
  H1626    1.0000 0.00179  0.09739  0.19170  Biso   1.000  H
  C1636    1.0000 0.94471  0.11313  0.16029  Biso   1.000  C
  C1637    1.0000 0.90387  0.79841  0.87953  Biso   1.000  C
  H1627    1.0000 0.93170  0.73830  0.89098  Biso   1.000  H
  C1638    1.0000 0.88687  0.83971  0.94471  Biso   1.000  C
  H1628    1.0000 0.90261  0.80830  0.00179  Biso   1.000  H
  N219     1.0000 0.96467  0.95985  0.69922  Biso   1.000  N
  C1639    1.0000 0.98154  0.96477  0.61903  Biso   1.000  C
  H1629    1.0000 0.02590  0.95939  0.67149  Biso   1.000  H
  C1640    1.0000 0.98851  0.00608  0.59260  Biso   1.000  C
  C1641    1.0000 0.01149  0.99392  0.59260  Biso   1.000  C
  H1630    1.0000 0.00110  0.06000  0.60621  Biso   1.000  H
  H1631    1.0000 0.05031  0.04360  0.61889  Biso   1.000  H
  H1632    1.0000 0.95939  0.32851  0.97410  Biso   1.000  H
  N220     1.0000 0.95985  0.30078  0.03533  Biso   1.000  N
  C1642    1.0000 0.96477  0.38097  0.01846  Biso   1.000  C
  C1643    1.0000 0.00608  0.40740  0.01149  Biso   1.000  C
  C1644    1.0000 0.99392  0.40740  0.98851  Biso   1.000  C
  H1633    1.0000 0.06000  0.39379  0.99890  Biso   1.000  H
  H1634    1.0000 0.04360  0.38111  0.94969  Biso   1.000  H
  C1645    1.0000 0.89859  0.11303  0.16304  Biso   1.000  C
  H1635    1.0000 0.84812  0.09600  0.20442  Biso   1.000  H
  H1636    1.0000 0.95869  0.12469  0.13448  Biso   1.000  H
  C1646    1.0000 0.88697  0.83696  0.89859  Biso   1.000  C
  H1637    1.0000 0.90400  0.79558  0.84812  Biso   1.000  H
  H1638    1.0000 0.87531  0.86552  0.95869  Biso   1.000  H
  C1647    1.0000 0.97945  0.93824  0.73103  Biso   1.000  C
  H1639    1.0000 0.99890  0.94000  0.60621  Biso   1.000  H
  H1640    1.0000 0.94969  0.95640  0.61889  Biso   1.000  H
  H1641    1.0000 0.99781  0.00110  0.56361  Biso   1.000  H
  H1642    1.0000 0.95979  0.02119  0.58712  Biso   1.000  H
  H1643    1.0000 0.00219  0.99890  0.56361  Biso   1.000  H
  H1644    1.0000 0.04021  0.97881  0.58712  Biso   1.000  H
  C1648    1.0000 0.93824  0.26897  0.02055  Biso   1.000  C
  H1645    1.0000 0.94000  0.39379  0.00110  Biso   1.000  H
  H1646    1.0000 0.95640  0.38111  0.05031  Biso   1.000  H
  H1647    1.0000 0.99890  0.43639  0.99781  Biso   1.000  H
  H1648    1.0000 0.00110  0.43639  0.00219  Biso   1.000  H
  H1649    1.0000 0.02119  0.41288  0.04021  Biso   1.000  H
  H1650    1.0000 0.97881  0.41288  0.95979  Biso   1.000  H
  N221     1.0000 0.87083  0.12917  0.12917  Biso   1.000  N
  N222     1.0000 0.87083  0.87083  0.87083  Biso   1.000  N
  C1649    1.0000 0.95135  0.92060  0.76713  Biso   1.000  C
  H1651    1.0000 0.01049  0.93269  0.73219  Biso   1.000  H
  H1652    1.0000 0.93269  0.26781  0.98951  Biso   1.000  H
  C1650    1.0000 0.92060  0.23287  0.04865  Biso   1.000  C
  C1651    1.0000 0.88697  0.16304  0.10141  Biso   1.000  C
  C1652    1.0000 0.83696  0.10141  0.11303  Biso   1.000  C
  C1653    1.0000 0.89859  0.88697  0.83696  Biso   1.000  C
  C1654    1.0000 0.83696  0.89859  0.88697  Biso   1.000  C
  C1655    1.0000 0.90506  0.92037  0.76420  Biso   1.000  C
  C1656    1.0000 0.97035  0.90317  0.80558  Biso   1.000  C
  C1657    1.0000 0.92037  0.23580  0.09494  Biso   1.000  C
  C1658    1.0000 0.90317  0.19442  0.02965  Biso   1.000  C
  C1659    1.0000 0.90387  0.20159  0.12047  Biso   1.000  C
  C1660    1.0000 0.88687  0.16029  0.05529  Biso   1.000  C
  C1661    1.0000 0.83971  0.05529  0.11313  Biso   1.000  C
  C1662    1.0000 0.79841  0.12047  0.09613  Biso   1.000  C
  C1663    1.0000 0.87953  0.90387  0.79841  Biso   1.000  C
  C1664    1.0000 0.94471  0.88687  0.83971  Biso   1.000  C
  C1665    1.0000 0.83971  0.94471  0.88687  Biso   1.000  C
  C1666    1.0000 0.79841  0.87953  0.90387  Biso   1.000  C
  H1653    1.0000 0.89098  0.93170  0.73830  Biso   1.000  H
  H1654    1.0000 0.00179  0.90261  0.80830  Biso   1.000  H
  H1655    1.0000 0.93170  0.26170  0.10902  Biso   1.000  H
  H1656    1.0000 0.90261  0.19170  0.99821  Biso   1.000  H
  H1657    1.0000 0.90400  0.20442  0.15188  Biso   1.000  H
  H1658    1.0000 0.87531  0.13448  0.04131  Biso   1.000  H
  H1659    1.0000 0.86552  0.04131  0.12469  Biso   1.000  H
  C1667    1.0000 0.80558  0.02965  0.09683  Biso   1.000  C
  H1660    1.0000 0.79558  0.15188  0.09600  Biso   1.000  H
  C1668    1.0000 0.76420  0.09494  0.07963  Biso   1.000  C
  H1661    1.0000 0.84812  0.90400  0.79558  Biso   1.000  H
  H1662    1.0000 0.95869  0.87531  0.86552  Biso   1.000  H
  H1663    1.0000 0.86552  0.95869  0.87531  Biso   1.000  H
  C1669    1.0000 0.80558  0.97035  0.90317  Biso   1.000  C
  H1664    1.0000 0.79558  0.84812  0.90400  Biso   1.000  H
  C1670    1.0000 0.76420  0.90506  0.92037  Biso   1.000  C
  H1665    1.0000 0.80830  0.99821  0.09739  Biso   1.000  H
  C1671    1.0000 0.76713  0.04865  0.07940  Biso   1.000  C
  H1666    1.0000 0.73830  0.10902  0.06830  Biso   1.000  H
  C1672    1.0000 0.76713  0.95135  0.92060  Biso   1.000  C
  H1667    1.0000 0.80830  0.00179  0.90261  Biso   1.000  H
  H1668    1.0000 0.73830  0.89098  0.93170  Biso   1.000  H
  C1673    1.0000 0.73103  0.02055  0.06176  Biso   1.000  C
  C1674    1.0000 0.73103  0.97945  0.93824  Biso   1.000  C
  H1669    1.0000 0.73219  0.98951  0.06731  Biso   1.000  H
  N223     1.0000 0.69922  0.03533  0.04015  Biso   1.000  N
  N224     1.0000 0.69922  0.96467  0.95985  Biso   1.000  N
  H1670    1.0000 0.73219  0.01049  0.93269  Biso   1.000  H
  C1675    1.0000 0.66601  0.00322  0.02570  Biso   1.000  C
  C1676    1.0000 0.66601  0.99678  0.97430  Biso   1.000  C
  H1671    1.0000 0.67149  0.97410  0.04061  Biso   1.000  H
  C1677    1.0000 0.61903  0.01846  0.03523  Biso   1.000  C
  C1678    1.0000 0.61903  0.98154  0.96477  Biso   1.000  C
  H1672    1.0000 0.67149  0.02590  0.95939  Biso   1.000  H
  C1679    1.0000 0.59260  0.98851  0.00608  Biso   1.000  C
  C1680    1.0000 0.59260  0.01149  0.99392  Biso   1.000  C
  H1673    1.0000 0.60621  0.00110  0.06000  Biso   1.000  H
  H1674    1.0000 0.61889  0.05031  0.04360  Biso   1.000  H
  H1675    1.0000 0.60621  0.99890  0.94000  Biso   1.000  H
  H1676    1.0000 0.61889  0.94969  0.95640  Biso   1.000  H
  H1677    1.0000 0.56361  0.99781  0.00110  Biso   1.000  H
  H1678    1.0000 0.58712  0.95979  0.02119  Biso   1.000  H
  H1679    1.0000 0.56361  0.00219  0.99890  Biso   1.000  H
  H1680    1.0000 0.58712  0.04021  0.97881  Biso   1.000  H
  C1681    1.0000 0.26897  0.97945  0.06176  Biso   1.000  C
  N225     1.0000 0.30078  0.96467  0.04015  Biso   1.000  N
  H1681    1.0000 0.26781  0.01049  0.06731  Biso   1.000  H
  C1682    1.0000 0.23287  0.95135  0.07940  Biso   1.000  C
  C1683    1.0000 0.33399  0.99678  0.02570  Biso   1.000  C
  C1684    1.0000 0.23580  0.90506  0.07963  Biso   1.000  C
  C1685    1.0000 0.19442  0.97035  0.09683  Biso   1.000  C
  C1686    1.0000 0.38097  0.98154  0.03523  Biso   1.000  C
  C1687    1.0000 0.33399  0.00322  0.97430  Biso   1.000  C
  H1682    1.0000 0.32851  0.02590  0.04061  Biso   1.000  H
  C1688    1.0000 0.20159  0.87953  0.09613  Biso   1.000  C
  H1683    1.0000 0.26170  0.89098  0.06830  Biso   1.000  H
  H1684    1.0000 0.19170  0.00179  0.09739  Biso   1.000  H
  C1689    1.0000 0.16029  0.94471  0.11313  Biso   1.000  C
  C1690    1.0000 0.40740  0.01149  0.00608  Biso   1.000  C
  C1691    1.0000 0.40740  0.98851  0.99392  Biso   1.000  C
  H1685    1.0000 0.39379  0.99890  0.06000  Biso   1.000  H
  H1686    1.0000 0.38111  0.94969  0.04360  Biso   1.000  H
  C1692    1.0000 0.38097  0.01846  0.96477  Biso   1.000  C
  H1687    1.0000 0.32851  0.97410  0.95939  Biso   1.000  H
  N226     1.0000 0.30078  0.03533  0.95985  Biso   1.000  N
  C1693    1.0000 0.16304  0.89859  0.11303  Biso   1.000  C
  H1688    1.0000 0.20442  0.84812  0.09600  Biso   1.000  H
  H1689    1.0000 0.13448  0.95869  0.12469  Biso   1.000  H
  H1690    1.0000 0.43639  0.99781  0.99890  Biso   1.000  H
  H1691    1.0000 0.43639  0.00219  0.00110  Biso   1.000  H
  H1692    1.0000 0.41288  0.04021  0.02119  Biso   1.000  H
  H1693    1.0000 0.41288  0.95979  0.97881  Biso   1.000  H
  H1694    1.0000 0.39379  0.00110  0.94000  Biso   1.000  H
  H1695    1.0000 0.38111  0.05031  0.95640  Biso   1.000  H
  C1694    1.0000 0.26897  0.02055  0.93824  Biso   1.000  C
  N227     1.0000 0.12917  0.87083  0.12917  Biso   1.000  N
  H1696    1.0000 0.26781  0.98951  0.93269  Biso   1.000  H
  C1695    1.0000 0.23287  0.04865  0.92060  Biso   1.000  C
  C1696    1.0000 0.10141  0.88697  0.16304  Biso   1.000  C
  C1697    1.0000 0.11303  0.83696  0.10141  Biso   1.000  C
  C1698    1.0000 0.23580  0.09494  0.92037  Biso   1.000  C
  C1699    1.0000 0.19442  0.02965  0.90317  Biso   1.000  C
  C1700    1.0000 0.05529  0.88687  0.16029  Biso   1.000  C
  C1701    1.0000 0.12047  0.90387  0.20159  Biso   1.000  C
  C1702    1.0000 0.11313  0.83971  0.05529  Biso   1.000  C
  C1703    1.0000 0.09613  0.79841  0.12047  Biso   1.000  C
  C1704    1.0000 0.20159  0.12047  0.90387  Biso   1.000  C
  H1697    1.0000 0.26170  0.10902  0.93170  Biso   1.000  H
  H1698    1.0000 0.19170  0.99821  0.90261  Biso   1.000  H
  C1705    1.0000 0.16029  0.05529  0.88687  Biso   1.000  C
  H1699    1.0000 0.04131  0.87531  0.13448  Biso   1.000  H
  C1706    1.0000 0.02965  0.90317  0.19442  Biso   1.000  C
  H1700    1.0000 0.15188  0.90400  0.20442  Biso   1.000  H
  C1707    1.0000 0.09494  0.92037  0.23580  Biso   1.000  C
  H1701    1.0000 0.12469  0.86552  0.04131  Biso   1.000  H
  C1708    1.0000 0.09683  0.80558  0.02965  Biso   1.000  C
  H1702    1.0000 0.09600  0.79558  0.15188  Biso   1.000  H
  C1709    1.0000 0.07963  0.76420  0.09494  Biso   1.000  C
  C1710    1.0000 0.16304  0.10141  0.88697  Biso   1.000  C
  H1703    1.0000 0.20442  0.15188  0.90400  Biso   1.000  H
  H1704    1.0000 0.13448  0.04131  0.87531  Biso   1.000  H
  H1705    1.0000 0.99821  0.90261  0.19170  Biso   1.000  H
  C1711    1.0000 0.04865  0.92060  0.23287  Biso   1.000  C
  H1706    1.0000 0.10902  0.93170  0.26170  Biso   1.000  H
  H1707    1.0000 0.09739  0.80830  0.99821  Biso   1.000  H
  C1712    1.0000 0.07940  0.76713  0.04865  Biso   1.000  C
  H1708    1.0000 0.06830  0.73830  0.10902  Biso   1.000  H
  N228     1.0000 0.12917  0.12917  0.87083  Biso   1.000  N
  C1713    1.0000 0.02055  0.93824  0.26897  Biso   1.000  C
  C1714    1.0000 0.06176  0.73103  0.02055  Biso   1.000  C
  C1715    1.0000 0.10141  0.11303  0.83696  Biso   1.000  C
  C1716    1.0000 0.11303  0.16304  0.89859  Biso   1.000  C
  H1709    1.0000 0.98951  0.93269  0.26781  Biso   1.000  H
  N229     1.0000 0.03533  0.95985  0.30078  Biso   1.000  N
  H1710    1.0000 0.06731  0.73219  0.98951  Biso   1.000  H
  N230     1.0000 0.04015  0.69922  0.03533  Biso   1.000  N
  C1717    1.0000 0.05529  0.11313  0.83971  Biso   1.000  C
  C1718    1.0000 0.12047  0.09613  0.79841  Biso   1.000  C
  C1719    1.0000 0.11313  0.16029  0.94471  Biso   1.000  C
  C1720    1.0000 0.09613  0.20159  0.87953  Biso   1.000  C
  C1721    1.0000 0.00322  0.97430  0.33399  Biso   1.000  C
  C1722    1.0000 0.02570  0.66601  0.00322  Biso   1.000  C
  H1711    1.0000 0.04131  0.12469  0.86552  Biso   1.000  H
  C1723    1.0000 0.02965  0.09683  0.80558  Biso   1.000  C
  H1712    1.0000 0.15188  0.09600  0.79558  Biso   1.000  H
  C1724    1.0000 0.09494  0.07963  0.76420  Biso   1.000  C
  H1713    1.0000 0.12469  0.13448  0.95869  Biso   1.000  H
  C1725    1.0000 0.09683  0.19442  0.97035  Biso   1.000  C
  H1714    1.0000 0.09600  0.20442  0.84812  Biso   1.000  H
  C1726    1.0000 0.07963  0.23580  0.90506  Biso   1.000  C
  H1715    1.0000 0.97410  0.95939  0.32851  Biso   1.000  H
  C1727    1.0000 0.99678  0.02570  0.33399  Biso   1.000  C
  C1728    1.0000 0.01846  0.96477  0.38097  Biso   1.000  C
  C1729    1.0000 0.97430  0.66601  0.99678  Biso   1.000  C
  H1716    1.0000 0.04061  0.67149  0.97410  Biso   1.000  H
  C1730    1.0000 0.03523  0.61903  0.01846  Biso   1.000  C
  H1717    1.0000 0.99821  0.09739  0.80830  Biso   1.000  H
  C1731    1.0000 0.04865  0.07940  0.76713  Biso   1.000  C
  H1718    1.0000 0.10902  0.06830  0.73830  Biso   1.000  H
  H1719    1.0000 0.09739  0.19170  0.00179  Biso   1.000  H
  C1732    1.0000 0.07940  0.23287  0.95135  Biso   1.000  C
  H1720    1.0000 0.06830  0.26170  0.89098  Biso   1.000  H
  H1721    1.0000 0.02590  0.04061  0.32851  Biso   1.000  H
  N231     1.0000 0.96467  0.04015  0.30078  Biso   1.000  N
  C1733    1.0000 0.98154  0.03523  0.38097  Biso   1.000  C
  C1734    1.0000 0.01149  0.00608  0.40740  Biso   1.000  C
  C1735    1.0000 0.98851  0.99392  0.40740  Biso   1.000  C
  H1722    1.0000 0.00110  0.94000  0.39379  Biso   1.000  H
  H1723    1.0000 0.05031  0.95640  0.38111  Biso   1.000  H
  N232     1.0000 0.95985  0.69922  0.96467  Biso   1.000  N
  C1736    1.0000 0.96477  0.61903  0.98154  Biso   1.000  C
  H1724    1.0000 0.95939  0.67149  0.02590  Biso   1.000  H
  C1737    1.0000 0.99392  0.59260  0.01149  Biso   1.000  C
  C1738    1.0000 0.00608  0.59260  0.98851  Biso   1.000  C
  H1725    1.0000 0.06000  0.60621  0.00110  Biso   1.000  H
  H1726    1.0000 0.04360  0.61889  0.05031  Biso   1.000  H
  C1739    1.0000 0.02055  0.06176  0.73103  Biso   1.000  C
  C1740    1.0000 0.06176  0.26897  0.97945  Biso   1.000  C
  C1741    1.0000 0.97945  0.06176  0.26897  Biso   1.000  C
  H1727    1.0000 0.99890  0.06000  0.39379  Biso   1.000  H
  H1728    1.0000 0.94969  0.04360  0.38111  Biso   1.000  H
  H1729    1.0000 0.99781  0.99890  0.43639  Biso   1.000  H
  H1730    1.0000 0.00219  0.00110  0.43639  Biso   1.000  H
  H1731    1.0000 0.04021  0.02119  0.41288  Biso   1.000  H
  H1732    1.0000 0.95979  0.97881  0.41288  Biso   1.000  H
  C1742    1.0000 0.93824  0.73103  0.97945  Biso   1.000  C
  H1733    1.0000 0.94000  0.60621  0.99890  Biso   1.000  H
  H1734    1.0000 0.95640  0.61889  0.94969  Biso   1.000  H
  H1735    1.0000 0.97881  0.58712  0.04021  Biso   1.000  H
  H1736    1.0000 0.99890  0.56361  0.00219  Biso   1.000  H
  H1737    1.0000 0.00110  0.56361  0.99781  Biso   1.000  H
  H1738    1.0000 0.02119  0.58712  0.95979  Biso   1.000  H
  H1739    1.0000 0.98951  0.06731  0.73219  Biso   1.000  H
  N233     1.0000 0.03533  0.04015  0.69922  Biso   1.000  N
  H1740    1.0000 0.06731  0.26781  0.01049  Biso   1.000  H
  N234     1.0000 0.04015  0.30078  0.96467  Biso   1.000  N
  H1741    1.0000 0.01049  0.06731  0.26781  Biso   1.000  H
  C1743    1.0000 0.95135  0.07940  0.23287  Biso   1.000  C
  C1744    1.0000 0.92060  0.76713  0.95135  Biso   1.000  C
  H1742    1.0000 0.93269  0.73219  0.01049  Biso   1.000  H
  C1745    1.0000 0.00322  0.02570  0.66601  Biso   1.000  C
  C1746    1.0000 0.02570  0.33399  0.99678  Biso   1.000  C
  C1747    1.0000 0.90506  0.07963  0.23580  Biso   1.000  C
  C1748    1.0000 0.97035  0.09683  0.19442  Biso   1.000  C
  C1749    1.0000 0.92037  0.76420  0.90506  Biso   1.000  C
  C1750    1.0000 0.90317  0.80558  0.97035  Biso   1.000  C
  C1751    1.0000 0.99678  0.97430  0.66601  Biso   1.000  C
  H1743    1.0000 0.97410  0.04061  0.67149  Biso   1.000  H
  C1752    1.0000 0.01846  0.03523  0.61903  Biso   1.000  C
  H1744    1.0000 0.04061  0.32851  0.02590  Biso   1.000  H
  C1753    1.0000 0.97430  0.33399  0.00322  Biso   1.000  C
  C1754    1.0000 0.03523  0.38097  0.98154  Biso   1.000  C
  C1755    1.0000 0.87953  0.09613  0.20159  Biso   1.000  C
  H1745    1.0000 0.89098  0.06830  0.26170  Biso   1.000  H
  H1746    1.0000 0.00179  0.09739  0.19170  Biso   1.000  H
  C1756    1.0000 0.94471  0.11313  0.16029  Biso   1.000  C
  C1757    1.0000 0.90387  0.79841  0.87953  Biso   1.000  C
  H1747    1.0000 0.93170  0.73830  0.89098  Biso   1.000  H
  C1758    1.0000 0.88687  0.83971  0.94471  Biso   1.000  C
  H1748    1.0000 0.90261  0.80830  0.00179  Biso   1.000  H
  N235     1.0000 0.96467  0.95985  0.69922  Biso   1.000  N
  C1759    1.0000 0.98154  0.96477  0.61903  Biso   1.000  C
  H1749    1.0000 0.02590  0.95939  0.67149  Biso   1.000  H
  C1760    1.0000 0.98851  0.00608  0.59260  Biso   1.000  C
  C1761    1.0000 0.01149  0.99392  0.59260  Biso   1.000  C
  H1750    1.0000 0.00110  0.06000  0.60621  Biso   1.000  H
  H1751    1.0000 0.05031  0.04360  0.61889  Biso   1.000  H
  H1752    1.0000 0.95939  0.32851  0.97410  Biso   1.000  H
  N236     1.0000 0.95985  0.30078  0.03533  Biso   1.000  N
  C1762    1.0000 0.96477  0.38097  0.01846  Biso   1.000  C
  C1763    1.0000 0.00608  0.40740  0.01149  Biso   1.000  C
  C1764    1.0000 0.99392  0.40740  0.98851  Biso   1.000  C
  H1753    1.0000 0.06000  0.39379  0.99890  Biso   1.000  H
  H1754    1.0000 0.04360  0.38111  0.94969  Biso   1.000  H
  C1765    1.0000 0.89859  0.11303  0.16304  Biso   1.000  C
  H1755    1.0000 0.84812  0.09600  0.20442  Biso   1.000  H
  H1756    1.0000 0.95869  0.12469  0.13448  Biso   1.000  H
  C1766    1.0000 0.88697  0.83696  0.89859  Biso   1.000  C
  H1757    1.0000 0.90400  0.79558  0.84812  Biso   1.000  H
  H1758    1.0000 0.87531  0.86552  0.95869  Biso   1.000  H
  C1767    1.0000 0.97945  0.93824  0.73103  Biso   1.000  C
  H1759    1.0000 0.99890  0.94000  0.60621  Biso   1.000  H
  H1760    1.0000 0.94969  0.95640  0.61889  Biso   1.000  H
  H1761    1.0000 0.99781  0.00110  0.56361  Biso   1.000  H
  H1762    1.0000 0.95979  0.02119  0.58712  Biso   1.000  H
  H1763    1.0000 0.00219  0.99890  0.56361  Biso   1.000  H
  H1764    1.0000 0.04021  0.97881  0.58712  Biso   1.000  H
  C1768    1.0000 0.93824  0.26897  0.02055  Biso   1.000  C
  H1765    1.0000 0.94000  0.39379  0.00110  Biso   1.000  H
  H1766    1.0000 0.95640  0.38111  0.05031  Biso   1.000  H
  H1767    1.0000 0.99890  0.43639  0.99781  Biso   1.000  H
  H1768    1.0000 0.00110  0.43639  0.00219  Biso   1.000  H
  H1769    1.0000 0.02119  0.41288  0.04021  Biso   1.000  H
  H1770    1.0000 0.97881  0.41288  0.95979  Biso   1.000  H
  N237     1.0000 0.87083  0.12917  0.12917  Biso   1.000  N
  N238     1.0000 0.87083  0.87083  0.87083  Biso   1.000  N
  C1769    1.0000 0.95135  0.92060  0.76713  Biso   1.000  C
  H1771    1.0000 0.01049  0.93269  0.73219  Biso   1.000  H
  H1772    1.0000 0.93269  0.26781  0.98951  Biso   1.000  H
  C1770    1.0000 0.92060  0.23287  0.04865  Biso   1.000  C
  C1771    1.0000 0.88697  0.16304  0.10141  Biso   1.000  C
  C1772    1.0000 0.83696  0.10141  0.11303  Biso   1.000  C
  C1773    1.0000 0.89859  0.88697  0.83696  Biso   1.000  C
  C1774    1.0000 0.83696  0.89859  0.88697  Biso   1.000  C
  C1775    1.0000 0.90506  0.92037  0.76420  Biso   1.000  C
  C1776    1.0000 0.97035  0.90317  0.80558  Biso   1.000  C
  C1777    1.0000 0.92037  0.23580  0.09494  Biso   1.000  C
  C1778    1.0000 0.90317  0.19442  0.02965  Biso   1.000  C
  C1779    1.0000 0.90387  0.20159  0.12047  Biso   1.000  C
  C1780    1.0000 0.88687  0.16029  0.05529  Biso   1.000  C
  C1781    1.0000 0.83971  0.05529  0.11313  Biso   1.000  C
  C1782    1.0000 0.79841  0.12047  0.09613  Biso   1.000  C
  C1783    1.0000 0.87953  0.90387  0.79841  Biso   1.000  C
  C1784    1.0000 0.94471  0.88687  0.83971  Biso   1.000  C
  C1785    1.0000 0.83971  0.94471  0.88687  Biso   1.000  C
  C1786    1.0000 0.79841  0.87953  0.90387  Biso   1.000  C
  H1773    1.0000 0.89098  0.93170  0.73830  Biso   1.000  H
  H1774    1.0000 0.00179  0.90261  0.80830  Biso   1.000  H
  H1775    1.0000 0.93170  0.26170  0.10902  Biso   1.000  H
  H1776    1.0000 0.90261  0.19170  0.99821  Biso   1.000  H
  H1777    1.0000 0.90400  0.20442  0.15188  Biso   1.000  H
  H1778    1.0000 0.87531  0.13448  0.04131  Biso   1.000  H
  H1779    1.0000 0.86552  0.04131  0.12469  Biso   1.000  H
  C1787    1.0000 0.80558  0.02965  0.09683  Biso   1.000  C
  H1780    1.0000 0.79558  0.15188  0.09600  Biso   1.000  H
  C1788    1.0000 0.76420  0.09494  0.07963  Biso   1.000  C
  H1781    1.0000 0.84812  0.90400  0.79558  Biso   1.000  H
  H1782    1.0000 0.95869  0.87531  0.86552  Biso   1.000  H
  H1783    1.0000 0.86552  0.95869  0.87531  Biso   1.000  H
  C1789    1.0000 0.80558  0.97035  0.90317  Biso   1.000  C
  H1784    1.0000 0.79558  0.84812  0.90400  Biso   1.000  H
  C1790    1.0000 0.76420  0.90506  0.92037  Biso   1.000  C
  H1785    1.0000 0.80830  0.99821  0.09739  Biso   1.000  H
  C1791    1.0000 0.76713  0.04865  0.07940  Biso   1.000  C
  H1786    1.0000 0.73830  0.10902  0.06830  Biso   1.000  H
  C1792    1.0000 0.76713  0.95135  0.92060  Biso   1.000  C
  H1787    1.0000 0.80830  0.00179  0.90261  Biso   1.000  H
  H1788    1.0000 0.73830  0.89098  0.93170  Biso   1.000  H
  C1793    1.0000 0.73103  0.02055  0.06176  Biso   1.000  C
  C1794    1.0000 0.73103  0.97945  0.93824  Biso   1.000  C
  H1789    1.0000 0.73219  0.98951  0.06731  Biso   1.000  H
  N239     1.0000 0.69922  0.03533  0.04015  Biso   1.000  N
  N240     1.0000 0.69922  0.96467  0.95985  Biso   1.000  N
  H1790    1.0000 0.73219  0.01049  0.93269  Biso   1.000  H
  C1795    1.0000 0.66601  0.00322  0.02570  Biso   1.000  C
  C1796    1.0000 0.66601  0.99678  0.97430  Biso   1.000  C
  H1791    1.0000 0.67149  0.97410  0.04061  Biso   1.000  H
  C1797    1.0000 0.61903  0.01846  0.03523  Biso   1.000  C
  C1798    1.0000 0.61903  0.98154  0.96477  Biso   1.000  C
  H1792    1.0000 0.67149  0.02590  0.95939  Biso   1.000  H
  C1799    1.0000 0.59260  0.98851  0.00608  Biso   1.000  C
  C1800    1.0000 0.59260  0.01149  0.99392  Biso   1.000  C
  H1793    1.0000 0.60621  0.00110  0.06000  Biso   1.000  H
  H1794    1.0000 0.61889  0.05031  0.04360  Biso   1.000  H
  H1795    1.0000 0.60621  0.99890  0.94000  Biso   1.000  H
  H1796    1.0000 0.61889  0.94969  0.95640  Biso   1.000  H
  H1797    1.0000 0.56361  0.99781  0.00110  Biso   1.000  H
  H1798    1.0000 0.58712  0.95979  0.02119  Biso   1.000  H
  H1799    1.0000 0.56361  0.00219  0.99890  Biso   1.000  H
  H1800    1.0000 0.58712  0.04021  0.97881  Biso   1.000  H
  C1801    1.0000 0.26897  0.97945  0.06176  Biso   1.000  C
  N241     1.0000 0.30078  0.96467  0.04015  Biso   1.000  N
  H1801    1.0000 0.26781  0.01049  0.06731  Biso   1.000  H
  C1802    1.0000 0.23287  0.95135  0.07940  Biso   1.000  C
  C1803    1.0000 0.33399  0.99678  0.02570  Biso   1.000  C
  C1804    1.0000 0.23580  0.90506  0.07963  Biso   1.000  C
  C1805    1.0000 0.19442  0.97035  0.09683  Biso   1.000  C
  C1806    1.0000 0.38097  0.98154  0.03523  Biso   1.000  C
  C1807    1.0000 0.33399  0.00322  0.97430  Biso   1.000  C
  H1802    1.0000 0.32851  0.02590  0.04061  Biso   1.000  H
  C1808    1.0000 0.20159  0.87953  0.09613  Biso   1.000  C
  H1803    1.0000 0.26170  0.89098  0.06830  Biso   1.000  H
  H1804    1.0000 0.19170  0.00179  0.09739  Biso   1.000  H
  C1809    1.0000 0.16029  0.94471  0.11313  Biso   1.000  C
  C1810    1.0000 0.40740  0.01149  0.00608  Biso   1.000  C
  C1811    1.0000 0.40740  0.98851  0.99392  Biso   1.000  C
  H1805    1.0000 0.39379  0.99890  0.06000  Biso   1.000  H
  H1806    1.0000 0.38111  0.94969  0.04360  Biso   1.000  H
  C1812    1.0000 0.38097  0.01846  0.96477  Biso   1.000  C
  H1807    1.0000 0.32851  0.97410  0.95939  Biso   1.000  H
  N242     1.0000 0.30078  0.03533  0.95985  Biso   1.000  N
  C1813    1.0000 0.16304  0.89859  0.11303  Biso   1.000  C
  H1808    1.0000 0.20442  0.84812  0.09600  Biso   1.000  H
  H1809    1.0000 0.13448  0.95869  0.12469  Biso   1.000  H
  H1810    1.0000 0.43639  0.99781  0.99890  Biso   1.000  H
  H1811    1.0000 0.43639  0.00219  0.00110  Biso   1.000  H
  H1812    1.0000 0.41288  0.04021  0.02119  Biso   1.000  H
  H1813    1.0000 0.41288  0.95979  0.97881  Biso   1.000  H
  H1814    1.0000 0.39379  0.00110  0.94000  Biso   1.000  H
  H1815    1.0000 0.38111  0.05031  0.95640  Biso   1.000  H
  C1814    1.0000 0.26897  0.02055  0.93824  Biso   1.000  C
  N243     1.0000 0.12917  0.87083  0.12917  Biso   1.000  N
  H1816    1.0000 0.26781  0.98951  0.93269  Biso   1.000  H
  C1815    1.0000 0.23287  0.04865  0.92060  Biso   1.000  C
  C1816    1.0000 0.10141  0.88697  0.16304  Biso   1.000  C
  C1817    1.0000 0.11303  0.83696  0.10141  Biso   1.000  C
  C1818    1.0000 0.23580  0.09494  0.92037  Biso   1.000  C
  C1819    1.0000 0.19442  0.02965  0.90317  Biso   1.000  C
  C1820    1.0000 0.05529  0.88687  0.16029  Biso   1.000  C
  C1821    1.0000 0.12047  0.90387  0.20159  Biso   1.000  C
  C1822    1.0000 0.11313  0.83971  0.05529  Biso   1.000  C
  C1823    1.0000 0.09613  0.79841  0.12047  Biso   1.000  C
  C1824    1.0000 0.20159  0.12047  0.90387  Biso   1.000  C
  H1817    1.0000 0.26170  0.10902  0.93170  Biso   1.000  H
  H1818    1.0000 0.19170  0.99821  0.90261  Biso   1.000  H
  C1825    1.0000 0.16029  0.05529  0.88687  Biso   1.000  C
  H1819    1.0000 0.04131  0.87531  0.13448  Biso   1.000  H
  C1826    1.0000 0.02965  0.90317  0.19442  Biso   1.000  C
  H1820    1.0000 0.15188  0.90400  0.20442  Biso   1.000  H
  C1827    1.0000 0.09494  0.92037  0.23580  Biso   1.000  C
  H1821    1.0000 0.12469  0.86552  0.04131  Biso   1.000  H
  C1828    1.0000 0.09683  0.80558  0.02965  Biso   1.000  C
  H1822    1.0000 0.09600  0.79558  0.15188  Biso   1.000  H
  C1829    1.0000 0.07963  0.76420  0.09494  Biso   1.000  C
  C1830    1.0000 0.16304  0.10141  0.88697  Biso   1.000  C
  H1823    1.0000 0.20442  0.15188  0.90400  Biso   1.000  H
  H1824    1.0000 0.13448  0.04131  0.87531  Biso   1.000  H
  H1825    1.0000 0.99821  0.90261  0.19170  Biso   1.000  H
  C1831    1.0000 0.04865  0.92060  0.23287  Biso   1.000  C
  H1826    1.0000 0.10902  0.93170  0.26170  Biso   1.000  H
  H1827    1.0000 0.09739  0.80830  0.99821  Biso   1.000  H
  C1832    1.0000 0.07940  0.76713  0.04865  Biso   1.000  C
  H1828    1.0000 0.06830  0.73830  0.10902  Biso   1.000  H
  N244     1.0000 0.12917  0.12917  0.87083  Biso   1.000  N
  C1833    1.0000 0.02055  0.93824  0.26897  Biso   1.000  C
  C1834    1.0000 0.06176  0.73103  0.02055  Biso   1.000  C
  C1835    1.0000 0.10141  0.11303  0.83696  Biso   1.000  C
  C1836    1.0000 0.11303  0.16304  0.89859  Biso   1.000  C
  H1829    1.0000 0.98951  0.93269  0.26781  Biso   1.000  H
  N245     1.0000 0.03533  0.95985  0.30078  Biso   1.000  N
  H1830    1.0000 0.06731  0.73219  0.98951  Biso   1.000  H
  N246     1.0000 0.04015  0.69922  0.03533  Biso   1.000  N
  C1837    1.0000 0.05529  0.11313  0.83971  Biso   1.000  C
  C1838    1.0000 0.12047  0.09613  0.79841  Biso   1.000  C
  C1839    1.0000 0.11313  0.16029  0.94471  Biso   1.000  C
  C1840    1.0000 0.09613  0.20159  0.87953  Biso   1.000  C
  C1841    1.0000 0.00322  0.97430  0.33399  Biso   1.000  C
  C1842    1.0000 0.02570  0.66601  0.00322  Biso   1.000  C
  H1831    1.0000 0.04131  0.12469  0.86552  Biso   1.000  H
  C1843    1.0000 0.02965  0.09683  0.80558  Biso   1.000  C
  H1832    1.0000 0.15188  0.09600  0.79558  Biso   1.000  H
  C1844    1.0000 0.09494  0.07963  0.76420  Biso   1.000  C
  H1833    1.0000 0.12469  0.13448  0.95869  Biso   1.000  H
  C1845    1.0000 0.09683  0.19442  0.97035  Biso   1.000  C
  H1834    1.0000 0.09600  0.20442  0.84812  Biso   1.000  H
  C1846    1.0000 0.07963  0.23580  0.90506  Biso   1.000  C
  H1835    1.0000 0.97410  0.95939  0.32851  Biso   1.000  H
  C1847    1.0000 0.99678  0.02570  0.33399  Biso   1.000  C
  C1848    1.0000 0.01846  0.96477  0.38097  Biso   1.000  C
  C1849    1.0000 0.97430  0.66601  0.99678  Biso   1.000  C
  H1836    1.0000 0.04061  0.67149  0.97410  Biso   1.000  H
  C1850    1.0000 0.03523  0.61903  0.01846  Biso   1.000  C
  H1837    1.0000 0.99821  0.09739  0.80830  Biso   1.000  H
  C1851    1.0000 0.04865  0.07940  0.76713  Biso   1.000  C
  H1838    1.0000 0.10902  0.06830  0.73830  Biso   1.000  H
  H1839    1.0000 0.09739  0.19170  0.00179  Biso   1.000  H
  C1852    1.0000 0.07940  0.23287  0.95135  Biso   1.000  C
  H1840    1.0000 0.06830  0.26170  0.89098  Biso   1.000  H
  H1841    1.0000 0.02590  0.04061  0.32851  Biso   1.000  H
  N247     1.0000 0.96467  0.04015  0.30078  Biso   1.000  N
  C1853    1.0000 0.98154  0.03523  0.38097  Biso   1.000  C
  C1854    1.0000 0.01149  0.00608  0.40740  Biso   1.000  C
  C1855    1.0000 0.98851  0.99392  0.40740  Biso   1.000  C
  H1842    1.0000 0.00110  0.94000  0.39379  Biso   1.000  H
  H1843    1.0000 0.05031  0.95640  0.38111  Biso   1.000  H
  N248     1.0000 0.95985  0.69922  0.96467  Biso   1.000  N
  C1856    1.0000 0.96477  0.61903  0.98154  Biso   1.000  C
  H1844    1.0000 0.95939  0.67149  0.02590  Biso   1.000  H
  C1857    1.0000 0.99392  0.59260  0.01149  Biso   1.000  C
  C1858    1.0000 0.00608  0.59260  0.98851  Biso   1.000  C
  H1845    1.0000 0.06000  0.60621  0.00110  Biso   1.000  H
  H1846    1.0000 0.04360  0.61889  0.05031  Biso   1.000  H
  C1859    1.0000 0.02055  0.06176  0.73103  Biso   1.000  C
  C1860    1.0000 0.06176  0.26897  0.97945  Biso   1.000  C
  C1861    1.0000 0.97945  0.06176  0.26897  Biso   1.000  C
  H1847    1.0000 0.99890  0.06000  0.39379  Biso   1.000  H
  H1848    1.0000 0.94969  0.04360  0.38111  Biso   1.000  H
  H1849    1.0000 0.99781  0.99890  0.43639  Biso   1.000  H
  H1850    1.0000 0.00219  0.00110  0.43639  Biso   1.000  H
  H1851    1.0000 0.04021  0.02119  0.41288  Biso   1.000  H
  H1852    1.0000 0.95979  0.97881  0.41288  Biso   1.000  H
  C1862    1.0000 0.93824  0.73103  0.97945  Biso   1.000  C
  H1853    1.0000 0.94000  0.60621  0.99890  Biso   1.000  H
  H1854    1.0000 0.95640  0.61889  0.94969  Biso   1.000  H
  H1855    1.0000 0.97881  0.58712  0.04021  Biso   1.000  H
  H1856    1.0000 0.99890  0.56361  0.00219  Biso   1.000  H
  H1857    1.0000 0.00110  0.56361  0.99781  Biso   1.000  H
  H1858    1.0000 0.02119  0.58712  0.95979  Biso   1.000  H
  H1859    1.0000 0.98951  0.06731  0.73219  Biso   1.000  H
  N249     1.0000 0.03533  0.04015  0.69922  Biso   1.000  N
  H1860    1.0000 0.06731  0.26781  0.01049  Biso   1.000  H
  N250     1.0000 0.04015  0.30078  0.96467  Biso   1.000  N
  H1861    1.0000 0.01049  0.06731  0.26781  Biso   1.000  H
  C1863    1.0000 0.95135  0.07940  0.23287  Biso   1.000  C
  C1864    1.0000 0.92060  0.76713  0.95135  Biso   1.000  C
  H1862    1.0000 0.93269  0.73219  0.01049  Biso   1.000  H
  C1865    1.0000 0.00322  0.02570  0.66601  Biso   1.000  C
  C1866    1.0000 0.02570  0.33399  0.99678  Biso   1.000  C
  C1867    1.0000 0.90506  0.07963  0.23580  Biso   1.000  C
  C1868    1.0000 0.97035  0.09683  0.19442  Biso   1.000  C
  C1869    1.0000 0.92037  0.76420  0.90506  Biso   1.000  C
  C1870    1.0000 0.90317  0.80558  0.97035  Biso   1.000  C
  C1871    1.0000 0.99678  0.97430  0.66601  Biso   1.000  C
  H1863    1.0000 0.97410  0.04061  0.67149  Biso   1.000  H
  C1872    1.0000 0.01846  0.03523  0.61903  Biso   1.000  C
  H1864    1.0000 0.04061  0.32851  0.02590  Biso   1.000  H
  C1873    1.0000 0.97430  0.33399  0.00322  Biso   1.000  C
  C1874    1.0000 0.03523  0.38097  0.98154  Biso   1.000  C
  C1875    1.0000 0.87953  0.09613  0.20159  Biso   1.000  C
  H1865    1.0000 0.89098  0.06830  0.26170  Biso   1.000  H
  H1866    1.0000 0.00179  0.09739  0.19170  Biso   1.000  H
  C1876    1.0000 0.94471  0.11313  0.16029  Biso   1.000  C
  C1877    1.0000 0.90387  0.79841  0.87953  Biso   1.000  C
  H1867    1.0000 0.93170  0.73830  0.89098  Biso   1.000  H
  C1878    1.0000 0.88687  0.83971  0.94471  Biso   1.000  C
  H1868    1.0000 0.90261  0.80830  0.00179  Biso   1.000  H
  N251     1.0000 0.96467  0.95985  0.69922  Biso   1.000  N
  C1879    1.0000 0.98154  0.96477  0.61903  Biso   1.000  C
  H1869    1.0000 0.02590  0.95939  0.67149  Biso   1.000  H
  C1880    1.0000 0.98851  0.00608  0.59260  Biso   1.000  C
  C1881    1.0000 0.01149  0.99392  0.59260  Biso   1.000  C
  H1870    1.0000 0.00110  0.06000  0.60621  Biso   1.000  H
  H1871    1.0000 0.05031  0.04360  0.61889  Biso   1.000  H
  H1872    1.0000 0.95939  0.32851  0.97410  Biso   1.000  H
  N252     1.0000 0.95985  0.30078  0.03533  Biso   1.000  N
  C1882    1.0000 0.96477  0.38097  0.01846  Biso   1.000  C
  C1883    1.0000 0.00608  0.40740  0.01149  Biso   1.000  C
  C1884    1.0000 0.99392  0.40740  0.98851  Biso   1.000  C
  H1873    1.0000 0.06000  0.39379  0.99890  Biso   1.000  H
  H1874    1.0000 0.04360  0.38111  0.94969  Biso   1.000  H
  C1885    1.0000 0.89859  0.11303  0.16304  Biso   1.000  C
  H1875    1.0000 0.84812  0.09600  0.20442  Biso   1.000  H
  H1876    1.0000 0.95869  0.12469  0.13448  Biso   1.000  H
  C1886    1.0000 0.88697  0.83696  0.89859  Biso   1.000  C
  H1877    1.0000 0.90400  0.79558  0.84812  Biso   1.000  H
  H1878    1.0000 0.87531  0.86552  0.95869  Biso   1.000  H
  C1887    1.0000 0.97945  0.93824  0.73103  Biso   1.000  C
  H1879    1.0000 0.99890  0.94000  0.60621  Biso   1.000  H
  H1880    1.0000 0.94969  0.95640  0.61889  Biso   1.000  H
  H1881    1.0000 0.99781  0.00110  0.56361  Biso   1.000  H
  H1882    1.0000 0.95979  0.02119  0.58712  Biso   1.000  H
  H1883    1.0000 0.00219  0.99890  0.56361  Biso   1.000  H
  H1884    1.0000 0.04021  0.97881  0.58712  Biso   1.000  H
  C1888    1.0000 0.93824  0.26897  0.02055  Biso   1.000  C
  H1885    1.0000 0.94000  0.39379  0.00110  Biso   1.000  H
  H1886    1.0000 0.95640  0.38111  0.05031  Biso   1.000  H
  H1887    1.0000 0.99890  0.43639  0.99781  Biso   1.000  H
  H1888    1.0000 0.00110  0.43639  0.00219  Biso   1.000  H
  H1889    1.0000 0.02119  0.41288  0.04021  Biso   1.000  H
  H1890    1.0000 0.97881  0.41288  0.95979  Biso   1.000  H
  N253     1.0000 0.87083  0.12917  0.12917  Biso   1.000  N
  N254     1.0000 0.87083  0.87083  0.87083  Biso   1.000  N
  C1889    1.0000 0.95135  0.92060  0.76713  Biso   1.000  C
  H1891    1.0000 0.01049  0.93269  0.73219  Biso   1.000  H
  H1892    1.0000 0.93269  0.26781  0.98951  Biso   1.000  H
  C1890    1.0000 0.92060  0.23287  0.04865  Biso   1.000  C
  C1891    1.0000 0.88697  0.16304  0.10141  Biso   1.000  C
  C1892    1.0000 0.83696  0.10141  0.11303  Biso   1.000  C
  C1893    1.0000 0.89859  0.88697  0.83696  Biso   1.000  C
  C1894    1.0000 0.83696  0.89859  0.88697  Biso   1.000  C
  C1895    1.0000 0.90506  0.92037  0.76420  Biso   1.000  C
  C1896    1.0000 0.97035  0.90317  0.80558  Biso   1.000  C
  C1897    1.0000 0.92037  0.23580  0.09494  Biso   1.000  C
  C1898    1.0000 0.90317  0.19442  0.02965  Biso   1.000  C
  C1899    1.0000 0.90387  0.20159  0.12047  Biso   1.000  C
  C1900    1.0000 0.88687  0.16029  0.05529  Biso   1.000  C
  C1901    1.0000 0.83971  0.05529  0.11313  Biso   1.000  C
  C1902    1.0000 0.79841  0.12047  0.09613  Biso   1.000  C
  C1903    1.0000 0.87953  0.90387  0.79841  Biso   1.000  C
  C1904    1.0000 0.94471  0.88687  0.83971  Biso   1.000  C
  C1905    1.0000 0.83971  0.94471  0.88687  Biso   1.000  C
  C1906    1.0000 0.79841  0.87953  0.90387  Biso   1.000  C
  H1893    1.0000 0.89098  0.93170  0.73830  Biso   1.000  H
  H1894    1.0000 0.00179  0.90261  0.80830  Biso   1.000  H
  H1895    1.0000 0.93170  0.26170  0.10902  Biso   1.000  H
  H1896    1.0000 0.90261  0.19170  0.99821  Biso   1.000  H
  H1897    1.0000 0.90400  0.20442  0.15188  Biso   1.000  H
  H1898    1.0000 0.87531  0.13448  0.04131  Biso   1.000  H
  H1899    1.0000 0.86552  0.04131  0.12469  Biso   1.000  H
  C1907    1.0000 0.80558  0.02965  0.09683  Biso   1.000  C
  H1900    1.0000 0.79558  0.15188  0.09600  Biso   1.000  H
  C1908    1.0000 0.76420  0.09494  0.07963  Biso   1.000  C
  H1901    1.0000 0.84812  0.90400  0.79558  Biso   1.000  H
  H1902    1.0000 0.95869  0.87531  0.86552  Biso   1.000  H
  H1903    1.0000 0.86552  0.95869  0.87531  Biso   1.000  H
  C1909    1.0000 0.80558  0.97035  0.90317  Biso   1.000  C
  H1904    1.0000 0.79558  0.84812  0.90400  Biso   1.000  H
  C1910    1.0000 0.76420  0.90506  0.92037  Biso   1.000  C
  H1905    1.0000 0.80830  0.99821  0.09739  Biso   1.000  H
  C1911    1.0000 0.76713  0.04865  0.07940  Biso   1.000  C
  H1906    1.0000 0.73830  0.10902  0.06830  Biso   1.000  H
  C1912    1.0000 0.76713  0.95135  0.92060  Biso   1.000  C
  H1907    1.0000 0.80830  0.00179  0.90261  Biso   1.000  H
  H1908    1.0000 0.73830  0.89098  0.93170  Biso   1.000  H
  C1913    1.0000 0.73103  0.02055  0.06176  Biso   1.000  C
  C1914    1.0000 0.73103  0.97945  0.93824  Biso   1.000  C
  H1909    1.0000 0.73219  0.98951  0.06731  Biso   1.000  H
  N255     1.0000 0.69922  0.03533  0.04015  Biso   1.000  N
  N256     1.0000 0.69922  0.96467  0.95985  Biso   1.000  N
  H1910    1.0000 0.73219  0.01049  0.93269  Biso   1.000  H
  C1915    1.0000 0.66601  0.00322  0.02570  Biso   1.000  C
  C1916    1.0000 0.66601  0.99678  0.97430  Biso   1.000  C
  H1911    1.0000 0.67149  0.97410  0.04061  Biso   1.000  H
  C1917    1.0000 0.61903  0.01846  0.03523  Biso   1.000  C
  C1918    1.0000 0.61903  0.98154  0.96477  Biso   1.000  C
  H1912    1.0000 0.67149  0.02590  0.95939  Biso   1.000  H
  C1919    1.0000 0.59260  0.98851  0.00608  Biso   1.000  C
  C1920    1.0000 0.59260  0.01149  0.99392  Biso   1.000  C
  H1913    1.0000 0.60621  0.00110  0.06000  Biso   1.000  H
  H1914    1.0000 0.61889  0.05031  0.04360  Biso   1.000  H
  H1915    1.0000 0.60621  0.99890  0.94000  Biso   1.000  H
  H1916    1.0000 0.61889  0.94969  0.95640  Biso   1.000  H
  H1917    1.0000 0.56361  0.99781  0.00110  Biso   1.000  H
  H1918    1.0000 0.58712  0.95979  0.02119  Biso   1.000  H
  H1919    1.0000 0.56361  0.00219  0.99890  Biso   1.000  H
  H1920    1.0000 0.58712  0.04021  0.97881  Biso   1.000  H
  C1921    1.0000 0.26897  0.97945  0.06176  Biso   1.000  C
  N257     1.0000 0.30078  0.96467  0.04015  Biso   1.000  N
  H1921    1.0000 0.26781  0.01049  0.06731  Biso   1.000  H
  C1922    1.0000 0.23287  0.95135  0.07940  Biso   1.000  C
  C1923    1.0000 0.33399  0.99678  0.02570  Biso   1.000  C
  C1924    1.0000 0.23580  0.90506  0.07963  Biso   1.000  C
  C1925    1.0000 0.19442  0.97035  0.09683  Biso   1.000  C
  C1926    1.0000 0.38097  0.98154  0.03523  Biso   1.000  C
  C1927    1.0000 0.33399  0.00322  0.97430  Biso   1.000  C
  H1922    1.0000 0.32851  0.02590  0.04061  Biso   1.000  H
  C1928    1.0000 0.20159  0.87953  0.09613  Biso   1.000  C
  H1923    1.0000 0.26170  0.89098  0.06830  Biso   1.000  H
  H1924    1.0000 0.19170  0.00179  0.09739  Biso   1.000  H
  C1929    1.0000 0.16029  0.94471  0.11313  Biso   1.000  C
  C1930    1.0000 0.40740  0.01149  0.00608  Biso   1.000  C
  C1931    1.0000 0.40740  0.98851  0.99392  Biso   1.000  C
  H1925    1.0000 0.39379  0.99890  0.06000  Biso   1.000  H
  H1926    1.0000 0.38111  0.94969  0.04360  Biso   1.000  H
  C1932    1.0000 0.38097  0.01846  0.96477  Biso   1.000  C
  H1927    1.0000 0.32851  0.97410  0.95939  Biso   1.000  H
  N258     1.0000 0.30078  0.03533  0.95985  Biso   1.000  N
  C1933    1.0000 0.16304  0.89859  0.11303  Biso   1.000  C
  H1928    1.0000 0.20442  0.84812  0.09600  Biso   1.000  H
  H1929    1.0000 0.13448  0.95869  0.12469  Biso   1.000  H
  H1930    1.0000 0.43639  0.99781  0.99890  Biso   1.000  H
  H1931    1.0000 0.43639  0.00219  0.00110  Biso   1.000  H
  H1932    1.0000 0.41288  0.04021  0.02119  Biso   1.000  H
  H1933    1.0000 0.41288  0.95979  0.97881  Biso   1.000  H
  H1934    1.0000 0.39379  0.00110  0.94000  Biso   1.000  H
  H1935    1.0000 0.38111  0.05031  0.95640  Biso   1.000  H
  C1934    1.0000 0.26897  0.02055  0.93824  Biso   1.000  C
  N259     1.0000 0.12917  0.87083  0.12917  Biso   1.000  N
  H1936    1.0000 0.26781  0.98951  0.93269  Biso   1.000  H
  C1935    1.0000 0.23287  0.04865  0.92060  Biso   1.000  C
  C1936    1.0000 0.10141  0.88697  0.16304  Biso   1.000  C
  C1937    1.0000 0.11303  0.83696  0.10141  Biso   1.000  C
  C1938    1.0000 0.23580  0.09494  0.92037  Biso   1.000  C
  C1939    1.0000 0.19442  0.02965  0.90317  Biso   1.000  C
  C1940    1.0000 0.05529  0.88687  0.16029  Biso   1.000  C
  C1941    1.0000 0.12047  0.90387  0.20159  Biso   1.000  C
  C1942    1.0000 0.11313  0.83971  0.05529  Biso   1.000  C
  C1943    1.0000 0.09613  0.79841  0.12047  Biso   1.000  C
  C1944    1.0000 0.20159  0.12047  0.90387  Biso   1.000  C
  H1937    1.0000 0.26170  0.10902  0.93170  Biso   1.000  H
  H1938    1.0000 0.19170  0.99821  0.90261  Biso   1.000  H
  C1945    1.0000 0.16029  0.05529  0.88687  Biso   1.000  C
  H1939    1.0000 0.04131  0.87531  0.13448  Biso   1.000  H
  C1946    1.0000 0.02965  0.90317  0.19442  Biso   1.000  C
  H1940    1.0000 0.15188  0.90400  0.20442  Biso   1.000  H
  C1947    1.0000 0.09494  0.92037  0.23580  Biso   1.000  C
  H1941    1.0000 0.12469  0.86552  0.04131  Biso   1.000  H
  C1948    1.0000 0.09683  0.80558  0.02965  Biso   1.000  C
  H1942    1.0000 0.09600  0.79558  0.15188  Biso   1.000  H
  C1949    1.0000 0.07963  0.76420  0.09494  Biso   1.000  C
  C1950    1.0000 0.16304  0.10141  0.88697  Biso   1.000  C
  H1943    1.0000 0.20442  0.15188  0.90400  Biso   1.000  H
  H1944    1.0000 0.13448  0.04131  0.87531  Biso   1.000  H
  H1945    1.0000 0.99821  0.90261  0.19170  Biso   1.000  H
  C1951    1.0000 0.04865  0.92060  0.23287  Biso   1.000  C
  H1946    1.0000 0.10902  0.93170  0.26170  Biso   1.000  H
  H1947    1.0000 0.09739  0.80830  0.99821  Biso   1.000  H
  C1952    1.0000 0.07940  0.76713  0.04865  Biso   1.000  C
  H1948    1.0000 0.06830  0.73830  0.10902  Biso   1.000  H
  N260     1.0000 0.12917  0.12917  0.87083  Biso   1.000  N
  C1953    1.0000 0.02055  0.93824  0.26897  Biso   1.000  C
  C1954    1.0000 0.06176  0.73103  0.02055  Biso   1.000  C
  C1955    1.0000 0.10141  0.11303  0.83696  Biso   1.000  C
  C1956    1.0000 0.11303  0.16304  0.89859  Biso   1.000  C
  H1949    1.0000 0.98951  0.93269  0.26781  Biso   1.000  H
  N261     1.0000 0.03533  0.95985  0.30078  Biso   1.000  N
  H1950    1.0000 0.06731  0.73219  0.98951  Biso   1.000  H
  N262     1.0000 0.04015  0.69922  0.03533  Biso   1.000  N
  C1957    1.0000 0.05529  0.11313  0.83971  Biso   1.000  C
  C1958    1.0000 0.12047  0.09613  0.79841  Biso   1.000  C
  C1959    1.0000 0.11313  0.16029  0.94471  Biso   1.000  C
  C1960    1.0000 0.09613  0.20159  0.87953  Biso   1.000  C
  C1961    1.0000 0.00322  0.97430  0.33399  Biso   1.000  C
  C1962    1.0000 0.02570  0.66601  0.00322  Biso   1.000  C
  H1951    1.0000 0.04131  0.12469  0.86552  Biso   1.000  H
  C1963    1.0000 0.02965  0.09683  0.80558  Biso   1.000  C
  H1952    1.0000 0.15188  0.09600  0.79558  Biso   1.000  H
  C1964    1.0000 0.09494  0.07963  0.76420  Biso   1.000  C
  H1953    1.0000 0.12469  0.13448  0.95869  Biso   1.000  H
  C1965    1.0000 0.09683  0.19442  0.97035  Biso   1.000  C
  H1954    1.0000 0.09600  0.20442  0.84812  Biso   1.000  H
  C1966    1.0000 0.07963  0.23580  0.90506  Biso   1.000  C
  H1955    1.0000 0.97410  0.95939  0.32851  Biso   1.000  H
  C1967    1.0000 0.99678  0.02570  0.33399  Biso   1.000  C
  C1968    1.0000 0.01846  0.96477  0.38097  Biso   1.000  C
  C1969    1.0000 0.97430  0.66601  0.99678  Biso   1.000  C
  H1956    1.0000 0.04061  0.67149  0.97410  Biso   1.000  H
  C1970    1.0000 0.03523  0.61903  0.01846  Biso   1.000  C
  H1957    1.0000 0.99821  0.09739  0.80830  Biso   1.000  H
  C1971    1.0000 0.04865  0.07940  0.76713  Biso   1.000  C
  H1958    1.0000 0.10902  0.06830  0.73830  Biso   1.000  H
  H1959    1.0000 0.09739  0.19170  0.00179  Biso   1.000  H
  C1972    1.0000 0.07940  0.23287  0.95135  Biso   1.000  C
  H1960    1.0000 0.06830  0.26170  0.89098  Biso   1.000  H
  H1961    1.0000 0.02590  0.04061  0.32851  Biso   1.000  H
  N263     1.0000 0.96467  0.04015  0.30078  Biso   1.000  N
  C1973    1.0000 0.98154  0.03523  0.38097  Biso   1.000  C
  C1974    1.0000 0.01149  0.00608  0.40740  Biso   1.000  C
  C1975    1.0000 0.98851  0.99392  0.40740  Biso   1.000  C
  H1962    1.0000 0.00110  0.94000  0.39379  Biso   1.000  H
  H1963    1.0000 0.05031  0.95640  0.38111  Biso   1.000  H
  N264     1.0000 0.95985  0.69922  0.96467  Biso   1.000  N
  C1976    1.0000 0.96477  0.61903  0.98154  Biso   1.000  C
  H1964    1.0000 0.95939  0.67149  0.02590  Biso   1.000  H
  C1977    1.0000 0.99392  0.59260  0.01149  Biso   1.000  C
  C1978    1.0000 0.00608  0.59260  0.98851  Biso   1.000  C
  H1965    1.0000 0.06000  0.60621  0.00110  Biso   1.000  H
  H1966    1.0000 0.04360  0.61889  0.05031  Biso   1.000  H
  C1979    1.0000 0.02055  0.06176  0.73103  Biso   1.000  C
  C1980    1.0000 0.06176  0.26897  0.97945  Biso   1.000  C
  C1981    1.0000 0.97945  0.06176  0.26897  Biso   1.000  C
  H1967    1.0000 0.99890  0.06000  0.39379  Biso   1.000  H
  H1968    1.0000 0.94969  0.04360  0.38111  Biso   1.000  H
  H1969    1.0000 0.99781  0.99890  0.43639  Biso   1.000  H
  H1970    1.0000 0.00219  0.00110  0.43639  Biso   1.000  H
  H1971    1.0000 0.04021  0.02119  0.41288  Biso   1.000  H
  H1972    1.0000 0.95979  0.97881  0.41288  Biso   1.000  H
  C1982    1.0000 0.93824  0.73103  0.97945  Biso   1.000  C
  H1973    1.0000 0.94000  0.60621  0.99890  Biso   1.000  H
  H1974    1.0000 0.95640  0.61889  0.94969  Biso   1.000  H
  H1975    1.0000 0.97881  0.58712  0.04021  Biso   1.000  H
  H1976    1.0000 0.99890  0.56361  0.00219  Biso   1.000  H
  H1977    1.0000 0.00110  0.56361  0.99781  Biso   1.000  H
  H1978    1.0000 0.02119  0.58712  0.95979  Biso   1.000  H
  H1979    1.0000 0.98951  0.06731  0.73219  Biso   1.000  H
  N265     1.0000 0.03533  0.04015  0.69922  Biso   1.000  N
  H1980    1.0000 0.06731  0.26781  0.01049  Biso   1.000  H
  N266     1.0000 0.04015  0.30078  0.96467  Biso   1.000  N
  H1981    1.0000 0.01049  0.06731  0.26781  Biso   1.000  H
  C1983    1.0000 0.95135  0.07940  0.23287  Biso   1.000  C
  C1984    1.0000 0.92060  0.76713  0.95135  Biso   1.000  C
  H1982    1.0000 0.93269  0.73219  0.01049  Biso   1.000  H
  C1985    1.0000 0.00322  0.02570  0.66601  Biso   1.000  C
  C1986    1.0000 0.02570  0.33399  0.99678  Biso   1.000  C
  C1987    1.0000 0.90506  0.07963  0.23580  Biso   1.000  C
  C1988    1.0000 0.97035  0.09683  0.19442  Biso   1.000  C
  C1989    1.0000 0.92037  0.76420  0.90506  Biso   1.000  C
  C1990    1.0000 0.90317  0.80558  0.97035  Biso   1.000  C
  C1991    1.0000 0.99678  0.97430  0.66601  Biso   1.000  C
  H1983    1.0000 0.97410  0.04061  0.67149  Biso   1.000  H
  C1992    1.0000 0.01846  0.03523  0.61903  Biso   1.000  C
  H1984    1.0000 0.04061  0.32851  0.02590  Biso   1.000  H
  C1993    1.0000 0.97430  0.33399  0.00322  Biso   1.000  C
  C1994    1.0000 0.03523  0.38097  0.98154  Biso   1.000  C
  C1995    1.0000 0.87953  0.09613  0.20159  Biso   1.000  C
  H1985    1.0000 0.89098  0.06830  0.26170  Biso   1.000  H
  H1986    1.0000 0.00179  0.09739  0.19170  Biso   1.000  H
  C1996    1.0000 0.94471  0.11313  0.16029  Biso   1.000  C
  C1997    1.0000 0.90387  0.79841  0.87953  Biso   1.000  C
  H1987    1.0000 0.93170  0.73830  0.89098  Biso   1.000  H
  C1998    1.0000 0.88687  0.83971  0.94471  Biso   1.000  C
  H1988    1.0000 0.90261  0.80830  0.00179  Biso   1.000  H
  N267     1.0000 0.96467  0.95985  0.69922  Biso   1.000  N
  C1999    1.0000 0.98154  0.96477  0.61903  Biso   1.000  C
  H1989    1.0000 0.02590  0.95939  0.67149  Biso   1.000  H
  C2000    1.0000 0.98851  0.00608  0.59260  Biso   1.000  C
  C2001    1.0000 0.01149  0.99392  0.59260  Biso   1.000  C
  H1990    1.0000 0.00110  0.06000  0.60621  Biso   1.000  H
  H1991    1.0000 0.05031  0.04360  0.61889  Biso   1.000  H
  H1992    1.0000 0.95939  0.32851  0.97410  Biso   1.000  H
  N268     1.0000 0.95985  0.30078  0.03533  Biso   1.000  N
  C2002    1.0000 0.96477  0.38097  0.01846  Biso   1.000  C
  C2003    1.0000 0.00608  0.40740  0.01149  Biso   1.000  C
  C2004    1.0000 0.99392  0.40740  0.98851  Biso   1.000  C
  H1993    1.0000 0.06000  0.39379  0.99890  Biso   1.000  H
  H1994    1.0000 0.04360  0.38111  0.94969  Biso   1.000  H
  C2005    1.0000 0.89859  0.11303  0.16304  Biso   1.000  C
  H1995    1.0000 0.84812  0.09600  0.20442  Biso   1.000  H
  H1996    1.0000 0.95869  0.12469  0.13448  Biso   1.000  H
  C2006    1.0000 0.88697  0.83696  0.89859  Biso   1.000  C
  H1997    1.0000 0.90400  0.79558  0.84812  Biso   1.000  H
  H1998    1.0000 0.87531  0.86552  0.95869  Biso   1.000  H
  C2007    1.0000 0.97945  0.93824  0.73103  Biso   1.000  C
  H1999    1.0000 0.99890  0.94000  0.60621  Biso   1.000  H
  H2000    1.0000 0.94969  0.95640  0.61889  Biso   1.000  H
  H2001    1.0000 0.99781  0.00110  0.56361  Biso   1.000  H
  H2002    1.0000 0.95979  0.02119  0.58712  Biso   1.000  H
  H2003    1.0000 0.00219  0.99890  0.56361  Biso   1.000  H
  H2004    1.0000 0.04021  0.97881  0.58712  Biso   1.000  H
  C2008    1.0000 0.93824  0.26897  0.02055  Biso   1.000  C
  H2005    1.0000 0.94000  0.39379  0.00110  Biso   1.000  H
  H2006    1.0000 0.95640  0.38111  0.05031  Biso   1.000  H
  H2007    1.0000 0.99890  0.43639  0.99781  Biso   1.000  H
  H2008    1.0000 0.00110  0.43639  0.00219  Biso   1.000  H
  H2009    1.0000 0.02119  0.41288  0.04021  Biso   1.000  H
  H2010    1.0000 0.97881  0.41288  0.95979  Biso   1.000  H
  N269     1.0000 0.87083  0.12917  0.12917  Biso   1.000  N
  N270     1.0000 0.87083  0.87083  0.87083  Biso   1.000  N
  C2009    1.0000 0.95135  0.92060  0.76713  Biso   1.000  C
  H2011    1.0000 0.01049  0.93269  0.73219  Biso   1.000  H
  H2012    1.0000 0.93269  0.26781  0.98951  Biso   1.000  H
  C2010    1.0000 0.92060  0.23287  0.04865  Biso   1.000  C
  C2011    1.0000 0.88697  0.16304  0.10141  Biso   1.000  C
  C2012    1.0000 0.83696  0.10141  0.11303  Biso   1.000  C
  C2013    1.0000 0.89859  0.88697  0.83696  Biso   1.000  C
  C2014    1.0000 0.83696  0.89859  0.88697  Biso   1.000  C
  C2015    1.0000 0.90506  0.92037  0.76420  Biso   1.000  C
  C2016    1.0000 0.97035  0.90317  0.80558  Biso   1.000  C
  C2017    1.0000 0.92037  0.23580  0.09494  Biso   1.000  C
  C2018    1.0000 0.90317  0.19442  0.02965  Biso   1.000  C
  C2019    1.0000 0.90387  0.20159  0.12047  Biso   1.000  C
  C2020    1.0000 0.88687  0.16029  0.05529  Biso   1.000  C
  C2021    1.0000 0.83971  0.05529  0.11313  Biso   1.000  C
  C2022    1.0000 0.79841  0.12047  0.09613  Biso   1.000  C
  C2023    1.0000 0.87953  0.90387  0.79841  Biso   1.000  C
  C2024    1.0000 0.94471  0.88687  0.83971  Biso   1.000  C
  C2025    1.0000 0.83971  0.94471  0.88687  Biso   1.000  C
  C2026    1.0000 0.79841  0.87953  0.90387  Biso   1.000  C
  H2013    1.0000 0.89098  0.93170  0.73830  Biso   1.000  H
  H2014    1.0000 0.00179  0.90261  0.80830  Biso   1.000  H
  H2015    1.0000 0.93170  0.26170  0.10902  Biso   1.000  H
  H2016    1.0000 0.90261  0.19170  0.99821  Biso   1.000  H
  H2017    1.0000 0.90400  0.20442  0.15188  Biso   1.000  H
  H2018    1.0000 0.87531  0.13448  0.04131  Biso   1.000  H
  H2019    1.0000 0.86552  0.04131  0.12469  Biso   1.000  H
  C2027    1.0000 0.80558  0.02965  0.09683  Biso   1.000  C
  H2020    1.0000 0.79558  0.15188  0.09600  Biso   1.000  H
  C2028    1.0000 0.76420  0.09494  0.07963  Biso   1.000  C
  H2021    1.0000 0.84812  0.90400  0.79558  Biso   1.000  H
  H2022    1.0000 0.95869  0.87531  0.86552  Biso   1.000  H
  H2023    1.0000 0.86552  0.95869  0.87531  Biso   1.000  H
  C2029    1.0000 0.80558  0.97035  0.90317  Biso   1.000  C
  H2024    1.0000 0.79558  0.84812  0.90400  Biso   1.000  H
  C2030    1.0000 0.76420  0.90506  0.92037  Biso   1.000  C
  H2025    1.0000 0.80830  0.99821  0.09739  Biso   1.000  H
  C2031    1.0000 0.76713  0.04865  0.07940  Biso   1.000  C
  H2026    1.0000 0.73830  0.10902  0.06830  Biso   1.000  H
  C2032    1.0000 0.76713  0.95135  0.92060  Biso   1.000  C
  H2027    1.0000 0.80830  0.00179  0.90261  Biso   1.000  H
  H2028    1.0000 0.73830  0.89098  0.93170  Biso   1.000  H
  C2033    1.0000 0.73103  0.02055  0.06176  Biso   1.000  C
  C2034    1.0000 0.73103  0.97945  0.93824  Biso   1.000  C
  H2029    1.0000 0.73219  0.98951  0.06731  Biso   1.000  H
  N271     1.0000 0.69922  0.03533  0.04015  Biso   1.000  N
  N272     1.0000 0.69922  0.96467  0.95985  Biso   1.000  N
  H2030    1.0000 0.73219  0.01049  0.93269  Biso   1.000  H
  C2035    1.0000 0.66601  0.00322  0.02570  Biso   1.000  C
  C2036    1.0000 0.66601  0.99678  0.97430  Biso   1.000  C
  H2031    1.0000 0.67149  0.97410  0.04061  Biso   1.000  H
  C2037    1.0000 0.61903  0.01846  0.03523  Biso   1.000  C
  C2038    1.0000 0.61903  0.98154  0.96477  Biso   1.000  C
  H2032    1.0000 0.67149  0.02590  0.95939  Biso   1.000  H
  C2039    1.0000 0.59260  0.98851  0.00608  Biso   1.000  C
  C2040    1.0000 0.59260  0.01149  0.99392  Biso   1.000  C
  H2033    1.0000 0.60621  0.00110  0.06000  Biso   1.000  H
  H2034    1.0000 0.61889  0.05031  0.04360  Biso   1.000  H
  H2035    1.0000 0.60621  0.99890  0.94000  Biso   1.000  H
  H2036    1.0000 0.61889  0.94969  0.95640  Biso   1.000  H
  H2037    1.0000 0.56361  0.99781  0.00110  Biso   1.000  H
  H2038    1.0000 0.58712  0.95979  0.02119  Biso   1.000  H
  H2039    1.0000 0.56361  0.00219  0.99890  Biso   1.000  H
  H2040    1.0000 0.58712  0.04021  0.97881  Biso   1.000  H
  C2041    1.0000 0.26897  0.97945  0.06176  Biso   1.000  C
  N273     1.0000 0.30078  0.96467  0.04015  Biso   1.000  N
  H2041    1.0000 0.26781  0.01049  0.06731  Biso   1.000  H
  C2042    1.0000 0.23287  0.95135  0.07940  Biso   1.000  C
  C2043    1.0000 0.33399  0.99678  0.02570  Biso   1.000  C
  C2044    1.0000 0.23580  0.90506  0.07963  Biso   1.000  C
  C2045    1.0000 0.19442  0.97035  0.09683  Biso   1.000  C
  C2046    1.0000 0.38097  0.98154  0.03523  Biso   1.000  C
  C2047    1.0000 0.33399  0.00322  0.97430  Biso   1.000  C
  H2042    1.0000 0.32851  0.02590  0.04061  Biso   1.000  H
  C2048    1.0000 0.20159  0.87953  0.09613  Biso   1.000  C
  H2043    1.0000 0.26170  0.89098  0.06830  Biso   1.000  H
  H2044    1.0000 0.19170  0.00179  0.09739  Biso   1.000  H
  C2049    1.0000 0.16029  0.94471  0.11313  Biso   1.000  C
  C2050    1.0000 0.40740  0.01149  0.00608  Biso   1.000  C
  C2051    1.0000 0.40740  0.98851  0.99392  Biso   1.000  C
  H2045    1.0000 0.39379  0.99890  0.06000  Biso   1.000  H
  H2046    1.0000 0.38111  0.94969  0.04360  Biso   1.000  H
  C2052    1.0000 0.38097  0.01846  0.96477  Biso   1.000  C
  H2047    1.0000 0.32851  0.97410  0.95939  Biso   1.000  H
  N274     1.0000 0.30078  0.03533  0.95985  Biso   1.000  N
  C2053    1.0000 0.16304  0.89859  0.11303  Biso   1.000  C
  H2048    1.0000 0.20442  0.84812  0.09600  Biso   1.000  H
  H2049    1.0000 0.13448  0.95869  0.12469  Biso   1.000  H
  H2050    1.0000 0.43639  0.99781  0.99890  Biso   1.000  H
  H2051    1.0000 0.43639  0.00219  0.00110  Biso   1.000  H
  H2052    1.0000 0.41288  0.04021  0.02119  Biso   1.000  H
  H2053    1.0000 0.41288  0.95979  0.97881  Biso   1.000  H
  H2054    1.0000 0.39379  0.00110  0.94000  Biso   1.000  H
  H2055    1.0000 0.38111  0.05031  0.95640  Biso   1.000  H
  C2054    1.0000 0.26897  0.02055  0.93824  Biso   1.000  C
  N275     1.0000 0.12917  0.87083  0.12917  Biso   1.000  N
  H2056    1.0000 0.26781  0.98951  0.93269  Biso   1.000  H
  C2055    1.0000 0.23287  0.04865  0.92060  Biso   1.000  C
  C2056    1.0000 0.10141  0.88697  0.16304  Biso   1.000  C
  C2057    1.0000 0.11303  0.83696  0.10141  Biso   1.000  C
  C2058    1.0000 0.23580  0.09494  0.92037  Biso   1.000  C
  C2059    1.0000 0.19442  0.02965  0.90317  Biso   1.000  C
  C2060    1.0000 0.05529  0.88687  0.16029  Biso   1.000  C
  C2061    1.0000 0.12047  0.90387  0.20159  Biso   1.000  C
  C2062    1.0000 0.11313  0.83971  0.05529  Biso   1.000  C
  C2063    1.0000 0.09613  0.79841  0.12047  Biso   1.000  C
  C2064    1.0000 0.20159  0.12047  0.90387  Biso   1.000  C
  H2057    1.0000 0.26170  0.10902  0.93170  Biso   1.000  H
  H2058    1.0000 0.19170  0.99821  0.90261  Biso   1.000  H
  C2065    1.0000 0.16029  0.05529  0.88687  Biso   1.000  C
  H2059    1.0000 0.04131  0.87531  0.13448  Biso   1.000  H
  C2066    1.0000 0.02965  0.90317  0.19442  Biso   1.000  C
  H2060    1.0000 0.15188  0.90400  0.20442  Biso   1.000  H
  C2067    1.0000 0.09494  0.92037  0.23580  Biso   1.000  C
  H2061    1.0000 0.12469  0.86552  0.04131  Biso   1.000  H
  C2068    1.0000 0.09683  0.80558  0.02965  Biso   1.000  C
  H2062    1.0000 0.09600  0.79558  0.15188  Biso   1.000  H
  C2069    1.0000 0.07963  0.76420  0.09494  Biso   1.000  C
  C2070    1.0000 0.16304  0.10141  0.88697  Biso   1.000  C
  H2063    1.0000 0.20442  0.15188  0.90400  Biso   1.000  H
  H2064    1.0000 0.13448  0.04131  0.87531  Biso   1.000  H
  H2065    1.0000 0.99821  0.90261  0.19170  Biso   1.000  H
  C2071    1.0000 0.04865  0.92060  0.23287  Biso   1.000  C
  H2066    1.0000 0.10902  0.93170  0.26170  Biso   1.000  H
  H2067    1.0000 0.09739  0.80830  0.99821  Biso   1.000  H
  C2072    1.0000 0.07940  0.76713  0.04865  Biso   1.000  C
  H2068    1.0000 0.06830  0.73830  0.10902  Biso   1.000  H
  N276     1.0000 0.12917  0.12917  0.87083  Biso   1.000  N
  C2073    1.0000 0.02055  0.93824  0.26897  Biso   1.000  C
  C2074    1.0000 0.06176  0.73103  0.02055  Biso   1.000  C
  C2075    1.0000 0.10141  0.11303  0.83696  Biso   1.000  C
  C2076    1.0000 0.11303  0.16304  0.89859  Biso   1.000  C
  H2069    1.0000 0.98951  0.93269  0.26781  Biso   1.000  H
  N277     1.0000 0.03533  0.95985  0.30078  Biso   1.000  N
  H2070    1.0000 0.06731  0.73219  0.98951  Biso   1.000  H
  N278     1.0000 0.04015  0.69922  0.03533  Biso   1.000  N
  C2077    1.0000 0.05529  0.11313  0.83971  Biso   1.000  C
  C2078    1.0000 0.12047  0.09613  0.79841  Biso   1.000  C
  C2079    1.0000 0.11313  0.16029  0.94471  Biso   1.000  C
  C2080    1.0000 0.09613  0.20159  0.87953  Biso   1.000  C
  C2081    1.0000 0.00322  0.97430  0.33399  Biso   1.000  C
  C2082    1.0000 0.02570  0.66601  0.00322  Biso   1.000  C
  H2071    1.0000 0.04131  0.12469  0.86552  Biso   1.000  H
  C2083    1.0000 0.02965  0.09683  0.80558  Biso   1.000  C
  H2072    1.0000 0.15188  0.09600  0.79558  Biso   1.000  H
  C2084    1.0000 0.09494  0.07963  0.76420  Biso   1.000  C
  H2073    1.0000 0.12469  0.13448  0.95869  Biso   1.000  H
  C2085    1.0000 0.09683  0.19442  0.97035  Biso   1.000  C
  H2074    1.0000 0.09600  0.20442  0.84812  Biso   1.000  H
  C2086    1.0000 0.07963  0.23580  0.90506  Biso   1.000  C
  H2075    1.0000 0.97410  0.95939  0.32851  Biso   1.000  H
  C2087    1.0000 0.99678  0.02570  0.33399  Biso   1.000  C
  C2088    1.0000 0.01846  0.96477  0.38097  Biso   1.000  C
  C2089    1.0000 0.97430  0.66601  0.99678  Biso   1.000  C
  H2076    1.0000 0.04061  0.67149  0.97410  Biso   1.000  H
  C2090    1.0000 0.03523  0.61903  0.01846  Biso   1.000  C
  H2077    1.0000 0.99821  0.09739  0.80830  Biso   1.000  H
  C2091    1.0000 0.04865  0.07940  0.76713  Biso   1.000  C
  H2078    1.0000 0.10902  0.06830  0.73830  Biso   1.000  H
  H2079    1.0000 0.09739  0.19170  0.00179  Biso   1.000  H
  C2092    1.0000 0.07940  0.23287  0.95135  Biso   1.000  C
  H2080    1.0000 0.06830  0.26170  0.89098  Biso   1.000  H
  H2081    1.0000 0.02590  0.04061  0.32851  Biso   1.000  H
  N279     1.0000 0.96467  0.04015  0.30078  Biso   1.000  N
  C2093    1.0000 0.98154  0.03523  0.38097  Biso   1.000  C
  C2094    1.0000 0.01149  0.00608  0.40740  Biso   1.000  C
  C2095    1.0000 0.98851  0.99392  0.40740  Biso   1.000  C
  H2082    1.0000 0.00110  0.94000  0.39379  Biso   1.000  H
  H2083    1.0000 0.05031  0.95640  0.38111  Biso   1.000  H
  N280     1.0000 0.95985  0.69922  0.96467  Biso   1.000  N
  C2096    1.0000 0.96477  0.61903  0.98154  Biso   1.000  C
  H2084    1.0000 0.95939  0.67149  0.02590  Biso   1.000  H
  C2097    1.0000 0.99392  0.59260  0.01149  Biso   1.000  C
  C2098    1.0000 0.00608  0.59260  0.98851  Biso   1.000  C
  H2085    1.0000 0.06000  0.60621  0.00110  Biso   1.000  H
  H2086    1.0000 0.04360  0.61889  0.05031  Biso   1.000  H
  C2099    1.0000 0.02055  0.06176  0.73103  Biso   1.000  C
  C2100    1.0000 0.06176  0.26897  0.97945  Biso   1.000  C
  C2101    1.0000 0.97945  0.06176  0.26897  Biso   1.000  C
  H2087    1.0000 0.99890  0.06000  0.39379  Biso   1.000  H
  H2088    1.0000 0.94969  0.04360  0.38111  Biso   1.000  H
  H2089    1.0000 0.99781  0.99890  0.43639  Biso   1.000  H
  H2090    1.0000 0.00219  0.00110  0.43639  Biso   1.000  H
  H2091    1.0000 0.04021  0.02119  0.41288  Biso   1.000  H
  H2092    1.0000 0.95979  0.97881  0.41288  Biso   1.000  H
  C2102    1.0000 0.93824  0.73103  0.97945  Biso   1.000  C
  H2093    1.0000 0.94000  0.60621  0.99890  Biso   1.000  H
  H2094    1.0000 0.95640  0.61889  0.94969  Biso   1.000  H
  H2095    1.0000 0.97881  0.58712  0.04021  Biso   1.000  H
  H2096    1.0000 0.99890  0.56361  0.00219  Biso   1.000  H
  H2097    1.0000 0.00110  0.56361  0.99781  Biso   1.000  H
  H2098    1.0000 0.02119  0.58712  0.95979  Biso   1.000  H
  H2099    1.0000 0.98951  0.06731  0.73219  Biso   1.000  H
  N281     1.0000 0.03533  0.04015  0.69922  Biso   1.000  N
  H2100    1.0000 0.06731  0.26781  0.01049  Biso   1.000  H
  N282     1.0000 0.04015  0.30078  0.96467  Biso   1.000  N
  H2101    1.0000 0.01049  0.06731  0.26781  Biso   1.000  H
  C2103    1.0000 0.95135  0.07940  0.23287  Biso   1.000  C
  C2104    1.0000 0.92060  0.76713  0.95135  Biso   1.000  C
  H2102    1.0000 0.93269  0.73219  0.01049  Biso   1.000  H
  C2105    1.0000 0.00322  0.02570  0.66601  Biso   1.000  C
  C2106    1.0000 0.02570  0.33399  0.99678  Biso   1.000  C
  C2107    1.0000 0.90506  0.07963  0.23580  Biso   1.000  C
  C2108    1.0000 0.97035  0.09683  0.19442  Biso   1.000  C
  C2109    1.0000 0.92037  0.76420  0.90506  Biso   1.000  C
  C2110    1.0000 0.90317  0.80558  0.97035  Biso   1.000  C
  C2111    1.0000 0.99678  0.97430  0.66601  Biso   1.000  C
  H2103    1.0000 0.97410  0.04061  0.67149  Biso   1.000  H
  C2112    1.0000 0.01846  0.03523  0.61903  Biso   1.000  C
  H2104    1.0000 0.04061  0.32851  0.02590  Biso   1.000  H
  C2113    1.0000 0.97430  0.33399  0.00322  Biso   1.000  C
  C2114    1.0000 0.03523  0.38097  0.98154  Biso   1.000  C
  C2115    1.0000 0.87953  0.09613  0.20159  Biso   1.000  C
  H2105    1.0000 0.89098  0.06830  0.26170  Biso   1.000  H
  H2106    1.0000 0.00179  0.09739  0.19170  Biso   1.000  H
  C2116    1.0000 0.94471  0.11313  0.16029  Biso   1.000  C
  C2117    1.0000 0.90387  0.79841  0.87953  Biso   1.000  C
  H2107    1.0000 0.93170  0.73830  0.89098  Biso   1.000  H
  C2118    1.0000 0.88687  0.83971  0.94471  Biso   1.000  C
  H2108    1.0000 0.90261  0.80830  0.00179  Biso   1.000  H
  N283     1.0000 0.96467  0.95985  0.69922  Biso   1.000  N
  C2119    1.0000 0.98154  0.96477  0.61903  Biso   1.000  C
  H2109    1.0000 0.02590  0.95939  0.67149  Biso   1.000  H
  C2120    1.0000 0.98851  0.00608  0.59260  Biso   1.000  C
  C2121    1.0000 0.01149  0.99392  0.59260  Biso   1.000  C
  H2110    1.0000 0.00110  0.06000  0.60621  Biso   1.000  H
  H2111    1.0000 0.05031  0.04360  0.61889  Biso   1.000  H
  H2112    1.0000 0.95939  0.32851  0.97410  Biso   1.000  H
  N284     1.0000 0.95985  0.30078  0.03533  Biso   1.000  N
  C2122    1.0000 0.96477  0.38097  0.01846  Biso   1.000  C
  C2123    1.0000 0.00608  0.40740  0.01149  Biso   1.000  C
  C2124    1.0000 0.99392  0.40740  0.98851  Biso   1.000  C
  H2113    1.0000 0.06000  0.39379  0.99890  Biso   1.000  H
  H2114    1.0000 0.04360  0.38111  0.94969  Biso   1.000  H
  C2125    1.0000 0.89859  0.11303  0.16304  Biso   1.000  C
  H2115    1.0000 0.84812  0.09600  0.20442  Biso   1.000  H
  H2116    1.0000 0.95869  0.12469  0.13448  Biso   1.000  H
  C2126    1.0000 0.88697  0.83696  0.89859  Biso   1.000  C
  H2117    1.0000 0.90400  0.79558  0.84812  Biso   1.000  H
  H2118    1.0000 0.87531  0.86552  0.95869  Biso   1.000  H
  C2127    1.0000 0.97945  0.93824  0.73103  Biso   1.000  C
  H2119    1.0000 0.99890  0.94000  0.60621  Biso   1.000  H
  H2120    1.0000 0.94969  0.95640  0.61889  Biso   1.000  H
  H2121    1.0000 0.99781  0.00110  0.56361  Biso   1.000  H
  H2122    1.0000 0.95979  0.02119  0.58712  Biso   1.000  H
  H2123    1.0000 0.00219  0.99890  0.56361  Biso   1.000  H
  H2124    1.0000 0.04021  0.97881  0.58712  Biso   1.000  H
  C2128    1.0000 0.93824  0.26897  0.02055  Biso   1.000  C
  H2125    1.0000 0.94000  0.39379  0.00110  Biso   1.000  H
  H2126    1.0000 0.95640  0.38111  0.05031  Biso   1.000  H
  H2127    1.0000 0.99890  0.43639  0.99781  Biso   1.000  H
  H2128    1.0000 0.00110  0.43639  0.00219  Biso   1.000  H
  H2129    1.0000 0.02119  0.41288  0.04021  Biso   1.000  H
  H2130    1.0000 0.97881  0.41288  0.95979  Biso   1.000  H
  N285     1.0000 0.87083  0.12917  0.12917  Biso   1.000  N
  N286     1.0000 0.87083  0.87083  0.87083  Biso   1.000  N
  C2129    1.0000 0.95135  0.92060  0.76713  Biso   1.000  C
  H2131    1.0000 0.01049  0.93269  0.73219  Biso   1.000  H
  H2132    1.0000 0.93269  0.26781  0.98951  Biso   1.000  H
  C2130    1.0000 0.92060  0.23287  0.04865  Biso   1.000  C
  C2131    1.0000 0.88697  0.16304  0.10141  Biso   1.000  C
  C2132    1.0000 0.83696  0.10141  0.11303  Biso   1.000  C
  C2133    1.0000 0.89859  0.88697  0.83696  Biso   1.000  C
  C2134    1.0000 0.83696  0.89859  0.88697  Biso   1.000  C
  C2135    1.0000 0.90506  0.92037  0.76420  Biso   1.000  C
  C2136    1.0000 0.97035  0.90317  0.80558  Biso   1.000  C
  C2137    1.0000 0.92037  0.23580  0.09494  Biso   1.000  C
  C2138    1.0000 0.90317  0.19442  0.02965  Biso   1.000  C
  C2139    1.0000 0.90387  0.20159  0.12047  Biso   1.000  C
  C2140    1.0000 0.88687  0.16029  0.05529  Biso   1.000  C
  C2141    1.0000 0.83971  0.05529  0.11313  Biso   1.000  C
  C2142    1.0000 0.79841  0.12047  0.09613  Biso   1.000  C
  C2143    1.0000 0.87953  0.90387  0.79841  Biso   1.000  C
  C2144    1.0000 0.94471  0.88687  0.83971  Biso   1.000  C
  C2145    1.0000 0.83971  0.94471  0.88687  Biso   1.000  C
  C2146    1.0000 0.79841  0.87953  0.90387  Biso   1.000  C
  H2133    1.0000 0.89098  0.93170  0.73830  Biso   1.000  H
  H2134    1.0000 0.00179  0.90261  0.80830  Biso   1.000  H
  H2135    1.0000 0.93170  0.26170  0.10902  Biso   1.000  H
  H2136    1.0000 0.90261  0.19170  0.99821  Biso   1.000  H
  H2137    1.0000 0.90400  0.20442  0.15188  Biso   1.000  H
  H2138    1.0000 0.87531  0.13448  0.04131  Biso   1.000  H
  H2139    1.0000 0.86552  0.04131  0.12469  Biso   1.000  H
  C2147    1.0000 0.80558  0.02965  0.09683  Biso   1.000  C
  H2140    1.0000 0.79558  0.15188  0.09600  Biso   1.000  H
  C2148    1.0000 0.76420  0.09494  0.07963  Biso   1.000  C
  H2141    1.0000 0.84812  0.90400  0.79558  Biso   1.000  H
  H2142    1.0000 0.95869  0.87531  0.86552  Biso   1.000  H
  H2143    1.0000 0.86552  0.95869  0.87531  Biso   1.000  H
  C2149    1.0000 0.80558  0.97035  0.90317  Biso   1.000  C
  H2144    1.0000 0.79558  0.84812  0.90400  Biso   1.000  H
  C2150    1.0000 0.76420  0.90506  0.92037  Biso   1.000  C
  H2145    1.0000 0.80830  0.99821  0.09739  Biso   1.000  H
  C2151    1.0000 0.76713  0.04865  0.07940  Biso   1.000  C
  H2146    1.0000 0.73830  0.10902  0.06830  Biso   1.000  H
  C2152    1.0000 0.76713  0.95135  0.92060  Biso   1.000  C
  H2147    1.0000 0.80830  0.00179  0.90261  Biso   1.000  H
  H2148    1.0000 0.73830  0.89098  0.93170  Biso   1.000  H
  C2153    1.0000 0.73103  0.02055  0.06176  Biso   1.000  C
  C2154    1.0000 0.73103  0.97945  0.93824  Biso   1.000  C
  H2149    1.0000 0.73219  0.98951  0.06731  Biso   1.000  H
  N287     1.0000 0.69922  0.03533  0.04015  Biso   1.000  N
  N288     1.0000 0.69922  0.96467  0.95985  Biso   1.000  N
  H2150    1.0000 0.73219  0.01049  0.93269  Biso   1.000  H
  C2155    1.0000 0.66601  0.00322  0.02570  Biso   1.000  C
  C2156    1.0000 0.66601  0.99678  0.97430  Biso   1.000  C
  H2151    1.0000 0.67149  0.97410  0.04061  Biso   1.000  H
  C2157    1.0000 0.61903  0.01846  0.03523  Biso   1.000  C
  C2158    1.0000 0.61903  0.98154  0.96477  Biso   1.000  C
  H2152    1.0000 0.67149  0.02590  0.95939  Biso   1.000  H
  C2159    1.0000 0.59260  0.98851  0.00608  Biso   1.000  C
  C2160    1.0000 0.59260  0.01149  0.99392  Biso   1.000  C
  H2153    1.0000 0.60621  0.00110  0.06000  Biso   1.000  H
  H2154    1.0000 0.61889  0.05031  0.04360  Biso   1.000  H
  H2155    1.0000 0.60621  0.99890  0.94000  Biso   1.000  H
  H2156    1.0000 0.61889  0.94969  0.95640  Biso   1.000  H
  H2157    1.0000 0.56361  0.99781  0.00110  Biso   1.000  H
  H2158    1.0000 0.58712  0.95979  0.02119  Biso   1.000  H
  H2159    1.0000 0.56361  0.00219  0.99890  Biso   1.000  H
  H2160    1.0000 0.58712  0.04021  0.97881  Biso   1.000  H
