data_image0
_cell_length_a       13.413
_cell_length_b       13.413
_cell_length_c       92.656
_cell_angle_alpha    90
_cell_angle_beta     90
_cell_angle_gamma    120

_symmetry_space_group_name_H-M    "P 1"
_symmetry_int_tables_number       1

loop_
  _symmetry_equiv_pos_as_xyz
  'x, y, z'

loop_
  _atom_site_label
  _atom_site_occupancy
  _atom_site_fract_x
  _atom_site_fract_y
  _atom_site_fract_z
  _atom_site_thermal_displace_type
  _atom_site_B_iso_or_equiv
  _atom_site_type_symbol
  C1       1.0000 0.26819  0.00913  0.48428  Biso   1.000  C
  C2       1.0000 0.31692  0.05888  0.47113  Biso   1.000  C
  C3       1.0000 0.34328  0.03779  0.49617  Biso   1.000  C
  H1       1.0000 0.18770  0.95790  0.48520  Biso   1.000  H
  O1       1.0000 0.26204  0.04873  0.45826  Biso   1.000  O
  C4       1.0000 0.43658  0.13120  0.46977  Biso   1.000  C
  C5       1.0000 0.46099  0.11097  0.49484  Biso   1.000  C
  Cl1      1.0000 0.28313  0.97788  0.51275  Biso   1.000  Cl
  B1       1.0000 0.35267  0.13679  0.44894  Biso   1.000  B
  O2       1.0000 0.46427  0.16718  0.45567  Biso   1.000  O
  C6       1.0000 0.51056  0.15763  0.48131  Biso   1.000  C
  Cl2      1.0000 0.55184  0.14893  0.50968  Biso   1.000  Cl
  C7       1.0000 0.34216  0.11338  0.43203  Biso   1.000  C
  N1       1.0000 0.34363  0.25723  0.45119  Biso   1.000  N
  H2       1.0000 0.59132  0.20523  0.48020  Biso   1.000  H
  C8       1.0000 0.43994  0.16012  0.42342  Biso   1.000  C
  C9       1.0000 0.23541  0.05794  0.42515  Biso   1.000  C
  C10      1.0000 0.24201  0.25379  0.45226  Biso   1.000  C
  C11      1.0000 0.44152  0.35968  0.45084  Biso   1.000  C
  C12      1.0000 0.43130  0.15582  0.40819  Biso   1.000  C
  H3       1.0000 0.51369  0.19551  0.42780  Biso   1.000  H
  C13      1.0000 0.22680  0.05355  0.40991  Biso   1.000  C
  H4       1.0000 0.16720  0.02247  0.43080  Biso   1.000  H
  C14      1.0000 0.23477  0.35279  0.45307  Biso   1.000  C
  H5       1.0000 0.17310  0.18113  0.45250  Biso   1.000  H
  H6       1.0000 0.51318  0.36209  0.44990  Biso   1.000  H
  C15      1.0000 0.43967  0.46169  0.45176  Biso   1.000  C
  C16      1.0000 0.32445  0.10451  0.40130  Biso   1.000  C
  H7       1.0000 0.49944  0.18862  0.40253  Biso   1.000  H
  H8       1.0000 0.15296  0.01515  0.40553  Biso   1.000  H
  C17      1.0000 0.33643  0.45962  0.45281  Biso   1.000  C
  H9       1.0000 0.16209  0.34848  0.45380  Biso   1.000  H
  H10      1.0000 0.50981  0.53323  0.45170  Biso   1.000  H
  B2       1.0000 0.31399  0.11742  0.38439  Biso   1.000  B
  C18      1.0000 0.33417  0.56947  0.45356  Biso   1.000  C
  O3       1.0000 0.40467  0.12001  0.37508  Biso   1.000  O
  O4       1.0000 0.20235  0.03624  0.37767  Biso   1.000  O
  N2       1.0000 0.32303  0.24690  0.38216  Biso   1.000  N
  N3       1.0000 0.23119  0.56362  0.45355  Biso   1.000  N
  N4       1.0000 0.43639  0.66761  0.45355  Biso   1.000  N
  C19      1.0000 0.34975  0.07533  0.36220  Biso   1.000  C
  C20      1.0000 0.23008  0.02789  0.36356  Biso   1.000  C
  C21      1.0000 0.42463  0.34513  0.38108  Biso   1.000  C
  C22      1.0000 0.22516  0.25155  0.38249  Biso   1.000  C
  C23      1.0000 0.23531  0.66581  0.45356  Biso   1.000  C
  C24      1.0000 0.43052  0.76472  0.45356  Biso   1.000  C
  C25      1.0000 0.39847  0.07421  0.34905  Biso   1.000  C
  C26      1.0000 0.15611  0.98046  0.35202  Biso   1.000  C
  C27      1.0000 0.43190  0.45136  0.38027  Biso   1.000  C
  H11      1.0000 0.49357  0.34134  0.38083  Biso   1.000  H
  H12      1.0000 0.15345  0.18225  0.38343  Biso   1.000  H
  C28      1.0000 0.22697  0.35537  0.38157  Biso   1.000  C
  C29      1.0000 0.12322  0.66365  0.45281  Biso   1.000  C
  N5       1.0000 0.33246  0.76885  0.45355  Biso   1.000  N
  C30      1.0000 0.54039  0.87681  0.45281  Biso   1.000  C
  C31      1.0000 0.32338  0.02781  0.33716  Biso   1.000  C
  H13      1.0000 0.47886  0.10348  0.34814  Biso   1.000  H
  C32      1.0000 0.20555  0.98330  0.33849  Biso   1.000  C
  H14      1.0000 0.07538  0.94723  0.35313  Biso   1.000  H
  C33      1.0000 0.33025  0.45653  0.38053  Biso   1.000  C
  H15      1.0000 0.50455  0.51971  0.37953  Biso   1.000  H
  H16      1.0000 0.15690  0.35675  0.38164  Biso   1.000  H
  C34      1.0000 0.11802  0.76524  0.45307  Biso   1.000  C
  C35      1.0000 0.02199  0.56035  0.45176  Biso   1.000  C
  C36      1.0000 0.64725  0.88206  0.45307  Biso   1.000  C
  C37      1.0000 0.53830  0.97805  0.45176  Biso   1.000  C
  Cl3      1.0000 0.38341  0.02798  0.32058  Biso   1.000  Cl
  Cl4      1.0000 0.11482  0.93053  0.32366  Biso   1.000  Cl
  C38      1.0000 0.33247  0.56861  0.37977  Biso   1.000  C
  H17      1.0000 0.18641  0.83790  0.45380  Biso   1.000  H
  C39      1.0000 0.01182  0.75801  0.45226  Biso   1.000  C
  H18      1.0000 0.02337  0.49019  0.45170  Biso   1.000  H
  C40      1.0000 0.91820  0.55854  0.45084  Biso   1.000  C
  H19      1.0000 0.65150  0.81362  0.45380  Biso   1.000  H
  C41      1.0000 0.74617  0.98821  0.45226  Biso   1.000  C
  H20      1.0000 0.46682  0.97658  0.45170  Biso   1.000  H
  C42      1.0000 0.64027  0.08178  0.45084  Biso   1.000  C
  N6       1.0000 0.23032  0.56457  0.37978  Biso   1.000  N
  N7       1.0000 0.43545  0.66572  0.37978  Biso   1.000  N
  H21      1.0000 0.00801  0.82688  0.45250  Biso   1.000  H
  N8       1.0000 0.91361  0.65642  0.45119  Biso   1.000  N
  H22      1.0000 0.84887  0.48683  0.44990  Biso   1.000  H
  H23      1.0000 0.81889  0.99199  0.45250  Biso   1.000  H
  N9       1.0000 0.74287  0.08643  0.45119  Biso   1.000  N
  H24      1.0000 0.63794  0.15108  0.44990  Biso   1.000  H
  C43      1.0000 0.23617  0.66753  0.37977  Biso   1.000  C
  C44      1.0000 0.43136  0.76386  0.37977  Biso   1.000  C
  B3       1.0000 0.78410  0.64730  0.44894  Biso   1.000  B
  B4       1.0000 0.86330  0.21591  0.44894  Biso   1.000  B
  N10      1.0000 0.33423  0.76971  0.37978  Biso   1.000  N
  C45      1.0000 0.12628  0.66977  0.38053  Biso   1.000  C
  C46      1.0000 0.54351  0.87379  0.38053  Biso   1.000  C
  C47      1.0000 0.77116  0.65780  0.43203  Biso   1.000  C
  O5       1.0000 0.70289  0.53573  0.45567  Biso   1.000  O
  O6       1.0000 0.78667  0.73803  0.45826  Biso   1.000  O
  C48      1.0000 0.88661  0.22882  0.43203  Biso   1.000  C
  O7       1.0000 0.83277  0.29709  0.45567  Biso   1.000  O
  O8       1.0000 0.95133  0.21333  0.45826  Biso   1.000  O
  C49      1.0000 0.01950  0.56818  0.38027  Biso   1.000  C
  C50      1.0000 0.12835  0.77307  0.38157  Biso   1.000  C
  C51      1.0000 0.54865  0.98054  0.38027  Biso   1.000  C
  C52      1.0000 0.64465  0.87164  0.38157  Biso   1.000  C
  C53      1.0000 0.72021  0.56009  0.42342  Biso   1.000  C
  C54      1.0000 0.82249  0.76464  0.42515  Biso   1.000  C
  C55      1.0000 0.69461  0.56345  0.46977  Biso   1.000  C
  C56      1.0000 0.74199  0.68311  0.47113  Biso   1.000  C
  C57      1.0000 0.83992  0.27979  0.42342  Biso   1.000  C
  C58      1.0000 0.94215  0.17751  0.42515  Biso   1.000  C
  C59      1.0000 0.86893  0.30544  0.46977  Biso   1.000  C
  C60      1.0000 0.94109  0.25801  0.47113  Biso   1.000  C
  H25      1.0000 0.01518  0.49544  0.37953  Biso   1.000  H
  C61      1.0000 0.92048  0.57533  0.38108  Biso   1.000  C
  C62      1.0000 0.02637  0.77488  0.38249  Biso   1.000  C
  H26      1.0000 0.19985  0.84315  0.38164  Biso   1.000  H
  H27      1.0000 0.48027  0.98485  0.37953  Biso   1.000  H
  C63      1.0000 0.65488  0.07955  0.38108  Biso   1.000  C
  C64      1.0000 0.74851  0.97366  0.38249  Biso   1.000  C
  H28      1.0000 0.64329  0.80019  0.38164  Biso   1.000  H
  C65      1.0000 0.72456  0.56878  0.40819  Biso   1.000  C
  H29      1.0000 0.68176  0.48631  0.42780  Biso   1.000  H
  C66      1.0000 0.82679  0.77324  0.40991  Biso   1.000  C
  H30      1.0000 0.85531  0.83282  0.43080  Biso   1.000  H
  C67      1.0000 0.64712  0.48950  0.48131  Biso   1.000  C
  C68      1.0000 0.74093  0.73184  0.48428  Biso   1.000  C
  C69      1.0000 0.84418  0.27548  0.40819  Biso   1.000  C
  H31      1.0000 0.80452  0.31827  0.42780  Biso   1.000  H
  C70      1.0000 0.94652  0.17330  0.40991  Biso   1.000  C
  H32      1.0000 0.97749  0.14471  0.43080  Biso   1.000  H
  C71      1.0000 0.84251  0.35296  0.48131  Biso   1.000  C
  C72      1.0000 0.99100  0.25913  0.48428  Biso   1.000  C
  H33      1.0000 0.84780  0.50646  0.38083  Biso   1.000  H
  N11      1.0000 0.92386  0.67691  0.38216  Biso   1.000  N
  H34      1.0000 0.02875  0.84659  0.38343  Biso   1.000  H
  H35      1.0000 0.65868  0.15229  0.38083  Biso   1.000  H
  N12      1.0000 0.75318  0.07619  0.38216  Biso   1.000  N
  H36      1.0000 0.81776  0.97125  0.38343  Biso   1.000  H
  C73      1.0000 0.78002  0.67553  0.40130  Biso   1.000  C
  H37      1.0000 0.68916  0.50052  0.40253  Biso   1.000  H
  H38      1.0000 0.86212  0.84702  0.40553  Biso   1.000  H
  C74      1.0000 0.64995  0.53900  0.49484  Biso   1.000  C
  H39      1.0000 0.61390  0.40875  0.48020  Biso   1.000  H
  H40      1.0000 0.77010  0.81224  0.48520  Biso   1.000  H
  C75      1.0000 0.69448  0.65668  0.49617  Biso   1.000  C
  C76      1.0000 0.89545  0.21996  0.40130  Biso   1.000  C
  H41      1.0000 0.81140  0.31086  0.40253  Biso   1.000  H
  H42      1.0000 0.98493  0.13783  0.40553  Biso   1.000  H
  C77      1.0000 0.88899  0.35003  0.49484  Biso   1.000  C
  H43      1.0000 0.79482  0.38611  0.48020  Biso   1.000  H
  C78      1.0000 0.96231  0.30553  0.49617  Biso   1.000  C
  H44      1.0000 0.04209  0.22994  0.48520  Biso   1.000  H
  B5       1.0000 0.80347  0.68604  0.38439  Biso   1.000  B
  B6       1.0000 0.88255  0.19654  0.38439  Biso   1.000  B
  Cl5      1.0000 0.59716  0.44817  0.50968  Biso   1.000  Cl
  Cl6      1.0000 0.69463  0.71677  0.51275  Biso   1.000  Cl
  Cl7      1.0000 0.85108  0.40289  0.50968  Biso   1.000  Cl
  Cl8      1.0000 0.02210  0.30535  0.51275  Biso   1.000  Cl
  O9       1.0000 0.83387  0.79769  0.37767  Biso   1.000  O
  O10      1.0000 0.71535  0.59539  0.37508  Biso   1.000  O
  O11      1.0000 0.96375  0.16615  0.37767  Biso   1.000  O
  O12      1.0000 0.88003  0.28469  0.37508  Biso   1.000  O
  C79      1.0000 0.79787  0.76997  0.36356  Biso   1.000  C
  C80      1.0000 0.72554  0.65022  0.36220  Biso   1.000  C
  C81      1.0000 0.97205  0.20214  0.36356  Biso   1.000  C
  C82      1.0000 0.92478  0.27445  0.36220  Biso   1.000  C
  C83      1.0000 0.82429  0.84384  0.35202  Biso   1.000  C
  C84      1.0000 0.67580  0.60158  0.34905  Biso   1.000  C
  C85      1.0000 0.01957  0.17579  0.35202  Biso   1.000  C
  C86      1.0000 0.92585  0.32429  0.34905  Biso   1.000  C
  C87      1.0000 0.77762  0.79434  0.33849  Biso   1.000  C
  H45      1.0000 0.87186  0.92467  0.35313  Biso   1.000  H
  H46      1.0000 0.62456  0.52118  0.34814  Biso   1.000  H
  C88      1.0000 0.70446  0.67665  0.33716  Biso   1.000  C
  C89      1.0000 0.01669  0.22237  0.33849  Biso   1.000  C
  H47      1.0000 0.05272  0.12819  0.35313  Biso   1.000  H
  H48      1.0000 0.89654  0.37543  0.34814  Biso   1.000  H
  C90      1.0000 0.97216  0.29554  0.33716  Biso   1.000  C
  Cl9      1.0000 0.81565  0.88516  0.32366  Biso   1.000  Cl
  Cl10     1.0000 0.64452  0.61656  0.32058  Biso   1.000  Cl
  Cl11     1.0000 0.06950  0.18440  0.32366  Biso   1.000  Cl
  Cl12     1.0000 0.97200  0.35546  0.32058  Biso   1.000  Cl
  C91      1.0000 0.00903  0.74087  0.51572  Biso   1.000  C
  C92      1.0000 0.05880  0.74199  0.52887  Biso   1.000  C
  H49      1.0000 0.95794  0.77006  0.51480  Biso   1.000  H
  C93      1.0000 0.03772  0.69447  0.50383  Biso   1.000  C
  O13      1.0000 0.04863  0.78667  0.54174  Biso   1.000  O
  C94      1.0000 0.13118  0.69456  0.53023  Biso   1.000  C
  C95      1.0000 0.11097  0.64997  0.50516  Biso   1.000  C
  Cl13     1.0000 0.97794  0.69465  0.48725  Biso   1.000  Cl
  B7       1.0000 0.13681  0.78409  0.55106  Biso   1.000  B
  O14      1.0000 0.16712  0.70291  0.54433  Biso   1.000  O
  C96      1.0000 0.15764  0.64712  0.51869  Biso   1.000  C
  Cl14     1.0000 0.14893  0.59719  0.49032  Biso   1.000  Cl
  N13      1.0000 0.25716  0.91357  0.54881  Biso   1.000  N
  C97      1.0000 0.11335  0.77118  0.56797  Biso   1.000  C
  H50      1.0000 0.20514  0.61389  0.51980  Biso   1.000  H
  C98      1.0000 0.25379  0.01179  0.54774  Biso   1.000  C
  C99      1.0000 0.35962  0.91822  0.54916  Biso   1.000  C
  C100     1.0000 0.05782  0.82249  0.57485  Biso   1.000  C
  C101     1.0000 0.16011  0.72021  0.57658  Biso   1.000  C
  C102     1.0000 0.35283  0.11803  0.54693  Biso   1.000  C
  H51      1.0000 0.18107  0.00801  0.54750  Biso   1.000  H
  C103     1.0000 0.46170  0.02204  0.54824  Biso   1.000  C
  H52      1.0000 0.36209  0.84892  0.55010  Biso   1.000  H
  H53      1.0000 0.02248  0.85529  0.56920  Biso   1.000  H
  C104     1.0000 0.05348  0.82679  0.59009  Biso   1.000  C
  C105     1.0000 0.15578  0.72452  0.59181  Biso   1.000  C
  H54      1.0000 0.19542  0.68182  0.57220  Biso   1.000  H
  C106     1.0000 0.45957  0.12319  0.54719  Biso   1.000  C
  H55      1.0000 0.34847  0.18638  0.54620  Biso   1.000  H
  H56      1.0000 0.53322  0.02342  0.54830  Biso   1.000  H
  C107     1.0000 0.10452  0.78004  0.59870  Biso   1.000  C
  H57      1.0000 0.01511  0.86217  0.59447  Biso   1.000  H
  H58      1.0000 0.18856  0.68914  0.59747  Biso   1.000  H
  C108     1.0000 0.56951  0.23528  0.54644  Biso   1.000  C
  B8       1.0000 0.11742  0.80346  0.61561  Biso   1.000  B
  N14      1.0000 0.56357  0.33239  0.54645  Biso   1.000  N
  N15      1.0000 0.66762  0.23123  0.54645  Biso   1.000  N
  N16      1.0000 0.24690  0.92390  0.61784  Biso   1.000  N
  O15      1.0000 0.03614  0.83385  0.62233  Biso   1.000  O
  O16      1.0000 0.11998  0.71539  0.62492  Biso   1.000  O
  C109     1.0000 0.66580  0.43053  0.54644  Biso   1.000  C
  C110     1.0000 0.76473  0.33419  0.54644  Biso   1.000  C
  C111     1.0000 0.34508  0.92045  0.61892  Biso   1.000  C
  C112     1.0000 0.25152  0.02634  0.61751  Biso   1.000  C
  C113     1.0000 0.02791  0.79786  0.63644  Biso   1.000  C
  C114     1.0000 0.07526  0.72555  0.63780  Biso   1.000  C
  C115     1.0000 0.66361  0.54038  0.54719  Biso   1.000  C
  N17      1.0000 0.76878  0.43638  0.54645  Biso   1.000  N
  C116     1.0000 0.87686  0.33643  0.54719  Biso   1.000  C
  C117     1.0000 0.45131  0.01946  0.61973  Biso   1.000  C
  H59      1.0000 0.34125  0.84780  0.61917  Biso   1.000  H
  C118     1.0000 0.35531  0.12836  0.61843  Biso   1.000  C
  H60      1.0000 0.18220  0.02875  0.61657  Biso   1.000  H
  C119     1.0000 0.98044  0.82429  0.64798  Biso   1.000  C
  C120     1.0000 0.07423  0.67579  0.65095  Biso   1.000  C
  C121     1.0000 0.76519  0.64721  0.54693  Biso   1.000  C
  C122     1.0000 0.56029  0.53831  0.54824  Biso   1.000  C
  C123     1.0000 0.88201  0.23476  0.54693  Biso   1.000  C
  C124     1.0000 0.97801  0.43974  0.54824  Biso   1.000  C
  C125     1.0000 0.45657  0.12629  0.61947  Biso   1.000  C
  H61      1.0000 0.51977  0.01515  0.62047  Biso   1.000  H
  H62      1.0000 0.35679  0.19990  0.61836  Biso   1.000  H
  C126     1.0000 0.98335  0.77763  0.66151  Biso   1.000  C
  H63      1.0000 0.94728  0.87190  0.64687  Biso   1.000  H
  H64      1.0000 0.10342  0.62457  0.65186  Biso   1.000  H
  C127     1.0000 0.02773  0.70446  0.66284  Biso   1.000  C
  C128     1.0000 0.75803  0.74621  0.54774  Biso   1.000  C
  H65      1.0000 0.83795  0.65152  0.54620  Biso   1.000  H
  C129     1.0000 0.55851  0.64032  0.54916  Biso   1.000  C
  H66      1.0000 0.49023  0.46677  0.54830  Biso   1.000  H
  H67      1.0000 0.81362  0.16210  0.54620  Biso   1.000  H
  C130     1.0000 0.98822  0.24199  0.54774  Biso   1.000  C
  H68      1.0000 0.97659  0.50981  0.54830  Biso   1.000  H
  C131     1.0000 0.08188  0.44155  0.54916  Biso   1.000  C
  C132     1.0000 0.56860  0.23614  0.62023  Biso   1.000  C
  Cl15     1.0000 0.93046  0.81560  0.67634  Biso   1.000  Cl
  Cl16     1.0000 0.02797  0.64454  0.67942  Biso   1.000  Cl
  N18      1.0000 0.65645  0.74285  0.54881  Biso   1.000  N
  H69      1.0000 0.82691  0.81896  0.54750  Biso   1.000  H
  H70      1.0000 0.48678  0.63791  0.55010  Biso   1.000  H
  H71      1.0000 0.99203  0.17312  0.54750  Biso   1.000  H
  N19      1.0000 0.08642  0.34358  0.54881  Biso   1.000  N
  H72      1.0000 0.15109  0.51317  0.55010  Biso   1.000  H
  N20      1.0000 0.56452  0.33428  0.62022  Biso   1.000  N
  N21      1.0000 0.66573  0.23029  0.62022  Biso   1.000  N
  B9       1.0000 0.64729  0.86321  0.55106  Biso   1.000  B
  B10      1.0000 0.21594  0.35270  0.55106  Biso   1.000  B
  C133     1.0000 0.66757  0.43139  0.62023  Biso   1.000  C
  C134     1.0000 0.76387  0.33247  0.62023  Biso   1.000  C
  O17      1.0000 0.53570  0.83282  0.54433  Biso   1.000  O
  O18      1.0000 0.73804  0.95136  0.54174  Biso   1.000  O
  C135     1.0000 0.65780  0.88662  0.56797  Biso   1.000  C
  C136     1.0000 0.22881  0.34220  0.56797  Biso   1.000  C
  O19      1.0000 0.29707  0.46427  0.54433  Biso   1.000  O
  O20      1.0000 0.21329  0.26197  0.54174  Biso   1.000  O
  C137     1.0000 0.66971  0.54347  0.61947  Biso   1.000  C
  N22      1.0000 0.76972  0.43543  0.62022  Biso   1.000  N
  C138     1.0000 0.87376  0.33023  0.61947  Biso   1.000  C
  C139     1.0000 0.56338  0.86880  0.53023  Biso   1.000  C
  C140     1.0000 0.68311  0.94112  0.52887  Biso   1.000  C
  C141     1.0000 0.76460  0.94215  0.57485  Biso   1.000  C
  C142     1.0000 0.56010  0.83988  0.57658  Biso   1.000  C
  C143     1.0000 0.17748  0.23537  0.57485  Biso   1.000  C
  C144     1.0000 0.27982  0.43991  0.57658  Biso   1.000  C
  C145     1.0000 0.30547  0.43664  0.53023  Biso   1.000  C
  C146     1.0000 0.25805  0.31689  0.52887  Biso   1.000  C
  C147     1.0000 0.56814  0.54864  0.61973  Biso   1.000  C
  C148     1.0000 0.77304  0.64471  0.61843  Biso   1.000  C
  C149     1.0000 0.98058  0.43190  0.61973  Biso   1.000  C
  C150     1.0000 0.87165  0.22701  0.61843  Biso   1.000  C
  C151     1.0000 0.48952  0.84246  0.51869  Biso   1.000  C
  C152     1.0000 0.73182  0.99096  0.51572  Biso   1.000  C
  H73      1.0000 0.83283  0.97753  0.56920  Biso   1.000  H
  C153     1.0000 0.77323  0.94645  0.59009  Biso   1.000  C
  C154     1.0000 0.56874  0.84418  0.59181  Biso   1.000  C
  H74      1.0000 0.48627  0.80449  0.57220  Biso   1.000  H
  H75      1.0000 0.14473  0.16718  0.56920  Biso   1.000  H
  C155     1.0000 0.17325  0.22676  0.59009  Biso   1.000  C
  H76      1.0000 0.31820  0.51369  0.57220  Biso   1.000  H
  C156     1.0000 0.27544  0.43130  0.59181  Biso   1.000  C
  C157     1.0000 0.35292  0.51050  0.51869  Biso   1.000  C
  C158     1.0000 0.25911  0.26816  0.51572  Biso   1.000  C
  C159     1.0000 0.57533  0.65487  0.61892  Biso   1.000  C
  H77      1.0000 0.49542  0.48029  0.62047  Biso   1.000  H
  C160     1.0000 0.77481  0.74845  0.61751  Biso   1.000  C
  H78      1.0000 0.84313  0.64325  0.61836  Biso   1.000  H
  H79      1.0000 0.98485  0.50456  0.62047  Biso   1.000  H
  C161     1.0000 0.07955  0.42467  0.61892  Biso   1.000  C
  C162     1.0000 0.97371  0.22521  0.61751  Biso   1.000  C
  H80      1.0000 0.80011  0.15685  0.61836  Biso   1.000  H
  C163     1.0000 0.53905  0.88903  0.50516  Biso   1.000  C
  H81      1.0000 0.40876  0.79485  0.51980  Biso   1.000  H
  C164     1.0000 0.65668  0.96221  0.50383  Biso   1.000  C
  H82      1.0000 0.81218  0.04210  0.51480  Biso   1.000  H
  C165     1.0000 0.67558  0.89549  0.59870  Biso   1.000  C
  H83      1.0000 0.84701  0.98485  0.59447  Biso   1.000  H
  H84      1.0000 0.50052  0.81138  0.59747  Biso   1.000  H
  C166     1.0000 0.21994  0.32447  0.59870  Biso   1.000  C
  H85      1.0000 0.13785  0.15298  0.59447  Biso   1.000  H
  H86      1.0000 0.31088  0.49948  0.59747  Biso   1.000  H
  C167     1.0000 0.35001  0.46100  0.50516  Biso   1.000  C
  H87      1.0000 0.38618  0.59134  0.51980  Biso   1.000  H
  H88      1.0000 0.22998  0.18784  0.51480  Biso   1.000  H
  C168     1.0000 0.30556  0.34332  0.50383  Biso   1.000  C
  N23      1.0000 0.67693  0.75310  0.61784  Biso   1.000  N
  H89      1.0000 0.50640  0.65866  0.61917  Biso   1.000  H
  H90      1.0000 0.84651  0.81775  0.61657  Biso   1.000  H
  H91      1.0000 0.15224  0.49354  0.61917  Biso   1.000  H
  N24      1.0000 0.07618  0.32309  0.61784  Biso   1.000  N
  H92      1.0000 0.97125  0.15350  0.61657  Biso   1.000  H
  Cl17     1.0000 0.44820  0.85107  0.49032  Biso   1.000  Cl
  Cl18     1.0000 0.71683  0.02212  0.48725  Biso   1.000  Cl
  B11      1.0000 0.68605  0.88258  0.61561  Biso   1.000  B
  B12      1.0000 0.19657  0.31396  0.61561  Biso   1.000  B
  Cl19     1.0000 0.40288  0.55183  0.49032  Biso   1.000  Cl
  Cl20     1.0000 0.30534  0.28323  0.48725  Biso   1.000  Cl
  O21      1.0000 0.79762  0.96376  0.62233  Biso   1.000  O
  O22      1.0000 0.59537  0.87999  0.62492  Biso   1.000  O
  O23      1.0000 0.16613  0.20239  0.62233  Biso   1.000  O
  O24      1.0000 0.28466  0.40470  0.62492  Biso   1.000  O
  C169     1.0000 0.76996  0.97211  0.63644  Biso   1.000  C
  C170     1.0000 0.65021  0.92467  0.63780  Biso   1.000  C
  C171     1.0000 0.20221  0.23011  0.63644  Biso   1.000  C
  C172     1.0000 0.27449  0.34978  0.63780  Biso   1.000  C
  C173     1.0000 0.84389  0.01963  0.64798  Biso   1.000  C
  C174     1.0000 0.60157  0.92579  0.65095  Biso   1.000  C
  C175     1.0000 0.17575  0.15616  0.64798  Biso   1.000  C
  C176     1.0000 0.32428  0.39850  0.65095  Biso   1.000  C
  C177     1.0000 0.79442  0.01670  0.66151  Biso   1.000  C
  H93      1.0000 0.92473  0.05277  0.64687  Biso   1.000  H
  H94      1.0000 0.52114  0.89661  0.65186  Biso   1.000  H
  C178     1.0000 0.67666  0.97219  0.66284  Biso   1.000  C
  C179     1.0000 0.22234  0.20566  0.66151  Biso   1.000  C
  H95      1.0000 0.12817  0.07533  0.64687  Biso   1.000  H
  H96      1.0000 0.37552  0.47891  0.65186  Biso   1.000  H
  C180     1.0000 0.29557  0.32335  0.66284  Biso   1.000  C
  Cl21     1.0000 0.88519  0.06956  0.67634  Biso   1.000  Cl
  Cl22     1.0000 0.61656  0.97202  0.67942  Biso   1.000  Cl
  Cl23     1.0000 0.18439  0.11484  0.67634  Biso   1.000  Cl
  Cl24     1.0000 0.35544  0.38344  0.67942  Biso   1.000  Cl
  C181     1.0000 0.63882  0.62887  0.67050  Biso   1.000  C
  C182     1.0000 0.59240  0.65754  0.68238  Biso   1.000  C
  C183     1.0000 0.68335  0.55570  0.67183  Biso   1.000  C
  Cl25     1.0000 0.63866  0.68879  0.65392  Biso   1.000  Cl
  C184     1.0000 0.59251  0.65763  0.68238  Biso   1.000  C
  Cl26     1.0000 0.63874  0.68879  0.65392  Biso   1.000  Cl
  C185     1.0000 0.59247  0.65754  0.68238  Biso   1.000  C
  C186     1.0000 0.59244  0.65763  0.68238  Biso   1.000  C
  C187     1.0000 0.59137  0.60778  0.69554  Biso   1.000  C
  H97      1.0000 0.56321  0.70876  0.68147  Biso   1.000  H
  H98      1.0000 0.56328  0.70876  0.68147  Biso   1.000  H
  C188     1.0000 0.63890  0.62887  0.67050  Biso   1.000  C
  C189     1.0000 0.59130  0.60778  0.69554  Biso   1.000  C
  C190     1.0000 0.68626  0.50904  0.68535  Biso   1.000  C
  Cl27     1.0000 0.73624  0.51773  0.65699  Biso   1.000  Cl
  C191     1.0000 0.68631  0.50913  0.68535  Biso   1.000  C
  C192     1.0000 0.68623  0.50913  0.68535  Biso   1.000  C
  Cl28     1.0000 0.73617  0.51773  0.65699  Biso   1.000  Cl
  C193     1.0000 0.63872  0.53547  0.69690  Biso   1.000  C
  O25      1.0000 0.54665  0.61794  0.70841  Biso   1.000  O
  C194     1.0000 0.63879  0.53547  0.69690  Biso   1.000  C
  O26      1.0000 0.54669  0.61803  0.70841  Biso   1.000  O
  O27      1.0000 0.54662  0.61803  0.70841  Biso   1.000  O
  H99      1.0000 0.71946  0.46152  0.68646  Biso   1.000  H
  O28      1.0000 0.63042  0.49948  0.71100  Biso   1.000  O
  O29      1.0000 0.63049  0.49948  0.71100  Biso   1.000  O
  B13      1.0000 0.54921  0.52987  0.71773  Biso   1.000  B
  B14      1.0000 0.54929  0.52987  0.71773  Biso   1.000  B
  C195     1.0000 0.56211  0.55329  0.73463  Biso   1.000  C
  N25      1.0000 0.41973  0.40944  0.71549  Biso   1.000  N
  C196     1.0000 0.56219  0.55329  0.73463  Biso   1.000  C
  N26      1.0000 0.41978  0.40952  0.71549  Biso   1.000  N
  C197     1.0000 0.51085  0.60882  0.74152  Biso   1.000  C
  C198     1.0000 0.61315  0.50654  0.74324  Biso   1.000  C
  C199     1.0000 0.51092  0.60882  0.74152  Biso   1.000  C
  C200     1.0000 0.61319  0.50663  0.74324  Biso   1.000  C
  C201     1.0000 0.61311  0.50663  0.74324  Biso   1.000  C
  C202     1.0000 0.32155  0.41288  0.71441  Biso   1.000  C
  C203     1.0000 0.41518  0.30699  0.71583  Biso   1.000  C
  C204     1.0000 0.41511  0.30699  0.71583  Biso   1.000  C
  H100     1.0000 0.47807  0.64420  0.73586  Biso   1.000  H
  C205     1.0000 0.50659  0.61312  0.75676  Biso   1.000  C
  C206     1.0000 0.50663  0.61321  0.75676  Biso   1.000  C
  H101     1.0000 0.47799  0.64420  0.73586  Biso   1.000  H
  C207     1.0000 0.50656  0.61321  0.75676  Biso   1.000  C
  C208     1.0000 0.60881  0.51085  0.75848  Biso   1.000  C
  H102     1.0000 0.65152  0.47116  0.73886  Biso   1.000  H
  H103     1.0000 0.65159  0.47116  0.73886  Biso   1.000  H
  C209     1.0000 0.60874  0.51085  0.75848  Biso   1.000  C
  C210     1.0000 0.21531  0.31388  0.71360  Biso   1.000  C
  H104     1.0000 0.32530  0.48554  0.71417  Biso   1.000  H
  C211     1.0000 0.21539  0.31388  0.71360  Biso   1.000  C
  H105     1.0000 0.32542  0.48562  0.71417  Biso   1.000  H
  H106     1.0000 0.32538  0.48554  0.71417  Biso   1.000  H
  H107     1.0000 0.32534  0.48562  0.71417  Biso   1.000  H
  H108     1.0000 0.48443  0.30458  0.71677  Biso   1.000  H
  C212     1.0000 0.31132  0.20498  0.71490  Biso   1.000  C
  H109     1.0000 0.48450  0.30458  0.71677  Biso   1.000  H
  C213     1.0000 0.31139  0.20498  0.71490  Biso   1.000  C
  C214     1.0000 0.55328  0.56216  0.76537  Biso   1.000  C
  H110     1.0000 0.47114  0.65152  0.76114  Biso   1.000  H
  H111     1.0000 0.47126  0.65160  0.76114  Biso   1.000  H
  H112     1.0000 0.47121  0.65152  0.76114  Biso   1.000  H
  H113     1.0000 0.47118  0.65160  0.76114  Biso   1.000  H
  H114     1.0000 0.64415  0.47805  0.76414  Biso   1.000  H
  H115     1.0000 0.64423  0.47805  0.76414  Biso   1.000  H
  C215     1.0000 0.21013  0.20704  0.71386  Biso   1.000  C
  H116     1.0000 0.14694  0.31818  0.71286  Biso   1.000  H
  C216     1.0000 0.21018  0.20713  0.71386  Biso   1.000  C
  H117     1.0000 0.30992  0.13344  0.71497  Biso   1.000  H
  H118     1.0000 0.30996  0.13352  0.71497  Biso   1.000  H
  B15      1.0000 0.52990  0.54924  0.78227  Biso   1.000  B
  B16      1.0000 0.52982  0.54924  0.78227  Biso   1.000  B
  C217     1.0000 0.09803  0.09719  0.71311  Biso   1.000  C
  C218     1.0000 0.09810  0.09719  0.71311  Biso   1.000  C
  O30      1.0000 0.49944  0.63042  0.78900  Biso   1.000  O
  O31      1.0000 0.61800  0.54666  0.79159  Biso   1.000  O
  N27      1.0000 0.40947  0.41977  0.78451  Biso   1.000  N
  O32      1.0000 0.49955  0.63051  0.78900  Biso   1.000  O
  N28      1.0000 0.40954  0.41977  0.78451  Biso   1.000  N
  O33      1.0000 0.49951  0.63042  0.78900  Biso   1.000  O
  O34      1.0000 0.49948  0.63051  0.78900  Biso   1.000  O
  N29      1.0000 0.00090  0.10305  0.71312  Biso   1.000  N
  N30      1.0000 0.00102  0.10313  0.71312  Biso   1.000  N
  N31      1.0000 0.00098  0.10305  0.71312  Biso   1.000  N
  N32      1.0000 0.00094  0.10313  0.71312  Biso   1.000  N
  N33      1.0000 0.10204  0.99905  0.71312  Biso   1.000  N
  N34      1.0000 0.10219  0.99905  0.71312  Biso   1.000  N
  C219     1.0000 0.53552  0.63877  0.80310  Biso   1.000  C
  C220     1.0000 0.53545  0.63877  0.80310  Biso   1.000  C
  C221     1.0000 0.60776  0.59134  0.80446  Biso   1.000  C
  C222     1.0000 0.60783  0.59134  0.80446  Biso   1.000  C
  C223     1.0000 0.41284  0.32154  0.78559  Biso   1.000  C
  C224     1.0000 0.30694  0.41512  0.78417  Biso   1.000  C
  C225     1.0000 0.41291  0.32154  0.78559  Biso   1.000  C
  C226     1.0000 0.30706  0.41520  0.78417  Biso   1.000  C
  C227     1.0000 0.30701  0.41512  0.78417  Biso   1.000  C
  C228     1.0000 0.30698  0.41520  0.78417  Biso   1.000  C
  C229     1.0000 0.90284  0.00086  0.71311  Biso   1.000  C
  C230     1.0000 0.90291  0.00086  0.71311  Biso   1.000  C
  C231     1.0000 0.99914  0.90195  0.71311  Biso   1.000  C
  C232     1.0000 0.99906  0.90195  0.71311  Biso   1.000  C
  C233     1.0000 0.50906  0.68621  0.81465  Biso   1.000  C
  C234     1.0000 0.50911  0.68629  0.81465  Biso   1.000  C
  C235     1.0000 0.65760  0.59246  0.81762  Biso   1.000  C
  C236     1.0000 0.31387  0.21531  0.78640  Biso   1.000  C
  H119     1.0000 0.48556  0.32533  0.78583  Biso   1.000  H
  C237     1.0000 0.31391  0.21539  0.78640  Biso   1.000  C
  H120     1.0000 0.48563  0.32533  0.78583  Biso   1.000  H
  C238     1.0000 0.31384  0.21539  0.78640  Biso   1.000  C
  H121     1.0000 0.30454  0.48442  0.78323  Biso   1.000  H
  C239     1.0000 0.20497  0.31138  0.78510  Biso   1.000  C
  H122     1.0000 0.30465  0.48450  0.78323  Biso   1.000  H
  C240     1.0000 0.20505  0.31138  0.78510  Biso   1.000  C
  H123     1.0000 0.30461  0.48442  0.78323  Biso   1.000  H
  H124     1.0000 0.30458  0.48450  0.78323  Biso   1.000  H
  N35      1.0000 0.89699  0.89790  0.71312  Biso   1.000  N
  N36      1.0000 0.89691  0.89790  0.71312  Biso   1.000  N
  C241     1.0000 0.79295  0.00310  0.71386  Biso   1.000  C
  C242     1.0000 0.79302  0.00310  0.71386  Biso   1.000  C
  C243     1.0000 0.99699  0.78986  0.71386  Biso   1.000  C
  C244     1.0000 0.99685  0.78986  0.71386  Biso   1.000  C
  C245     1.0000 0.55566  0.68337  0.82817  Biso   1.000  C
  H125     1.0000 0.46149  0.71944  0.81354  Biso   1.000  H
  C246     1.0000 0.55573  0.68337  0.82817  Biso   1.000  C
  H126     1.0000 0.46141  0.71944  0.81354  Biso   1.000  H
  H127     1.0000 0.70876  0.56327  0.81853  Biso   1.000  H
  C247     1.0000 0.62891  0.63886  0.82950  Biso   1.000  C
  H128     1.0000 0.70883  0.56327  0.81853  Biso   1.000  H
  C248     1.0000 0.62883  0.63886  0.82950  Biso   1.000  C
  C249     1.0000 0.20706  0.21014  0.78614  Biso   1.000  C
  H129     1.0000 0.31816  0.14695  0.78714  Biso   1.000  H
  C250     1.0000 0.20714  0.21014  0.78614  Biso   1.000  C
  H130     1.0000 0.31824  0.14695  0.78714  Biso   1.000  H
  H131     1.0000 0.13349  0.30992  0.78503  Biso   1.000  H
  H132     1.0000 0.13353  0.31000  0.78503  Biso   1.000  H
  H133     1.0000 0.13346  0.31000  0.78503  Biso   1.000  H
  C251     1.0000 0.68612  0.90143  0.71360  Biso   1.000  C
  C252     1.0000 0.68609  0.90152  0.71360  Biso   1.000  C
  C253     1.0000 0.68605  0.90143  0.71360  Biso   1.000  C
  C254     1.0000 0.79502  0.10640  0.71490  Biso   1.000  C
  C255     1.0000 0.79509  0.10640  0.71490  Biso   1.000  C
  C256     1.0000 0.89359  0.68862  0.71490  Biso   1.000  C
  C257     1.0000 0.89363  0.68871  0.71490  Biso   1.000  C
  C258     1.0000 0.09849  0.78469  0.71360  Biso   1.000  C
  Cl29     1.0000 0.51774  0.73623  0.84301  Biso   1.000  Cl
  Cl30     1.0000 0.51767  0.73623  0.84301  Biso   1.000  Cl
  Cl31     1.0000 0.68876  0.63869  0.84608  Biso   1.000  Cl
  Cl32     1.0000 0.68884  0.63869  0.84608  Biso   1.000  Cl
  C259     1.0000 0.09719  0.09805  0.78689  Biso   1.000  C
  H134     1.0000 0.68185  0.82877  0.71286  Biso   1.000  H
  C260     1.0000 0.58715  0.90866  0.71441  Biso   1.000  C
  C261     1.0000 0.58707  0.90866  0.71441  Biso   1.000  C
  C262     1.0000 0.69300  0.10813  0.71583  Biso   1.000  C
  H135     1.0000 0.86652  0.17648  0.71497  Biso   1.000  H
  C263     1.0000 0.69304  0.10821  0.71583  Biso   1.000  C
  H136     1.0000 0.86659  0.17648  0.71497  Biso   1.000  H
  C264     1.0000 0.69311  0.10821  0.71583  Biso   1.000  C
  C265     1.0000 0.89182  0.58488  0.71583  Biso   1.000  C
  H137     1.0000 0.82364  0.69008  0.71497  Biso   1.000  H
  H138     1.0000 0.82357  0.69008  0.71497  Biso   1.000  H
  H139     1.0000 0.17114  0.85305  0.71286  Biso   1.000  H
  C266     1.0000 0.09130  0.67846  0.71441  Biso   1.000  C
  H140     1.0000 0.17129  0.85305  0.71286  Biso   1.000  H
  N37      1.0000 0.10306  0.00095  0.78688  Biso   1.000  N
  N38      1.0000 0.10314  0.00095  0.78688  Biso   1.000  N
  N39      1.0000 0.99909  0.10210  0.78688  Biso   1.000  N
  N40      1.0000 0.99913  0.10219  0.78688  Biso   1.000  N
  H141     1.0000 0.51447  0.83979  0.71417  Biso   1.000  H
  H142     1.0000 0.51439  0.83979  0.71417  Biso   1.000  H
  N41      1.0000 0.59052  0.01024  0.71549  Biso   1.000  N
  N42      1.0000 0.59057  0.01033  0.71549  Biso   1.000  N
  H143     1.0000 0.69538  0.17984  0.71677  Biso   1.000  H
  H144     1.0000 0.69549  0.17992  0.71677  Biso   1.000  H
  H145     1.0000 0.69545  0.17984  0.71677  Biso   1.000  H
  N43      1.0000 0.98977  0.58023  0.71549  Biso   1.000  N
  H146     1.0000 0.82019  0.51558  0.71677  Biso   1.000  H
  N44      1.0000 0.98982  0.58032  0.71549  Biso   1.000  N
  H147     1.0000 0.16016  0.67467  0.71417  Biso   1.000  H
  H148     1.0000 0.16031  0.67467  0.71417  Biso   1.000  H
  C267     1.0000 0.00076  0.90281  0.78689  Biso   1.000  C
  C268     1.0000 0.00088  0.90289  0.78689  Biso   1.000  C
  C269     1.0000 0.00083  0.90281  0.78689  Biso   1.000  C
  C270     1.0000 0.90205  0.99914  0.78689  Biso   1.000  C
  C271     1.0000 0.90190  0.99914  0.78689  Biso   1.000  C
  B17      1.0000 0.47013  0.01937  0.71773  Biso   1.000  B
  B18      1.0000 0.47021  0.01937  0.71773  Biso   1.000  B
  B19      1.0000 0.98073  0.45076  0.71773  Biso   1.000  B
  B20      1.0000 0.98065  0.45076  0.71773  Biso   1.000  B
  N45      1.0000 0.89793  0.89695  0.78688  Biso   1.000  N
  C272     1.0000 0.00302  0.79296  0.78614  Biso   1.000  C
  C273     1.0000 0.00317  0.79296  0.78614  Biso   1.000  C
  C274     1.0000 0.78992  0.99690  0.78614  Biso   1.000  C
  C275     1.0000 0.78982  0.99699  0.78614  Biso   1.000  C
  C276     1.0000 0.78977  0.99690  0.78614  Biso   1.000  C
  C277     1.0000 0.78996  0.99699  0.78614  Biso   1.000  C
  O35      1.0000 0.38197  0.92863  0.70841  Biso   1.000  O
  O36      1.0000 0.38201  0.92872  0.70841  Biso   1.000  O
  C278     1.0000 0.44669  0.00887  0.73463  Biso   1.000  C
  O37      1.0000 0.50050  0.13094  0.71100  Biso   1.000  O
  C279     1.0000 0.44677  0.00887  0.73463  Biso   1.000  C
  O38      1.0000 0.50061  0.13103  0.71100  Biso   1.000  O
  C280     1.0000 0.99112  0.43784  0.73463  Biso   1.000  C
  O39      1.0000 0.86901  0.36958  0.71100  Biso   1.000  O
  O40      1.0000 0.07126  0.45334  0.70841  Biso   1.000  O
  O41      1.0000 0.07134  0.45334  0.70841  Biso   1.000  O
  C281     1.0000 0.90144  0.68612  0.78640  Biso   1.000  C
  C282     1.0000 0.10626  0.79502  0.78510  Biso   1.000  C
  C283     1.0000 0.10634  0.79502  0.78510  Biso   1.000  C
  C284     1.0000 0.68869  0.89360  0.78510  Biso   1.000  C
  C285     1.0000 0.68873  0.89368  0.78510  Biso   1.000  C
  C286     1.0000 0.78469  0.09857  0.78640  Biso   1.000  C
  C287     1.0000 0.39229  0.98356  0.69554  Biso   1.000  C
  C288     1.0000 0.39214  0.98356  0.69554  Biso   1.000  C
  C289     1.0000 0.39126  0.90203  0.74152  Biso   1.000  C
  C290     1.0000 0.39130  0.90212  0.74152  Biso   1.000  C
  C291     1.0000 0.49346  0.10658  0.74324  Biso   1.000  C
  C292     1.0000 0.46454  0.10331  0.69690  Biso   1.000  C
  C293     1.0000 0.46461  0.10331  0.69690  Biso   1.000  C
  C294     1.0000 0.89347  0.38688  0.74324  Biso   1.000  C
  C295     1.0000 0.09789  0.48915  0.74152  Biso   1.000  C
  C296     1.0000 0.89682  0.36123  0.69690  Biso   1.000  C
  C297     1.0000 0.89672  0.36131  0.69690  Biso   1.000  C
  C298     1.0000 0.89667  0.36123  0.69690  Biso   1.000  C
  C299     1.0000 0.01642  0.40866  0.69554  Biso   1.000  C
  H149     1.0000 0.82876  0.68182  0.78714  Biso   1.000  H
  C300     1.0000 0.90867  0.58712  0.78559  Biso   1.000  C
  H150     1.0000 0.82868  0.68182  0.78714  Biso   1.000  H
  C301     1.0000 0.10819  0.69301  0.78417  Biso   1.000  C
  H151     1.0000 0.17640  0.86656  0.78503  Biso   1.000  H
  H152     1.0000 0.17655  0.86656  0.78503  Biso   1.000  H
  C302     1.0000 0.58487  0.89187  0.78417  Biso   1.000  C
  H153     1.0000 0.69003  0.82352  0.78503  Biso   1.000  H
  H154     1.0000 0.85308  0.17123  0.78714  Biso   1.000  H
  C303     1.0000 0.67849  0.09134  0.78559  Biso   1.000  C
  C304     1.0000 0.34242  0.93483  0.68238  Biso   1.000  C
  C305     1.0000 0.34247  0.93492  0.68238  Biso   1.000  C
  H155     1.0000 0.35583  0.83385  0.73586  Biso   1.000  H
  C306     1.0000 0.38696  0.89342  0.75676  Biso   1.000  C
  H156     1.0000 0.35575  0.83385  0.73586  Biso   1.000  H
  C307     1.0000 0.38681  0.89342  0.75676  Biso   1.000  C
  C308     1.0000 0.48915  0.09797  0.75848  Biso   1.000  C
  H157     1.0000 0.52878  0.18035  0.73886  Biso   1.000  H
  C309     1.0000 0.48923  0.09797  0.75848  Biso   1.000  C
  H158     1.0000 0.52886  0.18035  0.73886  Biso   1.000  H
  C310     1.0000 0.49096  0.17717  0.68535  Biso   1.000  C
  H159     1.0000 0.81962  0.34848  0.73886  Biso   1.000  H
  C311     1.0000 0.90203  0.39118  0.75848  Biso   1.000  C
  C312     1.0000 0.90208  0.39127  0.75848  Biso   1.000  C
  C313     1.0000 0.90196  0.39118  0.75848  Biso   1.000  C
  H160     1.0000 0.16611  0.52195  0.73586  Biso   1.000  H
  C314     1.0000 0.10660  0.49346  0.75676  Biso   1.000  C
  C315     1.0000 0.82293  0.31379  0.68535  Biso   1.000  C
  C316     1.0000 0.82278  0.31379  0.68535  Biso   1.000  C
  C317     1.0000 0.06506  0.40754  0.68238  Biso   1.000  C
  C318     1.0000 0.06521  0.40754  0.68238  Biso   1.000  C
  H161     1.0000 0.83976  0.51446  0.78583  Biso   1.000  H
  N46      1.0000 0.01030  0.59056  0.78451  Biso   1.000  N
  N47      1.0000 0.01037  0.59056  0.78451  Biso   1.000  N
  H162     1.0000 0.17985  0.69542  0.78323  Biso   1.000  H
  N48      1.0000 0.58028  0.98976  0.78451  Biso   1.000  N
  H163     1.0000 0.51554  0.82016  0.78323  Biso   1.000  H
  H164     1.0000 0.67468  0.16021  0.78583  Biso   1.000  H
  H165     1.0000 0.67472  0.16030  0.78583  Biso   1.000  H
  H166     1.0000 0.29126  0.85442  0.68147  Biso   1.000  H
  H167     1.0000 0.29123  0.85451  0.68147  Biso   1.000  H
  H168     1.0000 0.29119  0.85442  0.68147  Biso   1.000  H
  H169     1.0000 0.29131  0.85451  0.68147  Biso   1.000  H
  C319     1.0000 0.37113  0.00999  0.67050  Biso   1.000  C
  C320     1.0000 0.37120  0.00999  0.67050  Biso   1.000  C
  C321     1.0000 0.43782  0.99113  0.76537  Biso   1.000  C
  H170     1.0000 0.34850  0.81965  0.76114  Biso   1.000  H
  H171     1.0000 0.52198  0.16615  0.76414  Biso   1.000  H
  C322     1.0000 0.44429  0.12767  0.67183  Biso   1.000  C
  H172     1.0000 0.53853  0.25801  0.68646  Biso   1.000  H
  C323     1.0000 0.44436  0.12767  0.67183  Biso   1.000  C
  H173     1.0000 0.53861  0.25801  0.68646  Biso   1.000  H
  H174     1.0000 0.83387  0.35580  0.76414  Biso   1.000  H
  H175     1.0000 0.83379  0.35580  0.76414  Biso   1.000  H
  C324     1.0000 0.00883  0.44671  0.76537  Biso   1.000  C
  H176     1.0000 0.18036  0.52884  0.76114  Biso   1.000  H
  H177     1.0000 0.18043  0.52884  0.76114  Biso   1.000  H
  C325     1.0000 0.87229  0.31663  0.67183  Biso   1.000  C
  H178     1.0000 0.74205  0.28056  0.68646  Biso   1.000  H
  C326     1.0000 0.99012  0.36114  0.67050  Biso   1.000  C
  C327     1.0000 0.99005  0.36114  0.67050  Biso   1.000  C
  H179     1.0000 0.14549  0.43673  0.68147  Biso   1.000  H
  H180     1.0000 0.14553  0.43681  0.68147  Biso   1.000  H
  B21      1.0000 0.01927  0.47013  0.78227  Biso   1.000  B
  B22      1.0000 0.01934  0.47013  0.78227  Biso   1.000  B
  B23      1.0000 0.45076  0.98063  0.78227  Biso   1.000  B
  Cl33     1.0000 0.31126  0.94990  0.65392  Biso   1.000  Cl
  Cl34     1.0000 0.48232  0.21849  0.65699  Biso   1.000  Cl
  Cl35     1.0000 0.78152  0.26377  0.65699  Biso   1.000  Cl
  Cl36     1.0000 0.78149  0.26386  0.65699  Biso   1.000  Cl
  Cl37     1.0000 0.78144  0.26377  0.65699  Biso   1.000  Cl
  Cl38     1.0000 0.05007  0.36131  0.65392  Biso   1.000  Cl
  O42      1.0000 0.92871  0.38206  0.79159  Biso   1.000  O
  O43      1.0000 0.13093  0.50052  0.78900  Biso   1.000  O
  O44      1.0000 0.36963  0.86906  0.78900  Biso   1.000  O
  O45      1.0000 0.36948  0.86906  0.78900  Biso   1.000  O
  O46      1.0000 0.45334  0.07137  0.79159  Biso   1.000  O
  O47      1.0000 0.45341  0.07137  0.79159  Biso   1.000  O
  C328     1.0000 0.98367  0.39222  0.80446  Biso   1.000  C
  C329     1.0000 0.98359  0.39222  0.80446  Biso   1.000  C
  C330     1.0000 0.10325  0.46453  0.80310  Biso   1.000  C
  C331     1.0000 0.36123  0.89669  0.80310  Biso   1.000  C
  C332     1.0000 0.36127  0.89678  0.80310  Biso   1.000  C
  C333     1.0000 0.40865  0.01644  0.80446  Biso   1.000  C
  C334     1.0000 0.40873  0.01644  0.80446  Biso   1.000  C
  C335     1.0000 0.93493  0.34246  0.81762  Biso   1.000  C
  C336     1.0000 0.17715  0.49096  0.81465  Biso   1.000  C
  C337     1.0000 0.31386  0.82283  0.81465  Biso   1.000  C
  C338     1.0000 0.31371  0.82283  0.81465  Biso   1.000  C
  C339     1.0000 0.40759  0.06517  0.81762  Biso   1.000  C
  H181     1.0000 0.85445  0.29124  0.81853  Biso   1.000  H
  C340     1.0000 0.00995  0.37113  0.82950  Biso   1.000  C
  C341     1.0000 0.12765  0.44430  0.82817  Biso   1.000  C
  H182     1.0000 0.25787  0.53848  0.81354  Biso   1.000  H
  H183     1.0000 0.25791  0.53857  0.81354  Biso   1.000  H
  H184     1.0000 0.25806  0.53857  0.81354  Biso   1.000  H
  C342     1.0000 0.31669  0.87233  0.82817  Biso   1.000  C
  H185     1.0000 0.28052  0.74199  0.81354  Biso   1.000  H
  H186     1.0000 0.28057  0.74208  0.81354  Biso   1.000  H
  C343     1.0000 0.36114  0.99001  0.82950  Biso   1.000  C
  H187     1.0000 0.43676  0.14558  0.81853  Biso   1.000  H
  H188     1.0000 0.43684  0.14558  0.81853  Biso   1.000  H
  Cl39     1.0000 0.94987  0.31121  0.84608  Biso   1.000  Cl
  Cl40     1.0000 0.94980  0.31121  0.84608  Biso   1.000  Cl
  Cl41     1.0000 0.21843  0.48227  0.84301  Biso   1.000  Cl
  Cl42     1.0000 0.21847  0.48235  0.84301  Biso   1.000  Cl
  Cl43     1.0000 0.26383  0.78151  0.84301  Biso   1.000  Cl
  Cl44     1.0000 0.36129  0.05010  0.84608  Biso   1.000  Cl
  Cl45     1.0000 0.36137  0.05010  0.84608  Biso   1.000  Cl
  C344     1.0000 0.63882  0.62887  0.67050  Biso   1.000  C
  C345     1.0000 0.68335  0.55570  0.67183  Biso   1.000  C
  Cl46     1.0000 0.63866  0.68879  0.65392  Biso   1.000  Cl
  C346     1.0000 0.59240  0.65754  0.68238  Biso   1.000  C
  C347     1.0000 0.59251  0.65763  0.68238  Biso   1.000  C
  Cl47     1.0000 0.63874  0.68879  0.65392  Biso   1.000  Cl
  C348     1.0000 0.59247  0.65754  0.68238  Biso   1.000  C
  C349     1.0000 0.59244  0.65763  0.68238  Biso   1.000  C
  Cl48     1.0000 0.73624  0.51773  0.65699  Biso   1.000  Cl
  C350     1.0000 0.63890  0.62887  0.67050  Biso   1.000  C
  C351     1.0000 0.68626  0.50904  0.68535  Biso   1.000  C
  C352     1.0000 0.68631  0.50913  0.68535  Biso   1.000  C
  C353     1.0000 0.68623  0.50913  0.68535  Biso   1.000  C
  Cl49     1.0000 0.73617  0.51773  0.65699  Biso   1.000  Cl
  C354     1.0000 0.59137  0.60778  0.69554  Biso   1.000  C
  H189     1.0000 0.56328  0.70876  0.68147  Biso   1.000  H
  H190     1.0000 0.56321  0.70876  0.68147  Biso   1.000  H
  C355     1.0000 0.59130  0.60778  0.69554  Biso   1.000  C
  H191     1.0000 0.71946  0.46152  0.68646  Biso   1.000  H
  C356     1.0000 0.63879  0.53547  0.69690  Biso   1.000  C
  C357     1.0000 0.63872  0.53547  0.69690  Biso   1.000  C
  O48      1.0000 0.54665  0.61794  0.70841  Biso   1.000  O
  O49      1.0000 0.54669  0.61803  0.70841  Biso   1.000  O
  O50      1.0000 0.54662  0.61803  0.70841  Biso   1.000  O
  O51      1.0000 0.63049  0.49948  0.71100  Biso   1.000  O
  O52      1.0000 0.63042  0.49948  0.71100  Biso   1.000  O
  B24      1.0000 0.54929  0.52987  0.71773  Biso   1.000  B
  B25      1.0000 0.54921  0.52987  0.71773  Biso   1.000  B
  C358     1.0000 0.56219  0.55329  0.73463  Biso   1.000  C
  N49      1.0000 0.41973  0.40944  0.71549  Biso   1.000  N
  C359     1.0000 0.56211  0.55329  0.73463  Biso   1.000  C
  N50      1.0000 0.41978  0.40952  0.71549  Biso   1.000  N
  C360     1.0000 0.51085  0.60882  0.74152  Biso   1.000  C
  C361     1.0000 0.61315  0.50654  0.74324  Biso   1.000  C
  C362     1.0000 0.51092  0.60882  0.74152  Biso   1.000  C
  C363     1.0000 0.61319  0.50663  0.74324  Biso   1.000  C
  C364     1.0000 0.61311  0.50663  0.74324  Biso   1.000  C
  C365     1.0000 0.32155  0.41288  0.71441  Biso   1.000  C
  C366     1.0000 0.41518  0.30699  0.71583  Biso   1.000  C
  C367     1.0000 0.41511  0.30699  0.71583  Biso   1.000  C
  H192     1.0000 0.47807  0.64420  0.73586  Biso   1.000  H
  C368     1.0000 0.50659  0.61312  0.75676  Biso   1.000  C
  C369     1.0000 0.50663  0.61321  0.75676  Biso   1.000  C
  H193     1.0000 0.47799  0.64420  0.73586  Biso   1.000  H
  C370     1.0000 0.50656  0.61321  0.75676  Biso   1.000  C
  C371     1.0000 0.60881  0.51085  0.75848  Biso   1.000  C
  H194     1.0000 0.65159  0.47116  0.73886  Biso   1.000  H
  H195     1.0000 0.65152  0.47116  0.73886  Biso   1.000  H
  C372     1.0000 0.60874  0.51085  0.75848  Biso   1.000  C
  C373     1.0000 0.21539  0.31388  0.71360  Biso   1.000  C
  C374     1.0000 0.21531  0.31388  0.71360  Biso   1.000  C
  H196     1.0000 0.32530  0.48554  0.71417  Biso   1.000  H
  H197     1.0000 0.32542  0.48562  0.71417  Biso   1.000  H
  H198     1.0000 0.32538  0.48554  0.71417  Biso   1.000  H
  H199     1.0000 0.32534  0.48562  0.71417  Biso   1.000  H
  H200     1.0000 0.48450  0.30458  0.71677  Biso   1.000  H
  C375     1.0000 0.31139  0.20498  0.71490  Biso   1.000  C
  H201     1.0000 0.48443  0.30458  0.71677  Biso   1.000  H
  C376     1.0000 0.31132  0.20498  0.71490  Biso   1.000  C
  C377     1.0000 0.55328  0.56216  0.76537  Biso   1.000  C
  H202     1.0000 0.47114  0.65152  0.76114  Biso   1.000  H
  H203     1.0000 0.47126  0.65160  0.76114  Biso   1.000  H
  H204     1.0000 0.47121  0.65152  0.76114  Biso   1.000  H
  H205     1.0000 0.47118  0.65160  0.76114  Biso   1.000  H
  H206     1.0000 0.64423  0.47805  0.76414  Biso   1.000  H
  H207     1.0000 0.64415  0.47805  0.76414  Biso   1.000  H
  H208     1.0000 0.14694  0.31818  0.71286  Biso   1.000  H
  C378     1.0000 0.21013  0.20704  0.71386  Biso   1.000  C
  C379     1.0000 0.21018  0.20713  0.71386  Biso   1.000  C
  H209     1.0000 0.30992  0.13344  0.71497  Biso   1.000  H
  H210     1.0000 0.30996  0.13352  0.71497  Biso   1.000  H
  B26      1.0000 0.52990  0.54924  0.78227  Biso   1.000  B
  B27      1.0000 0.52982  0.54924  0.78227  Biso   1.000  B
  C380     1.0000 0.09810  0.09719  0.71311  Biso   1.000  C
  C381     1.0000 0.09803  0.09719  0.71311  Biso   1.000  C
  O53      1.0000 0.61800  0.54666  0.79159  Biso   1.000  O
  N51      1.0000 0.40954  0.41977  0.78451  Biso   1.000  N
  N52      1.0000 0.40947  0.41977  0.78451  Biso   1.000  N
  O54      1.0000 0.49944  0.63042  0.78900  Biso   1.000  O
  O55      1.0000 0.49955  0.63051  0.78900  Biso   1.000  O
  O56      1.0000 0.49951  0.63042  0.78900  Biso   1.000  O
  O57      1.0000 0.49948  0.63051  0.78900  Biso   1.000  O
  N53      1.0000 0.10204  0.99905  0.71312  Biso   1.000  N
  N54      1.0000 0.10219  0.99905  0.71312  Biso   1.000  N
  N55      1.0000 0.00090  0.10305  0.71312  Biso   1.000  N
  N56      1.0000 0.00102  0.10313  0.71312  Biso   1.000  N
  N57      1.0000 0.00098  0.10305  0.71312  Biso   1.000  N
  N58      1.0000 0.00094  0.10313  0.71312  Biso   1.000  N
  C382     1.0000 0.60783  0.59134  0.80446  Biso   1.000  C
  C383     1.0000 0.60776  0.59134  0.80446  Biso   1.000  C
  C384     1.0000 0.41291  0.32154  0.78559  Biso   1.000  C
  C385     1.0000 0.41284  0.32154  0.78559  Biso   1.000  C
  C386     1.0000 0.30694  0.41512  0.78417  Biso   1.000  C
  C387     1.0000 0.30706  0.41520  0.78417  Biso   1.000  C
  C388     1.0000 0.30701  0.41512  0.78417  Biso   1.000  C
  C389     1.0000 0.30698  0.41520  0.78417  Biso   1.000  C
  C390     1.0000 0.53552  0.63877  0.80310  Biso   1.000  C
  C391     1.0000 0.53545  0.63877  0.80310  Biso   1.000  C
  C392     1.0000 0.99914  0.90195  0.71311  Biso   1.000  C
  C393     1.0000 0.99906  0.90195  0.71311  Biso   1.000  C
  C394     1.0000 0.90284  0.00086  0.71311  Biso   1.000  C
  C395     1.0000 0.90291  0.00086  0.71311  Biso   1.000  C
  C396     1.0000 0.65760  0.59246  0.81762  Biso   1.000  C
  C397     1.0000 0.31387  0.21531  0.78640  Biso   1.000  C
  H211     1.0000 0.48556  0.32533  0.78583  Biso   1.000  H
  C398     1.0000 0.31391  0.21539  0.78640  Biso   1.000  C
  H212     1.0000 0.48563  0.32533  0.78583  Biso   1.000  H
  C399     1.0000 0.31384  0.21539  0.78640  Biso   1.000  C
  C400     1.0000 0.20505  0.31138  0.78510  Biso   1.000  C
  C401     1.0000 0.20497  0.31138  0.78510  Biso   1.000  C
  H213     1.0000 0.30454  0.48442  0.78323  Biso   1.000  H
  H214     1.0000 0.30465  0.48450  0.78323  Biso   1.000  H
  H215     1.0000 0.30461  0.48442  0.78323  Biso   1.000  H
  H216     1.0000 0.30458  0.48450  0.78323  Biso   1.000  H
  C402     1.0000 0.50906  0.68621  0.81465  Biso   1.000  C
  C403     1.0000 0.50911  0.68629  0.81465  Biso   1.000  C
  N59      1.0000 0.89699  0.89790  0.71312  Biso   1.000  N
  C404     1.0000 0.99699  0.78986  0.71386  Biso   1.000  C
  N60      1.0000 0.89691  0.89790  0.71312  Biso   1.000  N
  C405     1.0000 0.99685  0.78986  0.71386  Biso   1.000  C
  C406     1.0000 0.79295  0.00310  0.71386  Biso   1.000  C
  C407     1.0000 0.79302  0.00310  0.71386  Biso   1.000  C
  C408     1.0000 0.62891  0.63886  0.82950  Biso   1.000  C
  H217     1.0000 0.70883  0.56327  0.81853  Biso   1.000  H
  H218     1.0000 0.70876  0.56327  0.81853  Biso   1.000  H
  C409     1.0000 0.62883  0.63886  0.82950  Biso   1.000  C
  C410     1.0000 0.20706  0.21014  0.78614  Biso   1.000  C
  H219     1.0000 0.31824  0.14695  0.78714  Biso   1.000  H
  H220     1.0000 0.31816  0.14695  0.78714  Biso   1.000  H
  C411     1.0000 0.20714  0.21014  0.78614  Biso   1.000  C
  H221     1.0000 0.13349  0.30992  0.78503  Biso   1.000  H
  H222     1.0000 0.13353  0.31000  0.78503  Biso   1.000  H
  H223     1.0000 0.13346  0.31000  0.78503  Biso   1.000  H
  H224     1.0000 0.46149  0.71944  0.81354  Biso   1.000  H
  C412     1.0000 0.55573  0.68337  0.82817  Biso   1.000  C
  C413     1.0000 0.55566  0.68337  0.82817  Biso   1.000  C
  H225     1.0000 0.46141  0.71944  0.81354  Biso   1.000  H
  C414     1.0000 0.89359  0.68862  0.71490  Biso   1.000  C
  C415     1.0000 0.89363  0.68871  0.71490  Biso   1.000  C
  C416     1.0000 0.09849  0.78469  0.71360  Biso   1.000  C
  C417     1.0000 0.68612  0.90143  0.71360  Biso   1.000  C
  C418     1.0000 0.68609  0.90152  0.71360  Biso   1.000  C
  C419     1.0000 0.68605  0.90143  0.71360  Biso   1.000  C
  C420     1.0000 0.79502  0.10640  0.71490  Biso   1.000  C
  C421     1.0000 0.79509  0.10640  0.71490  Biso   1.000  C
  Cl50     1.0000 0.68884  0.63869  0.84608  Biso   1.000  Cl
  Cl51     1.0000 0.68876  0.63869  0.84608  Biso   1.000  Cl
  C422     1.0000 0.09719  0.09805  0.78689  Biso   1.000  C
  Cl52     1.0000 0.51774  0.73623  0.84301  Biso   1.000  Cl
  Cl53     1.0000 0.51767  0.73623  0.84301  Biso   1.000  Cl
  C423     1.0000 0.89182  0.58488  0.71583  Biso   1.000  C
  H226     1.0000 0.82364  0.69008  0.71497  Biso   1.000  H
  H227     1.0000 0.82357  0.69008  0.71497  Biso   1.000  H
  C424     1.0000 0.09130  0.67846  0.71441  Biso   1.000  C
  H228     1.0000 0.17114  0.85305  0.71286  Biso   1.000  H
  H229     1.0000 0.17129  0.85305  0.71286  Biso   1.000  H
  H230     1.0000 0.68185  0.82877  0.71286  Biso   1.000  H
  C425     1.0000 0.58715  0.90866  0.71441  Biso   1.000  C
  C426     1.0000 0.58707  0.90866  0.71441  Biso   1.000  C
  C427     1.0000 0.69300  0.10813  0.71583  Biso   1.000  C
  H231     1.0000 0.86652  0.17648  0.71497  Biso   1.000  H
  C428     1.0000 0.69304  0.10821  0.71583  Biso   1.000  C
  H232     1.0000 0.86659  0.17648  0.71497  Biso   1.000  H
  C429     1.0000 0.69311  0.10821  0.71583  Biso   1.000  C
  N61      1.0000 0.10314  0.00095  0.78688  Biso   1.000  N
  N62      1.0000 0.10306  0.00095  0.78688  Biso   1.000  N
  N63      1.0000 0.99909  0.10210  0.78688  Biso   1.000  N
  N64      1.0000 0.99913  0.10219  0.78688  Biso   1.000  N
  N65      1.0000 0.98977  0.58023  0.71549  Biso   1.000  N
  H233     1.0000 0.82019  0.51558  0.71677  Biso   1.000  H
  N66      1.0000 0.98982  0.58032  0.71549  Biso   1.000  N
  H234     1.0000 0.16016  0.67467  0.71417  Biso   1.000  H
  H235     1.0000 0.16031  0.67467  0.71417  Biso   1.000  H
  H236     1.0000 0.51447  0.83979  0.71417  Biso   1.000  H
  H237     1.0000 0.51439  0.83979  0.71417  Biso   1.000  H
  N67      1.0000 0.59052  0.01024  0.71549  Biso   1.000  N
  N68      1.0000 0.59057  0.01033  0.71549  Biso   1.000  N
  H238     1.0000 0.69538  0.17984  0.71677  Biso   1.000  H
  H239     1.0000 0.69549  0.17992  0.71677  Biso   1.000  H
  H240     1.0000 0.69545  0.17984  0.71677  Biso   1.000  H
  C430     1.0000 0.00076  0.90281  0.78689  Biso   1.000  C
  C431     1.0000 0.00088  0.90289  0.78689  Biso   1.000  C
  C432     1.0000 0.00083  0.90281  0.78689  Biso   1.000  C
  C433     1.0000 0.90205  0.99914  0.78689  Biso   1.000  C
  C434     1.0000 0.90190  0.99914  0.78689  Biso   1.000  C
  B28      1.0000 0.98073  0.45076  0.71773  Biso   1.000  B
  B29      1.0000 0.98065  0.45076  0.71773  Biso   1.000  B
  B30      1.0000 0.47013  0.01937  0.71773  Biso   1.000  B
  B31      1.0000 0.47021  0.01937  0.71773  Biso   1.000  B
  N69      1.0000 0.89793  0.89695  0.78688  Biso   1.000  N
  C435     1.0000 0.00302  0.79296  0.78614  Biso   1.000  C
  C436     1.0000 0.00317  0.79296  0.78614  Biso   1.000  C
  C437     1.0000 0.78992  0.99690  0.78614  Biso   1.000  C
  C438     1.0000 0.78982  0.99699  0.78614  Biso   1.000  C
  C439     1.0000 0.78977  0.99690  0.78614  Biso   1.000  C
  C440     1.0000 0.78996  0.99699  0.78614  Biso   1.000  C
  C441     1.0000 0.99112  0.43784  0.73463  Biso   1.000  C
  O58      1.0000 0.86901  0.36958  0.71100  Biso   1.000  O
  O59      1.0000 0.07126  0.45334  0.70841  Biso   1.000  O
  O60      1.0000 0.07134  0.45334  0.70841  Biso   1.000  O
  O61      1.0000 0.38197  0.92863  0.70841  Biso   1.000  O
  O62      1.0000 0.38201  0.92872  0.70841  Biso   1.000  O
  C442     1.0000 0.44669  0.00887  0.73463  Biso   1.000  C
  O63      1.0000 0.50050  0.13094  0.71100  Biso   1.000  O
  C443     1.0000 0.44677  0.00887  0.73463  Biso   1.000  C
  O64      1.0000 0.50061  0.13103  0.71100  Biso   1.000  O
  C444     1.0000 0.90144  0.68612  0.78640  Biso   1.000  C
  C445     1.0000 0.10626  0.79502  0.78510  Biso   1.000  C
  C446     1.0000 0.10634  0.79502  0.78510  Biso   1.000  C
  C447     1.0000 0.68869  0.89360  0.78510  Biso   1.000  C
  C448     1.0000 0.68873  0.89368  0.78510  Biso   1.000  C
  C449     1.0000 0.78469  0.09857  0.78640  Biso   1.000  C
  C450     1.0000 0.89347  0.38688  0.74324  Biso   1.000  C
  C451     1.0000 0.09789  0.48915  0.74152  Biso   1.000  C
  C452     1.0000 0.89682  0.36123  0.69690  Biso   1.000  C
  C453     1.0000 0.89672  0.36131  0.69690  Biso   1.000  C
  C454     1.0000 0.89667  0.36123  0.69690  Biso   1.000  C
  C455     1.0000 0.01642  0.40866  0.69554  Biso   1.000  C
  C456     1.0000 0.39229  0.98356  0.69554  Biso   1.000  C
  C457     1.0000 0.39214  0.98356  0.69554  Biso   1.000  C
  C458     1.0000 0.39126  0.90203  0.74152  Biso   1.000  C
  C459     1.0000 0.39130  0.90212  0.74152  Biso   1.000  C
  C460     1.0000 0.49346  0.10658  0.74324  Biso   1.000  C
  C461     1.0000 0.46454  0.10331  0.69690  Biso   1.000  C
  C462     1.0000 0.46461  0.10331  0.69690  Biso   1.000  C
  C463     1.0000 0.90867  0.58712  0.78559  Biso   1.000  C
  H241     1.0000 0.82876  0.68182  0.78714  Biso   1.000  H
  H242     1.0000 0.82868  0.68182  0.78714  Biso   1.000  H
  C464     1.0000 0.10819  0.69301  0.78417  Biso   1.000  C
  H243     1.0000 0.17640  0.86656  0.78503  Biso   1.000  H
  H244     1.0000 0.17655  0.86656  0.78503  Biso   1.000  H
  C465     1.0000 0.58487  0.89187  0.78417  Biso   1.000  C
  H245     1.0000 0.69003  0.82352  0.78503  Biso   1.000  H
  H246     1.0000 0.85308  0.17123  0.78714  Biso   1.000  H
  C466     1.0000 0.67849  0.09134  0.78559  Biso   1.000  C
  H247     1.0000 0.81962  0.34848  0.73886  Biso   1.000  H
  C467     1.0000 0.90203  0.39118  0.75848  Biso   1.000  C
  C468     1.0000 0.90208  0.39127  0.75848  Biso   1.000  C
  C469     1.0000 0.90196  0.39118  0.75848  Biso   1.000  C
  H248     1.0000 0.16611  0.52195  0.73586  Biso   1.000  H
  C470     1.0000 0.10660  0.49346  0.75676  Biso   1.000  C
  C471     1.0000 0.82293  0.31379  0.68535  Biso   1.000  C
  C472     1.0000 0.82278  0.31379  0.68535  Biso   1.000  C
  C473     1.0000 0.06506  0.40754  0.68238  Biso   1.000  C
  C474     1.0000 0.06521  0.40754  0.68238  Biso   1.000  C
  C475     1.0000 0.34242  0.93483  0.68238  Biso   1.000  C
  C476     1.0000 0.34247  0.93492  0.68238  Biso   1.000  C
  H249     1.0000 0.35583  0.83385  0.73586  Biso   1.000  H
  C477     1.0000 0.38696  0.89342  0.75676  Biso   1.000  C
  H250     1.0000 0.35575  0.83385  0.73586  Biso   1.000  H
  C478     1.0000 0.38681  0.89342  0.75676  Biso   1.000  C
  C479     1.0000 0.48915  0.09797  0.75848  Biso   1.000  C
  H251     1.0000 0.52878  0.18035  0.73886  Biso   1.000  H
  C480     1.0000 0.48923  0.09797  0.75848  Biso   1.000  C
  H252     1.0000 0.52886  0.18035  0.73886  Biso   1.000  H
  C481     1.0000 0.49096  0.17717  0.68535  Biso   1.000  C
  H253     1.0000 0.83976  0.51446  0.78583  Biso   1.000  H
  N70      1.0000 0.01030  0.59056  0.78451  Biso   1.000  N
  N71      1.0000 0.01037  0.59056  0.78451  Biso   1.000  N
  H254     1.0000 0.17985  0.69542  0.78323  Biso   1.000  H
  N72      1.0000 0.58028  0.98976  0.78451  Biso   1.000  N
  H255     1.0000 0.51554  0.82016  0.78323  Biso   1.000  H
  H256     1.0000 0.67468  0.16021  0.78583  Biso   1.000  H
  H257     1.0000 0.67472  0.16030  0.78583  Biso   1.000  H
  C482     1.0000 0.00883  0.44671  0.76537  Biso   1.000  C
  H258     1.0000 0.83387  0.35580  0.76414  Biso   1.000  H
  H259     1.0000 0.83379  0.35580  0.76414  Biso   1.000  H
  H260     1.0000 0.18036  0.52884  0.76114  Biso   1.000  H
  H261     1.0000 0.18043  0.52884  0.76114  Biso   1.000  H
  H262     1.0000 0.74205  0.28056  0.68646  Biso   1.000  H
  C483     1.0000 0.87229  0.31663  0.67183  Biso   1.000  C
  H263     1.0000 0.14549  0.43673  0.68147  Biso   1.000  H
  C484     1.0000 0.99012  0.36114  0.67050  Biso   1.000  C
  C485     1.0000 0.99005  0.36114  0.67050  Biso   1.000  C
  H264     1.0000 0.14553  0.43681  0.68147  Biso   1.000  H
  H265     1.0000 0.29126  0.85442  0.68147  Biso   1.000  H
  H266     1.0000 0.29123  0.85451  0.68147  Biso   1.000  H
  H267     1.0000 0.29119  0.85442  0.68147  Biso   1.000  H
  H268     1.0000 0.29131  0.85451  0.68147  Biso   1.000  H
  C486     1.0000 0.37113  0.00999  0.67050  Biso   1.000  C
  C487     1.0000 0.37120  0.00999  0.67050  Biso   1.000  C
  C488     1.0000 0.43782  0.99113  0.76537  Biso   1.000  C
  H269     1.0000 0.34850  0.81965  0.76114  Biso   1.000  H
  H270     1.0000 0.52198  0.16615  0.76414  Biso   1.000  H
  C489     1.0000 0.44429  0.12767  0.67183  Biso   1.000  C
  H271     1.0000 0.53853  0.25801  0.68646  Biso   1.000  H
  C490     1.0000 0.44436  0.12767  0.67183  Biso   1.000  C
  H272     1.0000 0.53861  0.25801  0.68646  Biso   1.000  H
  B32      1.0000 0.01927  0.47013  0.78227  Biso   1.000  B
  B33      1.0000 0.01934  0.47013  0.78227  Biso   1.000  B
  B34      1.0000 0.45076  0.98063  0.78227  Biso   1.000  B
  Cl54     1.0000 0.78152  0.26377  0.65699  Biso   1.000  Cl
  Cl55     1.0000 0.78149  0.26386  0.65699  Biso   1.000  Cl
  Cl56     1.0000 0.78144  0.26377  0.65699  Biso   1.000  Cl
  Cl57     1.0000 0.05007  0.36131  0.65392  Biso   1.000  Cl
  Cl58     1.0000 0.31126  0.94990  0.65392  Biso   1.000  Cl
  Cl59     1.0000 0.48232  0.21849  0.65699  Biso   1.000  Cl
  O65      1.0000 0.92871  0.38206  0.79159  Biso   1.000  O
  O66      1.0000 0.13093  0.50052  0.78900  Biso   1.000  O
  O67      1.0000 0.36963  0.86906  0.78900  Biso   1.000  O
  O68      1.0000 0.36948  0.86906  0.78900  Biso   1.000  O
  O69      1.0000 0.45334  0.07137  0.79159  Biso   1.000  O
  O70      1.0000 0.45341  0.07137  0.79159  Biso   1.000  O
  C491     1.0000 0.98367  0.39222  0.80446  Biso   1.000  C
  C492     1.0000 0.98359  0.39222  0.80446  Biso   1.000  C
  C493     1.0000 0.10325  0.46453  0.80310  Biso   1.000  C
  C494     1.0000 0.36123  0.89669  0.80310  Biso   1.000  C
  C495     1.0000 0.36127  0.89678  0.80310  Biso   1.000  C
  C496     1.0000 0.40865  0.01644  0.80446  Biso   1.000  C
  C497     1.0000 0.40873  0.01644  0.80446  Biso   1.000  C
  C498     1.0000 0.93493  0.34246  0.81762  Biso   1.000  C
  C499     1.0000 0.17715  0.49096  0.81465  Biso   1.000  C
  C500     1.0000 0.31386  0.82283  0.81465  Biso   1.000  C
  C501     1.0000 0.31371  0.82283  0.81465  Biso   1.000  C
  C502     1.0000 0.40759  0.06517  0.81762  Biso   1.000  C
  C503     1.0000 0.00995  0.37113  0.82950  Biso   1.000  C
  H273     1.0000 0.85445  0.29124  0.81853  Biso   1.000  H
  C504     1.0000 0.12765  0.44430  0.82817  Biso   1.000  C
  H274     1.0000 0.25787  0.53848  0.81354  Biso   1.000  H
  H275     1.0000 0.25791  0.53857  0.81354  Biso   1.000  H
  H276     1.0000 0.25806  0.53857  0.81354  Biso   1.000  H
  H277     1.0000 0.28052  0.74199  0.81354  Biso   1.000  H
  H278     1.0000 0.28057  0.74208  0.81354  Biso   1.000  H
  C505     1.0000 0.31669  0.87233  0.82817  Biso   1.000  C
  C506     1.0000 0.36114  0.99001  0.82950  Biso   1.000  C
  H279     1.0000 0.43676  0.14558  0.81853  Biso   1.000  H
  H280     1.0000 0.43684  0.14558  0.81853  Biso   1.000  H
  Cl60     1.0000 0.94987  0.31121  0.84608  Biso   1.000  Cl
  Cl61     1.0000 0.94980  0.31121  0.84608  Biso   1.000  Cl
  Cl62     1.0000 0.21843  0.48227  0.84301  Biso   1.000  Cl
  Cl63     1.0000 0.21847  0.48235  0.84301  Biso   1.000  Cl
  Cl64     1.0000 0.26383  0.78151  0.84301  Biso   1.000  Cl
  Cl65     1.0000 0.36129  0.05010  0.84608  Biso   1.000  Cl
  Cl66     1.0000 0.36137  0.05010  0.84608  Biso   1.000  Cl
  C507     1.0000 0.63882  0.62887  0.67050  Biso   1.000  C
  C508     1.0000 0.68335  0.55570  0.67183  Biso   1.000  C
  Cl67     1.0000 0.63866  0.68879  0.65392  Biso   1.000  Cl
  C509     1.0000 0.59240  0.65754  0.68238  Biso   1.000  C
  C510     1.0000 0.59251  0.65763  0.68238  Biso   1.000  C
  Cl68     1.0000 0.63874  0.68879  0.65392  Biso   1.000  Cl
  C511     1.0000 0.59247  0.65754  0.68238  Biso   1.000  C
  C512     1.0000 0.59244  0.65763  0.68238  Biso   1.000  C
  Cl69     1.0000 0.73624  0.51773  0.65699  Biso   1.000  Cl
  C513     1.0000 0.68626  0.50904  0.68535  Biso   1.000  C
  C514     1.0000 0.63890  0.62887  0.67050  Biso   1.000  C
  C515     1.0000 0.68631  0.50913  0.68535  Biso   1.000  C
  C516     1.0000 0.68623  0.50913  0.68535  Biso   1.000  C
  Cl70     1.0000 0.73617  0.51773  0.65699  Biso   1.000  Cl
  C517     1.0000 0.59137  0.60778  0.69554  Biso   1.000  C
  H281     1.0000 0.56321  0.70876  0.68147  Biso   1.000  H
  H282     1.0000 0.56328  0.70876  0.68147  Biso   1.000  H
  C518     1.0000 0.59130  0.60778  0.69554  Biso   1.000  C
  H283     1.0000 0.71946  0.46152  0.68646  Biso   1.000  H
  C519     1.0000 0.63872  0.53547  0.69690  Biso   1.000  C
  C520     1.0000 0.63879  0.53547  0.69690  Biso   1.000  C
  O71      1.0000 0.54665  0.61794  0.70841  Biso   1.000  O
  O72      1.0000 0.54669  0.61803  0.70841  Biso   1.000  O
  O73      1.0000 0.54662  0.61803  0.70841  Biso   1.000  O
  O74      1.0000 0.63042  0.49948  0.71100  Biso   1.000  O
  O75      1.0000 0.63049  0.49948  0.71100  Biso   1.000  O
  B35      1.0000 0.54921  0.52987  0.71773  Biso   1.000  B
  B36      1.0000 0.54929  0.52987  0.71773  Biso   1.000  B
  C521     1.0000 0.56211  0.55329  0.73463  Biso   1.000  C
  N73      1.0000 0.41973  0.40944  0.71549  Biso   1.000  N
  C522     1.0000 0.56219  0.55329  0.73463  Biso   1.000  C
  N74      1.0000 0.41978  0.40952  0.71549  Biso   1.000  N
  C523     1.0000 0.51085  0.60882  0.74152  Biso   1.000  C
  C524     1.0000 0.61315  0.50654  0.74324  Biso   1.000  C
  C525     1.0000 0.51092  0.60882  0.74152  Biso   1.000  C
  C526     1.0000 0.61319  0.50663  0.74324  Biso   1.000  C
  C527     1.0000 0.61311  0.50663  0.74324  Biso   1.000  C
  C528     1.0000 0.32155  0.41288  0.71441  Biso   1.000  C
  C529     1.0000 0.41518  0.30699  0.71583  Biso   1.000  C
  C530     1.0000 0.41511  0.30699  0.71583  Biso   1.000  C
  H284     1.0000 0.47807  0.64420  0.73586  Biso   1.000  H
  C531     1.0000 0.50659  0.61312  0.75676  Biso   1.000  C
  C532     1.0000 0.50663  0.61321  0.75676  Biso   1.000  C
  H285     1.0000 0.47799  0.64420  0.73586  Biso   1.000  H
  C533     1.0000 0.50656  0.61321  0.75676  Biso   1.000  C
  C534     1.0000 0.60881  0.51085  0.75848  Biso   1.000  C
  H286     1.0000 0.65152  0.47116  0.73886  Biso   1.000  H
  H287     1.0000 0.65159  0.47116  0.73886  Biso   1.000  H
  C535     1.0000 0.60874  0.51085  0.75848  Biso   1.000  C
  C536     1.0000 0.21531  0.31388  0.71360  Biso   1.000  C
  H288     1.0000 0.32530  0.48554  0.71417  Biso   1.000  H
  C537     1.0000 0.21539  0.31388  0.71360  Biso   1.000  C
  H289     1.0000 0.32542  0.48562  0.71417  Biso   1.000  H
  H290     1.0000 0.32538  0.48554  0.71417  Biso   1.000  H
  H291     1.0000 0.32534  0.48562  0.71417  Biso   1.000  H
  H292     1.0000 0.48443  0.30458  0.71677  Biso   1.000  H
  C538     1.0000 0.31132  0.20498  0.71490  Biso   1.000  C
  H293     1.0000 0.48450  0.30458  0.71677  Biso   1.000  H
  C539     1.0000 0.31139  0.20498  0.71490  Biso   1.000  C
  C540     1.0000 0.55328  0.56216  0.76537  Biso   1.000  C
  H294     1.0000 0.47114  0.65152  0.76114  Biso   1.000  H
  H295     1.0000 0.47126  0.65160  0.76114  Biso   1.000  H
  H296     1.0000 0.47121  0.65152  0.76114  Biso   1.000  H
  H297     1.0000 0.47118  0.65160  0.76114  Biso   1.000  H
  H298     1.0000 0.64415  0.47805  0.76414  Biso   1.000  H
  H299     1.0000 0.64423  0.47805  0.76414  Biso   1.000  H
  H300     1.0000 0.14694  0.31818  0.71286  Biso   1.000  H
  C541     1.0000 0.21013  0.20704  0.71386  Biso   1.000  C
  C542     1.0000 0.21018  0.20713  0.71386  Biso   1.000  C
  H301     1.0000 0.30992  0.13344  0.71497  Biso   1.000  H
  H302     1.0000 0.30996  0.13352  0.71497  Biso   1.000  H
  B37      1.0000 0.52990  0.54924  0.78227  Biso   1.000  B
  B38      1.0000 0.52982  0.54924  0.78227  Biso   1.000  B
  C543     1.0000 0.09803  0.09719  0.71311  Biso   1.000  C
  C544     1.0000 0.09810  0.09719  0.71311  Biso   1.000  C
  O76      1.0000 0.61800  0.54666  0.79159  Biso   1.000  O
  O77      1.0000 0.49944  0.63042  0.78900  Biso   1.000  O
  N75      1.0000 0.40947  0.41977  0.78451  Biso   1.000  N
  O78      1.0000 0.49955  0.63051  0.78900  Biso   1.000  O
  N76      1.0000 0.40954  0.41977  0.78451  Biso   1.000  N
  O79      1.0000 0.49951  0.63042  0.78900  Biso   1.000  O
  O80      1.0000 0.49948  0.63051  0.78900  Biso   1.000  O
  N77      1.0000 0.10204  0.99905  0.71312  Biso   1.000  N
  N78      1.0000 0.10219  0.99905  0.71312  Biso   1.000  N
  N79      1.0000 0.00090  0.10305  0.71312  Biso   1.000  N
  N80      1.0000 0.00102  0.10313  0.71312  Biso   1.000  N
  N81      1.0000 0.00098  0.10305  0.71312  Biso   1.000  N
  N82      1.0000 0.00094  0.10313  0.71312  Biso   1.000  N
  C545     1.0000 0.60776  0.59134  0.80446  Biso   1.000  C
  C546     1.0000 0.60783  0.59134  0.80446  Biso   1.000  C
  C547     1.0000 0.53552  0.63877  0.80310  Biso   1.000  C
  C548     1.0000 0.53545  0.63877  0.80310  Biso   1.000  C
  C549     1.0000 0.41284  0.32154  0.78559  Biso   1.000  C
  C550     1.0000 0.30694  0.41512  0.78417  Biso   1.000  C
  C551     1.0000 0.41291  0.32154  0.78559  Biso   1.000  C
  C552     1.0000 0.30706  0.41520  0.78417  Biso   1.000  C
  C553     1.0000 0.30701  0.41512  0.78417  Biso   1.000  C
  C554     1.0000 0.30698  0.41520  0.78417  Biso   1.000  C
  C555     1.0000 0.99914  0.90195  0.71311  Biso   1.000  C
  C556     1.0000 0.99906  0.90195  0.71311  Biso   1.000  C
  C557     1.0000 0.90284  0.00086  0.71311  Biso   1.000  C
  C558     1.0000 0.90291  0.00086  0.71311  Biso   1.000  C
  C559     1.0000 0.65760  0.59246  0.81762  Biso   1.000  C
  C560     1.0000 0.50906  0.68621  0.81465  Biso   1.000  C
  C561     1.0000 0.50911  0.68629  0.81465  Biso   1.000  C
  H303     1.0000 0.48556  0.32533  0.78583  Biso   1.000  H
  C562     1.0000 0.31387  0.21531  0.78640  Biso   1.000  C
  C563     1.0000 0.31391  0.21539  0.78640  Biso   1.000  C
  H304     1.0000 0.48563  0.32533  0.78583  Biso   1.000  H
  C564     1.0000 0.31384  0.21539  0.78640  Biso   1.000  C
  H305     1.0000 0.30454  0.48442  0.78323  Biso   1.000  H
  C565     1.0000 0.20497  0.31138  0.78510  Biso   1.000  C
  H306     1.0000 0.30465  0.48450  0.78323  Biso   1.000  H
  C566     1.0000 0.20505  0.31138  0.78510  Biso   1.000  C
  H307     1.0000 0.30461  0.48442  0.78323  Biso   1.000  H
  H308     1.0000 0.30458  0.48450  0.78323  Biso   1.000  H
  N83      1.0000 0.89699  0.89790  0.71312  Biso   1.000  N
  C567     1.0000 0.99699  0.78986  0.71386  Biso   1.000  C
  N84      1.0000 0.89691  0.89790  0.71312  Biso   1.000  N
  C568     1.0000 0.99685  0.78986  0.71386  Biso   1.000  C
  C569     1.0000 0.79295  0.00310  0.71386  Biso   1.000  C
  C570     1.0000 0.79302  0.00310  0.71386  Biso   1.000  C
  C571     1.0000 0.62891  0.63886  0.82950  Biso   1.000  C
  H309     1.0000 0.70876  0.56327  0.81853  Biso   1.000  H
  H310     1.0000 0.70883  0.56327  0.81853  Biso   1.000  H
  C572     1.0000 0.62883  0.63886  0.82950  Biso   1.000  C
  H311     1.0000 0.46149  0.71944  0.81354  Biso   1.000  H
  C573     1.0000 0.55566  0.68337  0.82817  Biso   1.000  C
  C574     1.0000 0.55573  0.68337  0.82817  Biso   1.000  C
  H312     1.0000 0.46141  0.71944  0.81354  Biso   1.000  H
  C575     1.0000 0.20706  0.21014  0.78614  Biso   1.000  C
  H313     1.0000 0.31816  0.14695  0.78714  Biso   1.000  H
  C576     1.0000 0.20714  0.21014  0.78614  Biso   1.000  C
  H314     1.0000 0.31824  0.14695  0.78714  Biso   1.000  H
  H315     1.0000 0.13349  0.30992  0.78503  Biso   1.000  H
  H316     1.0000 0.13353  0.31000  0.78503  Biso   1.000  H
  H317     1.0000 0.13346  0.31000  0.78503  Biso   1.000  H
  C577     1.0000 0.89359  0.68862  0.71490  Biso   1.000  C
  C578     1.0000 0.89363  0.68871  0.71490  Biso   1.000  C
  C579     1.0000 0.09849  0.78469  0.71360  Biso   1.000  C
  C580     1.0000 0.68612  0.90143  0.71360  Biso   1.000  C
  C581     1.0000 0.68609  0.90152  0.71360  Biso   1.000  C
  C582     1.0000 0.68605  0.90143  0.71360  Biso   1.000  C
  C583     1.0000 0.79502  0.10640  0.71490  Biso   1.000  C
  C584     1.0000 0.79509  0.10640  0.71490  Biso   1.000  C
  Cl71     1.0000 0.68876  0.63869  0.84608  Biso   1.000  Cl
  Cl72     1.0000 0.68884  0.63869  0.84608  Biso   1.000  Cl
  Cl73     1.0000 0.51774  0.73623  0.84301  Biso   1.000  Cl
  Cl74     1.0000 0.51767  0.73623  0.84301  Biso   1.000  Cl
  C585     1.0000 0.09719  0.09805  0.78689  Biso   1.000  C
  C586     1.0000 0.89182  0.58488  0.71583  Biso   1.000  C
  H318     1.0000 0.82364  0.69008  0.71497  Biso   1.000  H
  H319     1.0000 0.82357  0.69008  0.71497  Biso   1.000  H
  C587     1.0000 0.09130  0.67846  0.71441  Biso   1.000  C
  H320     1.0000 0.17114  0.85305  0.71286  Biso   1.000  H
  H321     1.0000 0.17129  0.85305  0.71286  Biso   1.000  H
  H322     1.0000 0.68185  0.82877  0.71286  Biso   1.000  H
  C588     1.0000 0.58715  0.90866  0.71441  Biso   1.000  C
  C589     1.0000 0.58707  0.90866  0.71441  Biso   1.000  C
  C590     1.0000 0.69300  0.10813  0.71583  Biso   1.000  C
  H323     1.0000 0.86652  0.17648  0.71497  Biso   1.000  H
  C591     1.0000 0.69304  0.10821  0.71583  Biso   1.000  C
  H324     1.0000 0.86659  0.17648  0.71497  Biso   1.000  H
  C592     1.0000 0.69311  0.10821  0.71583  Biso   1.000  C
  N85      1.0000 0.99909  0.10210  0.78688  Biso   1.000  N
  N86      1.0000 0.99913  0.10219  0.78688  Biso   1.000  N
  N87      1.0000 0.10306  0.00095  0.78688  Biso   1.000  N
  N88      1.0000 0.10314  0.00095  0.78688  Biso   1.000  N
  N89      1.0000 0.98977  0.58023  0.71549  Biso   1.000  N
  H325     1.0000 0.82019  0.51558  0.71677  Biso   1.000  H
  N90      1.0000 0.98982  0.58032  0.71549  Biso   1.000  N
  H326     1.0000 0.16016  0.67467  0.71417  Biso   1.000  H
  H327     1.0000 0.16031  0.67467  0.71417  Biso   1.000  H
  H328     1.0000 0.51447  0.83979  0.71417  Biso   1.000  H
  H329     1.0000 0.51439  0.83979  0.71417  Biso   1.000  H
  N91      1.0000 0.59052  0.01024  0.71549  Biso   1.000  N
  N92      1.0000 0.59057  0.01033  0.71549  Biso   1.000  N
  H330     1.0000 0.69538  0.17984  0.71677  Biso   1.000  H
  H331     1.0000 0.69549  0.17992  0.71677  Biso   1.000  H
  H332     1.0000 0.69545  0.17984  0.71677  Biso   1.000  H
  C593     1.0000 0.90205  0.99914  0.78689  Biso   1.000  C
  C594     1.0000 0.90190  0.99914  0.78689  Biso   1.000  C
  C595     1.0000 0.00076  0.90281  0.78689  Biso   1.000  C
  C596     1.0000 0.00088  0.90289  0.78689  Biso   1.000  C
  C597     1.0000 0.00083  0.90281  0.78689  Biso   1.000  C
  B39      1.0000 0.98073  0.45076  0.71773  Biso   1.000  B
  B40      1.0000 0.98065  0.45076  0.71773  Biso   1.000  B
  B41      1.0000 0.47013  0.01937  0.71773  Biso   1.000  B
  B42      1.0000 0.47021  0.01937  0.71773  Biso   1.000  B
  N93      1.0000 0.89793  0.89695  0.78688  Biso   1.000  N
  C598     1.0000 0.78992  0.99690  0.78614  Biso   1.000  C
  C599     1.0000 0.78982  0.99699  0.78614  Biso   1.000  C
  C600     1.0000 0.78977  0.99690  0.78614  Biso   1.000  C
  C601     1.0000 0.78996  0.99699  0.78614  Biso   1.000  C
  C602     1.0000 0.00302  0.79296  0.78614  Biso   1.000  C
  C603     1.0000 0.00317  0.79296  0.78614  Biso   1.000  C
  C604     1.0000 0.99112  0.43784  0.73463  Biso   1.000  C
  O81      1.0000 0.86901  0.36958  0.71100  Biso   1.000  O
  O82      1.0000 0.07126  0.45334  0.70841  Biso   1.000  O
  O83      1.0000 0.07134  0.45334  0.70841  Biso   1.000  O
  O84      1.0000 0.38197  0.92863  0.70841  Biso   1.000  O
  O85      1.0000 0.38201  0.92872  0.70841  Biso   1.000  O
  C605     1.0000 0.44669  0.00887  0.73463  Biso   1.000  C
  O86      1.0000 0.50050  0.13094  0.71100  Biso   1.000  O
  C606     1.0000 0.44677  0.00887  0.73463  Biso   1.000  C
  O87      1.0000 0.50061  0.13103  0.71100  Biso   1.000  O
  C607     1.0000 0.68869  0.89360  0.78510  Biso   1.000  C
  C608     1.0000 0.68873  0.89368  0.78510  Biso   1.000  C
  C609     1.0000 0.78469  0.09857  0.78640  Biso   1.000  C
  C610     1.0000 0.90144  0.68612  0.78640  Biso   1.000  C
  C611     1.0000 0.10626  0.79502  0.78510  Biso   1.000  C
  C612     1.0000 0.10634  0.79502  0.78510  Biso   1.000  C
  C613     1.0000 0.89347  0.38688  0.74324  Biso   1.000  C
  C614     1.0000 0.09789  0.48915  0.74152  Biso   1.000  C
  C615     1.0000 0.89682  0.36123  0.69690  Biso   1.000  C
  C616     1.0000 0.89672  0.36131  0.69690  Biso   1.000  C
  C617     1.0000 0.89667  0.36123  0.69690  Biso   1.000  C
  C618     1.0000 0.01642  0.40866  0.69554  Biso   1.000  C
  C619     1.0000 0.39229  0.98356  0.69554  Biso   1.000  C
  C620     1.0000 0.39214  0.98356  0.69554  Biso   1.000  C
  C621     1.0000 0.39126  0.90203  0.74152  Biso   1.000  C
  C622     1.0000 0.39130  0.90212  0.74152  Biso   1.000  C
  C623     1.0000 0.49346  0.10658  0.74324  Biso   1.000  C
  C624     1.0000 0.46454  0.10331  0.69690  Biso   1.000  C
  C625     1.0000 0.46461  0.10331  0.69690  Biso   1.000  C
  C626     1.0000 0.58487  0.89187  0.78417  Biso   1.000  C
  H333     1.0000 0.69003  0.82352  0.78503  Biso   1.000  H
  H334     1.0000 0.85308  0.17123  0.78714  Biso   1.000  H
  C627     1.0000 0.67849  0.09134  0.78559  Biso   1.000  C
  C628     1.0000 0.90867  0.58712  0.78559  Biso   1.000  C
  H335     1.0000 0.82876  0.68182  0.78714  Biso   1.000  H
  H336     1.0000 0.82868  0.68182  0.78714  Biso   1.000  H
  C629     1.0000 0.10819  0.69301  0.78417  Biso   1.000  C
  H337     1.0000 0.17640  0.86656  0.78503  Biso   1.000  H
  H338     1.0000 0.17655  0.86656  0.78503  Biso   1.000  H
  H339     1.0000 0.81962  0.34848  0.73886  Biso   1.000  H
  C630     1.0000 0.90203  0.39118  0.75848  Biso   1.000  C
  C631     1.0000 0.90208  0.39127  0.75848  Biso   1.000  C
  C632     1.0000 0.90196  0.39118  0.75848  Biso   1.000  C
  H340     1.0000 0.16611  0.52195  0.73586  Biso   1.000  H
  C633     1.0000 0.10660  0.49346  0.75676  Biso   1.000  C
  C634     1.0000 0.82293  0.31379  0.68535  Biso   1.000  C
  C635     1.0000 0.82278  0.31379  0.68535  Biso   1.000  C
  C636     1.0000 0.06506  0.40754  0.68238  Biso   1.000  C
  C637     1.0000 0.06521  0.40754  0.68238  Biso   1.000  C
  C638     1.0000 0.34242  0.93483  0.68238  Biso   1.000  C
  C639     1.0000 0.34247  0.93492  0.68238  Biso   1.000  C
  H341     1.0000 0.35583  0.83385  0.73586  Biso   1.000  H
  C640     1.0000 0.38696  0.89342  0.75676  Biso   1.000  C
  H342     1.0000 0.35575  0.83385  0.73586  Biso   1.000  H
  C641     1.0000 0.38681  0.89342  0.75676  Biso   1.000  C
  C642     1.0000 0.48915  0.09797  0.75848  Biso   1.000  C
  H343     1.0000 0.52878  0.18035  0.73886  Biso   1.000  H
  C643     1.0000 0.48923  0.09797  0.75848  Biso   1.000  C
  H344     1.0000 0.52886  0.18035  0.73886  Biso   1.000  H
  C644     1.0000 0.49096  0.17717  0.68535  Biso   1.000  C
  N94      1.0000 0.58028  0.98976  0.78451  Biso   1.000  N
  H345     1.0000 0.51554  0.82016  0.78323  Biso   1.000  H
  H346     1.0000 0.67468  0.16021  0.78583  Biso   1.000  H
  H347     1.0000 0.67472  0.16030  0.78583  Biso   1.000  H
  H348     1.0000 0.83976  0.51446  0.78583  Biso   1.000  H
  N95      1.0000 0.01030  0.59056  0.78451  Biso   1.000  N
  N96      1.0000 0.01037  0.59056  0.78451  Biso   1.000  N
  H349     1.0000 0.17985  0.69542  0.78323  Biso   1.000  H
  C645     1.0000 0.00883  0.44671  0.76537  Biso   1.000  C
  H350     1.0000 0.83387  0.35580  0.76414  Biso   1.000  H
  H351     1.0000 0.83379  0.35580  0.76414  Biso   1.000  H
  H352     1.0000 0.18036  0.52884  0.76114  Biso   1.000  H
  H353     1.0000 0.18043  0.52884  0.76114  Biso   1.000  H
  H354     1.0000 0.74205  0.28056  0.68646  Biso   1.000  H
  C646     1.0000 0.87229  0.31663  0.67183  Biso   1.000  C
  H355     1.0000 0.14549  0.43673  0.68147  Biso   1.000  H
  C647     1.0000 0.99012  0.36114  0.67050  Biso   1.000  C
  C648     1.0000 0.99005  0.36114  0.67050  Biso   1.000  C
  H356     1.0000 0.14553  0.43681  0.68147  Biso   1.000  H
  H357     1.0000 0.29126  0.85442  0.68147  Biso   1.000  H
  H358     1.0000 0.29123  0.85451  0.68147  Biso   1.000  H
  H359     1.0000 0.29119  0.85442  0.68147  Biso   1.000  H
  H360     1.0000 0.29131  0.85451  0.68147  Biso   1.000  H
  C649     1.0000 0.37113  0.00999  0.67050  Biso   1.000  C
  C650     1.0000 0.37120  0.00999  0.67050  Biso   1.000  C
  C651     1.0000 0.43782  0.99113  0.76537  Biso   1.000  C
  H361     1.0000 0.34850  0.81965  0.76114  Biso   1.000  H
  H362     1.0000 0.52198  0.16615  0.76414  Biso   1.000  H
  C652     1.0000 0.44429  0.12767  0.67183  Biso   1.000  C
  H363     1.0000 0.53853  0.25801  0.68646  Biso   1.000  H
  C653     1.0000 0.44436  0.12767  0.67183  Biso   1.000  C
  H364     1.0000 0.53861  0.25801  0.68646  Biso   1.000  H
  B43      1.0000 0.45076  0.98063  0.78227  Biso   1.000  B
  B44      1.0000 0.01927  0.47013  0.78227  Biso   1.000  B
  B45      1.0000 0.01934  0.47013  0.78227  Biso   1.000  B
  Cl75     1.0000 0.78152  0.26377  0.65699  Biso   1.000  Cl
  Cl76     1.0000 0.78149  0.26386  0.65699  Biso   1.000  Cl
  Cl77     1.0000 0.78144  0.26377  0.65699  Biso   1.000  Cl
  Cl78     1.0000 0.05007  0.36131  0.65392  Biso   1.000  Cl
  Cl79     1.0000 0.31126  0.94990  0.65392  Biso   1.000  Cl
  Cl80     1.0000 0.48232  0.21849  0.65699  Biso   1.000  Cl
  O88      1.0000 0.36963  0.86906  0.78900  Biso   1.000  O
  O89      1.0000 0.36948  0.86906  0.78900  Biso   1.000  O
  O90      1.0000 0.45334  0.07137  0.79159  Biso   1.000  O
  O91      1.0000 0.45341  0.07137  0.79159  Biso   1.000  O
  O92      1.0000 0.92871  0.38206  0.79159  Biso   1.000  O
  O93      1.0000 0.13093  0.50052  0.78900  Biso   1.000  O
  C654     1.0000 0.36123  0.89669  0.80310  Biso   1.000  C
  C655     1.0000 0.36127  0.89678  0.80310  Biso   1.000  C
  C656     1.0000 0.40865  0.01644  0.80446  Biso   1.000  C
  C657     1.0000 0.40873  0.01644  0.80446  Biso   1.000  C
  C658     1.0000 0.98367  0.39222  0.80446  Biso   1.000  C
  C659     1.0000 0.98359  0.39222  0.80446  Biso   1.000  C
  C660     1.0000 0.10325  0.46453  0.80310  Biso   1.000  C
  C661     1.0000 0.31386  0.82283  0.81465  Biso   1.000  C
  C662     1.0000 0.31371  0.82283  0.81465  Biso   1.000  C
  C663     1.0000 0.40759  0.06517  0.81762  Biso   1.000  C
  C664     1.0000 0.93493  0.34246  0.81762  Biso   1.000  C
  C665     1.0000 0.17715  0.49096  0.81465  Biso   1.000  C
  H365     1.0000 0.28052  0.74199  0.81354  Biso   1.000  H
  H366     1.0000 0.28057  0.74208  0.81354  Biso   1.000  H
  C666     1.0000 0.31669  0.87233  0.82817  Biso   1.000  C
  C667     1.0000 0.36114  0.99001  0.82950  Biso   1.000  C
  H367     1.0000 0.43676  0.14558  0.81853  Biso   1.000  H
  H368     1.0000 0.43684  0.14558  0.81853  Biso   1.000  H
  C668     1.0000 0.00995  0.37113  0.82950  Biso   1.000  C
  H369     1.0000 0.85445  0.29124  0.81853  Biso   1.000  H
  C669     1.0000 0.12765  0.44430  0.82817  Biso   1.000  C
  H370     1.0000 0.25787  0.53848  0.81354  Biso   1.000  H
  H371     1.0000 0.25791  0.53857  0.81354  Biso   1.000  H
  H372     1.0000 0.25806  0.53857  0.81354  Biso   1.000  H
  Cl81     1.0000 0.26383  0.78151  0.84301  Biso   1.000  Cl
  Cl82     1.0000 0.36129  0.05010  0.84608  Biso   1.000  Cl
  Cl83     1.0000 0.36137  0.05010  0.84608  Biso   1.000  Cl
  Cl84     1.0000 0.94987  0.31121  0.84608  Biso   1.000  Cl
  Cl85     1.0000 0.94980  0.31121  0.84608  Biso   1.000  Cl
  Cl86     1.0000 0.21843  0.48227  0.84301  Biso   1.000  Cl
  Cl87     1.0000 0.21847  0.48235  0.84301  Biso   1.000  Cl
  C670     1.0000 0.63882  0.62887  0.67050  Biso   1.000  C
  C671     1.0000 0.68335  0.55570  0.67183  Biso   1.000  C
  C672     1.0000 0.59240  0.65754  0.68238  Biso   1.000  C
  Cl88     1.0000 0.63866  0.68879  0.65392  Biso   1.000  Cl
  C673     1.0000 0.59251  0.65763  0.68238  Biso   1.000  C
  Cl89     1.0000 0.63874  0.68879  0.65392  Biso   1.000  Cl
  C674     1.0000 0.59247  0.65754  0.68238  Biso   1.000  C
  C675     1.0000 0.59244  0.65763  0.68238  Biso   1.000  C
  C676     1.0000 0.68626  0.50904  0.68535  Biso   1.000  C
  Cl90     1.0000 0.73624  0.51773  0.65699  Biso   1.000  Cl
  C677     1.0000 0.63890  0.62887  0.67050  Biso   1.000  C
  C678     1.0000 0.68631  0.50913  0.68535  Biso   1.000  C
  C679     1.0000 0.68623  0.50913  0.68535  Biso   1.000  C
  Cl91     1.0000 0.73617  0.51773  0.65699  Biso   1.000  Cl
  C680     1.0000 0.59137  0.60778  0.69554  Biso   1.000  C
  H373     1.0000 0.56321  0.70876  0.68147  Biso   1.000  H
  H374     1.0000 0.56328  0.70876  0.68147  Biso   1.000  H
  C681     1.0000 0.59130  0.60778  0.69554  Biso   1.000  C
  H375     1.0000 0.71946  0.46152  0.68646  Biso   1.000  H
  C682     1.0000 0.63872  0.53547  0.69690  Biso   1.000  C
  C683     1.0000 0.63879  0.53547  0.69690  Biso   1.000  C
  O94      1.0000 0.54665  0.61794  0.70841  Biso   1.000  O
  O95      1.0000 0.54669  0.61803  0.70841  Biso   1.000  O
  O96      1.0000 0.54662  0.61803  0.70841  Biso   1.000  O
  O97      1.0000 0.63042  0.49948  0.71100  Biso   1.000  O
  O98      1.0000 0.63049  0.49948  0.71100  Biso   1.000  O
  B46      1.0000 0.54921  0.52987  0.71773  Biso   1.000  B
  B47      1.0000 0.54929  0.52987  0.71773  Biso   1.000  B
  C684     1.0000 0.56211  0.55329  0.73463  Biso   1.000  C
  N97      1.0000 0.41973  0.40944  0.71549  Biso   1.000  N
  C685     1.0000 0.56219  0.55329  0.73463  Biso   1.000  C
  N98      1.0000 0.41978  0.40952  0.71549  Biso   1.000  N
  C686     1.0000 0.51085  0.60882  0.74152  Biso   1.000  C
  C687     1.0000 0.61315  0.50654  0.74324  Biso   1.000  C
  C688     1.0000 0.51092  0.60882  0.74152  Biso   1.000  C
  C689     1.0000 0.61319  0.50663  0.74324  Biso   1.000  C
  C690     1.0000 0.61311  0.50663  0.74324  Biso   1.000  C
  C691     1.0000 0.32155  0.41288  0.71441  Biso   1.000  C
  C692     1.0000 0.41518  0.30699  0.71583  Biso   1.000  C
  C693     1.0000 0.41511  0.30699  0.71583  Biso   1.000  C
  H376     1.0000 0.47807  0.64420  0.73586  Biso   1.000  H
  C694     1.0000 0.50659  0.61312  0.75676  Biso   1.000  C
  C695     1.0000 0.50663  0.61321  0.75676  Biso   1.000  C
  H377     1.0000 0.47799  0.64420  0.73586  Biso   1.000  H
  C696     1.0000 0.50656  0.61321  0.75676  Biso   1.000  C
  C697     1.0000 0.60881  0.51085  0.75848  Biso   1.000  C
  H378     1.0000 0.65152  0.47116  0.73886  Biso   1.000  H
  H379     1.0000 0.65159  0.47116  0.73886  Biso   1.000  H
  C698     1.0000 0.60874  0.51085  0.75848  Biso   1.000  C
  C699     1.0000 0.21531  0.31388  0.71360  Biso   1.000  C
  H380     1.0000 0.32530  0.48554  0.71417  Biso   1.000  H
  C700     1.0000 0.21539  0.31388  0.71360  Biso   1.000  C
  H381     1.0000 0.32542  0.48562  0.71417  Biso   1.000  H
  H382     1.0000 0.32538  0.48554  0.71417  Biso   1.000  H
  H383     1.0000 0.32534  0.48562  0.71417  Biso   1.000  H
  H384     1.0000 0.48443  0.30458  0.71677  Biso   1.000  H
  C701     1.0000 0.31132  0.20498  0.71490  Biso   1.000  C
  H385     1.0000 0.48450  0.30458  0.71677  Biso   1.000  H
  C702     1.0000 0.31139  0.20498  0.71490  Biso   1.000  C
  C703     1.0000 0.55328  0.56216  0.76537  Biso   1.000  C
  H386     1.0000 0.47114  0.65152  0.76114  Biso   1.000  H
  H387     1.0000 0.47126  0.65160  0.76114  Biso   1.000  H
  H388     1.0000 0.47121  0.65152  0.76114  Biso   1.000  H
  H389     1.0000 0.47118  0.65160  0.76114  Biso   1.000  H
  H390     1.0000 0.64415  0.47805  0.76414  Biso   1.000  H
  H391     1.0000 0.64423  0.47805  0.76414  Biso   1.000  H
  H392     1.0000 0.14694  0.31818  0.71286  Biso   1.000  H
  C704     1.0000 0.21013  0.20704  0.71386  Biso   1.000  C
  C705     1.0000 0.21018  0.20713  0.71386  Biso   1.000  C
  H393     1.0000 0.30992  0.13344  0.71497  Biso   1.000  H
  H394     1.0000 0.30996  0.13352  0.71497  Biso   1.000  H
  B48      1.0000 0.52990  0.54924  0.78227  Biso   1.000  B
  B49      1.0000 0.52982  0.54924  0.78227  Biso   1.000  B
  C706     1.0000 0.09803  0.09719  0.71311  Biso   1.000  C
  C707     1.0000 0.09810  0.09719  0.71311  Biso   1.000  C
  O99      1.0000 0.61800  0.54666  0.79159  Biso   1.000  O
  O100     1.0000 0.49944  0.63042  0.78900  Biso   1.000  O
  N99      1.0000 0.40947  0.41977  0.78451  Biso   1.000  N
  O101     1.0000 0.49955  0.63051  0.78900  Biso   1.000  O
  N100     1.0000 0.40954  0.41977  0.78451  Biso   1.000  N
  O102     1.0000 0.49951  0.63042  0.78900  Biso   1.000  O
  O103     1.0000 0.49948  0.63051  0.78900  Biso   1.000  O
  N101     1.0000 0.10204  0.99905  0.71312  Biso   1.000  N
  N102     1.0000 0.10219  0.99905  0.71312  Biso   1.000  N
  N103     1.0000 0.00090  0.10305  0.71312  Biso   1.000  N
  N104     1.0000 0.00102  0.10313  0.71312  Biso   1.000  N
  N105     1.0000 0.00098  0.10305  0.71312  Biso   1.000  N
  N106     1.0000 0.00094  0.10313  0.71312  Biso   1.000  N
  C708     1.0000 0.60776  0.59134  0.80446  Biso   1.000  C
  C709     1.0000 0.60783  0.59134  0.80446  Biso   1.000  C
  C710     1.0000 0.53552  0.63877  0.80310  Biso   1.000  C
  C711     1.0000 0.53545  0.63877  0.80310  Biso   1.000  C
  C712     1.0000 0.41284  0.32154  0.78559  Biso   1.000  C
  C713     1.0000 0.30694  0.41512  0.78417  Biso   1.000  C
  C714     1.0000 0.41291  0.32154  0.78559  Biso   1.000  C
  C715     1.0000 0.30706  0.41520  0.78417  Biso   1.000  C
  C716     1.0000 0.30701  0.41512  0.78417  Biso   1.000  C
  C717     1.0000 0.30698  0.41520  0.78417  Biso   1.000  C
  C718     1.0000 0.99914  0.90195  0.71311  Biso   1.000  C
  C719     1.0000 0.99906  0.90195  0.71311  Biso   1.000  C
  C720     1.0000 0.90284  0.00086  0.71311  Biso   1.000  C
  C721     1.0000 0.90291  0.00086  0.71311  Biso   1.000  C
  C722     1.0000 0.65760  0.59246  0.81762  Biso   1.000  C
  C723     1.0000 0.50906  0.68621  0.81465  Biso   1.000  C
  C724     1.0000 0.50911  0.68629  0.81465  Biso   1.000  C
  C725     1.0000 0.31387  0.21531  0.78640  Biso   1.000  C
  H395     1.0000 0.48556  0.32533  0.78583  Biso   1.000  H
  C726     1.0000 0.31391  0.21539  0.78640  Biso   1.000  C
  H396     1.0000 0.48563  0.32533  0.78583  Biso   1.000  H
  C727     1.0000 0.31384  0.21539  0.78640  Biso   1.000  C
  H397     1.0000 0.30454  0.48442  0.78323  Biso   1.000  H
  C728     1.0000 0.20497  0.31138  0.78510  Biso   1.000  C
  H398     1.0000 0.30465  0.48450  0.78323  Biso   1.000  H
  C729     1.0000 0.20505  0.31138  0.78510  Biso   1.000  C
  H399     1.0000 0.30461  0.48442  0.78323  Biso   1.000  H
  H400     1.0000 0.30458  0.48450  0.78323  Biso   1.000  H
  N107     1.0000 0.89699  0.89790  0.71312  Biso   1.000  N
  C730     1.0000 0.99699  0.78986  0.71386  Biso   1.000  C
  N108     1.0000 0.89691  0.89790  0.71312  Biso   1.000  N
  C731     1.0000 0.99685  0.78986  0.71386  Biso   1.000  C
  C732     1.0000 0.79295  0.00310  0.71386  Biso   1.000  C
  C733     1.0000 0.79302  0.00310  0.71386  Biso   1.000  C
  H401     1.0000 0.70876  0.56327  0.81853  Biso   1.000  H
  C734     1.0000 0.62891  0.63886  0.82950  Biso   1.000  C
  H402     1.0000 0.70883  0.56327  0.81853  Biso   1.000  H
  C735     1.0000 0.62883  0.63886  0.82950  Biso   1.000  C
  C736     1.0000 0.55566  0.68337  0.82817  Biso   1.000  C
  H403     1.0000 0.46149  0.71944  0.81354  Biso   1.000  H
  C737     1.0000 0.55573  0.68337  0.82817  Biso   1.000  C
  H404     1.0000 0.46141  0.71944  0.81354  Biso   1.000  H
  C738     1.0000 0.20706  0.21014  0.78614  Biso   1.000  C
  H405     1.0000 0.31816  0.14695  0.78714  Biso   1.000  H
  C739     1.0000 0.20714  0.21014  0.78614  Biso   1.000  C
  H406     1.0000 0.31824  0.14695  0.78714  Biso   1.000  H
  H407     1.0000 0.13349  0.30992  0.78503  Biso   1.000  H
  H408     1.0000 0.13353  0.31000  0.78503  Biso   1.000  H
  H409     1.0000 0.13346  0.31000  0.78503  Biso   1.000  H
  C740     1.0000 0.89359  0.68862  0.71490  Biso   1.000  C
  C741     1.0000 0.89363  0.68871  0.71490  Biso   1.000  C
  C742     1.0000 0.09849  0.78469  0.71360  Biso   1.000  C
  C743     1.0000 0.68612  0.90143  0.71360  Biso   1.000  C
  C744     1.0000 0.68609  0.90152  0.71360  Biso   1.000  C
  C745     1.0000 0.68605  0.90143  0.71360  Biso   1.000  C
  C746     1.0000 0.79502  0.10640  0.71490  Biso   1.000  C
  C747     1.0000 0.79509  0.10640  0.71490  Biso   1.000  C
  Cl92     1.0000 0.68876  0.63869  0.84608  Biso   1.000  Cl
  Cl93     1.0000 0.68884  0.63869  0.84608  Biso   1.000  Cl
  Cl94     1.0000 0.51774  0.73623  0.84301  Biso   1.000  Cl
  Cl95     1.0000 0.51767  0.73623  0.84301  Biso   1.000  Cl
  C748     1.0000 0.09719  0.09805  0.78689  Biso   1.000  C
  C749     1.0000 0.89182  0.58488  0.71583  Biso   1.000  C
  H410     1.0000 0.82364  0.69008  0.71497  Biso   1.000  H
  H411     1.0000 0.82357  0.69008  0.71497  Biso   1.000  H
  C750     1.0000 0.09130  0.67846  0.71441  Biso   1.000  C
  H412     1.0000 0.17114  0.85305  0.71286  Biso   1.000  H
  H413     1.0000 0.17129  0.85305  0.71286  Biso   1.000  H
  H414     1.0000 0.68185  0.82877  0.71286  Biso   1.000  H
  C751     1.0000 0.58715  0.90866  0.71441  Biso   1.000  C
  C752     1.0000 0.58707  0.90866  0.71441  Biso   1.000  C
  C753     1.0000 0.69300  0.10813  0.71583  Biso   1.000  C
  H415     1.0000 0.86652  0.17648  0.71497  Biso   1.000  H
  C754     1.0000 0.69304  0.10821  0.71583  Biso   1.000  C
  H416     1.0000 0.86659  0.17648  0.71497  Biso   1.000  H
  C755     1.0000 0.69311  0.10821  0.71583  Biso   1.000  C
  N109     1.0000 0.99909  0.10210  0.78688  Biso   1.000  N
  N110     1.0000 0.99913  0.10219  0.78688  Biso   1.000  N
  N111     1.0000 0.10306  0.00095  0.78688  Biso   1.000  N
  N112     1.0000 0.10314  0.00095  0.78688  Biso   1.000  N
  N113     1.0000 0.98977  0.58023  0.71549  Biso   1.000  N
  H417     1.0000 0.82019  0.51558  0.71677  Biso   1.000  H
  N114     1.0000 0.98982  0.58032  0.71549  Biso   1.000  N
  H418     1.0000 0.16016  0.67467  0.71417  Biso   1.000  H
  H419     1.0000 0.16031  0.67467  0.71417  Biso   1.000  H
  H420     1.0000 0.51447  0.83979  0.71417  Biso   1.000  H
  H421     1.0000 0.51439  0.83979  0.71417  Biso   1.000  H
  N115     1.0000 0.59052  0.01024  0.71549  Biso   1.000  N
  N116     1.0000 0.59057  0.01033  0.71549  Biso   1.000  N
  H422     1.0000 0.69538  0.17984  0.71677  Biso   1.000  H
  H423     1.0000 0.69549  0.17992  0.71677  Biso   1.000  H
  H424     1.0000 0.69545  0.17984  0.71677  Biso   1.000  H
  C756     1.0000 0.90205  0.99914  0.78689  Biso   1.000  C
  C757     1.0000 0.90190  0.99914  0.78689  Biso   1.000  C
  C758     1.0000 0.00076  0.90281  0.78689  Biso   1.000  C
  C759     1.0000 0.00088  0.90289  0.78689  Biso   1.000  C
  C760     1.0000 0.00083  0.90281  0.78689  Biso   1.000  C
  B50      1.0000 0.98073  0.45076  0.71773  Biso   1.000  B
  B51      1.0000 0.98065  0.45076  0.71773  Biso   1.000  B
  B52      1.0000 0.47013  0.01937  0.71773  Biso   1.000  B
  B53      1.0000 0.47021  0.01937  0.71773  Biso   1.000  B
  N117     1.0000 0.89793  0.89695  0.78688  Biso   1.000  N
  C761     1.0000 0.78992  0.99690  0.78614  Biso   1.000  C
  C762     1.0000 0.78982  0.99699  0.78614  Biso   1.000  C
  C763     1.0000 0.78977  0.99690  0.78614  Biso   1.000  C
  C764     1.0000 0.78996  0.99699  0.78614  Biso   1.000  C
  C765     1.0000 0.00302  0.79296  0.78614  Biso   1.000  C
  C766     1.0000 0.00317  0.79296  0.78614  Biso   1.000  C
  C767     1.0000 0.99112  0.43784  0.73463  Biso   1.000  C
  O104     1.0000 0.86901  0.36958  0.71100  Biso   1.000  O
  O105     1.0000 0.07126  0.45334  0.70841  Biso   1.000  O
  O106     1.0000 0.07134  0.45334  0.70841  Biso   1.000  O
  O107     1.0000 0.38197  0.92863  0.70841  Biso   1.000  O
  O108     1.0000 0.38201  0.92872  0.70841  Biso   1.000  O
  C768     1.0000 0.44669  0.00887  0.73463  Biso   1.000  C
  O109     1.0000 0.50050  0.13094  0.71100  Biso   1.000  O
  C769     1.0000 0.44677  0.00887  0.73463  Biso   1.000  C
  O110     1.0000 0.50061  0.13103  0.71100  Biso   1.000  O
  C770     1.0000 0.68869  0.89360  0.78510  Biso   1.000  C
  C771     1.0000 0.68873  0.89368  0.78510  Biso   1.000  C
  C772     1.0000 0.78469  0.09857  0.78640  Biso   1.000  C
  C773     1.0000 0.90144  0.68612  0.78640  Biso   1.000  C
  C774     1.0000 0.10626  0.79502  0.78510  Biso   1.000  C
  C775     1.0000 0.10634  0.79502  0.78510  Biso   1.000  C
  C776     1.0000 0.89347  0.38688  0.74324  Biso   1.000  C
  C777     1.0000 0.09789  0.48915  0.74152  Biso   1.000  C
  C778     1.0000 0.89682  0.36123  0.69690  Biso   1.000  C
  C779     1.0000 0.89672  0.36131  0.69690  Biso   1.000  C
  C780     1.0000 0.89667  0.36123  0.69690  Biso   1.000  C
  C781     1.0000 0.01642  0.40866  0.69554  Biso   1.000  C
  C782     1.0000 0.39229  0.98356  0.69554  Biso   1.000  C
  C783     1.0000 0.39214  0.98356  0.69554  Biso   1.000  C
  C784     1.0000 0.39126  0.90203  0.74152  Biso   1.000  C
  C785     1.0000 0.39130  0.90212  0.74152  Biso   1.000  C
  C786     1.0000 0.49346  0.10658  0.74324  Biso   1.000  C
  C787     1.0000 0.46454  0.10331  0.69690  Biso   1.000  C
  C788     1.0000 0.46461  0.10331  0.69690  Biso   1.000  C
  C789     1.0000 0.58487  0.89187  0.78417  Biso   1.000  C
  H425     1.0000 0.69003  0.82352  0.78503  Biso   1.000  H
  H426     1.0000 0.85308  0.17123  0.78714  Biso   1.000  H
  C790     1.0000 0.67849  0.09134  0.78559  Biso   1.000  C
  C791     1.0000 0.90867  0.58712  0.78559  Biso   1.000  C
  H427     1.0000 0.82876  0.68182  0.78714  Biso   1.000  H
  H428     1.0000 0.82868  0.68182  0.78714  Biso   1.000  H
  C792     1.0000 0.10819  0.69301  0.78417  Biso   1.000  C
  H429     1.0000 0.17640  0.86656  0.78503  Biso   1.000  H
  H430     1.0000 0.17655  0.86656  0.78503  Biso   1.000  H
  H431     1.0000 0.81962  0.34848  0.73886  Biso   1.000  H
  C793     1.0000 0.90203  0.39118  0.75848  Biso   1.000  C
  C794     1.0000 0.90208  0.39127  0.75848  Biso   1.000  C
  C795     1.0000 0.90196  0.39118  0.75848  Biso   1.000  C
  H432     1.0000 0.16611  0.52195  0.73586  Biso   1.000  H
  C796     1.0000 0.10660  0.49346  0.75676  Biso   1.000  C
  C797     1.0000 0.82293  0.31379  0.68535  Biso   1.000  C
  C798     1.0000 0.82278  0.31379  0.68535  Biso   1.000  C
  C799     1.0000 0.06506  0.40754  0.68238  Biso   1.000  C
  C800     1.0000 0.06521  0.40754  0.68238  Biso   1.000  C
  C801     1.0000 0.34242  0.93483  0.68238  Biso   1.000  C
  C802     1.0000 0.34247  0.93492  0.68238  Biso   1.000  C
  H433     1.0000 0.35583  0.83385  0.73586  Biso   1.000  H
  C803     1.0000 0.38696  0.89342  0.75676  Biso   1.000  C
  H434     1.0000 0.35575  0.83385  0.73586  Biso   1.000  H
  C804     1.0000 0.38681  0.89342  0.75676  Biso   1.000  C
  C805     1.0000 0.48915  0.09797  0.75848  Biso   1.000  C
  H435     1.0000 0.52878  0.18035  0.73886  Biso   1.000  H
  C806     1.0000 0.48923  0.09797  0.75848  Biso   1.000  C
  H436     1.0000 0.52886  0.18035  0.73886  Biso   1.000  H
  C807     1.0000 0.49096  0.17717  0.68535  Biso   1.000  C
  N118     1.0000 0.58028  0.98976  0.78451  Biso   1.000  N
  H437     1.0000 0.51554  0.82016  0.78323  Biso   1.000  H
  H438     1.0000 0.67468  0.16021  0.78583  Biso   1.000  H
  H439     1.0000 0.67472  0.16030  0.78583  Biso   1.000  H
  H440     1.0000 0.83976  0.51446  0.78583  Biso   1.000  H
  N119     1.0000 0.01030  0.59056  0.78451  Biso   1.000  N
  N120     1.0000 0.01037  0.59056  0.78451  Biso   1.000  N
  H441     1.0000 0.17985  0.69542  0.78323  Biso   1.000  H
  C808     1.0000 0.00883  0.44671  0.76537  Biso   1.000  C
  H442     1.0000 0.83387  0.35580  0.76414  Biso   1.000  H
  H443     1.0000 0.83379  0.35580  0.76414  Biso   1.000  H
  H444     1.0000 0.18036  0.52884  0.76114  Biso   1.000  H
  H445     1.0000 0.18043  0.52884  0.76114  Biso   1.000  H
  H446     1.0000 0.74205  0.28056  0.68646  Biso   1.000  H
  C809     1.0000 0.87229  0.31663  0.67183  Biso   1.000  C
  H447     1.0000 0.14549  0.43673  0.68147  Biso   1.000  H
  C810     1.0000 0.99012  0.36114  0.67050  Biso   1.000  C
  C811     1.0000 0.99005  0.36114  0.67050  Biso   1.000  C
  H448     1.0000 0.14553  0.43681  0.68147  Biso   1.000  H
  H449     1.0000 0.29126  0.85442  0.68147  Biso   1.000  H
  H450     1.0000 0.29123  0.85451  0.68147  Biso   1.000  H
  H451     1.0000 0.29119  0.85442  0.68147  Biso   1.000  H
  H452     1.0000 0.29131  0.85451  0.68147  Biso   1.000  H
  C812     1.0000 0.37113  0.00999  0.67050  Biso   1.000  C
  C813     1.0000 0.37120  0.00999  0.67050  Biso   1.000  C
  C814     1.0000 0.43782  0.99113  0.76537  Biso   1.000  C
  H453     1.0000 0.34850  0.81965  0.76114  Biso   1.000  H
  H454     1.0000 0.52198  0.16615  0.76414  Biso   1.000  H
  C815     1.0000 0.44429  0.12767  0.67183  Biso   1.000  C
  H455     1.0000 0.53853  0.25801  0.68646  Biso   1.000  H
  C816     1.0000 0.44436  0.12767  0.67183  Biso   1.000  C
  H456     1.0000 0.53861  0.25801  0.68646  Biso   1.000  H
  B54      1.0000 0.45076  0.98063  0.78227  Biso   1.000  B
  B55      1.0000 0.01927  0.47013  0.78227  Biso   1.000  B
  B56      1.0000 0.01934  0.47013  0.78227  Biso   1.000  B
  Cl96     1.0000 0.78152  0.26377  0.65699  Biso   1.000  Cl
  Cl97     1.0000 0.78149  0.26386  0.65699  Biso   1.000  Cl
  Cl98     1.0000 0.78144  0.26377  0.65699  Biso   1.000  Cl
  Cl99     1.0000 0.05007  0.36131  0.65392  Biso   1.000  Cl
  Cl100    1.0000 0.31126  0.94990  0.65392  Biso   1.000  Cl
  Cl101    1.0000 0.48232  0.21849  0.65699  Biso   1.000  Cl
  O111     1.0000 0.36963  0.86906  0.78900  Biso   1.000  O
  O112     1.0000 0.36948  0.86906  0.78900  Biso   1.000  O
  O113     1.0000 0.45334  0.07137  0.79159  Biso   1.000  O
  O114     1.0000 0.45341  0.07137  0.79159  Biso   1.000  O
  O115     1.0000 0.92871  0.38206  0.79159  Biso   1.000  O
  O116     1.0000 0.13093  0.50052  0.78900  Biso   1.000  O
  C817     1.0000 0.36123  0.89669  0.80310  Biso   1.000  C
  C818     1.0000 0.36127  0.89678  0.80310  Biso   1.000  C
  C819     1.0000 0.40865  0.01644  0.80446  Biso   1.000  C
  C820     1.0000 0.40873  0.01644  0.80446  Biso   1.000  C
  C821     1.0000 0.98367  0.39222  0.80446  Biso   1.000  C
  C822     1.0000 0.98359  0.39222  0.80446  Biso   1.000  C
  C823     1.0000 0.10325  0.46453  0.80310  Biso   1.000  C
  C824     1.0000 0.31386  0.82283  0.81465  Biso   1.000  C
  C825     1.0000 0.31371  0.82283  0.81465  Biso   1.000  C
  C826     1.0000 0.40759  0.06517  0.81762  Biso   1.000  C
  C827     1.0000 0.93493  0.34246  0.81762  Biso   1.000  C
  C828     1.0000 0.17715  0.49096  0.81465  Biso   1.000  C
  H457     1.0000 0.28052  0.74199  0.81354  Biso   1.000  H
  H458     1.0000 0.28057  0.74208  0.81354  Biso   1.000  H
  C829     1.0000 0.31669  0.87233  0.82817  Biso   1.000  C
  C830     1.0000 0.36114  0.99001  0.82950  Biso   1.000  C
  H459     1.0000 0.43676  0.14558  0.81853  Biso   1.000  H
  H460     1.0000 0.43684  0.14558  0.81853  Biso   1.000  H
  C831     1.0000 0.00995  0.37113  0.82950  Biso   1.000  C
  H461     1.0000 0.85445  0.29124  0.81853  Biso   1.000  H
  C832     1.0000 0.12765  0.44430  0.82817  Biso   1.000  C
  H462     1.0000 0.25787  0.53848  0.81354  Biso   1.000  H
  H463     1.0000 0.25791  0.53857  0.81354  Biso   1.000  H
  H464     1.0000 0.25806  0.53857  0.81354  Biso   1.000  H
  Cl102    1.0000 0.26383  0.78151  0.84301  Biso   1.000  Cl
  Cl103    1.0000 0.36129  0.05010  0.84608  Biso   1.000  Cl
  Cl104    1.0000 0.36137  0.05010  0.84608  Biso   1.000  Cl
  Cl105    1.0000 0.94987  0.31121  0.84608  Biso   1.000  Cl
  Cl106    1.0000 0.94980  0.31121  0.84608  Biso   1.000  Cl
  Cl107    1.0000 0.21843  0.48227  0.84301  Biso   1.000  Cl
  Cl108    1.0000 0.21847  0.48235  0.84301  Biso   1.000  Cl
  C833     1.0000 0.12771  0.68337  0.32817  Biso   1.000  C
  C834     1.0000 0.17715  0.68621  0.31465  Biso   1.000  C
  C835     1.0000 0.17719  0.68629  0.31465  Biso   1.000  C
  C836     1.0000 0.00995  0.63886  0.32950  Biso   1.000  C
  C837     1.0000 0.01003  0.63886  0.32950  Biso   1.000  C
  Cl109    1.0000 0.21848  0.73623  0.34301  Biso   1.000  Cl
  Cl110    1.0000 0.21856  0.73623  0.34301  Biso   1.000  Cl
  C838     1.0000 0.10325  0.63877  0.30310  Biso   1.000  C
  C839     1.0000 0.10333  0.63877  0.30310  Biso   1.000  C
  H465     1.0000 0.25795  0.71944  0.31354  Biso   1.000  H
  H466     1.0000 0.25803  0.71944  0.31354  Biso   1.000  H
  C840     1.0000 0.12764  0.68337  0.32817  Biso   1.000  C
  C841     1.0000 0.93486  0.59246  0.31762  Biso   1.000  C
  C842     1.0000 0.93494  0.59246  0.31762  Biso   1.000  C
  Cl111    1.0000 0.94993  0.63869  0.34608  Biso   1.000  Cl
  O117     1.0000 0.13099  0.63042  0.28900  Biso   1.000  O
  O118     1.0000 0.13103  0.63051  0.28900  Biso   1.000  O
  O119     1.0000 0.13096  0.63051  0.28900  Biso   1.000  O
  C843     1.0000 0.98358  0.59134  0.30446  Biso   1.000  C
  H467     1.0000 0.85451  0.56327  0.31853  Biso   1.000  H
  B57      1.0000 0.01935  0.54924  0.28227  Biso   1.000  B
  B58      1.0000 0.01942  0.54924  0.28227  Biso   1.000  B
  O120     1.0000 0.92866  0.54666  0.29159  Biso   1.000  O
  O121     1.0000 0.92874  0.54666  0.29159  Biso   1.000  O
  N121     1.0000 0.01030  0.41977  0.28451  Biso   1.000  N
  N122     1.0000 0.01023  0.41977  0.28451  Biso   1.000  N
  C844     1.0000 0.00888  0.56216  0.26537  Biso   1.000  C
  C845     1.0000 0.10818  0.41512  0.28417  Biso   1.000  C
  C846     1.0000 0.10822  0.41520  0.28417  Biso   1.000  C
  C847     1.0000 0.10815  0.41520  0.28417  Biso   1.000  C
  C848     1.0000 0.90870  0.32154  0.28559  Biso   1.000  C
  C849     1.0000 0.10653  0.61312  0.25676  Biso   1.000  C
  C850     1.0000 0.10665  0.61321  0.25676  Biso   1.000  C
  C851     1.0000 0.10660  0.61312  0.25676  Biso   1.000  C
  C852     1.0000 0.10657  0.61321  0.25676  Biso   1.000  C
  C853     1.0000 0.90204  0.51085  0.25848  Biso   1.000  C
  C854     1.0000 0.90211  0.51085  0.25848  Biso   1.000  C
  C855     1.0000 0.10641  0.31138  0.28510  Biso   1.000  C
  C856     1.0000 0.10634  0.31138  0.28510  Biso   1.000  C
  H468     1.0000 0.17988  0.48442  0.28323  Biso   1.000  H
  H469     1.0000 0.17992  0.48450  0.28323  Biso   1.000  H
  H470     1.0000 0.17985  0.48450  0.28323  Biso   1.000  H
  C857     1.0000 0.90144  0.21531  0.28640  Biso   1.000  C
  C858     1.0000 0.90155  0.21539  0.28640  Biso   1.000  C
  H471     1.0000 0.83977  0.32533  0.28583  Biso   1.000  H
  H472     1.0000 0.18038  0.65152  0.26114  Biso   1.000  H
  C859     1.0000 0.09797  0.60882  0.24152  Biso   1.000  C
  H473     1.0000 0.18042  0.65160  0.26114  Biso   1.000  H
  H474     1.0000 0.18034  0.65160  0.26114  Biso   1.000  H
  C860     1.0000 0.09789  0.60882  0.24152  Biso   1.000  C
  H475     1.0000 0.83389  0.47805  0.26414  Biso   1.000  H
  C861     1.0000 0.89340  0.50654  0.24324  Biso   1.000  C
  C862     1.0000 0.89351  0.50663  0.24324  Biso   1.000  C
  C863     1.0000 0.89347  0.50654  0.24324  Biso   1.000  C
  C864     1.0000 0.00308  0.21014  0.28614  Biso   1.000  C
  C865     1.0000 0.00301  0.21014  0.28614  Biso   1.000  C
  H476     1.0000 0.17643  0.30992  0.28503  Biso   1.000  H
  H477     1.0000 0.17655  0.31000  0.28503  Biso   1.000  H
  H478     1.0000 0.17650  0.30992  0.28503  Biso   1.000  H
  H479     1.0000 0.17647  0.31000  0.28503  Biso   1.000  H
  H480     1.0000 0.82879  0.14695  0.28714  Biso   1.000  H
  H481     1.0000 0.16613  0.64420  0.23586  Biso   1.000  H
  H482     1.0000 0.16621  0.64420  0.23586  Biso   1.000  H
  C866     1.0000 0.99117  0.55329  0.23463  Biso   1.000  C
  H483     1.0000 0.81964  0.47116  0.23886  Biso   1.000  H
  C867     1.0000 0.00086  0.09805  0.28689  Biso   1.000  C
  B59      1.0000 0.98066  0.52987  0.21773  Biso   1.000  B
  N123     1.0000 0.10313  0.10219  0.28688  Biso   1.000  N
  N124     1.0000 0.10301  0.10210  0.28688  Biso   1.000  N
  N125     1.0000 0.10309  0.10210  0.28688  Biso   1.000  N
  N126     1.0000 0.10306  0.10219  0.28688  Biso   1.000  N
  N127     1.0000 0.89789  0.00095  0.28688  Biso   1.000  N
  O122     1.0000 0.07129  0.61794  0.20841  Biso   1.000  O
  O123     1.0000 0.07141  0.61803  0.20841  Biso   1.000  O
  O124     1.0000 0.07137  0.61794  0.20841  Biso   1.000  O
  O125     1.0000 0.07133  0.61803  0.20841  Biso   1.000  O
  O126     1.0000 0.86907  0.49948  0.21100  Biso   1.000  O
  N128     1.0000 0.98970  0.40944  0.21549  Biso   1.000  N
  N129     1.0000 0.98975  0.40952  0.21549  Biso   1.000  N
  N130     1.0000 0.98982  0.40952  0.21549  Biso   1.000  N
  C868     1.0000 0.09709  0.99914  0.28689  Biso   1.000  C
  C869     1.0000 0.09724  0.99914  0.28689  Biso   1.000  C
  C870     1.0000 0.90205  0.90281  0.28689  Biso   1.000  C
  C871     1.0000 0.90202  0.90289  0.28689  Biso   1.000  C
  C872     1.0000 0.90197  0.90281  0.28689  Biso   1.000  C
  C873     1.0000 0.01641  0.60778  0.19554  Biso   1.000  C
  C874     1.0000 0.01648  0.60778  0.19554  Biso   1.000  C
  C875     1.0000 0.89675  0.53547  0.19690  Biso   1.000  C
  C876     1.0000 0.09133  0.41288  0.21441  Biso   1.000  C
  C877     1.0000 0.89181  0.30699  0.21583  Biso   1.000  C
  C878     1.0000 0.89188  0.30699  0.21583  Biso   1.000  C
  N131     1.0000 0.99910  0.89695  0.28688  Biso   1.000  N
  N132     1.0000 0.99902  0.89695  0.28688  Biso   1.000  N
  C879     1.0000 0.20698  0.99690  0.28614  Biso   1.000  C
  C880     1.0000 0.20702  0.99699  0.28614  Biso   1.000  C
  C881     1.0000 0.20717  0.99699  0.28614  Biso   1.000  C
  C882     1.0000 0.78994  0.79296  0.28614  Biso   1.000  C
  C883     1.0000 0.78979  0.79296  0.28614  Biso   1.000  C
  C884     1.0000 0.06515  0.65754  0.18238  Biso   1.000  C
  C885     1.0000 0.06519  0.65763  0.18238  Biso   1.000  C
  C886     1.0000 0.06511  0.65763  0.18238  Biso   1.000  C
  C887     1.0000 0.82277  0.50904  0.18535  Biso   1.000  C
  C888     1.0000 0.82289  0.50913  0.18535  Biso   1.000  C
  C889     1.0000 0.82285  0.50904  0.18535  Biso   1.000  C
  C890     1.0000 0.09856  0.31388  0.21360  Biso   1.000  C
  H484     1.0000 0.16024  0.48554  0.21417  Biso   1.000  H
  H485     1.0000 0.16028  0.48562  0.21417  Biso   1.000  H
  C891     1.0000 0.09849  0.31388  0.21360  Biso   1.000  C
  H486     1.0000 0.16021  0.48562  0.21417  Biso   1.000  H
  H487     1.0000 0.82015  0.30458  0.21677  Biso   1.000  H
  C892     1.0000 0.89366  0.20498  0.21490  Biso   1.000  C
  C893     1.0000 0.31388  0.09857  0.28640  Biso   1.000  C
  C894     1.0000 0.31395  0.09857  0.28640  Biso   1.000  C
  C895     1.0000 0.20491  0.89360  0.28510  Biso   1.000  C
  C896     1.0000 0.20495  0.89368  0.28510  Biso   1.000  C
  C897     1.0000 0.78476  0.68612  0.28640  Biso   1.000  C
  C898     1.0000 0.68876  0.79502  0.28510  Biso   1.000  C
  C899     1.0000 0.78469  0.68612  0.28640  Biso   1.000  C
  C900     1.0000 0.68868  0.79502  0.28510  Biso   1.000  C
  H488     1.0000 0.14555  0.70876  0.18147  Biso   1.000  H
  H489     1.0000 0.14548  0.70876  0.18147  Biso   1.000  H
  C901     1.0000 0.99005  0.62887  0.17050  Biso   1.000  C
  C902     1.0000 0.87235  0.55570  0.17183  Biso   1.000  C
  H490     1.0000 0.74205  0.46152  0.18646  Biso   1.000  H
  C903     1.0000 0.87242  0.55570  0.17183  Biso   1.000  C
  H491     1.0000 0.74213  0.46152  0.18646  Biso   1.000  H
  H492     1.0000 0.17124  0.31818  0.21286  Biso   1.000  H
  C904     1.0000 0.99691  0.20704  0.21386  Biso   1.000  C
  C905     1.0000 0.99695  0.20713  0.21386  Biso   1.000  C
  C906     1.0000 0.99703  0.20713  0.21386  Biso   1.000  C
  H493     1.0000 0.82352  0.13344  0.21497  Biso   1.000  H
  H494     1.0000 0.82356  0.13352  0.21497  Biso   1.000  H
  H495     1.0000 0.82364  0.13352  0.21497  Biso   1.000  H
  H496     1.0000 0.31815  0.17123  0.28714  Biso   1.000  H
  C907     1.0000 0.41285  0.09134  0.28559  Biso   1.000  C
  H497     1.0000 0.31822  0.17123  0.28714  Biso   1.000  H
  C908     1.0000 0.41293  0.09134  0.28559  Biso   1.000  C
  C909     1.0000 0.30700  0.89187  0.28417  Biso   1.000  C
  H498     1.0000 0.13348  0.82352  0.28503  Biso   1.000  H
  H499     1.0000 0.85314  0.68182  0.28714  Biso   1.000  H
  C910     1.0000 0.67845  0.58712  0.28559  Biso   1.000  C
  H500     1.0000 0.85306  0.68182  0.28714  Biso   1.000  H
  C911     1.0000 0.58482  0.69301  0.28417  Biso   1.000  C
  H501     1.0000 0.69016  0.86656  0.28503  Biso   1.000  H
  H502     1.0000 0.69001  0.86656  0.28503  Biso   1.000  H
  Cl112    1.0000 0.05013  0.68879  0.15392  Biso   1.000  Cl
  Cl113    1.0000 0.05005  0.68879  0.15392  Biso   1.000  Cl
  Cl114    1.0000 0.78149  0.51773  0.15699  Biso   1.000  Cl
  Cl115    1.0000 0.78157  0.51773  0.15699  Biso   1.000  Cl
  C912     1.0000 0.99917  0.09719  0.21311  Biso   1.000  C
  H503     1.0000 0.48553  0.16021  0.28583  Biso   1.000  H
  H504     1.0000 0.48565  0.16030  0.28583  Biso   1.000  H
  H505     1.0000 0.48561  0.16021  0.28583  Biso   1.000  H
  H506     1.0000 0.48558  0.16030  0.28583  Biso   1.000  H
  N133     1.0000 0.40948  0.98976  0.28451  Biso   1.000  N
  H507     1.0000 0.30462  0.82016  0.28323  Biso   1.000  H
  H508     1.0000 0.67470  0.51446  0.28583  Biso   1.000  H
  N134     1.0000 0.58027  0.59056  0.28451  Biso   1.000  N
  N135     1.0000 0.58019  0.59056  0.28451  Biso   1.000  N
  H509     1.0000 0.51557  0.69542  0.28323  Biso   1.000  H
  N136     1.0000 0.10215  0.10305  0.21312  Biso   1.000  N
  N137     1.0000 0.10219  0.10313  0.21312  Biso   1.000  N
  N138     1.0000 0.10211  0.10313  0.21312  Biso   1.000  N
  N139     1.0000 0.89701  0.99905  0.21312  Biso   1.000  N
  N140     1.0000 0.89686  0.99905  0.21312  Biso   1.000  N
  B60      1.0000 0.52987  0.98063  0.28227  Biso   1.000  B
  B61      1.0000 0.45086  0.47013  0.28227  Biso   1.000  B
  B62      1.0000 0.45079  0.47013  0.28227  Biso   1.000  B
  C913     1.0000 0.09802  0.00086  0.21311  Biso   1.000  C
  C914     1.0000 0.90289  0.90195  0.21311  Biso   1.000  C
  C915     1.0000 0.90281  0.90195  0.21311  Biso   1.000  C
  O127     1.0000 0.61803  0.07137  0.29159  Biso   1.000  O
  O128     1.0000 0.61795  0.07137  0.29159  Biso   1.000  O
  C916     1.0000 0.55331  0.99113  0.26537  Biso   1.000  C
  O129     1.0000 0.49943  0.86906  0.28900  Biso   1.000  O
  C917     1.0000 0.43789  0.44671  0.26537  Biso   1.000  C
  O130     1.0000 0.36958  0.50052  0.28900  Biso   1.000  O
  O131     1.0000 0.45335  0.38206  0.29159  Biso   1.000  O
  C918     1.0000 0.21015  0.00310  0.21386  Biso   1.000  C
  N141     1.0000 0.00091  0.89790  0.21312  Biso   1.000  N
  N142     1.0000 0.00099  0.89790  0.21312  Biso   1.000  N
  C919     1.0000 0.79301  0.78986  0.21386  Biso   1.000  C
  C920     1.0000 0.79286  0.78986  0.21386  Biso   1.000  C
  C921     1.0000 0.60779  0.01644  0.30446  Biso   1.000  C
  C922     1.0000 0.60881  0.09797  0.25848  Biso   1.000  C
  C923     1.0000 0.60874  0.09797  0.25848  Biso   1.000  C
  C924     1.0000 0.50647  0.89342  0.25676  Biso   1.000  C
  C925     1.0000 0.50662  0.89342  0.25676  Biso   1.000  C
  C926     1.0000 0.53546  0.89669  0.30310  Biso   1.000  C
  C927     1.0000 0.53551  0.89678  0.30310  Biso   1.000  C
  C928     1.0000 0.48923  0.39118  0.25848  Biso   1.000  C
  C929     1.0000 0.38685  0.49346  0.25676  Biso   1.000  C
  C930     1.0000 0.48919  0.39127  0.25848  Biso   1.000  C
  C931     1.0000 0.48915  0.39118  0.25848  Biso   1.000  C
  C932     1.0000 0.36128  0.46453  0.30310  Biso   1.000  C
  C933     1.0000 0.40863  0.39222  0.30446  Biso   1.000  C
  C934     1.0000 0.31138  0.10640  0.21490  Biso   1.000  C
  C935     1.0000 0.31131  0.10640  0.21490  Biso   1.000  C
  C936     1.0000 0.21531  0.90143  0.21360  Biso   1.000  C
  C937     1.0000 0.21543  0.90152  0.21360  Biso   1.000  C
  C938     1.0000 0.68620  0.78469  0.21360  Biso   1.000  C
  C939     1.0000 0.68605  0.78469  0.21360  Biso   1.000  C
  C940     1.0000 0.79510  0.68862  0.21490  Biso   1.000  C
  C941     1.0000 0.79507  0.68871  0.21490  Biso   1.000  C
  C942     1.0000 0.79503  0.68862  0.21490  Biso   1.000  C
  C943     1.0000 0.65758  0.06517  0.31762  Biso   1.000  C
  C944     1.0000 0.65765  0.06517  0.31762  Biso   1.000  C
  H510     1.0000 0.64417  0.16615  0.26414  Biso   1.000  H
  C945     1.0000 0.61312  0.10658  0.24324  Biso   1.000  C
  H511     1.0000 0.64425  0.16615  0.26414  Biso   1.000  H
  C946     1.0000 0.61319  0.10658  0.24324  Biso   1.000  C
  C947     1.0000 0.51077  0.90203  0.24152  Biso   1.000  C
  H512     1.0000 0.47114  0.81965  0.26114  Biso   1.000  H
  C948     1.0000 0.51081  0.90212  0.24152  Biso   1.000  C
  C949     1.0000 0.50897  0.82283  0.31465  Biso   1.000  C
  C950     1.0000 0.50912  0.82283  0.31465  Biso   1.000  C
  H513     1.0000 0.52201  0.35580  0.26414  Biso   1.000  H
  C951     1.0000 0.49341  0.38688  0.24324  Biso   1.000  C
  H514     1.0000 0.52193  0.35580  0.26414  Biso   1.000  H
  C952     1.0000 0.39126  0.48915  0.24152  Biso   1.000  C
  H515     1.0000 0.34848  0.52884  0.26114  Biso   1.000  H
  H516     1.0000 0.34841  0.52884  0.26114  Biso   1.000  H
  C953     1.0000 0.31381  0.49096  0.31465  Biso   1.000  C
  C954     1.0000 0.40768  0.34246  0.31762  Biso   1.000  C
  C955     1.0000 0.40753  0.34246  0.31762  Biso   1.000  C
  C956     1.0000 0.41513  0.10813  0.21583  Biso   1.000  C
  C957     1.0000 0.41517  0.10821  0.21583  Biso   1.000  C
  H517     1.0000 0.30997  0.17648  0.21497  Biso   1.000  H
  H518     1.0000 0.30989  0.17648  0.21497  Biso   1.000  H
  C958     1.0000 0.32151  0.90866  0.21441  Biso   1.000  C
  C959     1.0000 0.32159  0.90866  0.21441  Biso   1.000  C
  H519     1.0000 0.14692  0.82877  0.21286  Biso   1.000  H
  C960     1.0000 0.58716  0.67846  0.21441  Biso   1.000  C
  H520     1.0000 0.68191  0.85305  0.21286  Biso   1.000  H
  H521     1.0000 0.68176  0.85305  0.21286  Biso   1.000  H
  C961     1.0000 0.69306  0.58488  0.21583  Biso   1.000  C
  H522     1.0000 0.86651  0.69008  0.21497  Biso   1.000  H
  H523     1.0000 0.70881  0.14558  0.31853  Biso   1.000  H
  C962     1.0000 0.62887  0.99001  0.32950  Biso   1.000  C
  C963     1.0000 0.56218  0.00887  0.23463  Biso   1.000  C
  H524     1.0000 0.65157  0.18035  0.23886  Biso   1.000  H
  C964     1.0000 0.56210  0.00887  0.23463  Biso   1.000  C
  H525     1.0000 0.65150  0.18035  0.23886  Biso   1.000  H
  H526     1.0000 0.47802  0.83385  0.23586  Biso   1.000  H
  H527     1.0000 0.47810  0.83385  0.23586  Biso   1.000  H
  C965     1.0000 0.55564  0.87233  0.32817  Biso   1.000  C
  H528     1.0000 0.46147  0.74199  0.31354  Biso   1.000  H
  H529     1.0000 0.46151  0.74208  0.31354  Biso   1.000  H
  C966     1.0000 0.44672  0.43784  0.23463  Biso   1.000  C
  H530     1.0000 0.52886  0.34848  0.23886  Biso   1.000  H
  H531     1.0000 0.35585  0.52195  0.23586  Biso   1.000  H
  C967     1.0000 0.31665  0.44430  0.32817  Biso   1.000  C
  H532     1.0000 0.28061  0.53848  0.31354  Biso   1.000  H
  H533     1.0000 0.28050  0.53857  0.31354  Biso   1.000  H
  H534     1.0000 0.28046  0.53848  0.31354  Biso   1.000  H
  H535     1.0000 0.28065  0.53857  0.31354  Biso   1.000  H
  H536     1.0000 0.43687  0.29124  0.31853  Biso   1.000  H
  C968     1.0000 0.36118  0.37113  0.32950  Biso   1.000  C
  H537     1.0000 0.43679  0.29124  0.31853  Biso   1.000  H
  N143     1.0000 0.41972  0.01024  0.21549  Biso   1.000  N
  N144     1.0000 0.41984  0.01033  0.21549  Biso   1.000  N
  N145     1.0000 0.41976  0.01033  0.21549  Biso   1.000  N
  H538     1.0000 0.48446  0.17984  0.21677  Biso   1.000  H
  H539     1.0000 0.48450  0.17992  0.21677  Biso   1.000  H
  H540     1.0000 0.48443  0.17992  0.21677  Biso   1.000  H
  H541     1.0000 0.32532  0.83979  0.21417  Biso   1.000  H
  H542     1.0000 0.32540  0.83979  0.21417  Biso   1.000  H
  N146     1.0000 0.59061  0.58023  0.21549  Biso   1.000  N
  N147     1.0000 0.59050  0.58032  0.21549  Biso   1.000  N
  N148     1.0000 0.59046  0.58023  0.21549  Biso   1.000  N
  H543     1.0000 0.51452  0.67467  0.21417  Biso   1.000  H
  H544     1.0000 0.51437  0.67467  0.21417  Biso   1.000  H
  H545     1.0000 0.69546  0.51558  0.21677  Biso   1.000  H
  H546     1.0000 0.69539  0.51558  0.21677  Biso   1.000  H
  Cl116    1.0000 0.68881  0.05010  0.34608  Biso   1.000  Cl
  Cl117    1.0000 0.68874  0.05010  0.34608  Biso   1.000  Cl
  B63      1.0000 0.54924  0.01937  0.21773  Biso   1.000  B
  Cl118    1.0000 0.51768  0.78151  0.34301  Biso   1.000  Cl
  B64      1.0000 0.47010  0.45076  0.21773  Biso   1.000  B
  Cl119    1.0000 0.26383  0.48227  0.34301  Biso   1.000  Cl
  Cl120    1.0000 0.26388  0.48235  0.34301  Biso   1.000  Cl
  Cl121    1.0000 0.36141  0.31121  0.34608  Biso   1.000  Cl
  Cl122    1.0000 0.36134  0.31121  0.34608  Biso   1.000  Cl
  O132     1.0000 0.63044  0.13094  0.21100  Biso   1.000  O
  O133     1.0000 0.63049  0.13103  0.21100  Biso   1.000  O
  O134     1.0000 0.63041  0.13103  0.21100  Biso   1.000  O
  O135     1.0000 0.54666  0.92863  0.20841  Biso   1.000  O
  O136     1.0000 0.54670  0.92872  0.20841  Biso   1.000  O
  O137     1.0000 0.50064  0.36958  0.21100  Biso   1.000  O
  O138     1.0000 0.38208  0.45334  0.20841  Biso   1.000  O
  O139     1.0000 0.50056  0.36958  0.21100  Biso   1.000  O
  O140     1.0000 0.38200  0.45334  0.20841  Biso   1.000  O
  C969     1.0000 0.63877  0.10331  0.19690  Biso   1.000  C
  C970     1.0000 0.59127  0.98356  0.19554  Biso   1.000  C
  C971     1.0000 0.59142  0.98356  0.19554  Biso   1.000  C
  C972     1.0000 0.46455  0.36123  0.19690  Biso   1.000  C
  C973     1.0000 0.46460  0.36131  0.19690  Biso   1.000  C
  C974     1.0000 0.39224  0.40866  0.19554  Biso   1.000  C
  C975     1.0000 0.68621  0.17717  0.18535  Biso   1.000  C
  C976     1.0000 0.68629  0.17717  0.18535  Biso   1.000  C
  C977     1.0000 0.59241  0.93483  0.18238  Biso   1.000  C
  C978     1.0000 0.59245  0.93492  0.18238  Biso   1.000  C
  C979     1.0000 0.49101  0.31379  0.18535  Biso   1.000  C
  C980     1.0000 0.49086  0.31379  0.18535  Biso   1.000  C
  C981     1.0000 0.34248  0.40754  0.18238  Biso   1.000  C
  C982     1.0000 0.34233  0.40754  0.18238  Biso   1.000  C
  C983     1.0000 0.68338  0.12767  0.17183  Biso   1.000  C
  H547     1.0000 0.71948  0.25801  0.18646  Biso   1.000  H
  C984     1.0000 0.68331  0.12767  0.17183  Biso   1.000  C
  C985     1.0000 0.63886  0.00999  0.17050  Biso   1.000  C
  H548     1.0000 0.56316  0.85442  0.18147  Biso   1.000  H
  H549     1.0000 0.56321  0.85451  0.18147  Biso   1.000  H
  H550     1.0000 0.56328  0.85451  0.18147  Biso   1.000  H
  C986     1.0000 0.44442  0.31663  0.17183  Biso   1.000  C
  H551     1.0000 0.53851  0.28056  0.18646  Biso   1.000  H
  C987     1.0000 0.44434  0.31663  0.17183  Biso   1.000  C
  H552     1.0000 0.29124  0.43673  0.18147  Biso   1.000  H
  C988     1.0000 0.37109  0.36114  0.17050  Biso   1.000  C
  H553     1.0000 0.29128  0.43681  0.18147  Biso   1.000  H
  Cl123    1.0000 0.73617  0.21849  0.15699  Biso   1.000  Cl
  Cl124    1.0000 0.73625  0.21849  0.15699  Biso   1.000  Cl
  Cl125    1.0000 0.63863  0.94990  0.15392  Biso   1.000  Cl
  Cl126    1.0000 0.48233  0.26377  0.15699  Biso   1.000  Cl
  Cl127    1.0000 0.48237  0.26386  0.15699  Biso   1.000  Cl
  Cl128    1.0000 0.31124  0.36131  0.15392  Biso   1.000  Cl
  C989     1.0000 0.12771  0.68337  0.32817  Biso   1.000  C
  C990     1.0000 0.17715  0.68621  0.31465  Biso   1.000  C
  C991     1.0000 0.17719  0.68629  0.31465  Biso   1.000  C
  C992     1.0000 0.01003  0.63886  0.32950  Biso   1.000  C
  C993     1.0000 0.00995  0.63886  0.32950  Biso   1.000  C
  Cl129    1.0000 0.21856  0.73623  0.34301  Biso   1.000  Cl
  Cl130    1.0000 0.21848  0.73623  0.34301  Biso   1.000  Cl
  C994     1.0000 0.10333  0.63877  0.30310  Biso   1.000  C
  C995     1.0000 0.10325  0.63877  0.30310  Biso   1.000  C
  H554     1.0000 0.25795  0.71944  0.31354  Biso   1.000  H
  H555     1.0000 0.25803  0.71944  0.31354  Biso   1.000  H
  C996     1.0000 0.12764  0.68337  0.32817  Biso   1.000  C
  C997     1.0000 0.93486  0.59246  0.31762  Biso   1.000  C
  C998     1.0000 0.93494  0.59246  0.31762  Biso   1.000  C
  Cl131    1.0000 0.94993  0.63869  0.34608  Biso   1.000  Cl
  O141     1.0000 0.13099  0.63042  0.28900  Biso   1.000  O
  O142     1.0000 0.13103  0.63051  0.28900  Biso   1.000  O
  O143     1.0000 0.13096  0.63051  0.28900  Biso   1.000  O
  C999     1.0000 0.98358  0.59134  0.30446  Biso   1.000  C
  H556     1.0000 0.85451  0.56327  0.31853  Biso   1.000  H
  B65      1.0000 0.01942  0.54924  0.28227  Biso   1.000  B
  B66      1.0000 0.01935  0.54924  0.28227  Biso   1.000  B
  O144     1.0000 0.92866  0.54666  0.29159  Biso   1.000  O
  O145     1.0000 0.92874  0.54666  0.29159  Biso   1.000  O
  C1000    1.0000 0.00888  0.56216  0.26537  Biso   1.000  C
  N149     1.0000 0.01030  0.41977  0.28451  Biso   1.000  N
  N150     1.0000 0.01023  0.41977  0.28451  Biso   1.000  N
  C1001    1.0000 0.10653  0.61312  0.25676  Biso   1.000  C
  C1002    1.0000 0.10665  0.61321  0.25676  Biso   1.000  C
  C1003    1.0000 0.10660  0.61312  0.25676  Biso   1.000  C
  C1004    1.0000 0.10657  0.61321  0.25676  Biso   1.000  C
  C1005    1.0000 0.90204  0.51085  0.25848  Biso   1.000  C
  C1006    1.0000 0.90211  0.51085  0.25848  Biso   1.000  C
  C1007    1.0000 0.10818  0.41512  0.28417  Biso   1.000  C
  C1008    1.0000 0.90870  0.32154  0.28559  Biso   1.000  C
  C1009    1.0000 0.10822  0.41520  0.28417  Biso   1.000  C
  C1010    1.0000 0.10815  0.41520  0.28417  Biso   1.000  C
  C1011    1.0000 0.09797  0.60882  0.24152  Biso   1.000  C
  C1012    1.0000 0.09789  0.60882  0.24152  Biso   1.000  C
  H557     1.0000 0.18038  0.65152  0.26114  Biso   1.000  H
  H558     1.0000 0.18042  0.65160  0.26114  Biso   1.000  H
  H559     1.0000 0.18034  0.65160  0.26114  Biso   1.000  H
  C1013    1.0000 0.89340  0.50654  0.24324  Biso   1.000  C
  C1014    1.0000 0.89351  0.50663  0.24324  Biso   1.000  C
  C1015    1.0000 0.89347  0.50654  0.24324  Biso   1.000  C
  H560     1.0000 0.83389  0.47805  0.26414  Biso   1.000  H
  C1016    1.0000 0.10641  0.31138  0.28510  Biso   1.000  C
  H561     1.0000 0.17988  0.48442  0.28323  Biso   1.000  H
  H562     1.0000 0.17992  0.48450  0.28323  Biso   1.000  H
  H563     1.0000 0.17985  0.48450  0.28323  Biso   1.000  H
  C1017    1.0000 0.10634  0.31138  0.28510  Biso   1.000  C
  C1018    1.0000 0.90144  0.21531  0.28640  Biso   1.000  C
  H564     1.0000 0.83977  0.32533  0.28583  Biso   1.000  H
  C1019    1.0000 0.90155  0.21539  0.28640  Biso   1.000  C
  C1020    1.0000 0.99117  0.55329  0.23463  Biso   1.000  C
  H565     1.0000 0.16613  0.64420  0.23586  Biso   1.000  H
  H566     1.0000 0.16621  0.64420  0.23586  Biso   1.000  H
  H567     1.0000 0.81964  0.47116  0.23886  Biso   1.000  H
  C1021    1.0000 0.00308  0.21014  0.28614  Biso   1.000  C
  H568     1.0000 0.17643  0.30992  0.28503  Biso   1.000  H
  H569     1.0000 0.17655  0.31000  0.28503  Biso   1.000  H
  H570     1.0000 0.17650  0.30992  0.28503  Biso   1.000  H
  C1022    1.0000 0.00301  0.21014  0.28614  Biso   1.000  C
  H571     1.0000 0.17647  0.31000  0.28503  Biso   1.000  H
  H572     1.0000 0.82879  0.14695  0.28714  Biso   1.000  H
  B67      1.0000 0.98066  0.52987  0.21773  Biso   1.000  B
  C1023    1.0000 0.00086  0.09805  0.28689  Biso   1.000  C
  N151     1.0000 0.98970  0.40944  0.21549  Biso   1.000  N
  N152     1.0000 0.98975  0.40952  0.21549  Biso   1.000  N
  N153     1.0000 0.98982  0.40952  0.21549  Biso   1.000  N
  O146     1.0000 0.86907  0.49948  0.21100  Biso   1.000  O
  O147     1.0000 0.07129  0.61794  0.20841  Biso   1.000  O
  O148     1.0000 0.07141  0.61803  0.20841  Biso   1.000  O
  O149     1.0000 0.07137  0.61794  0.20841  Biso   1.000  O
  O150     1.0000 0.07133  0.61803  0.20841  Biso   1.000  O
  N154     1.0000 0.10301  0.10210  0.28688  Biso   1.000  N
  N155     1.0000 0.10313  0.10219  0.28688  Biso   1.000  N
  N156     1.0000 0.10309  0.10210  0.28688  Biso   1.000  N
  N157     1.0000 0.10306  0.10219  0.28688  Biso   1.000  N
  N158     1.0000 0.89789  0.00095  0.28688  Biso   1.000  N
  C1024    1.0000 0.09133  0.41288  0.21441  Biso   1.000  C
  C1025    1.0000 0.89181  0.30699  0.21583  Biso   1.000  C
  C1026    1.0000 0.89188  0.30699  0.21583  Biso   1.000  C
  C1027    1.0000 0.89675  0.53547  0.19690  Biso   1.000  C
  C1028    1.0000 0.01648  0.60778  0.19554  Biso   1.000  C
  C1029    1.0000 0.01641  0.60778  0.19554  Biso   1.000  C
  C1030    1.0000 0.09709  0.99914  0.28689  Biso   1.000  C
  C1031    1.0000 0.09724  0.99914  0.28689  Biso   1.000  C
  C1032    1.0000 0.90205  0.90281  0.28689  Biso   1.000  C
  C1033    1.0000 0.90202  0.90289  0.28689  Biso   1.000  C
  C1034    1.0000 0.90197  0.90281  0.28689  Biso   1.000  C
  C1035    1.0000 0.09856  0.31388  0.21360  Biso   1.000  C
  C1036    1.0000 0.09849  0.31388  0.21360  Biso   1.000  C
  H573     1.0000 0.16024  0.48554  0.21417  Biso   1.000  H
  H574     1.0000 0.16028  0.48562  0.21417  Biso   1.000  H
  H575     1.0000 0.16021  0.48562  0.21417  Biso   1.000  H
  C1037    1.0000 0.89366  0.20498  0.21490  Biso   1.000  C
  H576     1.0000 0.82015  0.30458  0.21677  Biso   1.000  H
  C1038    1.0000 0.82277  0.50904  0.18535  Biso   1.000  C
  C1039    1.0000 0.82289  0.50913  0.18535  Biso   1.000  C
  C1040    1.0000 0.82285  0.50904  0.18535  Biso   1.000  C
  C1041    1.0000 0.06515  0.65754  0.18238  Biso   1.000  C
  C1042    1.0000 0.06519  0.65763  0.18238  Biso   1.000  C
  C1043    1.0000 0.06511  0.65763  0.18238  Biso   1.000  C
  C1044    1.0000 0.20698  0.99690  0.28614  Biso   1.000  C
  C1045    1.0000 0.20702  0.99699  0.28614  Biso   1.000  C
  C1046    1.0000 0.20717  0.99699  0.28614  Biso   1.000  C
  N159     1.0000 0.99910  0.89695  0.28688  Biso   1.000  N
  N160     1.0000 0.99902  0.89695  0.28688  Biso   1.000  N
  C1047    1.0000 0.78994  0.79296  0.28614  Biso   1.000  C
  C1048    1.0000 0.78979  0.79296  0.28614  Biso   1.000  C
  C1049    1.0000 0.99691  0.20704  0.21386  Biso   1.000  C
  C1050    1.0000 0.99695  0.20713  0.21386  Biso   1.000  C
  C1051    1.0000 0.99703  0.20713  0.21386  Biso   1.000  C
  H577     1.0000 0.17124  0.31818  0.21286  Biso   1.000  H
  H578     1.0000 0.82352  0.13344  0.21497  Biso   1.000  H
  H579     1.0000 0.82356  0.13352  0.21497  Biso   1.000  H
  H580     1.0000 0.82364  0.13352  0.21497  Biso   1.000  H
  C1052    1.0000 0.87235  0.55570  0.17183  Biso   1.000  C
  H581     1.0000 0.74205  0.46152  0.18646  Biso   1.000  H
  C1053    1.0000 0.87242  0.55570  0.17183  Biso   1.000  C
  H582     1.0000 0.74213  0.46152  0.18646  Biso   1.000  H
  H583     1.0000 0.14555  0.70876  0.18147  Biso   1.000  H
  C1054    1.0000 0.99005  0.62887  0.17050  Biso   1.000  C
  H584     1.0000 0.14548  0.70876  0.18147  Biso   1.000  H
  C1055    1.0000 0.31388  0.09857  0.28640  Biso   1.000  C
  C1056    1.0000 0.31395  0.09857  0.28640  Biso   1.000  C
  C1057    1.0000 0.20491  0.89360  0.28510  Biso   1.000  C
  C1058    1.0000 0.20495  0.89368  0.28510  Biso   1.000  C
  C1059    1.0000 0.78476  0.68612  0.28640  Biso   1.000  C
  C1060    1.0000 0.78469  0.68612  0.28640  Biso   1.000  C
  C1061    1.0000 0.68876  0.79502  0.28510  Biso   1.000  C
  C1062    1.0000 0.68868  0.79502  0.28510  Biso   1.000  C
  C1063    1.0000 0.99917  0.09719  0.21311  Biso   1.000  C
  Cl132    1.0000 0.78149  0.51773  0.15699  Biso   1.000  Cl
  Cl133    1.0000 0.78157  0.51773  0.15699  Biso   1.000  Cl
  Cl134    1.0000 0.05013  0.68879  0.15392  Biso   1.000  Cl
  Cl135    1.0000 0.05005  0.68879  0.15392  Biso   1.000  Cl
  C1064    1.0000 0.41293  0.09134  0.28559  Biso   1.000  C
  C1065    1.0000 0.41285  0.09134  0.28559  Biso   1.000  C
  H585     1.0000 0.31822  0.17123  0.28714  Biso   1.000  H
  H586     1.0000 0.31815  0.17123  0.28714  Biso   1.000  H
  C1066    1.0000 0.30700  0.89187  0.28417  Biso   1.000  C
  H587     1.0000 0.13348  0.82352  0.28503  Biso   1.000  H
  C1067    1.0000 0.67845  0.58712  0.28559  Biso   1.000  C
  H588     1.0000 0.85314  0.68182  0.28714  Biso   1.000  H
  H589     1.0000 0.85306  0.68182  0.28714  Biso   1.000  H
  C1068    1.0000 0.58482  0.69301  0.28417  Biso   1.000  C
  H590     1.0000 0.69016  0.86656  0.28503  Biso   1.000  H
  H591     1.0000 0.69001  0.86656  0.28503  Biso   1.000  H
  N161     1.0000 0.10215  0.10305  0.21312  Biso   1.000  N
  N162     1.0000 0.10219  0.10313  0.21312  Biso   1.000  N
  N163     1.0000 0.10211  0.10313  0.21312  Biso   1.000  N
  N164     1.0000 0.89701  0.99905  0.21312  Biso   1.000  N
  N165     1.0000 0.89686  0.99905  0.21312  Biso   1.000  N
  N166     1.0000 0.40948  0.98976  0.28451  Biso   1.000  N
  H592     1.0000 0.48553  0.16021  0.28583  Biso   1.000  H
  H593     1.0000 0.48565  0.16030  0.28583  Biso   1.000  H
  H594     1.0000 0.48561  0.16021  0.28583  Biso   1.000  H
  H595     1.0000 0.48558  0.16030  0.28583  Biso   1.000  H
  H596     1.0000 0.30462  0.82016  0.28323  Biso   1.000  H
  H597     1.0000 0.67470  0.51446  0.28583  Biso   1.000  H
  N167     1.0000 0.58027  0.59056  0.28451  Biso   1.000  N
  N168     1.0000 0.58019  0.59056  0.28451  Biso   1.000  N
  H598     1.0000 0.51557  0.69542  0.28323  Biso   1.000  H
  C1069    1.0000 0.09802  0.00086  0.21311  Biso   1.000  C
  C1070    1.0000 0.90289  0.90195  0.21311  Biso   1.000  C
  C1071    1.0000 0.90281  0.90195  0.21311  Biso   1.000  C
  B68      1.0000 0.52987  0.98063  0.28227  Biso   1.000  B
  B69      1.0000 0.45086  0.47013  0.28227  Biso   1.000  B
  B70      1.0000 0.45079  0.47013  0.28227  Biso   1.000  B
  C1072    1.0000 0.21015  0.00310  0.21386  Biso   1.000  C
  N169     1.0000 0.00091  0.89790  0.21312  Biso   1.000  N
  N170     1.0000 0.00099  0.89790  0.21312  Biso   1.000  N
  C1073    1.0000 0.79301  0.78986  0.21386  Biso   1.000  C
  C1074    1.0000 0.79286  0.78986  0.21386  Biso   1.000  C
  C1075    1.0000 0.55331  0.99113  0.26537  Biso   1.000  C
  O151     1.0000 0.61803  0.07137  0.29159  Biso   1.000  O
  O152     1.0000 0.49943  0.86906  0.28900  Biso   1.000  O
  O153     1.0000 0.61795  0.07137  0.29159  Biso   1.000  O
  C1076    1.0000 0.43789  0.44671  0.26537  Biso   1.000  C
  O154     1.0000 0.36958  0.50052  0.28900  Biso   1.000  O
  O155     1.0000 0.45335  0.38206  0.29159  Biso   1.000  O
  C1077    1.0000 0.31138  0.10640  0.21490  Biso   1.000  C
  C1078    1.0000 0.21531  0.90143  0.21360  Biso   1.000  C
  C1079    1.0000 0.21543  0.90152  0.21360  Biso   1.000  C
  C1080    1.0000 0.31131  0.10640  0.21490  Biso   1.000  C
  C1081    1.0000 0.68620  0.78469  0.21360  Biso   1.000  C
  C1082    1.0000 0.79510  0.68862  0.21490  Biso   1.000  C
  C1083    1.0000 0.79507  0.68871  0.21490  Biso   1.000  C
  C1084    1.0000 0.68605  0.78469  0.21360  Biso   1.000  C
  C1085    1.0000 0.79503  0.68862  0.21490  Biso   1.000  C
  C1086    1.0000 0.60881  0.09797  0.25848  Biso   1.000  C
  C1087    1.0000 0.60874  0.09797  0.25848  Biso   1.000  C
  C1088    1.0000 0.50647  0.89342  0.25676  Biso   1.000  C
  C1089    1.0000 0.50662  0.89342  0.25676  Biso   1.000  C
  C1090    1.0000 0.60779  0.01644  0.30446  Biso   1.000  C
  C1091    1.0000 0.53551  0.89678  0.30310  Biso   1.000  C
  C1092    1.0000 0.53546  0.89669  0.30310  Biso   1.000  C
  C1093    1.0000 0.38685  0.49346  0.25676  Biso   1.000  C
  C1094    1.0000 0.48923  0.39118  0.25848  Biso   1.000  C
  C1095    1.0000 0.48919  0.39127  0.25848  Biso   1.000  C
  C1096    1.0000 0.48915  0.39118  0.25848  Biso   1.000  C
  C1097    1.0000 0.36128  0.46453  0.30310  Biso   1.000  C
  C1098    1.0000 0.40863  0.39222  0.30446  Biso   1.000  C
  H599     1.0000 0.30997  0.17648  0.21497  Biso   1.000  H
  C1099    1.0000 0.41513  0.10813  0.21583  Biso   1.000  C
  C1100    1.0000 0.41517  0.10821  0.21583  Biso   1.000  C
  H600     1.0000 0.30989  0.17648  0.21497  Biso   1.000  H
  H601     1.0000 0.14692  0.82877  0.21286  Biso   1.000  H
  C1101    1.0000 0.32151  0.90866  0.21441  Biso   1.000  C
  C1102    1.0000 0.32159  0.90866  0.21441  Biso   1.000  C
  C1103    1.0000 0.58716  0.67846  0.21441  Biso   1.000  C
  H602     1.0000 0.68191  0.85305  0.21286  Biso   1.000  H
  H603     1.0000 0.68176  0.85305  0.21286  Biso   1.000  H
  C1104    1.0000 0.69306  0.58488  0.21583  Biso   1.000  C
  H604     1.0000 0.86651  0.69008  0.21497  Biso   1.000  H
  C1105    1.0000 0.61319  0.10658  0.24324  Biso   1.000  C
  C1106    1.0000 0.61312  0.10658  0.24324  Biso   1.000  C
  H605     1.0000 0.64425  0.16615  0.26414  Biso   1.000  H
  H606     1.0000 0.64417  0.16615  0.26414  Biso   1.000  H
  C1107    1.0000 0.51077  0.90203  0.24152  Biso   1.000  C
  C1108    1.0000 0.51081  0.90212  0.24152  Biso   1.000  C
  H607     1.0000 0.47114  0.81965  0.26114  Biso   1.000  H
  C1109    1.0000 0.65765  0.06517  0.31762  Biso   1.000  C
  C1110    1.0000 0.65758  0.06517  0.31762  Biso   1.000  C
  C1111    1.0000 0.50897  0.82283  0.31465  Biso   1.000  C
  C1112    1.0000 0.50912  0.82283  0.31465  Biso   1.000  C
  C1113    1.0000 0.39126  0.48915  0.24152  Biso   1.000  C
  H608     1.0000 0.34848  0.52884  0.26114  Biso   1.000  H
  H609     1.0000 0.34841  0.52884  0.26114  Biso   1.000  H
  C1114    1.0000 0.49341  0.38688  0.24324  Biso   1.000  C
  H610     1.0000 0.52201  0.35580  0.26414  Biso   1.000  H
  H611     1.0000 0.52193  0.35580  0.26414  Biso   1.000  H
  C1115    1.0000 0.31381  0.49096  0.31465  Biso   1.000  C
  C1116    1.0000 0.40768  0.34246  0.31762  Biso   1.000  C
  C1117    1.0000 0.40753  0.34246  0.31762  Biso   1.000  C
  N171     1.0000 0.41972  0.01024  0.21549  Biso   1.000  N
  H612     1.0000 0.48446  0.17984  0.21677  Biso   1.000  H
  N172     1.0000 0.41984  0.01033  0.21549  Biso   1.000  N
  H613     1.0000 0.48450  0.17992  0.21677  Biso   1.000  H
  N173     1.0000 0.41976  0.01033  0.21549  Biso   1.000  N
  H614     1.0000 0.48443  0.17992  0.21677  Biso   1.000  H
  H615     1.0000 0.32532  0.83979  0.21417  Biso   1.000  H
  H616     1.0000 0.32540  0.83979  0.21417  Biso   1.000  H
  H617     1.0000 0.51452  0.67467  0.21417  Biso   1.000  H
  N174     1.0000 0.59061  0.58023  0.21549  Biso   1.000  N
  H618     1.0000 0.51437  0.67467  0.21417  Biso   1.000  H
  N175     1.0000 0.59050  0.58032  0.21549  Biso   1.000  N
  N176     1.0000 0.59046  0.58023  0.21549  Biso   1.000  N
  H619     1.0000 0.69546  0.51558  0.21677  Biso   1.000  H
  H620     1.0000 0.69539  0.51558  0.21677  Biso   1.000  H
  C1118    1.0000 0.56218  0.00887  0.23463  Biso   1.000  C
  C1119    1.0000 0.56210  0.00887  0.23463  Biso   1.000  C
  H621     1.0000 0.65157  0.18035  0.23886  Biso   1.000  H
  H622     1.0000 0.65150  0.18035  0.23886  Biso   1.000  H
  H623     1.0000 0.47802  0.83385  0.23586  Biso   1.000  H
  H624     1.0000 0.47810  0.83385  0.23586  Biso   1.000  H
  C1120    1.0000 0.62887  0.99001  0.32950  Biso   1.000  C
  H625     1.0000 0.70881  0.14558  0.31853  Biso   1.000  H
  H626     1.0000 0.46151  0.74208  0.31354  Biso   1.000  H
  C1121    1.0000 0.55564  0.87233  0.32817  Biso   1.000  C
  H627     1.0000 0.46147  0.74199  0.31354  Biso   1.000  H
  C1122    1.0000 0.44672  0.43784  0.23463  Biso   1.000  C
  H628     1.0000 0.35585  0.52195  0.23586  Biso   1.000  H
  H629     1.0000 0.52886  0.34848  0.23886  Biso   1.000  H
  C1123    1.0000 0.31665  0.44430  0.32817  Biso   1.000  C
  H630     1.0000 0.28061  0.53848  0.31354  Biso   1.000  H
  H631     1.0000 0.28050  0.53857  0.31354  Biso   1.000  H
  H632     1.0000 0.28046  0.53848  0.31354  Biso   1.000  H
  H633     1.0000 0.28065  0.53857  0.31354  Biso   1.000  H
  C1124    1.0000 0.36118  0.37113  0.32950  Biso   1.000  C
  H634     1.0000 0.43687  0.29124  0.31853  Biso   1.000  H
  H635     1.0000 0.43679  0.29124  0.31853  Biso   1.000  H
  B71      1.0000 0.54924  0.01937  0.21773  Biso   1.000  B
  B72      1.0000 0.47010  0.45076  0.21773  Biso   1.000  B
  Cl136    1.0000 0.68881  0.05010  0.34608  Biso   1.000  Cl
  Cl137    1.0000 0.68874  0.05010  0.34608  Biso   1.000  Cl
  Cl138    1.0000 0.51768  0.78151  0.34301  Biso   1.000  Cl
  Cl139    1.0000 0.26383  0.48227  0.34301  Biso   1.000  Cl
  Cl140    1.0000 0.26388  0.48235  0.34301  Biso   1.000  Cl
  Cl141    1.0000 0.36141  0.31121  0.34608  Biso   1.000  Cl
  Cl142    1.0000 0.36134  0.31121  0.34608  Biso   1.000  Cl
  O156     1.0000 0.63044  0.13094  0.21100  Biso   1.000  O
  O157     1.0000 0.54666  0.92863  0.20841  Biso   1.000  O
  O158     1.0000 0.54670  0.92872  0.20841  Biso   1.000  O
  O159     1.0000 0.63049  0.13103  0.21100  Biso   1.000  O
  O160     1.0000 0.63041  0.13103  0.21100  Biso   1.000  O
  O161     1.0000 0.50064  0.36958  0.21100  Biso   1.000  O
  O162     1.0000 0.38208  0.45334  0.20841  Biso   1.000  O
  O163     1.0000 0.50056  0.36958  0.21100  Biso   1.000  O
  O164     1.0000 0.38200  0.45334  0.20841  Biso   1.000  O
  C1125    1.0000 0.63877  0.10331  0.19690  Biso   1.000  C
  C1126    1.0000 0.59127  0.98356  0.19554  Biso   1.000  C
  C1127    1.0000 0.59142  0.98356  0.19554  Biso   1.000  C
  C1128    1.0000 0.46455  0.36123  0.19690  Biso   1.000  C
  C1129    1.0000 0.46460  0.36131  0.19690  Biso   1.000  C
  C1130    1.0000 0.39224  0.40866  0.19554  Biso   1.000  C
  C1131    1.0000 0.68629  0.17717  0.18535  Biso   1.000  C
  C1132    1.0000 0.68621  0.17717  0.18535  Biso   1.000  C
  C1133    1.0000 0.59241  0.93483  0.18238  Biso   1.000  C
  C1134    1.0000 0.59245  0.93492  0.18238  Biso   1.000  C
  C1135    1.0000 0.49101  0.31379  0.18535  Biso   1.000  C
  C1136    1.0000 0.49086  0.31379  0.18535  Biso   1.000  C
  C1137    1.0000 0.34248  0.40754  0.18238  Biso   1.000  C
  C1138    1.0000 0.34233  0.40754  0.18238  Biso   1.000  C
  C1139    1.0000 0.68338  0.12767  0.17183  Biso   1.000  C
  H636     1.0000 0.71948  0.25801  0.18646  Biso   1.000  H
  C1140    1.0000 0.68331  0.12767  0.17183  Biso   1.000  C
  C1141    1.0000 0.63886  0.00999  0.17050  Biso   1.000  C
  H637     1.0000 0.56316  0.85442  0.18147  Biso   1.000  H
  H638     1.0000 0.56321  0.85451  0.18147  Biso   1.000  H
  H639     1.0000 0.56328  0.85451  0.18147  Biso   1.000  H
  H640     1.0000 0.53851  0.28056  0.18646  Biso   1.000  H
  C1142    1.0000 0.44442  0.31663  0.17183  Biso   1.000  C
  C1143    1.0000 0.44434  0.31663  0.17183  Biso   1.000  C
  H641     1.0000 0.29124  0.43673  0.18147  Biso   1.000  H
  C1144    1.0000 0.37109  0.36114  0.17050  Biso   1.000  C
  H642     1.0000 0.29128  0.43681  0.18147  Biso   1.000  H
  Cl143    1.0000 0.73625  0.21849  0.15699  Biso   1.000  Cl
  Cl144    1.0000 0.73617  0.21849  0.15699  Biso   1.000  Cl
  Cl145    1.0000 0.63863  0.94990  0.15392  Biso   1.000  Cl
  Cl146    1.0000 0.48233  0.26377  0.15699  Biso   1.000  Cl
  Cl147    1.0000 0.48237  0.26386  0.15699  Biso   1.000  Cl
  Cl148    1.0000 0.31124  0.36131  0.15392  Biso   1.000  Cl
  C1145    1.0000 0.12771  0.68337  0.32817  Biso   1.000  C
  C1146    1.0000 0.17715  0.68621  0.31465  Biso   1.000  C
  C1147    1.0000 0.17719  0.68629  0.31465  Biso   1.000  C
  C1148    1.0000 0.00995  0.63886  0.32950  Biso   1.000  C
  C1149    1.0000 0.01003  0.63886  0.32950  Biso   1.000  C
  Cl149    1.0000 0.21848  0.73623  0.34301  Biso   1.000  Cl
  Cl150    1.0000 0.21856  0.73623  0.34301  Biso   1.000  Cl
  C1150    1.0000 0.10325  0.63877  0.30310  Biso   1.000  C
  C1151    1.0000 0.10333  0.63877  0.30310  Biso   1.000  C
  H643     1.0000 0.25795  0.71944  0.31354  Biso   1.000  H
  H644     1.0000 0.25803  0.71944  0.31354  Biso   1.000  H
  C1152    1.0000 0.12764  0.68337  0.32817  Biso   1.000  C
  C1153    1.0000 0.93486  0.59246  0.31762  Biso   1.000  C
  C1154    1.0000 0.93494  0.59246  0.31762  Biso   1.000  C
  Cl151    1.0000 0.94993  0.63869  0.34608  Biso   1.000  Cl
  O165     1.0000 0.13099  0.63042  0.28900  Biso   1.000  O
  O166     1.0000 0.13103  0.63051  0.28900  Biso   1.000  O
  O167     1.0000 0.13096  0.63051  0.28900  Biso   1.000  O
  C1155    1.0000 0.98358  0.59134  0.30446  Biso   1.000  C
  H645     1.0000 0.85451  0.56327  0.31853  Biso   1.000  H
  B73      1.0000 0.01935  0.54924  0.28227  Biso   1.000  B
  B74      1.0000 0.01942  0.54924  0.28227  Biso   1.000  B
  O168     1.0000 0.92866  0.54666  0.29159  Biso   1.000  O
  O169     1.0000 0.92874  0.54666  0.29159  Biso   1.000  O
  C1156    1.0000 0.00888  0.56216  0.26537  Biso   1.000  C
  N177     1.0000 0.01030  0.41977  0.28451  Biso   1.000  N
  N178     1.0000 0.01023  0.41977  0.28451  Biso   1.000  N
  C1157    1.0000 0.10653  0.61312  0.25676  Biso   1.000  C
  C1158    1.0000 0.10665  0.61321  0.25676  Biso   1.000  C
  C1159    1.0000 0.10660  0.61312  0.25676  Biso   1.000  C
  C1160    1.0000 0.10657  0.61321  0.25676  Biso   1.000  C
  C1161    1.0000 0.90204  0.51085  0.25848  Biso   1.000  C
  C1162    1.0000 0.90211  0.51085  0.25848  Biso   1.000  C
  C1163    1.0000 0.90870  0.32154  0.28559  Biso   1.000  C
  C1164    1.0000 0.10818  0.41512  0.28417  Biso   1.000  C
  C1165    1.0000 0.10822  0.41520  0.28417  Biso   1.000  C
  C1166    1.0000 0.10815  0.41520  0.28417  Biso   1.000  C
  C1167    1.0000 0.09797  0.60882  0.24152  Biso   1.000  C
  C1168    1.0000 0.09789  0.60882  0.24152  Biso   1.000  C
  H646     1.0000 0.18038  0.65152  0.26114  Biso   1.000  H
  H647     1.0000 0.18042  0.65160  0.26114  Biso   1.000  H
  H648     1.0000 0.18034  0.65160  0.26114  Biso   1.000  H
  C1169    1.0000 0.89340  0.50654  0.24324  Biso   1.000  C
  C1170    1.0000 0.89351  0.50663  0.24324  Biso   1.000  C
  C1171    1.0000 0.89347  0.50654  0.24324  Biso   1.000  C
  H649     1.0000 0.83389  0.47805  0.26414  Biso   1.000  H
  C1172    1.0000 0.90144  0.21531  0.28640  Biso   1.000  C
  H650     1.0000 0.83977  0.32533  0.28583  Biso   1.000  H
  C1173    1.0000 0.90155  0.21539  0.28640  Biso   1.000  C
  C1174    1.0000 0.10641  0.31138  0.28510  Biso   1.000  C
  H651     1.0000 0.17988  0.48442  0.28323  Biso   1.000  H
  H652     1.0000 0.17992  0.48450  0.28323  Biso   1.000  H
  H653     1.0000 0.17985  0.48450  0.28323  Biso   1.000  H
  C1175    1.0000 0.10634  0.31138  0.28510  Biso   1.000  C
  C1176    1.0000 0.99117  0.55329  0.23463  Biso   1.000  C
  H654     1.0000 0.16613  0.64420  0.23586  Biso   1.000  H
  H655     1.0000 0.16621  0.64420  0.23586  Biso   1.000  H
  H656     1.0000 0.81964  0.47116  0.23886  Biso   1.000  H
  C1177    1.0000 0.00308  0.21014  0.28614  Biso   1.000  C
  C1178    1.0000 0.00301  0.21014  0.28614  Biso   1.000  C
  H657     1.0000 0.82879  0.14695  0.28714  Biso   1.000  H
  H658     1.0000 0.17643  0.30992  0.28503  Biso   1.000  H
  H659     1.0000 0.17655  0.31000  0.28503  Biso   1.000  H
  H660     1.0000 0.17650  0.30992  0.28503  Biso   1.000  H
  H661     1.0000 0.17647  0.31000  0.28503  Biso   1.000  H
  B75      1.0000 0.98066  0.52987  0.21773  Biso   1.000  B
  C1179    1.0000 0.00086  0.09805  0.28689  Biso   1.000  C
  N179     1.0000 0.98970  0.40944  0.21549  Biso   1.000  N
  N180     1.0000 0.98975  0.40952  0.21549  Biso   1.000  N
  N181     1.0000 0.98982  0.40952  0.21549  Biso   1.000  N
  O170     1.0000 0.86907  0.49948  0.21100  Biso   1.000  O
  O171     1.0000 0.07129  0.61794  0.20841  Biso   1.000  O
  O172     1.0000 0.07141  0.61803  0.20841  Biso   1.000  O
  O173     1.0000 0.07137  0.61794  0.20841  Biso   1.000  O
  O174     1.0000 0.07133  0.61803  0.20841  Biso   1.000  O
  N182     1.0000 0.10301  0.10210  0.28688  Biso   1.000  N
  N183     1.0000 0.10313  0.10219  0.28688  Biso   1.000  N
  N184     1.0000 0.10309  0.10210  0.28688  Biso   1.000  N
  N185     1.0000 0.10306  0.10219  0.28688  Biso   1.000  N
  N186     1.0000 0.89789  0.00095  0.28688  Biso   1.000  N
  C1180    1.0000 0.09133  0.41288  0.21441  Biso   1.000  C
  C1181    1.0000 0.89181  0.30699  0.21583  Biso   1.000  C
  C1182    1.0000 0.89188  0.30699  0.21583  Biso   1.000  C
  C1183    1.0000 0.89675  0.53547  0.19690  Biso   1.000  C
  C1184    1.0000 0.01641  0.60778  0.19554  Biso   1.000  C
  C1185    1.0000 0.01648  0.60778  0.19554  Biso   1.000  C
  C1186    1.0000 0.09709  0.99914  0.28689  Biso   1.000  C
  C1187    1.0000 0.09724  0.99914  0.28689  Biso   1.000  C
  C1188    1.0000 0.90205  0.90281  0.28689  Biso   1.000  C
  C1189    1.0000 0.90202  0.90289  0.28689  Biso   1.000  C
  C1190    1.0000 0.90197  0.90281  0.28689  Biso   1.000  C
  C1191    1.0000 0.09856  0.31388  0.21360  Biso   1.000  C
  C1192    1.0000 0.09849  0.31388  0.21360  Biso   1.000  C
  H662     1.0000 0.16024  0.48554  0.21417  Biso   1.000  H
  H663     1.0000 0.16028  0.48562  0.21417  Biso   1.000  H
  H664     1.0000 0.16021  0.48562  0.21417  Biso   1.000  H
  C1193    1.0000 0.89366  0.20498  0.21490  Biso   1.000  C
  H665     1.0000 0.82015  0.30458  0.21677  Biso   1.000  H
  C1194    1.0000 0.82277  0.50904  0.18535  Biso   1.000  C
  C1195    1.0000 0.82289  0.50913  0.18535  Biso   1.000  C
  C1196    1.0000 0.82285  0.50904  0.18535  Biso   1.000  C
  C1197    1.0000 0.06515  0.65754  0.18238  Biso   1.000  C
  C1198    1.0000 0.06519  0.65763  0.18238  Biso   1.000  C
  C1199    1.0000 0.06511  0.65763  0.18238  Biso   1.000  C
  C1200    1.0000 0.20698  0.99690  0.28614  Biso   1.000  C
  C1201    1.0000 0.20702  0.99699  0.28614  Biso   1.000  C
  C1202    1.0000 0.20717  0.99699  0.28614  Biso   1.000  C
  N187     1.0000 0.99910  0.89695  0.28688  Biso   1.000  N
  N188     1.0000 0.99902  0.89695  0.28688  Biso   1.000  N
  C1203    1.0000 0.78994  0.79296  0.28614  Biso   1.000  C
  C1204    1.0000 0.78979  0.79296  0.28614  Biso   1.000  C
  C1205    1.0000 0.99691  0.20704  0.21386  Biso   1.000  C
  C1206    1.0000 0.99695  0.20713  0.21386  Biso   1.000  C
  C1207    1.0000 0.99703  0.20713  0.21386  Biso   1.000  C
  H666     1.0000 0.17124  0.31818  0.21286  Biso   1.000  H
  H667     1.0000 0.82352  0.13344  0.21497  Biso   1.000  H
  H668     1.0000 0.82356  0.13352  0.21497  Biso   1.000  H
  H669     1.0000 0.82364  0.13352  0.21497  Biso   1.000  H
  C1208    1.0000 0.87235  0.55570  0.17183  Biso   1.000  C
  H670     1.0000 0.74205  0.46152  0.18646  Biso   1.000  H
  C1209    1.0000 0.87242  0.55570  0.17183  Biso   1.000  C
  H671     1.0000 0.74213  0.46152  0.18646  Biso   1.000  H
  H672     1.0000 0.14555  0.70876  0.18147  Biso   1.000  H
  C1210    1.0000 0.99005  0.62887  0.17050  Biso   1.000  C
  H673     1.0000 0.14548  0.70876  0.18147  Biso   1.000  H
  C1211    1.0000 0.20491  0.89360  0.28510  Biso   1.000  C
  C1212    1.0000 0.20495  0.89368  0.28510  Biso   1.000  C
  C1213    1.0000 0.31388  0.09857  0.28640  Biso   1.000  C
  C1214    1.0000 0.31395  0.09857  0.28640  Biso   1.000  C
  C1215    1.0000 0.78476  0.68612  0.28640  Biso   1.000  C
  C1216    1.0000 0.78469  0.68612  0.28640  Biso   1.000  C
  C1217    1.0000 0.68876  0.79502  0.28510  Biso   1.000  C
  C1218    1.0000 0.68868  0.79502  0.28510  Biso   1.000  C
  C1219    1.0000 0.99917  0.09719  0.21311  Biso   1.000  C
  Cl152    1.0000 0.78149  0.51773  0.15699  Biso   1.000  Cl
  Cl153    1.0000 0.78157  0.51773  0.15699  Biso   1.000  Cl
  Cl154    1.0000 0.05013  0.68879  0.15392  Biso   1.000  Cl
  Cl155    1.0000 0.05005  0.68879  0.15392  Biso   1.000  Cl
  C1220    1.0000 0.30700  0.89187  0.28417  Biso   1.000  C
  H674     1.0000 0.13348  0.82352  0.28503  Biso   1.000  H
  C1221    1.0000 0.41285  0.09134  0.28559  Biso   1.000  C
  C1222    1.0000 0.41293  0.09134  0.28559  Biso   1.000  C
  H675     1.0000 0.31815  0.17123  0.28714  Biso   1.000  H
  H676     1.0000 0.31822  0.17123  0.28714  Biso   1.000  H
  C1223    1.0000 0.67845  0.58712  0.28559  Biso   1.000  C
  H677     1.0000 0.85314  0.68182  0.28714  Biso   1.000  H
  H678     1.0000 0.85306  0.68182  0.28714  Biso   1.000  H
  C1224    1.0000 0.58482  0.69301  0.28417  Biso   1.000  C
  H679     1.0000 0.69016  0.86656  0.28503  Biso   1.000  H
  H680     1.0000 0.69001  0.86656  0.28503  Biso   1.000  H
  N189     1.0000 0.10215  0.10305  0.21312  Biso   1.000  N
  N190     1.0000 0.10219  0.10313  0.21312  Biso   1.000  N
  N191     1.0000 0.10211  0.10313  0.21312  Biso   1.000  N
  N192     1.0000 0.89701  0.99905  0.21312  Biso   1.000  N
  N193     1.0000 0.89686  0.99905  0.21312  Biso   1.000  N
  N194     1.0000 0.40948  0.98976  0.28451  Biso   1.000  N
  H681     1.0000 0.30462  0.82016  0.28323  Biso   1.000  H
  H682     1.0000 0.48553  0.16021  0.28583  Biso   1.000  H
  H683     1.0000 0.48565  0.16030  0.28583  Biso   1.000  H
  H684     1.0000 0.48561  0.16021  0.28583  Biso   1.000  H
  H685     1.0000 0.48558  0.16030  0.28583  Biso   1.000  H
  H686     1.0000 0.67470  0.51446  0.28583  Biso   1.000  H
  N195     1.0000 0.58027  0.59056  0.28451  Biso   1.000  N
  N196     1.0000 0.58019  0.59056  0.28451  Biso   1.000  N
  H687     1.0000 0.51557  0.69542  0.28323  Biso   1.000  H
  C1225    1.0000 0.09802  0.00086  0.21311  Biso   1.000  C
  C1226    1.0000 0.90289  0.90195  0.21311  Biso   1.000  C
  C1227    1.0000 0.90281  0.90195  0.21311  Biso   1.000  C
  B76      1.0000 0.52987  0.98063  0.28227  Biso   1.000  B
  B77      1.0000 0.45086  0.47013  0.28227  Biso   1.000  B
  B78      1.0000 0.45079  0.47013  0.28227  Biso   1.000  B
  C1228    1.0000 0.21015  0.00310  0.21386  Biso   1.000  C
  N197     1.0000 0.00091  0.89790  0.21312  Biso   1.000  N
  N198     1.0000 0.00099  0.89790  0.21312  Biso   1.000  N
  C1229    1.0000 0.79301  0.78986  0.21386  Biso   1.000  C
  C1230    1.0000 0.79286  0.78986  0.21386  Biso   1.000  C
  C1231    1.0000 0.55331  0.99113  0.26537  Biso   1.000  C
  O175     1.0000 0.61803  0.07137  0.29159  Biso   1.000  O
  O176     1.0000 0.49943  0.86906  0.28900  Biso   1.000  O
  O177     1.0000 0.61795  0.07137  0.29159  Biso   1.000  O
  C1232    1.0000 0.43789  0.44671  0.26537  Biso   1.000  C
  O178     1.0000 0.36958  0.50052  0.28900  Biso   1.000  O
  O179     1.0000 0.45335  0.38206  0.29159  Biso   1.000  O
  C1233    1.0000 0.31138  0.10640  0.21490  Biso   1.000  C
  C1234    1.0000 0.21531  0.90143  0.21360  Biso   1.000  C
  C1235    1.0000 0.21543  0.90152  0.21360  Biso   1.000  C
  C1236    1.0000 0.31131  0.10640  0.21490  Biso   1.000  C
  C1237    1.0000 0.68620  0.78469  0.21360  Biso   1.000  C
  C1238    1.0000 0.79510  0.68862  0.21490  Biso   1.000  C
  C1239    1.0000 0.79507  0.68871  0.21490  Biso   1.000  C
  C1240    1.0000 0.68605  0.78469  0.21360  Biso   1.000  C
  C1241    1.0000 0.79503  0.68862  0.21490  Biso   1.000  C
  C1242    1.0000 0.50647  0.89342  0.25676  Biso   1.000  C
  C1243    1.0000 0.50662  0.89342  0.25676  Biso   1.000  C
  C1244    1.0000 0.60881  0.09797  0.25848  Biso   1.000  C
  C1245    1.0000 0.60874  0.09797  0.25848  Biso   1.000  C
  C1246    1.0000 0.60779  0.01644  0.30446  Biso   1.000  C
  C1247    1.0000 0.53551  0.89678  0.30310  Biso   1.000  C
  C1248    1.0000 0.53546  0.89669  0.30310  Biso   1.000  C
  C1249    1.0000 0.38685  0.49346  0.25676  Biso   1.000  C
  C1250    1.0000 0.48923  0.39118  0.25848  Biso   1.000  C
  C1251    1.0000 0.48919  0.39127  0.25848  Biso   1.000  C
  C1252    1.0000 0.48915  0.39118  0.25848  Biso   1.000  C
  C1253    1.0000 0.36128  0.46453  0.30310  Biso   1.000  C
  C1254    1.0000 0.40863  0.39222  0.30446  Biso   1.000  C
  H688     1.0000 0.30997  0.17648  0.21497  Biso   1.000  H
  C1255    1.0000 0.41513  0.10813  0.21583  Biso   1.000  C
  C1256    1.0000 0.41517  0.10821  0.21583  Biso   1.000  C
  H689     1.0000 0.30989  0.17648  0.21497  Biso   1.000  H
  H690     1.0000 0.14692  0.82877  0.21286  Biso   1.000  H
  C1257    1.0000 0.32151  0.90866  0.21441  Biso   1.000  C
  C1258    1.0000 0.32159  0.90866  0.21441  Biso   1.000  C
  C1259    1.0000 0.58716  0.67846  0.21441  Biso   1.000  C
  H691     1.0000 0.68191  0.85305  0.21286  Biso   1.000  H
  H692     1.0000 0.68176  0.85305  0.21286  Biso   1.000  H
  C1260    1.0000 0.69306  0.58488  0.21583  Biso   1.000  C
  H693     1.0000 0.86651  0.69008  0.21497  Biso   1.000  H
  C1261    1.0000 0.51077  0.90203  0.24152  Biso   1.000  C
  C1262    1.0000 0.51081  0.90212  0.24152  Biso   1.000  C
  H694     1.0000 0.47114  0.81965  0.26114  Biso   1.000  H
  C1263    1.0000 0.61312  0.10658  0.24324  Biso   1.000  C
  C1264    1.0000 0.61319  0.10658  0.24324  Biso   1.000  C
  H695     1.0000 0.64417  0.16615  0.26414  Biso   1.000  H
  H696     1.0000 0.64425  0.16615  0.26414  Biso   1.000  H
  C1265    1.0000 0.65758  0.06517  0.31762  Biso   1.000  C
  C1266    1.0000 0.65765  0.06517  0.31762  Biso   1.000  C
  C1267    1.0000 0.50897  0.82283  0.31465  Biso   1.000  C
  C1268    1.0000 0.50912  0.82283  0.31465  Biso   1.000  C
  C1269    1.0000 0.39126  0.48915  0.24152  Biso   1.000  C
  H697     1.0000 0.34848  0.52884  0.26114  Biso   1.000  H
  H698     1.0000 0.34841  0.52884  0.26114  Biso   1.000  H
  C1270    1.0000 0.49341  0.38688  0.24324  Biso   1.000  C
  H699     1.0000 0.52201  0.35580  0.26414  Biso   1.000  H
  H700     1.0000 0.52193  0.35580  0.26414  Biso   1.000  H
  C1271    1.0000 0.31381  0.49096  0.31465  Biso   1.000  C
  C1272    1.0000 0.40768  0.34246  0.31762  Biso   1.000  C
  C1273    1.0000 0.40753  0.34246  0.31762  Biso   1.000  C
  N199     1.0000 0.41972  0.01024  0.21549  Biso   1.000  N
  H701     1.0000 0.48446  0.17984  0.21677  Biso   1.000  H
  N200     1.0000 0.41984  0.01033  0.21549  Biso   1.000  N
  H702     1.0000 0.48450  0.17992  0.21677  Biso   1.000  H
  N201     1.0000 0.41976  0.01033  0.21549  Biso   1.000  N
  H703     1.0000 0.48443  0.17992  0.21677  Biso   1.000  H
  H704     1.0000 0.32532  0.83979  0.21417  Biso   1.000  H
  H705     1.0000 0.32540  0.83979  0.21417  Biso   1.000  H
  H706     1.0000 0.51452  0.67467  0.21417  Biso   1.000  H
  N202     1.0000 0.59061  0.58023  0.21549  Biso   1.000  N
  H707     1.0000 0.51437  0.67467  0.21417  Biso   1.000  H
  N203     1.0000 0.59050  0.58032  0.21549  Biso   1.000  N
  N204     1.0000 0.59046  0.58023  0.21549  Biso   1.000  N
  H708     1.0000 0.69546  0.51558  0.21677  Biso   1.000  H
  H709     1.0000 0.69539  0.51558  0.21677  Biso   1.000  H
  C1274    1.0000 0.56218  0.00887  0.23463  Biso   1.000  C
  C1275    1.0000 0.56210  0.00887  0.23463  Biso   1.000  C
  H710     1.0000 0.47802  0.83385  0.23586  Biso   1.000  H
  H711     1.0000 0.47810  0.83385  0.23586  Biso   1.000  H
  H712     1.0000 0.65157  0.18035  0.23886  Biso   1.000  H
  H713     1.0000 0.65150  0.18035  0.23886  Biso   1.000  H
  C1276    1.0000 0.62887  0.99001  0.32950  Biso   1.000  C
  H714     1.0000 0.70881  0.14558  0.31853  Biso   1.000  H
  H715     1.0000 0.46151  0.74208  0.31354  Biso   1.000  H
  C1277    1.0000 0.55564  0.87233  0.32817  Biso   1.000  C
  H716     1.0000 0.46147  0.74199  0.31354  Biso   1.000  H
  C1278    1.0000 0.44672  0.43784  0.23463  Biso   1.000  C
  H717     1.0000 0.35585  0.52195  0.23586  Biso   1.000  H
  H718     1.0000 0.52886  0.34848  0.23886  Biso   1.000  H
  C1279    1.0000 0.31665  0.44430  0.32817  Biso   1.000  C
  H719     1.0000 0.28061  0.53848  0.31354  Biso   1.000  H
  H720     1.0000 0.28050  0.53857  0.31354  Biso   1.000  H
  H721     1.0000 0.28046  0.53848  0.31354  Biso   1.000  H
  H722     1.0000 0.28065  0.53857  0.31354  Biso   1.000  H
  C1280    1.0000 0.36118  0.37113  0.32950  Biso   1.000  C
  H723     1.0000 0.43687  0.29124  0.31853  Biso   1.000  H
  H724     1.0000 0.43679  0.29124  0.31853  Biso   1.000  H
  B79      1.0000 0.54924  0.01937  0.21773  Biso   1.000  B
  B80      1.0000 0.47010  0.45076  0.21773  Biso   1.000  B
  Cl156    1.0000 0.68881  0.05010  0.34608  Biso   1.000  Cl
  Cl157    1.0000 0.68874  0.05010  0.34608  Biso   1.000  Cl
  Cl158    1.0000 0.51768  0.78151  0.34301  Biso   1.000  Cl
  Cl159    1.0000 0.26383  0.48227  0.34301  Biso   1.000  Cl
  Cl160    1.0000 0.26388  0.48235  0.34301  Biso   1.000  Cl
  Cl161    1.0000 0.36141  0.31121  0.34608  Biso   1.000  Cl
  Cl162    1.0000 0.36134  0.31121  0.34608  Biso   1.000  Cl
  O180     1.0000 0.54666  0.92863  0.20841  Biso   1.000  O
  O181     1.0000 0.54670  0.92872  0.20841  Biso   1.000  O
  O182     1.0000 0.63044  0.13094  0.21100  Biso   1.000  O
  O183     1.0000 0.63049  0.13103  0.21100  Biso   1.000  O
  O184     1.0000 0.63041  0.13103  0.21100  Biso   1.000  O
  O185     1.0000 0.50064  0.36958  0.21100  Biso   1.000  O
  O186     1.0000 0.38208  0.45334  0.20841  Biso   1.000  O
  O187     1.0000 0.50056  0.36958  0.21100  Biso   1.000  O
  O188     1.0000 0.38200  0.45334  0.20841  Biso   1.000  O
  C1281    1.0000 0.59127  0.98356  0.19554  Biso   1.000  C
  C1282    1.0000 0.59142  0.98356  0.19554  Biso   1.000  C
  C1283    1.0000 0.63877  0.10331  0.19690  Biso   1.000  C
  C1284    1.0000 0.46455  0.36123  0.19690  Biso   1.000  C
  C1285    1.0000 0.46460  0.36131  0.19690  Biso   1.000  C
  C1286    1.0000 0.39224  0.40866  0.19554  Biso   1.000  C
  C1287    1.0000 0.59241  0.93483  0.18238  Biso   1.000  C
  C1288    1.0000 0.59245  0.93492  0.18238  Biso   1.000  C
  C1289    1.0000 0.68621  0.17717  0.18535  Biso   1.000  C
  C1290    1.0000 0.68629  0.17717  0.18535  Biso   1.000  C
  C1291    1.0000 0.49101  0.31379  0.18535  Biso   1.000  C
  C1292    1.0000 0.49086  0.31379  0.18535  Biso   1.000  C
  C1293    1.0000 0.34248  0.40754  0.18238  Biso   1.000  C
  C1294    1.0000 0.34233  0.40754  0.18238  Biso   1.000  C
  C1295    1.0000 0.63886  0.00999  0.17050  Biso   1.000  C
  H725     1.0000 0.56316  0.85442  0.18147  Biso   1.000  H
  H726     1.0000 0.56321  0.85451  0.18147  Biso   1.000  H
  H727     1.0000 0.56328  0.85451  0.18147  Biso   1.000  H
  C1296    1.0000 0.68338  0.12767  0.17183  Biso   1.000  C
  H728     1.0000 0.71948  0.25801  0.18646  Biso   1.000  H
  C1297    1.0000 0.68331  0.12767  0.17183  Biso   1.000  C
  H729     1.0000 0.53851  0.28056  0.18646  Biso   1.000  H
  C1298    1.0000 0.44442  0.31663  0.17183  Biso   1.000  C
  C1299    1.0000 0.44434  0.31663  0.17183  Biso   1.000  C
  H730     1.0000 0.29124  0.43673  0.18147  Biso   1.000  H
  C1300    1.0000 0.37109  0.36114  0.17050  Biso   1.000  C
  H731     1.0000 0.29128  0.43681  0.18147  Biso   1.000  H
  Cl163    1.0000 0.63863  0.94990  0.15392  Biso   1.000  Cl
  Cl164    1.0000 0.73617  0.21849  0.15699  Biso   1.000  Cl
  Cl165    1.0000 0.73625  0.21849  0.15699  Biso   1.000  Cl
  Cl166    1.0000 0.48233  0.26377  0.15699  Biso   1.000  Cl
  Cl167    1.0000 0.48237  0.26386  0.15699  Biso   1.000  Cl
  Cl168    1.0000 0.31124  0.36131  0.15392  Biso   1.000  Cl
  C1301    1.0000 0.12771  0.68337  0.32817  Biso   1.000  C
  C1302    1.0000 0.17715  0.68621  0.31465  Biso   1.000  C
  C1303    1.0000 0.17719  0.68629  0.31465  Biso   1.000  C
  C1304    1.0000 0.00995  0.63886  0.32950  Biso   1.000  C
  C1305    1.0000 0.01003  0.63886  0.32950  Biso   1.000  C
  Cl169    1.0000 0.21848  0.73623  0.34301  Biso   1.000  Cl
  Cl170    1.0000 0.21856  0.73623  0.34301  Biso   1.000  Cl
  C1306    1.0000 0.10325  0.63877  0.30310  Biso   1.000  C
  C1307    1.0000 0.10333  0.63877  0.30310  Biso   1.000  C
  H732     1.0000 0.25795  0.71944  0.31354  Biso   1.000  H
  H733     1.0000 0.25803  0.71944  0.31354  Biso   1.000  H
  C1308    1.0000 0.12764  0.68337  0.32817  Biso   1.000  C
  C1309    1.0000 0.93486  0.59246  0.31762  Biso   1.000  C
  C1310    1.0000 0.93494  0.59246  0.31762  Biso   1.000  C
  Cl171    1.0000 0.94993  0.63869  0.34608  Biso   1.000  Cl
  O189     1.0000 0.13099  0.63042  0.28900  Biso   1.000  O
  O190     1.0000 0.13103  0.63051  0.28900  Biso   1.000  O
  O191     1.0000 0.13096  0.63051  0.28900  Biso   1.000  O
  C1311    1.0000 0.98358  0.59134  0.30446  Biso   1.000  C
  H734     1.0000 0.85451  0.56327  0.31853  Biso   1.000  H
  B81      1.0000 0.01935  0.54924  0.28227  Biso   1.000  B
  B82      1.0000 0.01942  0.54924  0.28227  Biso   1.000  B
  O192     1.0000 0.92866  0.54666  0.29159  Biso   1.000  O
  O193     1.0000 0.92874  0.54666  0.29159  Biso   1.000  O
  C1312    1.0000 0.00888  0.56216  0.26537  Biso   1.000  C
  N205     1.0000 0.01030  0.41977  0.28451  Biso   1.000  N
  N206     1.0000 0.01023  0.41977  0.28451  Biso   1.000  N
  C1313    1.0000 0.90204  0.51085  0.25848  Biso   1.000  C
  C1314    1.0000 0.90211  0.51085  0.25848  Biso   1.000  C
  C1315    1.0000 0.10653  0.61312  0.25676  Biso   1.000  C
  C1316    1.0000 0.10665  0.61321  0.25676  Biso   1.000  C
  C1317    1.0000 0.10660  0.61312  0.25676  Biso   1.000  C
  C1318    1.0000 0.10657  0.61321  0.25676  Biso   1.000  C
  C1319    1.0000 0.90870  0.32154  0.28559  Biso   1.000  C
  C1320    1.0000 0.10818  0.41512  0.28417  Biso   1.000  C
  C1321    1.0000 0.10822  0.41520  0.28417  Biso   1.000  C
  C1322    1.0000 0.10815  0.41520  0.28417  Biso   1.000  C
  C1323    1.0000 0.89340  0.50654  0.24324  Biso   1.000  C
  C1324    1.0000 0.89351  0.50663  0.24324  Biso   1.000  C
  C1325    1.0000 0.89347  0.50654  0.24324  Biso   1.000  C
  H735     1.0000 0.83389  0.47805  0.26414  Biso   1.000  H
  C1326    1.0000 0.09797  0.60882  0.24152  Biso   1.000  C
  C1327    1.0000 0.09789  0.60882  0.24152  Biso   1.000  C
  H736     1.0000 0.18038  0.65152  0.26114  Biso   1.000  H
  H737     1.0000 0.18042  0.65160  0.26114  Biso   1.000  H
  H738     1.0000 0.18034  0.65160  0.26114  Biso   1.000  H
  C1328    1.0000 0.90144  0.21531  0.28640  Biso   1.000  C
  H739     1.0000 0.83977  0.32533  0.28583  Biso   1.000  H
  C1329    1.0000 0.90155  0.21539  0.28640  Biso   1.000  C
  H740     1.0000 0.17988  0.48442  0.28323  Biso   1.000  H
  C1330    1.0000 0.10641  0.31138  0.28510  Biso   1.000  C
  H741     1.0000 0.17992  0.48450  0.28323  Biso   1.000  H
  H742     1.0000 0.17985  0.48450  0.28323  Biso   1.000  H
  C1331    1.0000 0.10634  0.31138  0.28510  Biso   1.000  C
  C1332    1.0000 0.99117  0.55329  0.23463  Biso   1.000  C
  H743     1.0000 0.81964  0.47116  0.23886  Biso   1.000  H
  H744     1.0000 0.16613  0.64420  0.23586  Biso   1.000  H
  H745     1.0000 0.16621  0.64420  0.23586  Biso   1.000  H
  H746     1.0000 0.82879  0.14695  0.28714  Biso   1.000  H
  C1333    1.0000 0.00308  0.21014  0.28614  Biso   1.000  C
  C1334    1.0000 0.00301  0.21014  0.28614  Biso   1.000  C
  H747     1.0000 0.17643  0.30992  0.28503  Biso   1.000  H
  H748     1.0000 0.17655  0.31000  0.28503  Biso   1.000  H
  H749     1.0000 0.17650  0.30992  0.28503  Biso   1.000  H
  H750     1.0000 0.17647  0.31000  0.28503  Biso   1.000  H
  B83      1.0000 0.98066  0.52987  0.21773  Biso   1.000  B
  C1335    1.0000 0.00086  0.09805  0.28689  Biso   1.000  C
  N207     1.0000 0.98970  0.40944  0.21549  Biso   1.000  N
  N208     1.0000 0.98975  0.40952  0.21549  Biso   1.000  N
  N209     1.0000 0.98982  0.40952  0.21549  Biso   1.000  N
  O194     1.0000 0.86907  0.49948  0.21100  Biso   1.000  O
  O195     1.0000 0.07129  0.61794  0.20841  Biso   1.000  O
  O196     1.0000 0.07141  0.61803  0.20841  Biso   1.000  O
  O197     1.0000 0.07137  0.61794  0.20841  Biso   1.000  O
  O198     1.0000 0.07133  0.61803  0.20841  Biso   1.000  O
  N210     1.0000 0.10301  0.10210  0.28688  Biso   1.000  N
  N211     1.0000 0.10313  0.10219  0.28688  Biso   1.000  N
  N212     1.0000 0.10309  0.10210  0.28688  Biso   1.000  N
  N213     1.0000 0.10306  0.10219  0.28688  Biso   1.000  N
  N214     1.0000 0.89789  0.00095  0.28688  Biso   1.000  N
  C1336    1.0000 0.89181  0.30699  0.21583  Biso   1.000  C
  C1337    1.0000 0.89188  0.30699  0.21583  Biso   1.000  C
  C1338    1.0000 0.09133  0.41288  0.21441  Biso   1.000  C
  C1339    1.0000 0.89675  0.53547  0.19690  Biso   1.000  C
  C1340    1.0000 0.01641  0.60778  0.19554  Biso   1.000  C
  C1341    1.0000 0.01648  0.60778  0.19554  Biso   1.000  C
  C1342    1.0000 0.09709  0.99914  0.28689  Biso   1.000  C
  C1343    1.0000 0.09724  0.99914  0.28689  Biso   1.000  C
  C1344    1.0000 0.90205  0.90281  0.28689  Biso   1.000  C
  C1345    1.0000 0.90202  0.90289  0.28689  Biso   1.000  C
  C1346    1.0000 0.90197  0.90281  0.28689  Biso   1.000  C
  C1347    1.0000 0.89366  0.20498  0.21490  Biso   1.000  C
  H751     1.0000 0.82015  0.30458  0.21677  Biso   1.000  H
  C1348    1.0000 0.09856  0.31388  0.21360  Biso   1.000  C
  C1349    1.0000 0.09849  0.31388  0.21360  Biso   1.000  C
  H752     1.0000 0.16024  0.48554  0.21417  Biso   1.000  H
  H753     1.0000 0.16028  0.48562  0.21417  Biso   1.000  H
  H754     1.0000 0.16021  0.48562  0.21417  Biso   1.000  H
  C1350    1.0000 0.82277  0.50904  0.18535  Biso   1.000  C
  C1351    1.0000 0.82289  0.50913  0.18535  Biso   1.000  C
  C1352    1.0000 0.82285  0.50904  0.18535  Biso   1.000  C
  C1353    1.0000 0.06515  0.65754  0.18238  Biso   1.000  C
  C1354    1.0000 0.06519  0.65763  0.18238  Biso   1.000  C
  C1355    1.0000 0.06511  0.65763  0.18238  Biso   1.000  C
  C1356    1.0000 0.20698  0.99690  0.28614  Biso   1.000  C
  C1357    1.0000 0.20702  0.99699  0.28614  Biso   1.000  C
  C1358    1.0000 0.20717  0.99699  0.28614  Biso   1.000  C
  N215     1.0000 0.99910  0.89695  0.28688  Biso   1.000  N
  N216     1.0000 0.99902  0.89695  0.28688  Biso   1.000  N
  C1359    1.0000 0.78994  0.79296  0.28614  Biso   1.000  C
  C1360    1.0000 0.78979  0.79296  0.28614  Biso   1.000  C
  C1361    1.0000 0.99691  0.20704  0.21386  Biso   1.000  C
  C1362    1.0000 0.99695  0.20713  0.21386  Biso   1.000  C
  C1363    1.0000 0.99703  0.20713  0.21386  Biso   1.000  C
  H755     1.0000 0.82352  0.13344  0.21497  Biso   1.000  H
  H756     1.0000 0.82356  0.13352  0.21497  Biso   1.000  H
  H757     1.0000 0.82364  0.13352  0.21497  Biso   1.000  H
  H758     1.0000 0.17124  0.31818  0.21286  Biso   1.000  H
  C1364    1.0000 0.87235  0.55570  0.17183  Biso   1.000  C
  H759     1.0000 0.74205  0.46152  0.18646  Biso   1.000  H
  C1365    1.0000 0.87242  0.55570  0.17183  Biso   1.000  C
  H760     1.0000 0.74213  0.46152  0.18646  Biso   1.000  H
  C1366    1.0000 0.99005  0.62887  0.17050  Biso   1.000  C
  H761     1.0000 0.14555  0.70876  0.18147  Biso   1.000  H
  H762     1.0000 0.14548  0.70876  0.18147  Biso   1.000  H
  C1367    1.0000 0.20491  0.89360  0.28510  Biso   1.000  C
  C1368    1.0000 0.20495  0.89368  0.28510  Biso   1.000  C
  C1369    1.0000 0.31388  0.09857  0.28640  Biso   1.000  C
  C1370    1.0000 0.31395  0.09857  0.28640  Biso   1.000  C
  C1371    1.0000 0.78476  0.68612  0.28640  Biso   1.000  C
  C1372    1.0000 0.78469  0.68612  0.28640  Biso   1.000  C
  C1373    1.0000 0.68876  0.79502  0.28510  Biso   1.000  C
  C1374    1.0000 0.68868  0.79502  0.28510  Biso   1.000  C
  C1375    1.0000 0.99917  0.09719  0.21311  Biso   1.000  C
  Cl172    1.0000 0.78149  0.51773  0.15699  Biso   1.000  Cl
  Cl173    1.0000 0.78157  0.51773  0.15699  Biso   1.000  Cl
  Cl174    1.0000 0.05013  0.68879  0.15392  Biso   1.000  Cl
  Cl175    1.0000 0.05005  0.68879  0.15392  Biso   1.000  Cl
  C1376    1.0000 0.30700  0.89187  0.28417  Biso   1.000  C
  H763     1.0000 0.13348  0.82352  0.28503  Biso   1.000  H
  C1377    1.0000 0.41285  0.09134  0.28559  Biso   1.000  C
  C1378    1.0000 0.41293  0.09134  0.28559  Biso   1.000  C
  H764     1.0000 0.31815  0.17123  0.28714  Biso   1.000  H
  H765     1.0000 0.31822  0.17123  0.28714  Biso   1.000  H
  C1379    1.0000 0.67845  0.58712  0.28559  Biso   1.000  C
  H766     1.0000 0.85314  0.68182  0.28714  Biso   1.000  H
  H767     1.0000 0.85306  0.68182  0.28714  Biso   1.000  H
  C1380    1.0000 0.58482  0.69301  0.28417  Biso   1.000  C
  H768     1.0000 0.69016  0.86656  0.28503  Biso   1.000  H
  H769     1.0000 0.69001  0.86656  0.28503  Biso   1.000  H
  N217     1.0000 0.10215  0.10305  0.21312  Biso   1.000  N
  N218     1.0000 0.10219  0.10313  0.21312  Biso   1.000  N
  N219     1.0000 0.10211  0.10313  0.21312  Biso   1.000  N
  N220     1.0000 0.89701  0.99905  0.21312  Biso   1.000  N
  N221     1.0000 0.89686  0.99905  0.21312  Biso   1.000  N
  N222     1.0000 0.40948  0.98976  0.28451  Biso   1.000  N
  H770     1.0000 0.30462  0.82016  0.28323  Biso   1.000  H
  H771     1.0000 0.48553  0.16021  0.28583  Biso   1.000  H
  H772     1.0000 0.48565  0.16030  0.28583  Biso   1.000  H
  H773     1.0000 0.48561  0.16021  0.28583  Biso   1.000  H
  H774     1.0000 0.48558  0.16030  0.28583  Biso   1.000  H
  H775     1.0000 0.67470  0.51446  0.28583  Biso   1.000  H
  N223     1.0000 0.58027  0.59056  0.28451  Biso   1.000  N
  N224     1.0000 0.58019  0.59056  0.28451  Biso   1.000  N
  H776     1.0000 0.51557  0.69542  0.28323  Biso   1.000  H
  C1381    1.0000 0.09802  0.00086  0.21311  Biso   1.000  C
  C1382    1.0000 0.90289  0.90195  0.21311  Biso   1.000  C
  C1383    1.0000 0.90281  0.90195  0.21311  Biso   1.000  C
  B84      1.0000 0.52987  0.98063  0.28227  Biso   1.000  B
  B85      1.0000 0.45086  0.47013  0.28227  Biso   1.000  B
  B86      1.0000 0.45079  0.47013  0.28227  Biso   1.000  B
  C1384    1.0000 0.21015  0.00310  0.21386  Biso   1.000  C
  N225     1.0000 0.00091  0.89790  0.21312  Biso   1.000  N
  N226     1.0000 0.00099  0.89790  0.21312  Biso   1.000  N
  C1385    1.0000 0.79301  0.78986  0.21386  Biso   1.000  C
  C1386    1.0000 0.79286  0.78986  0.21386  Biso   1.000  C
  C1387    1.0000 0.55331  0.99113  0.26537  Biso   1.000  C
  O199     1.0000 0.49943  0.86906  0.28900  Biso   1.000  O
  O200     1.0000 0.61803  0.07137  0.29159  Biso   1.000  O
  O201     1.0000 0.61795  0.07137  0.29159  Biso   1.000  O
  C1388    1.0000 0.43789  0.44671  0.26537  Biso   1.000  C
  O202     1.0000 0.36958  0.50052  0.28900  Biso   1.000  O
  O203     1.0000 0.45335  0.38206  0.29159  Biso   1.000  O
  C1389    1.0000 0.21531  0.90143  0.21360  Biso   1.000  C
  C1390    1.0000 0.21543  0.90152  0.21360  Biso   1.000  C
  C1391    1.0000 0.31138  0.10640  0.21490  Biso   1.000  C
  C1392    1.0000 0.31131  0.10640  0.21490  Biso   1.000  C
  C1393    1.0000 0.68620  0.78469  0.21360  Biso   1.000  C
  C1394    1.0000 0.79510  0.68862  0.21490  Biso   1.000  C
  C1395    1.0000 0.79507  0.68871  0.21490  Biso   1.000  C
  C1396    1.0000 0.68605  0.78469  0.21360  Biso   1.000  C
  C1397    1.0000 0.79503  0.68862  0.21490  Biso   1.000  C
  C1398    1.0000 0.50647  0.89342  0.25676  Biso   1.000  C
  C1399    1.0000 0.50662  0.89342  0.25676  Biso   1.000  C
  C1400    1.0000 0.60881  0.09797  0.25848  Biso   1.000  C
  C1401    1.0000 0.60874  0.09797  0.25848  Biso   1.000  C
  C1402    1.0000 0.53551  0.89678  0.30310  Biso   1.000  C
  C1403    1.0000 0.53546  0.89669  0.30310  Biso   1.000  C
  C1404    1.0000 0.60779  0.01644  0.30446  Biso   1.000  C
  C1405    1.0000 0.38685  0.49346  0.25676  Biso   1.000  C
  C1406    1.0000 0.48923  0.39118  0.25848  Biso   1.000  C
  C1407    1.0000 0.48919  0.39127  0.25848  Biso   1.000  C
  C1408    1.0000 0.48915  0.39118  0.25848  Biso   1.000  C
  C1409    1.0000 0.36128  0.46453  0.30310  Biso   1.000  C
  C1410    1.0000 0.40863  0.39222  0.30446  Biso   1.000  C
  H777     1.0000 0.14692  0.82877  0.21286  Biso   1.000  H
  C1411    1.0000 0.32151  0.90866  0.21441  Biso   1.000  C
  C1412    1.0000 0.32159  0.90866  0.21441  Biso   1.000  C
  C1413    1.0000 0.41513  0.10813  0.21583  Biso   1.000  C
  H778     1.0000 0.30997  0.17648  0.21497  Biso   1.000  H
  C1414    1.0000 0.41517  0.10821  0.21583  Biso   1.000  C
  H779     1.0000 0.30989  0.17648  0.21497  Biso   1.000  H
  C1415    1.0000 0.58716  0.67846  0.21441  Biso   1.000  C
  H780     1.0000 0.68191  0.85305  0.21286  Biso   1.000  H
  H781     1.0000 0.68176  0.85305  0.21286  Biso   1.000  H
  C1416    1.0000 0.69306  0.58488  0.21583  Biso   1.000  C
  H782     1.0000 0.86651  0.69008  0.21497  Biso   1.000  H
  C1417    1.0000 0.51077  0.90203  0.24152  Biso   1.000  C
  C1418    1.0000 0.51081  0.90212  0.24152  Biso   1.000  C
  H783     1.0000 0.47114  0.81965  0.26114  Biso   1.000  H
  C1419    1.0000 0.61312  0.10658  0.24324  Biso   1.000  C
  C1420    1.0000 0.61319  0.10658  0.24324  Biso   1.000  C
  H784     1.0000 0.64417  0.16615  0.26414  Biso   1.000  H
  H785     1.0000 0.64425  0.16615  0.26414  Biso   1.000  H
  C1421    1.0000 0.50897  0.82283  0.31465  Biso   1.000  C
  C1422    1.0000 0.50912  0.82283  0.31465  Biso   1.000  C
  C1423    1.0000 0.65758  0.06517  0.31762  Biso   1.000  C
  C1424    1.0000 0.65765  0.06517  0.31762  Biso   1.000  C
  C1425    1.0000 0.39126  0.48915  0.24152  Biso   1.000  C
  H786     1.0000 0.34848  0.52884  0.26114  Biso   1.000  H
  H787     1.0000 0.34841  0.52884  0.26114  Biso   1.000  H
  C1426    1.0000 0.49341  0.38688  0.24324  Biso   1.000  C
  H788     1.0000 0.52201  0.35580  0.26414  Biso   1.000  H
  H789     1.0000 0.52193  0.35580  0.26414  Biso   1.000  H
  C1427    1.0000 0.31381  0.49096  0.31465  Biso   1.000  C
  C1428    1.0000 0.40768  0.34246  0.31762  Biso   1.000  C
  C1429    1.0000 0.40753  0.34246  0.31762  Biso   1.000  C
  H790     1.0000 0.32532  0.83979  0.21417  Biso   1.000  H
  H791     1.0000 0.32540  0.83979  0.21417  Biso   1.000  H
  N227     1.0000 0.41972  0.01024  0.21549  Biso   1.000  N
  N228     1.0000 0.41984  0.01033  0.21549  Biso   1.000  N
  N229     1.0000 0.41976  0.01033  0.21549  Biso   1.000  N
  H792     1.0000 0.48446  0.17984  0.21677  Biso   1.000  H
  H793     1.0000 0.48450  0.17992  0.21677  Biso   1.000  H
  H794     1.0000 0.48443  0.17992  0.21677  Biso   1.000  H
  H795     1.0000 0.51452  0.67467  0.21417  Biso   1.000  H
  N230     1.0000 0.59061  0.58023  0.21549  Biso   1.000  N
  H796     1.0000 0.51437  0.67467  0.21417  Biso   1.000  H
  N231     1.0000 0.59050  0.58032  0.21549  Biso   1.000  N
  N232     1.0000 0.59046  0.58023  0.21549  Biso   1.000  N
  H797     1.0000 0.69546  0.51558  0.21677  Biso   1.000  H
  H798     1.0000 0.69539  0.51558  0.21677  Biso   1.000  H
  C1430    1.0000 0.56218  0.00887  0.23463  Biso   1.000  C
  C1431    1.0000 0.56210  0.00887  0.23463  Biso   1.000  C
  H799     1.0000 0.47802  0.83385  0.23586  Biso   1.000  H
  H800     1.0000 0.47810  0.83385  0.23586  Biso   1.000  H
  H801     1.0000 0.65157  0.18035  0.23886  Biso   1.000  H
  H802     1.0000 0.65150  0.18035  0.23886  Biso   1.000  H
  H803     1.0000 0.46151  0.74208  0.31354  Biso   1.000  H
  C1432    1.0000 0.55564  0.87233  0.32817  Biso   1.000  C
  H804     1.0000 0.46147  0.74199  0.31354  Biso   1.000  H
  C1433    1.0000 0.62887  0.99001  0.32950  Biso   1.000  C
  H805     1.0000 0.70881  0.14558  0.31853  Biso   1.000  H
  C1434    1.0000 0.44672  0.43784  0.23463  Biso   1.000  C
  H806     1.0000 0.35585  0.52195  0.23586  Biso   1.000  H
  H807     1.0000 0.52886  0.34848  0.23886  Biso   1.000  H
  C1435    1.0000 0.31665  0.44430  0.32817  Biso   1.000  C
  H808     1.0000 0.28061  0.53848  0.31354  Biso   1.000  H
  H809     1.0000 0.28050  0.53857  0.31354  Biso   1.000  H
  H810     1.0000 0.28046  0.53848  0.31354  Biso   1.000  H
  H811     1.0000 0.28065  0.53857  0.31354  Biso   1.000  H
  C1436    1.0000 0.36118  0.37113  0.32950  Biso   1.000  C
  H812     1.0000 0.43687  0.29124  0.31853  Biso   1.000  H
  H813     1.0000 0.43679  0.29124  0.31853  Biso   1.000  H
  B87      1.0000 0.54924  0.01937  0.21773  Biso   1.000  B
  B88      1.0000 0.47010  0.45076  0.21773  Biso   1.000  B
  Cl176    1.0000 0.51768  0.78151  0.34301  Biso   1.000  Cl
  Cl177    1.0000 0.68881  0.05010  0.34608  Biso   1.000  Cl
  Cl178    1.0000 0.68874  0.05010  0.34608  Biso   1.000  Cl
  Cl179    1.0000 0.26383  0.48227  0.34301  Biso   1.000  Cl
  Cl180    1.0000 0.26388  0.48235  0.34301  Biso   1.000  Cl
  Cl181    1.0000 0.36141  0.31121  0.34608  Biso   1.000  Cl
  Cl182    1.0000 0.36134  0.31121  0.34608  Biso   1.000  Cl
  O204     1.0000 0.54666  0.92863  0.20841  Biso   1.000  O
  O205     1.0000 0.54670  0.92872  0.20841  Biso   1.000  O
  O206     1.0000 0.63044  0.13094  0.21100  Biso   1.000  O
  O207     1.0000 0.63049  0.13103  0.21100  Biso   1.000  O
  O208     1.0000 0.63041  0.13103  0.21100  Biso   1.000  O
  O209     1.0000 0.50064  0.36958  0.21100  Biso   1.000  O
  O210     1.0000 0.38208  0.45334  0.20841  Biso   1.000  O
  O211     1.0000 0.50056  0.36958  0.21100  Biso   1.000  O
  O212     1.0000 0.38200  0.45334  0.20841  Biso   1.000  O
  C1437    1.0000 0.59127  0.98356  0.19554  Biso   1.000  C
  C1438    1.0000 0.59142  0.98356  0.19554  Biso   1.000  C
  C1439    1.0000 0.63877  0.10331  0.19690  Biso   1.000  C
  C1440    1.0000 0.46455  0.36123  0.19690  Biso   1.000  C
  C1441    1.0000 0.46460  0.36131  0.19690  Biso   1.000  C
  C1442    1.0000 0.39224  0.40866  0.19554  Biso   1.000  C
  C1443    1.0000 0.59241  0.93483  0.18238  Biso   1.000  C
  C1444    1.0000 0.59245  0.93492  0.18238  Biso   1.000  C
  C1445    1.0000 0.68621  0.17717  0.18535  Biso   1.000  C
  C1446    1.0000 0.68629  0.17717  0.18535  Biso   1.000  C
  C1447    1.0000 0.49101  0.31379  0.18535  Biso   1.000  C
  C1448    1.0000 0.49086  0.31379  0.18535  Biso   1.000  C
  C1449    1.0000 0.34248  0.40754  0.18238  Biso   1.000  C
  C1450    1.0000 0.34233  0.40754  0.18238  Biso   1.000  C
  C1451    1.0000 0.63886  0.00999  0.17050  Biso   1.000  C
  H814     1.0000 0.56316  0.85442  0.18147  Biso   1.000  H
  H815     1.0000 0.56321  0.85451  0.18147  Biso   1.000  H
  H816     1.0000 0.56328  0.85451  0.18147  Biso   1.000  H
  H817     1.0000 0.71948  0.25801  0.18646  Biso   1.000  H
  C1452    1.0000 0.68338  0.12767  0.17183  Biso   1.000  C
  C1453    1.0000 0.68331  0.12767  0.17183  Biso   1.000  C
  H818     1.0000 0.53851  0.28056  0.18646  Biso   1.000  H
  C1454    1.0000 0.44442  0.31663  0.17183  Biso   1.000  C
  C1455    1.0000 0.44434  0.31663  0.17183  Biso   1.000  C
  H819     1.0000 0.29124  0.43673  0.18147  Biso   1.000  H
  C1456    1.0000 0.37109  0.36114  0.17050  Biso   1.000  C
  H820     1.0000 0.29128  0.43681  0.18147  Biso   1.000  H
  Cl183    1.0000 0.63863  0.94990  0.15392  Biso   1.000  Cl
  Cl184    1.0000 0.73617  0.21849  0.15699  Biso   1.000  Cl
  Cl185    1.0000 0.73625  0.21849  0.15699  Biso   1.000  Cl
  Cl186    1.0000 0.48233  0.26377  0.15699  Biso   1.000  Cl
  Cl187    1.0000 0.48237  0.26386  0.15699  Biso   1.000  Cl
  Cl188    1.0000 0.31124  0.36131  0.15392  Biso   1.000  Cl
  C1457    1.0000 0.77775  0.98330  0.83849  Biso   1.000  C
  C1458    1.0000 0.82435  0.98046  0.85202  Biso   1.000  C
  C1459    1.0000 0.70443  0.02781  0.83716  Biso   1.000  C
  Cl189    1.0000 0.81571  0.93053  0.82366  Biso   1.000  Cl
  C1460    1.0000 0.79781  0.02789  0.86356  Biso   1.000  C
  H821     1.0000 0.87185  0.94723  0.85313  Biso   1.000  H
  C1461    1.0000 0.67574  0.07421  0.84905  Biso   1.000  C
  Cl190    1.0000 0.64457  0.02798  0.82058  Biso   1.000  Cl
  O213     1.0000 0.83390  0.03624  0.87767  Biso   1.000  O
  C1462    1.0000 0.72558  0.07533  0.86220  Biso   1.000  C
  H822     1.0000 0.62462  0.10348  0.84814  Biso   1.000  H
  B89      1.0000 0.80344  0.11742  0.88439  Biso   1.000  B
  O214     1.0000 0.71534  0.12001  0.87508  Biso   1.000  O
  N233     1.0000 0.92387  0.24690  0.88216  Biso   1.000  N
  C1463    1.0000 0.78006  0.10451  0.90130  Biso   1.000  C
  C1464    1.0000 0.92049  0.34513  0.88108  Biso   1.000  C
  C1465    1.0000 0.02639  0.25155  0.88249  Biso   1.000  C
  C1466    1.0000 0.72452  0.15582  0.90819  Biso   1.000  C
  C1467    1.0000 0.82674  0.05355  0.90991  Biso   1.000  C
  C1468    1.0000 0.01946  0.45136  0.88027  Biso   1.000  C
  H823     1.0000 0.84777  0.34134  0.88083  Biso   1.000  H
  C1469    1.0000 0.12841  0.35537  0.88157  Biso   1.000  C
  H824     1.0000 0.02880  0.18225  0.88343  Biso   1.000  H
  H825     1.0000 0.68918  0.18862  0.90253  Biso   1.000  H
  C1470    1.0000 0.72019  0.16012  0.92342  Biso   1.000  C
  C1471    1.0000 0.82253  0.05794  0.92515  Biso   1.000  C
  H826     1.0000 0.86219  0.01515  0.90553  Biso   1.000  H
  C1472    1.0000 0.12627  0.45653  0.88053  Biso   1.000  C
  H827     1.0000 0.01517  0.51971  0.87953  Biso   1.000  H
  H828     1.0000 0.19985  0.35675  0.88164  Biso   1.000  H
  C1473    1.0000 0.77122  0.11338  0.93203  Biso   1.000  C
  H829     1.0000 0.68181  0.19551  0.92780  Biso   1.000  H
  H830     1.0000 0.85527  0.02247  0.93080  Biso   1.000  H
  C1474    1.0000 0.23614  0.56861  0.87977  Biso   1.000  C
  B90      1.0000 0.78412  0.13679  0.94894  Biso   1.000  B
  N234     1.0000 0.33425  0.56457  0.87978  Biso   1.000  N
  N235     1.0000 0.23027  0.66572  0.87978  Biso   1.000  N
  N236     1.0000 0.91360  0.25723  0.95119  Biso   1.000  N
  O215     1.0000 0.70292  0.16718  0.95567  Biso   1.000  O
  O216     1.0000 0.78668  0.04873  0.95826  Biso   1.000  O
  C1475    1.0000 0.43136  0.66753  0.87977  Biso   1.000  C
  C1476    1.0000 0.33250  0.76386  0.87977  Biso   1.000  C
  C1477    1.0000 0.01178  0.25379  0.95226  Biso   1.000  C
  C1478    1.0000 0.91815  0.35968  0.95084  Biso   1.000  C
  C1479    1.0000 0.69462  0.13120  0.96977  Biso   1.000  C
  C1480    1.0000 0.74196  0.05888  0.97113  Biso   1.000  C
  C1481    1.0000 0.54349  0.66977  0.88053  Biso   1.000  C
  N237     1.0000 0.43548  0.76971  0.87978  Biso   1.000  N
  C1482    1.0000 0.33028  0.87379  0.88053  Biso   1.000  C
  C1483    1.0000 0.11802  0.35279  0.95307  Biso   1.000  C
  H831     1.0000 0.00803  0.18113  0.95250  Biso   1.000  H
  C1484    1.0000 0.02202  0.46169  0.95176  Biso   1.000  C
  H832     1.0000 0.84890  0.36209  0.94990  Biso   1.000  H
  C1485    1.0000 0.64707  0.15763  0.98131  Biso   1.000  C
  C1486    1.0000 0.74094  0.00913  0.98428  Biso   1.000  C
  C1487    1.0000 0.54868  0.56818  0.88027  Biso   1.000  C
  C1488    1.0000 0.64472  0.77307  0.88157  Biso   1.000  C
  C1489    1.0000 0.43190  0.98054  0.88027  Biso   1.000  C
  C1490    1.0000 0.22699  0.87164  0.88157  Biso   1.000  C
  C1491    1.0000 0.12320  0.45962  0.95281  Biso   1.000  C
  H833     1.0000 0.18639  0.34848  0.95380  Biso   1.000  H
  H834     1.0000 0.02342  0.53323  0.95170  Biso   1.000  H
  C1492    1.0000 0.64998  0.11097  0.99484  Biso   1.000  C
  H835     1.0000 0.61391  0.20523  0.98020  Biso   1.000  H
  H836     1.0000 0.77020  0.95790  0.98520  Biso   1.000  H
  C1493    1.0000 0.69451  0.03779  0.99617  Biso   1.000  C
  C1494    1.0000 0.65484  0.57533  0.88108  Biso   1.000  C
  H837     1.0000 0.48025  0.49544  0.87953  Biso   1.000  H
  C1495    1.0000 0.74851  0.77488  0.88249  Biso   1.000  C
  H838     1.0000 0.64330  0.84315  0.88164  Biso   1.000  H
  H839     1.0000 0.50458  0.98485  0.87953  Biso   1.000  H
  C1496    1.0000 0.42466  0.07955  0.88108  Biso   1.000  C
  C1497    1.0000 0.22514  0.97366  0.88249  Biso   1.000  C
  H840     1.0000 0.15690  0.80019  0.88164  Biso   1.000  H
  C1498    1.0000 0.23531  0.56947  0.95356  Biso   1.000  C
  Cl191    1.0000 0.59709  0.14893  0.00968  Biso   1.000  Cl
  Cl192    1.0000 0.69475  0.97788  0.01275  Biso   1.000  Cl
  N238     1.0000 0.75305  0.67691  0.88216  Biso   1.000  N
  H841     1.0000 0.65866  0.50646  0.88083  Biso   1.000  H
  H842     1.0000 0.81784  0.84659  0.88343  Biso   1.000  H
  H843     1.0000 0.49361  0.15229  0.88083  Biso   1.000  H
  N239     1.0000 0.32308  0.07619  0.88216  Biso   1.000  N
  H844     1.0000 0.15348  0.97125  0.88343  Biso   1.000  H
  N240     1.0000 0.33243  0.56362  0.95355  Biso   1.000  N
  N241     1.0000 0.23122  0.66761  0.95355  Biso   1.000  N
  B91      1.0000 0.88257  0.68604  0.88439  Biso   1.000  B
  B92      1.0000 0.31407  0.19654  0.88439  Biso   1.000  B
  C1499    1.0000 0.43049  0.66581  0.95356  Biso   1.000  C
  C1500    1.0000 0.33420  0.76472  0.95356  Biso   1.000  C
  O217     1.0000 0.88004  0.59539  0.87508  Biso   1.000  O
  O218     1.0000 0.96382  0.79769  0.87767  Biso   1.000  O
  C1501    1.0000 0.89551  0.67553  0.90130  Biso   1.000  C
  C1502    1.0000 0.32451  0.21996  0.90130  Biso   1.000  C
  O219     1.0000 0.20240  0.16615  0.87767  Biso   1.000  O
  O220     1.0000 0.40467  0.28469  0.87508  Biso   1.000  O
  C1503    1.0000 0.54043  0.66365  0.95281  Biso   1.000  C
  N242     1.0000 0.43639  0.76885  0.95355  Biso   1.000  N
  C1504    1.0000 0.33641  0.87681  0.95281  Biso   1.000  C
  C1505    1.0000 0.92468  0.65022  0.86220  Biso   1.000  C
  C1506    1.0000 0.97210  0.76997  0.86356  Biso   1.000  C
  C1507    1.0000 0.84422  0.56878  0.90819  Biso   1.000  C
  C1508    1.0000 0.94645  0.77324  0.90991  Biso   1.000  C
  C1509    1.0000 0.43137  0.27548  0.90819  Biso   1.000  C
  C1510    1.0000 0.22677  0.17330  0.90991  Biso   1.000  C
  C1511    1.0000 0.23008  0.20214  0.86356  Biso   1.000  C
  C1512    1.0000 0.34974  0.27445  0.86220  Biso   1.000  C
  C1513    1.0000 0.64721  0.76524  0.95307  Biso   1.000  C
  C1514    1.0000 0.53836  0.56035  0.95176  Biso   1.000  C
  C1515    1.0000 0.23481  0.88206  0.95307  Biso   1.000  C
  C1516    1.0000 0.43974  0.97805  0.95176  Biso   1.000  C
  C1517    1.0000 0.92578  0.60158  0.84905  Biso   1.000  C
  C1518    1.0000 0.01955  0.84384  0.85202  Biso   1.000  C
  H845     1.0000 0.81136  0.50052  0.90253  Biso   1.000  H
  C1519    1.0000 0.83987  0.56009  0.92342  Biso   1.000  C
  C1520    1.0000 0.94215  0.76464  0.92515  Biso   1.000  C
  H846     1.0000 0.98491  0.84702  0.90553  Biso   1.000  H
  C1521    1.0000 0.43986  0.27979  0.92342  Biso   1.000  C
  H847     1.0000 0.49954  0.31086  0.90253  Biso   1.000  H
  C1522    1.0000 0.23544  0.17751  0.92515  Biso   1.000  C
  H848     1.0000 0.15297  0.13783  0.90553  Biso   1.000  H
  C1523    1.0000 0.15623  0.17579  0.85202  Biso   1.000  C
  C1524    1.0000 0.39860  0.32429  0.84905  Biso   1.000  C
  C1525    1.0000 0.74618  0.75801  0.95226  Biso   1.000  C
  H849     1.0000 0.65148  0.83790  0.95380  Biso   1.000  H
  C1526    1.0000 0.64034  0.55854  0.95084  Biso   1.000  C
  H850     1.0000 0.46682  0.49019  0.95170  Biso   1.000  H
  H851     1.0000 0.16212  0.81362  0.95380  Biso   1.000  H
  C1527    1.0000 0.24203  0.98821  0.95226  Biso   1.000  C
  H852     1.0000 0.50976  0.97658  0.95170  Biso   1.000  H
  C1528    1.0000 0.44151  0.08178  0.95084  Biso   1.000  C
  C1529    1.0000 0.97219  0.67665  0.83716  Biso   1.000  C
  H853     1.0000 0.89661  0.52118  0.84814  Biso   1.000  H
  C1530    1.0000 0.01672  0.79434  0.83849  Biso   1.000  C
  H854     1.0000 0.05281  0.92467  0.85313  Biso   1.000  H
  C1531    1.0000 0.88664  0.65780  0.93203  Biso   1.000  C
  H855     1.0000 0.80455  0.48631  0.92780  Biso   1.000  H
  H856     1.0000 0.97751  0.83282  0.93080  Biso   1.000  H
  C1532    1.0000 0.34221  0.22882  0.93203  Biso   1.000  C
  H857     1.0000 0.51375  0.31827  0.92780  Biso   1.000  H
  H858     1.0000 0.16723  0.14471  0.93080  Biso   1.000  H
  C1533    1.0000 0.20568  0.22237  0.83849  Biso   1.000  C
  H859     1.0000 0.07546  0.12819  0.85313  Biso   1.000  H
  H860     1.0000 0.47896  0.37543  0.84814  Biso   1.000  H
  C1534    1.0000 0.32338  0.29554  0.83716  Biso   1.000  C
  N243     1.0000 0.74281  0.65642  0.95119  Biso   1.000  N
  H861     1.0000 0.81887  0.82688  0.95250  Biso   1.000  H
  H862     1.0000 0.63796  0.48683  0.94990  Biso   1.000  H
  H863     1.0000 0.17310  0.99199  0.95250  Biso   1.000  H
  N244     1.0000 0.34371  0.08643  0.95119  Biso   1.000  N
  H864     1.0000 0.51321  0.15108  0.94990  Biso   1.000  H
  Cl193    1.0000 0.97204  0.61656  0.82058  Biso   1.000  Cl
  Cl194    1.0000 0.06951  0.88516  0.82366  Biso   1.000  Cl
  B93      1.0000 0.86320  0.64730  0.94894  Biso   1.000  B
  B94      1.0000 0.35268  0.21591  0.94894  Biso   1.000  B
  Cl195    1.0000 0.11490  0.18440  0.82366  Biso   1.000  Cl
  Cl196    1.0000 0.38354  0.35546  0.82058  Biso   1.000  Cl
  O221     1.0000 0.83284  0.53573  0.95567  Biso   1.000  O
  O222     1.0000 0.95136  0.73803  0.95826  Biso   1.000  O
  O223     1.0000 0.46440  0.29709  0.95567  Biso   1.000  O
  O224     1.0000 0.26207  0.21333  0.95826  Biso   1.000  O
  C1535    1.0000 0.86884  0.56345  0.96977  Biso   1.000  C
  C1536    1.0000 0.94112  0.68311  0.97113  Biso   1.000  C
  C1537    1.0000 0.43666  0.30544  0.96977  Biso   1.000  C
  C1538    1.0000 0.31692  0.25801  0.97113  Biso   1.000  C
  C1539    1.0000 0.84238  0.48950  0.98131  Biso   1.000  C
  C1540    1.0000 0.99091  0.73184  0.98428  Biso   1.000  C
  C1541    1.0000 0.51060  0.35296  0.98131  Biso   1.000  C
  C1542    1.0000 0.26827  0.25913  0.98428  Biso   1.000  C
  C1543    1.0000 0.88905  0.53900  0.99484  Biso   1.000  C
  H865     1.0000 0.79485  0.40875  0.98020  Biso   1.000  H
  C1544    1.0000 0.96220  0.65668  0.99617  Biso   1.000  C
  H866     1.0000 0.04215  0.81224  0.98520  Biso   1.000  H
  C1545    1.0000 0.46112  0.35003  0.99484  Biso   1.000  C
  H867     1.0000 0.59129  0.38611  0.98020  Biso   1.000  H
  H868     1.0000 0.18785  0.22994  0.98520  Biso   1.000  H
  C1546    1.0000 0.34329  0.30553  0.99617  Biso   1.000  C
  Cl197    1.0000 0.85102  0.44817  0.00968  Biso   1.000  Cl
  Cl198    1.0000 0.02214  0.71677  0.01275  Biso   1.000  Cl
  Cl199    1.0000 0.55189  0.40289  0.00968  Biso   1.000  Cl
  Cl200    1.0000 0.28326  0.30535  0.01275  Biso   1.000  Cl
  C1547    1.0000 0.02785  0.32335  0.16284  Biso   1.000  C
  C1548    1.0000 0.07422  0.39850  0.15095  Biso   1.000  C
  Cl201    1.0000 0.02800  0.38344  0.17942  Biso   1.000  Cl
  C1549    1.0000 0.98332  0.20566  0.16151  Biso   1.000  C
  C1550    1.0000 0.07536  0.34978  0.13780  Biso   1.000  C
  H869     1.0000 0.10347  0.47891  0.15186  Biso   1.000  H
  C1551    1.0000 0.98042  0.15616  0.14798  Biso   1.000  C
  Cl202    1.0000 0.93045  0.11484  0.17634  Biso   1.000  Cl
  C1552    1.0000 0.02798  0.23011  0.13644  Biso   1.000  C
  O225     1.0000 0.12004  0.40470  0.12492  Biso   1.000  O
  H870     1.0000 0.94723  0.07533  0.14687  Biso   1.000  H
  O226     1.0000 0.03626  0.20239  0.12233  Biso   1.000  O
  B95      1.0000 0.11747  0.31396  0.11561  Biso   1.000  B
  C1553    1.0000 0.10453  0.32447  0.09870  Biso   1.000  C
  N245     1.0000 0.24691  0.32309  0.11784  Biso   1.000  N
  C1554    1.0000 0.15586  0.43130  0.09181  Biso   1.000  C
  C1555    1.0000 0.05351  0.22676  0.09009  Biso   1.000  C
  C1556    1.0000 0.34512  0.42467  0.11892  Biso   1.000  C
  C1557    1.0000 0.25157  0.22521  0.11751  Biso   1.000  C
  H871     1.0000 0.18861  0.49948  0.09747  Biso   1.000  H
  C1558    1.0000 0.16009  0.43991  0.07658  Biso   1.000  C
  C1559    1.0000 0.05789  0.23537  0.07485  Biso   1.000  C
  H872     1.0000 0.01513  0.15298  0.09447  Biso   1.000  H
  C1560    1.0000 0.45132  0.43190  0.11973  Biso   1.000  C
  H873     1.0000 0.34131  0.49354  0.11917  Biso   1.000  H
  H874     1.0000 0.18224  0.15350  0.11657  Biso   1.000  H
  C1561    1.0000 0.35536  0.22701  0.11843  Biso   1.000  C
  C1562    1.0000 0.11340  0.34220  0.06797  Biso   1.000  C
  H875     1.0000 0.19549  0.51369  0.07220  Biso   1.000  H
  H876     1.0000 0.02246  0.16718  0.06920  Biso   1.000  H
  C1563    1.0000 0.45655  0.33023  0.11947  Biso   1.000  C
  H877     1.0000 0.51971  0.50456  0.12047  Biso   1.000  H
  H878     1.0000 0.35674  0.15685  0.11836  Biso   1.000  H
  B96      1.0000 0.13684  0.35270  0.05106  Biso   1.000  B
  C1564    1.0000 0.56868  0.33247  0.12023  Biso   1.000  C
  O227     1.0000 0.16720  0.46427  0.04433  Biso   1.000  O
  O228     1.0000 0.04867  0.26197  0.04174  Biso   1.000  O
  N246     1.0000 0.25715  0.34358  0.04881  Biso   1.000  N
  N247     1.0000 0.56456  0.23029  0.12022  Biso   1.000  N
  N248     1.0000 0.66572  0.43543  0.12022  Biso   1.000  N
  C1565    1.0000 0.13124  0.43664  0.03023  Biso   1.000  C
  C1566    1.0000 0.05891  0.31689  0.02887  Biso   1.000  C
  C1567    1.0000 0.25378  0.24199  0.04774  Biso   1.000  C
  C1568    1.0000 0.35974  0.44155  0.04916  Biso   1.000  C
  C1569    1.0000 0.66754  0.23614  0.12023  Biso   1.000  C
  C1570    1.0000 0.76389  0.43139  0.12023  Biso   1.000  C
  C1571    1.0000 0.15758  0.51050  0.01869  Biso   1.000  C
  C1572    1.0000 0.00905  0.26816  0.01572  Biso   1.000  C
  C1573    1.0000 0.35275  0.23476  0.04693  Biso   1.000  C
  H879     1.0000 0.18110  0.17312  0.04750  Biso   1.000  H
  H880     1.0000 0.36208  0.51317  0.05010  Biso   1.000  H
  C1574    1.0000 0.46172  0.43974  0.04824  Biso   1.000  C
  N249     1.0000 0.76976  0.33428  0.12022  Biso   1.000  N
  C1575    1.0000 0.66980  0.12629  0.11947  Biso   1.000  C
  C1576    1.0000 0.87377  0.54347  0.11947  Biso   1.000  C
  C1577    1.0000 0.11099  0.46100  0.00516  Biso   1.000  C
  H881     1.0000 0.20524  0.59134  0.01980  Biso   1.000  H
  C1578    1.0000 0.03783  0.34332  0.00383  Biso   1.000  C
  H882     1.0000 0.95793  0.18784  0.01480  Biso   1.000  H
  C1579    1.0000 0.45965  0.33643  0.04719  Biso   1.000  C
  H883     1.0000 0.34848  0.16210  0.04620  Biso   1.000  H
  H884     1.0000 0.53322  0.50981  0.04830  Biso   1.000  H
  C1580    1.0000 0.56814  0.01946  0.11973  Biso   1.000  C
  C1581    1.0000 0.77304  0.12836  0.11843  Biso   1.000  C
  C1582    1.0000 0.98050  0.54864  0.11973  Biso   1.000  C
  C1583    1.0000 0.87167  0.64471  0.11843  Biso   1.000  C
  Cl203    1.0000 0.14895  0.55183  0.99032  Biso   1.000  Cl
  Cl204    1.0000 0.97789  0.28323  0.98725  Biso   1.000  Cl
  C1584    1.0000 0.56954  0.33419  0.04644  Biso   1.000  C
  H885     1.0000 0.49546  0.01515  0.12047  Biso   1.000  H
  C1585    1.0000 0.57538  0.92045  0.11892  Biso   1.000  C
  C1586    1.0000 0.77482  0.02634  0.11751  Biso   1.000  C
  H886     1.0000 0.84318  0.19990  0.11836  Biso   1.000  H
  H887     1.0000 0.98487  0.48029  0.12047  Biso   1.000  H
  C1587    1.0000 0.07954  0.65487  0.11892  Biso   1.000  C
  C1588    1.0000 0.97364  0.74845  0.11751  Biso   1.000  C
  H888     1.0000 0.80012  0.64325  0.11836  Biso   1.000  H
  N250     1.0000 0.56361  0.23123  0.04645  Biso   1.000  N
  N251     1.0000 0.66761  0.43638  0.04645  Biso   1.000  N
  H889     1.0000 0.50647  0.84780  0.11917  Biso   1.000  H
  N252     1.0000 0.67700  0.92390  0.11784  Biso   1.000  N
  H890     1.0000 0.84655  0.02875  0.11657  Biso   1.000  H
  H891     1.0000 0.15226  0.65866  0.11917  Biso   1.000  H
  N253     1.0000 0.07617  0.75310  0.11784  Biso   1.000  N
  H892     1.0000 0.97124  0.81775  0.11657  Biso   1.000  H
  C1589    1.0000 0.66584  0.23528  0.04644  Biso   1.000  C
  C1590    1.0000 0.76473  0.43053  0.04644  Biso   1.000  C
  B97      1.0000 0.68604  0.80346  0.11561  Biso   1.000  B
  B98      1.0000 0.19653  0.88258  0.11561  Biso   1.000  B
  C1591    1.0000 0.66362  0.12319  0.04719  Biso   1.000  C
  N254     1.0000 0.76882  0.33239  0.04645  Biso   1.000  N
  C1592    1.0000 0.87684  0.54038  0.04719  Biso   1.000  C
  C1593    1.0000 0.67553  0.78004  0.09870  Biso   1.000  C
  O229     1.0000 0.79756  0.83385  0.12233  Biso   1.000  O
  O230     1.0000 0.59526  0.71539  0.12492  Biso   1.000  O
  C1594    1.0000 0.21998  0.89549  0.09870  Biso   1.000  C
  O231     1.0000 0.16614  0.96376  0.12233  Biso   1.000  O
  O232     1.0000 0.28470  0.87999  0.12492  Biso   1.000  O
  C1595    1.0000 0.76519  0.11803  0.04693  Biso   1.000  C
  C1596    1.0000 0.56034  0.02204  0.04824  Biso   1.000  C
  C1597    1.0000 0.88202  0.64721  0.04693  Biso   1.000  C
  C1598    1.0000 0.97802  0.53831  0.04824  Biso   1.000  C
  C1599    1.0000 0.56874  0.72452  0.09181  Biso   1.000  C
  C1600    1.0000 0.77323  0.82679  0.09009  Biso   1.000  C
  C1601    1.0000 0.76988  0.79786  0.13644  Biso   1.000  C
  C1602    1.0000 0.65022  0.72555  0.13780  Biso   1.000  C
  C1603    1.0000 0.27544  0.84418  0.09181  Biso   1.000  C
  C1604    1.0000 0.17322  0.94645  0.09009  Biso   1.000  C
  C1605    1.0000 0.20215  0.97211  0.13644  Biso   1.000  C
  C1606    1.0000 0.27446  0.92467  0.13780  Biso   1.000  C
  H893     1.0000 0.83792  0.18638  0.04620  Biso   1.000  H
  C1607    1.0000 0.75800  0.01179  0.04774  Biso   1.000  C
  H894     1.0000 0.49020  0.02342  0.04830  Biso   1.000  H
  C1608    1.0000 0.55853  0.91822  0.04916  Biso   1.000  C
  H895     1.0000 0.81364  0.65152  0.04620  Biso   1.000  H
  C1609    1.0000 0.98826  0.74621  0.04774  Biso   1.000  C
  H896     1.0000 0.97662  0.46677  0.04830  Biso   1.000  H
  C1610    1.0000 0.08181  0.64032  0.04916  Biso   1.000  C
  C1611    1.0000 0.56010  0.72021  0.07658  Biso   1.000  C
  H897     1.0000 0.50042  0.68914  0.09747  Biso   1.000  H
  C1612    1.0000 0.76452  0.82249  0.07485  Biso   1.000  C
  H898     1.0000 0.84706  0.86217  0.09447  Biso   1.000  H
  C1613    1.0000 0.84378  0.82429  0.14798  Biso   1.000  C
  C1614    1.0000 0.60148  0.67579  0.15095  Biso   1.000  C
  H899     1.0000 0.31086  0.81138  0.09747  Biso   1.000  H
  C1615    1.0000 0.27978  0.83988  0.07658  Biso   1.000  C
  C1616    1.0000 0.17755  0.94215  0.07485  Biso   1.000  C
  H900     1.0000 0.13784  0.98485  0.09447  Biso   1.000  H
  C1617    1.0000 0.17574  0.01963  0.14798  Biso   1.000  C
  C1618    1.0000 0.32430  0.92579  0.15095  Biso   1.000  C
  H901     1.0000 0.82694  0.00801  0.04750  Biso   1.000  H
  N255     1.0000 0.65633  0.91357  0.04881  Biso   1.000  N
  H902     1.0000 0.48682  0.84892  0.05010  Biso   1.000  H
  H903     1.0000 0.99205  0.81896  0.04750  Biso   1.000  H
  N256     1.0000 0.08648  0.74285  0.04881  Biso   1.000  N
  H904     1.0000 0.15113  0.63791  0.05010  Biso   1.000  H
  C1619    1.0000 0.65775  0.77118  0.06797  Biso   1.000  C
  H905     1.0000 0.48625  0.68182  0.07220  Biso   1.000  H
  H906     1.0000 0.83273  0.85529  0.06920  Biso   1.000  H
  C1620    1.0000 0.79436  0.77763  0.16151  Biso   1.000  C
  H907     1.0000 0.92462  0.87190  0.14687  Biso   1.000  H
  H908     1.0000 0.52115  0.62457  0.15186  Biso   1.000  H
  C1621    1.0000 0.67658  0.70446  0.16284  Biso   1.000  C
  C1622    1.0000 0.22882  0.88662  0.06797  Biso   1.000  C
  H909     1.0000 0.31822  0.80449  0.07220  Biso   1.000  H
  H910     1.0000 0.14470  0.97753  0.06920  Biso   1.000  H
  C1623    1.0000 0.22228  0.01670  0.16151  Biso   1.000  C
  H911     1.0000 0.12804  0.05277  0.14687  Biso   1.000  H
  H912     1.0000 0.37546  0.89661  0.15186  Biso   1.000  H
  C1624    1.0000 0.29554  0.97219  0.16284  Biso   1.000  C
  B99      1.0000 0.64728  0.78409  0.05106  Biso   1.000  B
  B100     1.0000 0.21592  0.86321  0.05106  Biso   1.000  B
  Cl205    1.0000 0.88506  0.81560  0.17634  Biso   1.000  Cl
  Cl206    1.0000 0.61650  0.64454  0.17942  Biso   1.000  Cl
  Cl207    1.0000 0.18437  0.06956  0.17634  Biso   1.000  Cl
  Cl208    1.0000 0.35547  0.97202  0.17942  Biso   1.000  Cl
  O233     1.0000 0.53572  0.70291  0.04433  Biso   1.000  O
  O234     1.0000 0.73797  0.78667  0.04174  Biso   1.000  O
  O235     1.0000 0.29712  0.83282  0.04433  Biso   1.000  O
  O236     1.0000 0.21332  0.95136  0.04174  Biso   1.000  O
  C1625    1.0000 0.56330  0.69456  0.03023  Biso   1.000  C
  C1626    1.0000 0.68312  0.74199  0.02887  Biso   1.000  C
  C1627    1.0000 0.30542  0.86880  0.03023  Biso   1.000  C
  C1628    1.0000 0.25800  0.94112  0.02887  Biso   1.000  C
  C1629    1.0000 0.48948  0.64712  0.01869  Biso   1.000  C
  C1630    1.0000 0.73177  0.74087  0.01572  Biso   1.000  C
  C1631    1.0000 0.35294  0.84246  0.01869  Biso   1.000  C
  C1632    1.0000 0.25914  0.99096  0.01572  Biso   1.000  C
  C1633    1.0000 0.53892  0.64997  0.00516  Biso   1.000  C
  H913     1.0000 0.40860  0.61389  0.01980  Biso   1.000  H
  H914     1.0000 0.81211  0.77006  0.01480  Biso   1.000  H
  C1634    1.0000 0.65668  0.69447  0.00383  Biso   1.000  C
  C1635    1.0000 0.35006  0.88903  0.00516  Biso   1.000  C
  H915     1.0000 0.38617  0.79485  0.01980  Biso   1.000  H
  C1636    1.0000 0.30553  0.96221  0.00383  Biso   1.000  C
  H916     1.0000 0.22991  0.04210  0.01480  Biso   1.000  H
  Cl209    1.0000 0.44819  0.59719  0.99032  Biso   1.000  Cl
  Cl210    1.0000 0.71678  0.69465  0.98725  Biso   1.000  Cl
  Cl211    1.0000 0.40287  0.85107  0.99032  Biso   1.000  Cl
  Cl212    1.0000 0.30529  0.02212  0.98725  Biso   1.000  Cl
