data_image0
_cell_length_a       13.542
_cell_length_b       13.542
_cell_length_c       118.223
_cell_angle_alpha    90
_cell_angle_beta     90
_cell_angle_gamma    120

_symmetry_space_group_name_H-M    "P 1"
_symmetry_int_tables_number       1

loop_
  _symmetry_equiv_pos_as_xyz
  'x, y, z'

loop_
  _atom_site_label
  _atom_site_occupancy
  _atom_site_fract_x
  _atom_site_fract_y
  _atom_site_fract_z
  _atom_site_thermal_displace_type
  _atom_site_B_iso_or_equiv
  _atom_site_type_symbol
  C1       1.0000 0.65586  0.95978  0.50340  Biso   1.000  C
  C2       1.0000 0.53976  0.88679  0.50427  Biso   1.000  C
  C3       1.0000 0.72816  0.98519  0.51276  Biso   1.000  C
  Cl1      1.0000 0.71739  0.02126  0.49054  Biso   1.000  Cl
  C4       1.0000 0.49099  0.83946  0.51456  Biso   1.000  C
  Cl2      1.0000 0.45253  0.85396  0.49249  Biso   1.000  Cl
  C5       1.0000 0.67947  0.93420  0.52278  Biso   1.000  C
  H1       1.0000 0.80630  0.03498  0.51220  Biso   1.000  H
  C6       1.0000 0.56185  0.86274  0.52365  Biso   1.000  C
  H2       1.0000 0.41235  0.79325  0.51530  Biso   1.000  H
  O1       1.0000 0.73138  0.94127  0.53287  Biso   1.000  O
  O2       1.0000 0.53261  0.82360  0.53444  Biso   1.000  O
  B1       1.0000 0.64167  0.85208  0.53981  Biso   1.000  B
  C7       1.0000 0.64827  0.87076  0.55303  Biso   1.000  C
  N1       1.0000 0.65170  0.73450  0.53795  Biso   1.000  N
  C8       1.0000 0.55466  0.80877  0.55992  Biso   1.000  C
  C9       1.0000 0.75023  0.94264  0.55861  Biso   1.000  C
  C10      1.0000 0.75187  0.73782  0.53747  Biso   1.000  C
  C11      1.0000 0.55719  0.63277  0.53789  Biso   1.000  C
  H3       1.0000 0.48449  0.76119  0.55650  Biso   1.000  H
  C12      1.0000 0.56067  0.81414  0.57151  Biso   1.000  C
  C13      1.0000 0.75770  0.95006  0.57032  Biso   1.000  C
  H4       1.0000 0.81545  0.98698  0.55430  Biso   1.000  H
  C14      1.0000 0.76029  0.64139  0.53706  Biso   1.000  C
  H5       1.0000 0.81839  0.80826  0.53740  Biso   1.000  H
  H6       1.0000 0.48713  0.62970  0.53810  Biso   1.000  H
  C15      1.0000 0.55878  0.53301  0.53749  Biso   1.000  C
  H7       1.0000 0.49517  0.76895  0.57570  Biso   1.000  H
  C16      1.0000 0.66245  0.88568  0.57714  Biso   1.000  C
  H8       1.0000 0.82756  0.99909  0.57370  Biso   1.000  H
  C17      1.0000 0.66166  0.53600  0.53708  Biso   1.000  C
  H9       1.0000 0.83139  0.64667  0.53680  Biso   1.000  H
  H10      1.0000 0.49092  0.46360  0.53750  Biso   1.000  H
  C18      1.0000 0.67082  0.88986  0.58953  Biso   1.000  C
  C19      1.0000 0.66525  0.42856  0.53686  Biso   1.000  C
  C20      1.0000 0.77257  0.92013  0.59515  Biso   1.000  C
  C21      1.0000 0.57560  0.85908  0.59635  Biso   1.000  C
  N2       1.0000 0.76659  0.43512  0.53685  Biso   1.000  N
  N3       1.0000 0.56489  0.33152  0.53685  Biso   1.000  N
  C22      1.0000 0.77863  0.92072  0.60674  Biso   1.000  C
  H11      1.0000 0.83810  0.94042  0.59097  Biso   1.000  H
  H12      1.0000 0.50571  0.83819  0.59296  Biso   1.000  H
  C23      1.0000 0.58306  0.85908  0.60805  Biso   1.000  C
  C24      1.0000 0.76326  0.33468  0.53686  Biso   1.000  C
  C25      1.0000 0.57139  0.23670  0.53686  Biso   1.000  C
  C26      1.0000 0.68503  0.88918  0.61364  Biso   1.000  C
  H13      1.0000 0.84878  0.94332  0.61017  Biso   1.000  H
  H14      1.0000 0.51782  0.83819  0.61237  Biso   1.000  H
  N4       1.0000 0.66845  0.23338  0.53685  Biso   1.000  N
  C27      1.0000 0.87427  0.33826  0.53708  Biso   1.000  C
  C28      1.0000 0.46397  0.12569  0.53708  Biso   1.000  C
  B2       1.0000 0.69160  0.87707  0.62686  Biso   1.000  B
  C29      1.0000 0.88111  0.23969  0.53706  Biso   1.000  C
  C30      1.0000 0.97417  0.44118  0.53749  Biso   1.000  C
  C31      1.0000 0.35858  0.11886  0.53706  Biso   1.000  C
  C32      1.0000 0.46699  0.02584  0.53749  Biso   1.000  C
  O3       1.0000 0.80071  0.95765  0.63223  Biso   1.000  O
  O4       1.0000 0.60192  0.87656  0.63379  Biso   1.000  O
  N5       1.0000 0.68161  0.74942  0.62872  Biso   1.000  N
  H15      1.0000 0.81527  0.16858  0.53680  Biso   1.000  H
  C33      1.0000 0.98590  0.24813  0.53747  Biso   1.000  C
  H16      1.0000 0.97266  0.50905  0.53750  Biso   1.000  H
  C34      1.0000 0.07563  0.44280  0.53789  Biso   1.000  C
  H17      1.0000 0.35331  0.18469  0.53680  Biso   1.000  H
  C35      1.0000 0.26217  0.01407  0.53747  Biso   1.000  C
  H18      1.0000 0.53639  0.02729  0.53750  Biso   1.000  H
  C36      1.0000 0.36722  0.92437  0.53789  Biso   1.000  C
  C37      1.0000 0.77139  0.96754  0.64301  Biso   1.000  C
  C38      1.0000 0.65384  0.92132  0.64388  Biso   1.000  C
  C39      1.0000 0.58141  0.65256  0.62920  Biso   1.000  C
  C40      1.0000 0.77609  0.74226  0.62878  Biso   1.000  C
  H19      1.0000 0.98987  0.18162  0.53740  Biso   1.000  H
  N6       1.0000 0.08281  0.34832  0.53795  Biso   1.000  N
  H20      1.0000 0.14258  0.51289  0.53810  Biso   1.000  H
  H21      1.0000 0.19171  0.01006  0.53740  Biso   1.000  H
  N7       1.0000 0.26546  0.91712  0.53795  Biso   1.000  N
  H22      1.0000 0.37026  0.85735  0.53810  Biso   1.000  H
  C41      1.0000 0.84234  0.01520  0.65211  Biso   1.000  C
  C42      1.0000 0.60514  0.92362  0.65391  Biso   1.000  C
  C43      1.0000 0.57302  0.54776  0.62961  Biso   1.000  C
  H23      1.0000 0.51496  0.65656  0.62927  Biso   1.000  H
  H24      1.0000 0.84623  0.80928  0.62857  Biso   1.000  H
  C44      1.0000 0.77451  0.64087  0.62918  Biso   1.000  C
  B3       1.0000 0.21038  0.35830  0.53981  Biso   1.000  B
  B4       1.0000 0.14792  0.78956  0.53981  Biso   1.000  B
  C45      1.0000 0.79350  0.01367  0.66240  Biso   1.000  C
  H25      1.0000 0.92094  0.04760  0.65137  Biso   1.000  H
  H26      1.0000 0.52704  0.89531  0.65447  Biso   1.000  H
  C46      1.0000 0.67740  0.97052  0.66326  Biso   1.000  C
  C47      1.0000 0.67159  0.54094  0.62959  Biso   1.000  C
  H27      1.0000 0.50193  0.48194  0.62987  Biso   1.000  H
  H28      1.0000 0.84241  0.63934  0.62917  Biso   1.000  H
  C48      1.0000 0.22254  0.35173  0.55303  Biso   1.000  C
  O5       1.0000 0.29098  0.46735  0.53444  Biso   1.000  O
  O6       1.0000 0.20991  0.26859  0.53287  Biso   1.000  O
  C49      1.0000 0.12916  0.77745  0.55303  Biso   1.000  C
  O7       1.0000 0.17638  0.70898  0.53444  Biso   1.000  O
  O8       1.0000 0.05867  0.79007  0.53287  Biso   1.000  O
  Cl3      1.0000 0.88085  0.06815  0.67418  Biso   1.000  Cl
  Cl4      1.0000 0.61592  0.97044  0.67612  Biso   1.000  Cl
  C50      1.0000 0.66800  0.42992  0.62981  Biso   1.000  C
  C51      1.0000 0.25409  0.44527  0.55992  Biso   1.000  C
  C52      1.0000 0.19240  0.24966  0.55861  Biso   1.000  C
  C53      1.0000 0.30087  0.43811  0.52365  Biso   1.000  C
  C54      1.0000 0.25471  0.32052  0.52278  Biso   1.000  C
  C55      1.0000 0.19122  0.74590  0.55992  Biso   1.000  C
  C56      1.0000 0.05730  0.80755  0.55861  Biso   1.000  C
  C57      1.0000 0.13717  0.69909  0.52365  Biso   1.000  C
  C58      1.0000 0.06579  0.74522  0.52278  Biso   1.000  C
  N8       1.0000 0.76839  0.43325  0.62982  Biso   1.000  N
  N9       1.0000 0.56672  0.33519  0.62982  Biso   1.000  N
  H29      1.0000 0.27674  0.51553  0.55650  Biso   1.000  H
  C59      1.0000 0.25347  0.43930  0.57151  Biso   1.000  C
  C60      1.0000 0.19243  0.24233  0.57032  Biso   1.000  C
  H30      1.0000 0.17150  0.18452  0.55430  Biso   1.000  H
  C61      1.0000 0.34849  0.50897  0.51456  Biso   1.000  C
  C62      1.0000 0.25702  0.27183  0.51276  Biso   1.000  C
  H31      1.0000 0.23873  0.72322  0.55650  Biso   1.000  H
  C63      1.0000 0.18583  0.74650  0.57151  Biso   1.000  C
  C64      1.0000 0.04991  0.80755  0.57032  Biso   1.000  C
  H32      1.0000 0.01295  0.82844  0.55430  Biso   1.000  H
  C65      1.0000 0.16045  0.65142  0.51456  Biso   1.000  C
  C66      1.0000 0.01479  0.74292  0.51276  Biso   1.000  C
  C67      1.0000 0.76190  0.33195  0.62981  Biso   1.000  C
  C68      1.0000 0.57000  0.23807  0.62981  Biso   1.000  C
  H33      1.0000 0.27381  0.50479  0.57570  Biso   1.000  H
  C69      1.0000 0.22317  0.33749  0.57714  Biso   1.000  C
  H34      1.0000 0.17150  0.17241  0.57370  Biso   1.000  H
  C70      1.0000 0.34699  0.46019  0.50427  Biso   1.000  C
  H35      1.0000 0.38085  0.58758  0.51530  Biso   1.000  H
  H36      1.0000 0.22868  0.19373  0.51220  Biso   1.000  H
  C71      1.0000 0.30384  0.34406  0.50340  Biso   1.000  C
  H37      1.0000 0.23095  0.72612  0.57570  Biso   1.000  H
  C72      1.0000 0.11427  0.77677  0.57714  Biso   1.000  C
  H38      1.0000 0.00091  0.82844  0.57370  Biso   1.000  H
  C73      1.0000 0.11322  0.65296  0.50427  Biso   1.000  C
  H39      1.0000 0.20665  0.61902  0.51530  Biso   1.000  H
  H40      1.0000 0.96492  0.77123  0.51220  Biso   1.000  H
  C74      1.0000 0.04015  0.69602  0.50340  Biso   1.000  C
  N10      1.0000 0.66483  0.23159  0.62982  Biso   1.000  N
  C75      1.0000 0.86932  0.32837  0.62959  Biso   1.000  C
  C76      1.0000 0.45898  0.13063  0.62959  Biso   1.000  C
  C77      1.0000 0.21899  0.32913  0.58953  Biso   1.000  C
  Cl5      1.0000 0.40143  0.54751  0.49249  Biso   1.000  Cl
  Cl6      1.0000 0.30382  0.28258  0.49054  Biso   1.000  Cl
  C78      1.0000 0.11016  0.78095  0.58953  Biso   1.000  C
  Cl7      1.0000 0.14601  0.59847  0.49249  Biso   1.000  Cl
  Cl8      1.0000 0.97868  0.69610  0.49054  Biso   1.000  Cl
  C79      1.0000 0.97473  0.42694  0.62961  Biso   1.000  C
  C80      1.0000 0.86631  0.22545  0.62918  Biso   1.000  C
  C81      1.0000 0.45222  0.02524  0.62961  Biso   1.000  C
  C82      1.0000 0.35913  0.13370  0.62918  Biso   1.000  C
  C83      1.0000 0.14748  0.22732  0.59515  Biso   1.000  C
  C84      1.0000 0.28345  0.42438  0.59635  Biso   1.000  C
  C85      1.0000 0.07980  0.85240  0.59515  Biso   1.000  C
  C86      1.0000 0.14096  0.71657  0.59635  Biso   1.000  C
  H41      1.0000 0.98001  0.49805  0.62987  Biso   1.000  H
  C87      1.0000 0.07113  0.41858  0.62920  Biso   1.000  C
  C88      1.0000 0.96607  0.22383  0.62878  Biso   1.000  C
  H42      1.0000 0.79692  0.15758  0.62917  Biso   1.000  H
  H43      1.0000 0.51803  0.01995  0.62987  Biso   1.000  H
  C89      1.0000 0.34743  0.92880  0.62920  Biso   1.000  C
  C90      1.0000 0.25773  0.03385  0.62878  Biso   1.000  C
  H44      1.0000 0.36063  0.20302  0.62917  Biso   1.000  H
  C91      1.0000 0.14214  0.22136  0.60674  Biso   1.000  C
  H45      1.0000 0.10233  0.16184  0.59097  Biso   1.000  H
  H46      1.0000 0.33240  0.49421  0.59296  Biso   1.000  H
  C92      1.0000 0.27605  0.41696  0.60805  Biso   1.000  C
  C93      1.0000 0.07920  0.85786  0.60674  Biso   1.000  C
  H47      1.0000 0.05949  0.89759  0.59097  Biso   1.000  H
  H48      1.0000 0.16186  0.66754  0.59296  Biso   1.000  H
  C94      1.0000 0.14093  0.72390  0.60805  Biso   1.000  C
  H49      1.0000 0.14167  0.48509  0.62927  Biso   1.000  H
  N11      1.0000 0.06785  0.31839  0.62872  Biso   1.000  N
  H50      1.0000 0.96300  0.15374  0.62857  Biso   1.000  H
  H51      1.0000 0.34341  0.85828  0.62927  Biso   1.000  H
  N12      1.0000 0.25051  0.93213  0.62872  Biso   1.000  N
  H52      1.0000 0.19078  0.03701  0.62857  Biso   1.000  H
  C95      1.0000 0.20416  0.31498  0.61364  Biso   1.000  C
  H53      1.0000 0.09457  0.15118  0.61017  Biso   1.000  H
  H54      1.0000 0.32033  0.48219  0.61237  Biso   1.000  H
  C96      1.0000 0.11078  0.79578  0.61364  Biso   1.000  C
  H55      1.0000 0.05662  0.90544  0.61017  Biso   1.000  H
  H56      1.0000 0.16186  0.67965  0.61237  Biso   1.000  H
  B5       1.0000 0.18540  0.30833  0.62686  Biso   1.000  B
  B6       1.0000 0.12290  0.81454  0.62686  Biso   1.000  B
  O9       1.0000 0.15694  0.19927  0.63223  Biso   1.000  O
  O10      1.0000 0.27463  0.39803  0.63379  Biso   1.000  O
  O11      1.0000 0.04232  0.84302  0.63223  Biso   1.000  O
  O12      1.0000 0.12342  0.72535  0.63379  Biso   1.000  O
  C97      1.0000 0.19612  0.22860  0.64301  Biso   1.000  C
  C98      1.0000 0.26754  0.34619  0.64388  Biso   1.000  C
  C99      1.0000 0.03238  0.80380  0.64301  Biso   1.000  C
  C100     1.0000 0.07859  0.73243  0.64388  Biso   1.000  C
  C101     1.0000 0.17283  0.15766  0.65211  Biso   1.000  C
  C102     1.0000 0.31854  0.39488  0.65391  Biso   1.000  C
  C103     1.0000 0.98484  0.82716  0.65211  Biso   1.000  C
  C104     1.0000 0.07636  0.68144  0.65391  Biso   1.000  C
  C105     1.0000 0.22011  0.20643  0.66240  Biso   1.000  C
  H57      1.0000 0.12658  0.07904  0.65137  Biso   1.000  H
  H58      1.0000 0.36830  0.47298  0.65447  Biso   1.000  H
  C106     1.0000 0.29310  0.32257  0.66326  Biso   1.000  C
  C107     1.0000 0.98629  0.77984  0.66240  Biso   1.000  C
  H59      1.0000 0.95237  0.87329  0.65137  Biso   1.000  H
  H60      1.0000 0.10463  0.63164  0.65447  Biso   1.000  H
  C108     1.0000 0.02940  0.70685  0.66326  Biso   1.000  C
  Cl9      1.0000 0.18728  0.11920  0.67418  Biso   1.000  Cl
  Cl10     1.0000 0.35456  0.38405  0.67612  Biso   1.000  Cl
  Cl11     1.0000 0.93188  0.81267  0.67418  Biso   1.000  Cl
  Cl12     1.0000 0.02952  0.64537  0.67612  Biso   1.000  Cl
  C109     1.0000 0.44123  0.46701  0.46251  Biso   1.000  C
  C110     1.0000 0.44278  0.36716  0.46211  Biso   1.000  C
  C111     1.0000 0.33828  0.46403  0.46292  Biso   1.000  C
  H61      1.0000 0.50909  0.53642  0.46250  Biso   1.000  H
  N13      1.0000 0.34831  0.26552  0.46205  Biso   1.000  N
  H62      1.0000 0.51288  0.37032  0.46190  Biso   1.000  H
  C112     1.0000 0.23968  0.35855  0.46294  Biso   1.000  C
  C113     1.0000 0.33472  0.57138  0.46314  Biso   1.000  C
  B7       1.0000 0.35830  0.14785  0.46019  Biso   1.000  B
  C114     1.0000 0.24807  0.26220  0.46253  Biso   1.000  C
  H63      1.0000 0.16858  0.35327  0.46320  Biso   1.000  H
  N14      1.0000 0.23342  0.56490  0.46315  Biso   1.000  N
  N15      1.0000 0.43512  0.66850  0.46315  Biso   1.000  N
  C115     1.0000 0.35170  0.12918  0.44697  Biso   1.000  C
  O13      1.0000 0.46740  0.17642  0.46556  Biso   1.000  O
  O14      1.0000 0.26859  0.05866  0.46713  Biso   1.000  O
  H64      1.0000 0.18157  0.19168  0.46260  Biso   1.000  H
  C116     1.0000 0.23671  0.66526  0.46314  Biso   1.000  C
  C117     1.0000 0.42862  0.76332  0.46314  Biso   1.000  C
  C118     1.0000 0.44531  0.19117  0.44008  Biso   1.000  C
  C119     1.0000 0.24967  0.05730  0.44139  Biso   1.000  C
  C120     1.0000 0.43812  0.13720  0.47635  Biso   1.000  C
  C121     1.0000 0.32054  0.06583  0.47722  Biso   1.000  C
  N16      1.0000 0.33152  0.76656  0.46315  Biso   1.000  N
  C122     1.0000 0.12570  0.66168  0.46292  Biso   1.000  C
  C123     1.0000 0.53600  0.87425  0.46292  Biso   1.000  C
  C124     1.0000 0.43930  0.18580  0.42849  Biso   1.000  C
  H65      1.0000 0.51552  0.23884  0.44350  Biso   1.000  H
  C125     1.0000 0.24226  0.04988  0.42968  Biso   1.000  C
  H66      1.0000 0.18445  0.01296  0.44570  Biso   1.000  H
  C126     1.0000 0.50898  0.16047  0.48544  Biso   1.000  C
  C127     1.0000 0.27178  0.01484  0.48724  Biso   1.000  C
  C128     1.0000 0.11886  0.76025  0.46294  Biso   1.000  C
  C129     1.0000 0.02580  0.55876  0.46251  Biso   1.000  C
  C130     1.0000 0.64139  0.88108  0.46294  Biso   1.000  C
  C131     1.0000 0.53303  0.97419  0.46251  Biso   1.000  C
  C132     1.0000 0.33744  0.11426  0.42286  Biso   1.000  C
  H67      1.0000 0.50480  0.23099  0.42430  Biso   1.000  H
  H68      1.0000 0.17238  0.00094  0.42630  Biso   1.000  H
  C133     1.0000 0.46018  0.11324  0.49573  Biso   1.000  C
  H69      1.0000 0.58762  0.20669  0.48470  Biso   1.000  H
  C134     1.0000 0.34411  0.04016  0.49660  Biso   1.000  C
  H70      1.0000 0.19367  0.96495  0.48780  Biso   1.000  H
  H71      1.0000 0.18470  0.83136  0.46320  Biso   1.000  H
  C135     1.0000 0.01411  0.75189  0.46253  Biso   1.000  C
  H72      1.0000 0.02731  0.49089  0.46250  Biso   1.000  H
  C136     1.0000 0.92438  0.55723  0.46211  Biso   1.000  C
  H73      1.0000 0.64666  0.81525  0.46320  Biso   1.000  H
  C137     1.0000 0.73780  0.98587  0.46253  Biso   1.000  C
  H74      1.0000 0.46358  0.97265  0.46250  Biso   1.000  H
  C138     1.0000 0.63279  0.07566  0.46211  Biso   1.000  C
  C139     1.0000 0.32919  0.11017  0.41047  Biso   1.000  C
  Cl13     1.0000 0.54748  0.14606  0.50751  Biso   1.000  Cl
  Cl14     1.0000 0.28258  0.97868  0.50946  Biso   1.000  Cl
  H75      1.0000 0.01015  0.81840  0.46260  Biso   1.000  H
  N17      1.0000 0.91720  0.65170  0.46205  Biso   1.000  N
  H76      1.0000 0.85739  0.48705  0.46190  Biso   1.000  H
  H77      1.0000 0.80826  0.98988  0.46260  Biso   1.000  H
  N18      1.0000 0.73451  0.08282  0.46205  Biso   1.000  N
  H78      1.0000 0.62971  0.14259  0.46190  Biso   1.000  H
  C140     1.0000 0.22732  0.07981  0.40485  Biso   1.000  C
  C141     1.0000 0.42434  0.14095  0.40365  Biso   1.000  C
  B8       1.0000 0.78963  0.64173  0.46019  Biso   1.000  B
  B9       1.0000 0.85205  0.21038  0.46019  Biso   1.000  B
  C142     1.0000 0.22134  0.07921  0.39326  Biso   1.000  C
  H79      1.0000 0.16187  0.05952  0.40903  Biso   1.000  H
  C143     1.0000 0.41695  0.14095  0.39195  Biso   1.000  C
  H80      1.0000 0.49423  0.16184  0.40704  Biso   1.000  H
  C144     1.0000 0.77748  0.64829  0.44697  Biso   1.000  C
  O15      1.0000 0.70899  0.53258  0.46556  Biso   1.000  O
  O16      1.0000 0.79006  0.73134  0.46713  Biso   1.000  O
  C145     1.0000 0.87081  0.22249  0.44697  Biso   1.000  C
  O17      1.0000 0.82363  0.29104  0.46556  Biso   1.000  O
  O18      1.0000 0.94134  0.20995  0.46713  Biso   1.000  O
  C146     1.0000 0.31499  0.11085  0.38636  Biso   1.000  C
  H81      1.0000 0.15119  0.05662  0.38983  Biso   1.000  H
  H82      1.0000 0.48219  0.16184  0.38763  Biso   1.000  H
  C147     1.0000 0.74588  0.55467  0.44008  Biso   1.000  C
  C148     1.0000 0.80757  0.75027  0.44139  Biso   1.000  C
  C149     1.0000 0.69907  0.56192  0.47635  Biso   1.000  C
  C150     1.0000 0.74530  0.67950  0.47722  Biso   1.000  C
  C151     1.0000 0.80879  0.25412  0.44008  Biso   1.000  C
  C152     1.0000 0.94267  0.19239  0.44139  Biso   1.000  C
  C153     1.0000 0.86277  0.30094  0.47635  Biso   1.000  C
  C154     1.0000 0.93418  0.25472  0.47722  Biso   1.000  C
  B10      1.0000 0.30834  0.12296  0.37314  Biso   1.000  B
  C155     1.0000 0.74647  0.56072  0.42849  Biso   1.000  C
  H83      1.0000 0.72327  0.48449  0.44350  Biso   1.000  H
  C156     1.0000 0.80759  0.75769  0.42968  Biso   1.000  C
  H84      1.0000 0.82852  0.81550  0.44570  Biso   1.000  H
  C157     1.0000 0.65148  0.49097  0.48544  Biso   1.000  C
  C158     1.0000 0.74299  0.72819  0.48724  Biso   1.000  C
  C159     1.0000 0.81418  0.25353  0.42849  Biso   1.000  C
  H85      1.0000 0.76116  0.27672  0.44350  Biso   1.000  H
  C160     1.0000 0.95006  0.19239  0.42968  Biso   1.000  C
  H86      1.0000 0.98695  0.17150  0.44570  Biso   1.000  H
  C161     1.0000 0.83952  0.34851  0.48544  Biso   1.000  C
  C162     1.0000 0.98518  0.25702  0.48724  Biso   1.000  C
  O19      1.0000 0.39810  0.12347  0.36621  Biso   1.000  O
  O20      1.0000 0.19926  0.04229  0.36777  Biso   1.000  O
  N19      1.0000 0.31836  0.25052  0.37128  Biso   1.000  N
  C163     1.0000 0.77680  0.66245  0.42286  Biso   1.000  C
  H87      1.0000 0.72616  0.49515  0.42430  Biso   1.000  H
  H88      1.0000 0.82852  0.82761  0.42630  Biso   1.000  H
  C164     1.0000 0.65298  0.53975  0.49573  Biso   1.000  C
  H89      1.0000 0.61904  0.41236  0.48470  Biso   1.000  H
  H90      1.0000 0.77126  0.80630  0.48780  Biso   1.000  H
  C165     1.0000 0.69606  0.65588  0.49660  Biso   1.000  C
  C166     1.0000 0.88574  0.22326  0.42286  Biso   1.000  C
  H91      1.0000 0.76902  0.27382  0.42430  Biso   1.000  H
  H92      1.0000 0.99906  0.17150  0.42630  Biso   1.000  H
  C167     1.0000 0.88675  0.34698  0.49573  Biso   1.000  C
  H93      1.0000 0.79332  0.38092  0.48470  Biso   1.000  H
  C168     1.0000 0.95982  0.30392  0.49660  Biso   1.000  C
  H94      1.0000 0.03497  0.22871  0.48780  Biso   1.000  H
  C169     1.0000 0.34613  0.07862  0.35612  Biso   1.000  C
  C170     1.0000 0.22858  0.03240  0.35699  Biso   1.000  C
  C171     1.0000 0.41860  0.34747  0.37080  Biso   1.000  C
  C172     1.0000 0.22385  0.25777  0.37122  Biso   1.000  C
  C173     1.0000 0.78098  0.67080  0.41047  Biso   1.000  C
  Cl15     1.0000 0.59851  0.45252  0.50751  Biso   1.000  Cl
  Cl16     1.0000 0.69615  0.71736  0.50946  Biso   1.000  Cl
  C174     1.0000 0.88985  0.21908  0.41047  Biso   1.000  C
  Cl17     1.0000 0.85396  0.40147  0.50751  Biso   1.000  Cl
  Cl18     1.0000 0.02121  0.30383  0.50946  Biso   1.000  Cl
  C175     1.0000 0.39483  0.07631  0.34609  Biso   1.000  C
  C176     1.0000 0.15767  0.98482  0.34789  Biso   1.000  C
  C177     1.0000 0.42699  0.45226  0.37039  Biso   1.000  C
  H95      1.0000 0.48505  0.34346  0.37073  Biso   1.000  H
  H96      1.0000 0.15378  0.19074  0.37143  Biso   1.000  H
  C178     1.0000 0.22551  0.35915  0.37082  Biso   1.000  C
  C179     1.0000 0.85241  0.77261  0.40485  Biso   1.000  C
  C180     1.0000 0.71656  0.57564  0.40365  Biso   1.000  C
  C181     1.0000 0.92017  0.14754  0.40485  Biso   1.000  C
  C182     1.0000 0.85905  0.28346  0.40365  Biso   1.000  C
  C183     1.0000 0.32257  0.02942  0.33674  Biso   1.000  C
  H97      1.0000 0.47293  0.10462  0.34553  Biso   1.000  H
  C184     1.0000 0.20647  0.98627  0.33760  Biso   1.000  C
  H98      1.0000 0.07908  0.95242  0.34863  Biso   1.000  H
  C185     1.0000 0.32838  0.45900  0.37041  Biso   1.000  C
  H99      1.0000 0.49804  0.51800  0.37013  Biso   1.000  H
  H100     1.0000 0.15756  0.36060  0.37083  Biso   1.000  H
  C186     1.0000 0.85783  0.77858  0.39326  Biso   1.000  C
  H101     1.0000 0.89764  0.83810  0.40903  Biso   1.000  H
  C187     1.0000 0.72392  0.58298  0.39195  Biso   1.000  C
  H102     1.0000 0.66757  0.50573  0.40704  Biso   1.000  H
  C188     1.0000 0.92074  0.14217  0.39326  Biso   1.000  C
  H103     1.0000 0.94048  0.10235  0.40903  Biso   1.000  H
  C189     1.0000 0.85903  0.27604  0.39195  Biso   1.000  C
  H104     1.0000 0.83815  0.33248  0.40704  Biso   1.000  H
  Cl19     1.0000 0.38405  0.02950  0.32388  Biso   1.000  Cl
  Cl20     1.0000 0.11916  0.93187  0.32582  Biso   1.000  Cl
  C190     1.0000 0.33197  0.57002  0.37019  Biso   1.000  C
  C191     1.0000 0.79585  0.68504  0.38636  Biso   1.000  C
  H105     1.0000 0.90544  0.84884  0.38983  Biso   1.000  H
  H106     1.0000 0.67968  0.51783  0.38763  Biso   1.000  H
  C192     1.0000 0.88918  0.20416  0.38636  Biso   1.000  C
  H107     1.0000 0.94339  0.09459  0.38983  Biso   1.000  H
  H108     1.0000 0.83815  0.32038  0.38763  Biso   1.000  H
  N20      1.0000 0.23158  0.56669  0.37018  Biso   1.000  N
  N21      1.0000 0.43329  0.66484  0.37018  Biso   1.000  N
  B11      1.0000 0.81457  0.69161  0.37314  Biso   1.000  B
  B12      1.0000 0.87704  0.18548  0.37314  Biso   1.000  B
  C193     1.0000 0.23807  0.66799  0.37019  Biso   1.000  C
  C194     1.0000 0.43001  0.76196  0.37019  Biso   1.000  C
  N22      1.0000 0.93216  0.68163  0.37128  Biso   1.000  N
  O21      1.0000 0.84307  0.80075  0.36777  Biso   1.000  O
  O22      1.0000 0.72534  0.60191  0.36621  Biso   1.000  O
  N23      1.0000 0.74950  0.06790  0.37128  Biso   1.000  N
  O23      1.0000 0.95765  0.15692  0.36777  Biso   1.000  O
  O24      1.0000 0.87659  0.27467  0.36621  Biso   1.000  O
  N24      1.0000 0.33519  0.76844  0.37018  Biso   1.000  N
  C195     1.0000 0.13069  0.67166  0.37041  Biso   1.000  C
  C196     1.0000 0.54092  0.86931  0.37041  Biso   1.000  C
  C197     1.0000 0.92888  0.58144  0.37080  Biso   1.000  C
  C198     1.0000 0.03390  0.77611  0.37122  Biso   1.000  C
  C199     1.0000 0.80382  0.77142  0.35699  Biso   1.000  C
  C200     1.0000 0.73247  0.65384  0.35612  Biso   1.000  C
  C201     1.0000 0.65254  0.07114  0.37080  Biso   1.000  C
  C202     1.0000 0.74224  0.96609  0.37122  Biso   1.000  C
  C203     1.0000 0.96759  0.19614  0.35699  Biso   1.000  C
  C204     1.0000 0.92130  0.26751  0.35612  Biso   1.000  C
  C205     1.0000 0.02524  0.57300  0.37039  Biso   1.000  C
  C206     1.0000 0.13366  0.77449  0.37082  Biso   1.000  C
  C207     1.0000 0.54775  0.97470  0.37039  Biso   1.000  C
  C208     1.0000 0.64089  0.86632  0.37082  Biso   1.000  C
  H109     1.0000 0.85834  0.51493  0.37073  Biso   1.000  H
  H110     1.0000 0.03697  0.84620  0.37143  Biso   1.000  H
  C209     1.0000 0.82714  0.84228  0.34789  Biso   1.000  C
  C210     1.0000 0.68147  0.60515  0.34609  Biso   1.000  C
  H111     1.0000 0.65656  0.14165  0.37073  Biso   1.000  H
  H112     1.0000 0.80923  0.96302  0.37143  Biso   1.000  H
  C211     1.0000 0.01517  0.17286  0.34789  Biso   1.000  C
  C212     1.0000 0.92366  0.31859  0.34609  Biso   1.000  C
  H113     1.0000 0.01996  0.50189  0.37013  Biso   1.000  H
  H114     1.0000 0.20309  0.84245  0.37083  Biso   1.000  H
  H115     1.0000 0.48194  0.97999  0.37013  Biso   1.000  H
  H116     1.0000 0.63934  0.79692  0.37083  Biso   1.000  H
  C213     1.0000 0.77986  0.79350  0.33760  Biso   1.000  C
  H117     1.0000 0.87331  0.92090  0.34863  Biso   1.000  H
  H118     1.0000 0.63164  0.52704  0.34553  Biso   1.000  H
  C214     1.0000 0.70684  0.67746  0.33674  Biso   1.000  C
  C215     1.0000 0.01373  0.22019  0.33760  Biso   1.000  C
  H119     1.0000 0.04759  0.12665  0.34863  Biso   1.000  H
  H120     1.0000 0.89539  0.36838  0.34553  Biso   1.000  H
  C216     1.0000 0.97054  0.29318  0.33674  Biso   1.000  C
  Cl21     1.0000 0.81266  0.88082  0.32582  Biso   1.000  Cl
  Cl22     1.0000 0.64541  0.61589  0.32388  Biso   1.000  Cl
  Cl23     1.0000 0.06813  0.18736  0.32582  Biso   1.000  Cl
  Cl24     1.0000 0.97045  0.35457  0.32388  Biso   1.000  Cl
  C217     1.0000 0.36275  0.37356  0.32994  Biso   1.000  C
  C218     1.0000 0.40964  0.34815  0.32057  Biso   1.000  C
  C219     1.0000 0.31964  0.44655  0.32906  Biso   1.000  C
  Cl25     1.0000 0.36280  0.31208  0.34279  Biso   1.000  Cl
  C220     1.0000 0.41195  0.39914  0.31056  Biso   1.000  C
  H121     1.0000 0.43798  0.29835  0.32113  Biso   1.000  H
  C221     1.0000 0.31815  0.49379  0.31877  Biso   1.000  C
  Cl26     1.0000 0.26524  0.47938  0.34084  Biso   1.000  Cl
  O25      1.0000 0.45678  0.39206  0.30047  Biso   1.000  O
  C222     1.0000 0.36574  0.47051  0.30969  Biso   1.000  C
  H122     1.0000 0.28573  0.54000  0.31803  Biso   1.000  H
  B13      1.0000 0.45625  0.48125  0.29352  Biso   1.000  B
  O26      1.0000 0.37568  0.50973  0.29889  Biso   1.000  O
  C223     1.0000 0.44414  0.46249  0.28030  Biso   1.000  C
  N25      1.0000 0.58387  0.59884  0.29538  Biso   1.000  N
  C224     1.0000 0.41252  0.52448  0.27342  Biso   1.000  C
  C225     1.0000 0.47422  0.39061  0.27473  Biso   1.000  C
  C226     1.0000 0.68071  0.59551  0.29586  Biso   1.000  C
  C227     1.0000 0.59105  0.70048  0.29544  Biso   1.000  C
  C228     1.0000 0.41315  0.51911  0.26183  Biso   1.000  C
  H123     1.0000 0.38997  0.57215  0.27683  Biso   1.000  H
  C229     1.0000 0.47427  0.38319  0.26301  Biso   1.000  C
  H124     1.0000 0.49514  0.34636  0.27903  Biso   1.000  H
  C230     1.0000 0.78557  0.69195  0.29627  Biso   1.000  C
  H125     1.0000 0.67676  0.52500  0.29593  Biso   1.000  H
  H126     1.0000 0.52409  0.70363  0.29523  Biso   1.000  H
  C231     1.0000 0.69244  0.80033  0.29584  Biso   1.000  C
  C232     1.0000 0.44344  0.44766  0.25619  Biso   1.000  C
  H127     1.0000 0.39284  0.56430  0.25763  Biso   1.000  H
  H128     1.0000 0.49514  0.33425  0.25964  Biso   1.000  H
  C233     1.0000 0.79234  0.79734  0.29625  Biso   1.000  C
  H129     1.0000 0.85134  0.68658  0.29653  Biso   1.000  H
  H130     1.0000 0.69399  0.86973  0.29583  Biso   1.000  H
  C234     1.0000 0.44763  0.44348  0.24381  Biso   1.000  C
  C235     1.0000 0.90331  0.90469  0.29647  Biso   1.000  C
  C236     1.0000 0.51907  0.41312  0.23818  Biso   1.000  C
  C237     1.0000 0.38319  0.47426  0.23698  Biso   1.000  C
  N26      1.0000 0.99814  0.89821  0.29648  Biso   1.000  N
  N27      1.0000 0.90008  0.00190  0.29648  Biso   1.000  N
  C238     1.0000 0.52453  0.41253  0.22659  Biso   1.000  C
  H131     1.0000 0.56431  0.39283  0.24236  Biso   1.000  H
  H132     1.0000 0.33420  0.49515  0.24037  Biso   1.000  H
  C239     1.0000 0.39065  0.47426  0.22528  Biso   1.000  C
  C240     1.0000 0.09521  0.99857  0.29647  Biso   1.000  C
  C241     1.0000 0.00135  0.09663  0.29647  Biso   1.000  C
  C242     1.0000 0.46252  0.44416  0.21969  Biso   1.000  C
  H133     1.0000 0.57209  0.38993  0.22316  Biso   1.000  H
  H134     1.0000 0.34631  0.49515  0.22096  Biso   1.000  H
  C243     1.0000 0.20264  0.99499  0.29625  Biso   1.000  C
  N28      1.0000 0.10174  0.09996  0.29648  Biso   1.000  N
  C244     1.0000 0.00495  0.20765  0.29625  Biso   1.000  C
  B14      1.0000 0.48120  0.45627  0.20647  Biso   1.000  B
  C245     1.0000 0.19962  0.89207  0.29584  Biso   1.000  C
  C246     1.0000 0.30809  0.09365  0.29627  Biso   1.000  C
  C247     1.0000 0.90638  0.21447  0.29627  Biso   1.000  C
  C248     1.0000 0.10786  0.30759  0.29584  Biso   1.000  C
  O27      1.0000 0.50973  0.37569  0.20110  Biso   1.000  O
  O28      1.0000 0.39203  0.45678  0.19954  Biso   1.000  O
  N29      1.0000 0.59881  0.58383  0.20461  Biso   1.000  N
  C249     1.0000 0.29950  0.89054  0.29544  Biso   1.000  C
  H135     1.0000 0.13024  0.82420  0.29583  Biso   1.000  H
  H136     1.0000 0.31337  0.16476  0.29653  Biso   1.000  H
  C250     1.0000 0.40448  0.08529  0.29586  Biso   1.000  C
  H137     1.0000 0.83529  0.14865  0.29653  Biso   1.000  H
  C251     1.0000 0.91477  0.31927  0.29586  Biso   1.000  C
  C252     1.0000 0.10952  0.40897  0.29544  Biso   1.000  C
  H138     1.0000 0.17577  0.30605  0.29583  Biso   1.000  H
  C253     1.0000 0.47052  0.36580  0.19032  Biso   1.000  C
  C254     1.0000 0.39914  0.41193  0.18945  Biso   1.000  C
  C255     1.0000 0.59552  0.68078  0.20414  Biso   1.000  C
  C256     1.0000 0.70050  0.59108  0.20455  Biso   1.000  C
  N30      1.0000 0.40116  0.98502  0.29538  Biso   1.000  N
  H139     1.0000 0.29636  0.82045  0.29523  Biso   1.000  H
  H140     1.0000 0.47491  0.15172  0.29593  Biso   1.000  H
  H141     1.0000 0.84824  0.32328  0.29593  Biso   1.000  H
  N31      1.0000 0.01496  0.41613  0.29538  Biso   1.000  N
  H142     1.0000 0.17954  0.47591  0.29523  Biso   1.000  H
  C257     1.0000 0.49380  0.31814  0.18123  Biso   1.000  C
  C258     1.0000 0.34815  0.40963  0.17942  Biso   1.000  C
  C259     1.0000 0.69193  0.78557  0.20373  Biso   1.000  C
  H143     1.0000 0.52506  0.67677  0.20406  Biso   1.000  H
  H144     1.0000 0.70362  0.52406  0.20477  Biso   1.000  H
  C260     1.0000 0.80030  0.69246  0.20416  Biso   1.000  C
  B15      1.0000 0.51876  0.97504  0.29352  Biso   1.000  B
  B16      1.0000 0.02503  0.54378  0.29352  Biso   1.000  B
  C261     1.0000 0.44650  0.31967  0.17094  Biso   1.000  C
  H145     1.0000 0.54000  0.28573  0.18197  Biso   1.000  H
  H146     1.0000 0.29835  0.43794  0.17887  Biso   1.000  H
  C262     1.0000 0.37351  0.36273  0.17007  Biso   1.000  C
  C263     1.0000 0.79728  0.79231  0.20375  Biso   1.000  C
  H147     1.0000 0.68662  0.85132  0.20346  Biso   1.000  H
  H148     1.0000 0.86970  0.69391  0.20417  Biso   1.000  H
  C264     1.0000 0.53747  0.98161  0.28030  Biso   1.000  C
  O29      1.0000 0.49025  0.86590  0.29889  Biso   1.000  O
  O30      1.0000 0.60799  0.06474  0.30047  Biso   1.000  O
  O31      1.0000 0.93527  0.54327  0.30047  Biso   1.000  O
  C265     1.0000 0.01838  0.55589  0.28030  Biso   1.000  C
  O32      1.0000 0.13407  0.62436  0.29889  Biso   1.000  O
  Cl27     1.0000 0.47936  0.26518  0.15916  Biso   1.000  Cl
  Cl28     1.0000 0.31211  0.36282  0.15721  Biso   1.000  Cl
  C266     1.0000 0.90470  0.90333  0.20353  Biso   1.000  C
  C267     1.0000 0.47545  0.88798  0.27342  Biso   1.000  C
  C268     1.0000 0.60940  0.08367  0.27473  Biso   1.000  C
  C269     1.0000 0.52943  0.89523  0.30969  Biso   1.000  C
  C270     1.0000 0.60090  0.01290  0.31056  Biso   1.000  C
  C271     1.0000 0.98712  0.58803  0.31056  Biso   1.000  C
  C272     1.0000 0.91642  0.52579  0.27473  Biso   1.000  C
  C273     1.0000 0.11199  0.58744  0.27342  Biso   1.000  C
  C274     1.0000 0.10475  0.63425  0.30969  Biso   1.000  C
  N32      1.0000 0.89820  0.99815  0.20351  Biso   1.000  N
  N33      1.0000 0.00184  0.90000  0.20351  Biso   1.000  N
  H149     1.0000 0.42788  0.81781  0.27683  Biso   1.000  H
  C275     1.0000 0.48084  0.89404  0.26183  Biso   1.000  C
  C276     1.0000 0.61681  0.09109  0.26301  Biso   1.000  C
  H150     1.0000 0.65364  0.14882  0.27903  Biso   1.000  H
  C277     1.0000 0.50615  0.82429  0.31877  Biso   1.000  C
  C278     1.0000 0.65190  0.06159  0.32057  Biso   1.000  C
  C279     1.0000 0.93843  0.59034  0.32057  Biso   1.000  C
  C280     1.0000 0.90896  0.52579  0.26301  Biso   1.000  C
  H151     1.0000 0.85114  0.50481  0.27903  Biso   1.000  H
  H152     1.0000 0.18214  0.61003  0.27683  Biso   1.000  H
  C281     1.0000 0.10600  0.58684  0.26183  Biso   1.000  C
  C282     1.0000 0.17565  0.68183  0.31877  Biso   1.000  C
  C283     1.0000 0.99860  0.09527  0.20353  Biso   1.000  C
  C284     1.0000 0.09662  0.00139  0.20353  Biso   1.000  C
  C285     1.0000 0.55235  0.99585  0.25619  Biso   1.000  C
  H153     1.0000 0.43569  0.82855  0.25763  Biso   1.000  H
  H154     1.0000 0.66575  0.16093  0.25964  Biso   1.000  H
  C286     1.0000 0.55347  0.87315  0.32906  Biso   1.000  C
  H155     1.0000 0.45994  0.74575  0.31803  Biso   1.000  H
  C287     1.0000 0.62641  0.98920  0.32994  Biso   1.000  C
  H156     1.0000 0.70166  0.13969  0.32113  Biso   1.000  H
  H157     1.0000 0.86032  0.56203  0.32113  Biso   1.000  H
  C288     1.0000 0.01076  0.63723  0.32994  Biso   1.000  C
  C289     1.0000 0.00417  0.55657  0.25619  Biso   1.000  C
  H158     1.0000 0.83903  0.50481  0.25964  Biso   1.000  H
  H159     1.0000 0.17146  0.60713  0.25763  Biso   1.000  H
  C290     1.0000 0.12693  0.68038  0.32906  Biso   1.000  C
  H160     1.0000 0.25425  0.71423  0.31803  Biso   1.000  H
  C291     1.0000 0.99502  0.20271  0.20375  Biso   1.000  C
  N34      1.0000 0.09991  0.10175  0.20351  Biso   1.000  N
  C292     1.0000 0.20762  0.00497  0.20375  Biso   1.000  C
  C293     1.0000 0.55652  0.00420  0.24381  Biso   1.000  C
  Cl29     1.0000 0.52059  0.78583  0.34084  Biso   1.000  Cl
  Cl30     1.0000 0.68791  0.05076  0.34279  Biso   1.000  Cl
  Cl31     1.0000 0.94920  0.63715  0.34279  Biso   1.000  Cl
  C294     1.0000 0.99581  0.55239  0.24381  Biso   1.000  C
  Cl32     1.0000 0.21416  0.73478  0.34084  Biso   1.000  Cl
  C295     1.0000 0.89214  0.19972  0.20416  Biso   1.000  C
  C296     1.0000 0.09364  0.30810  0.20373  Biso   1.000  C
  C297     1.0000 0.21442  0.90631  0.20373  Biso   1.000  C
  C298     1.0000 0.30753  0.10789  0.20416  Biso   1.000  C
  C299     1.0000 0.52574  0.90896  0.23698  Biso   1.000  C
  C300     1.0000 0.58683  0.10601  0.23818  Biso   1.000  C
  C301     1.0000 0.89402  0.48085  0.23818  Biso   1.000  C
  C302     1.0000 0.09106  0.61677  0.23698  Biso   1.000  C
  C303     1.0000 0.89055  0.29949  0.20455  Biso   1.000  C
  H161     1.0000 0.82428  0.13031  0.20417  Biso   1.000  H
  H162     1.0000 0.16474  0.31338  0.20346  Biso   1.000  H
  C304     1.0000 0.08526  0.40445  0.20414  Biso   1.000  C
  H163     1.0000 0.14863  0.83529  0.20346  Biso   1.000  H
  C305     1.0000 0.31922  0.91476  0.20414  Biso   1.000  C
  C306     1.0000 0.40891  0.10951  0.20455  Biso   1.000  C
  H164     1.0000 0.30602  0.17576  0.20417  Biso   1.000  H
  C307     1.0000 0.52576  0.91638  0.22528  Biso   1.000  C
  H165     1.0000 0.50481  0.83904  0.24037  Biso   1.000  H
  C308     1.0000 0.58745  0.11198  0.22659  Biso   1.000  C
  H166     1.0000 0.60716  0.17150  0.24236  Biso   1.000  H
  C309     1.0000 0.88801  0.47548  0.22659  Biso   1.000  C
  H167     1.0000 0.82852  0.43566  0.24236  Biso   1.000  H
  C310     1.0000 0.08366  0.60935  0.22528  Biso   1.000  C
  H168     1.0000 0.16099  0.66580  0.24037  Biso   1.000  H
  N35      1.0000 0.98505  0.40121  0.20461  Biso   1.000  N
  H169     1.0000 0.82041  0.29642  0.20477  Biso   1.000  H
  H170     1.0000 0.15175  0.47497  0.20406  Biso   1.000  H
  H171     1.0000 0.32325  0.84825  0.20406  Biso   1.000  H
  N36      1.0000 0.41617  0.01503  0.20461  Biso   1.000  N
  H172     1.0000 0.47593  0.17960  0.20477  Biso   1.000  H
  C311     1.0000 0.55585  0.01836  0.21969  Biso   1.000  C
  H173     1.0000 0.50481  0.85115  0.22096  Biso   1.000  H
  H174     1.0000 0.60998  0.18216  0.22316  Biso   1.000  H
  C312     1.0000 0.98163  0.53747  0.21969  Biso   1.000  C
  H175     1.0000 0.81785  0.42790  0.22316  Biso   1.000  H
  H176     1.0000 0.14888  0.65369  0.22096  Biso   1.000  H
  B17      1.0000 0.97502  0.51880  0.20647  Biso   1.000  B
  B18      1.0000 0.54374  0.02501  0.20647  Biso   1.000  B
  O33      1.0000 0.86597  0.49032  0.20110  Biso   1.000  O
  O34      1.0000 0.06474  0.60799  0.19954  Biso   1.000  O
  O35      1.0000 0.54323  0.93522  0.19954  Biso   1.000  O
  O36      1.0000 0.62434  0.13407  0.20110  Biso   1.000  O
  C313     1.0000 0.89521  0.52945  0.19032  Biso   1.000  C
  C314     1.0000 0.01283  0.60091  0.18945  Biso   1.000  C
  C315     1.0000 0.58802  0.98715  0.18945  Biso   1.000  C
  C316     1.0000 0.63423  0.10482  0.19032  Biso   1.000  C
  C317     1.0000 0.82435  0.50618  0.18123  Biso   1.000  C
  C318     1.0000 0.06159  0.65190  0.17942  Biso   1.000  C
  C319     1.0000 0.59034  0.93846  0.17942  Biso   1.000  C
  C320     1.0000 0.68184  0.17568  0.18123  Biso   1.000  C
  C321     1.0000 0.87312  0.55350  0.17094  Biso   1.000  C
  H177     1.0000 0.74571  0.45996  0.18197  Biso   1.000  H
  C322     1.0000 0.98922  0.62649  0.17007  Biso   1.000  C
  H178     1.0000 0.13965  0.70170  0.17887  Biso   1.000  H
  H179     1.0000 0.56199  0.86036  0.17887  Biso   1.000  H
  C323     1.0000 0.63720  0.01077  0.17007  Biso   1.000  C
  C324     1.0000 0.68035  0.12690  0.17094  Biso   1.000  C
  H180     1.0000 0.71421  0.25429  0.18197  Biso   1.000  H
  Cl33     1.0000 0.78589  0.52067  0.15916  Biso   1.000  Cl
  Cl34     1.0000 0.05078  0.68788  0.15721  Biso   1.000  Cl
  Cl35     1.0000 0.63713  0.94920  0.15721  Biso   1.000  Cl
  Cl36     1.0000 0.73474  0.21413  0.15916  Biso   1.000  Cl
  C325     1.0000 0.87310  0.31967  0.67094  Biso   1.000  C
  C326     1.0000 0.98922  0.36273  0.67006  Biso   1.000  C
  C327     1.0000 0.82433  0.31814  0.68123  Biso   1.000  C
  Cl37     1.0000 0.78582  0.26518  0.65916  Biso   1.000  Cl
  C328     1.0000 0.06148  0.40963  0.67943  Biso   1.000  C
  Cl38     1.0000 0.05070  0.36282  0.65721  Biso   1.000  Cl
  C329     1.0000 0.89520  0.36580  0.69031  Biso   1.000  C
  H181     1.0000 0.74573  0.28573  0.68197  Biso   1.000  H
  C330     1.0000 0.01279  0.41193  0.68944  Biso   1.000  C
  H182     1.0000 0.13959  0.43794  0.67887  Biso   1.000  H
  O37      1.0000 0.86596  0.37569  0.70111  Biso   1.000  O
  O38      1.0000 0.06475  0.45678  0.69953  Biso   1.000  O
  B19      1.0000 0.97500  0.45627  0.70648  Biso   1.000  B
  C331     1.0000 0.98164  0.44416  0.71970  Biso   1.000  C
  N37      1.0000 0.98502  0.58383  0.70462  Biso   1.000  N
  C332     1.0000 0.88799  0.41253  0.72658  Biso   1.000  C
  C333     1.0000 0.08361  0.47426  0.72527  Biso   1.000  C
  C334     1.0000 0.89050  0.59108  0.70456  Biso   1.000  C
  C335     1.0000 0.08526  0.68078  0.70414  Biso   1.000  C
  H183     1.0000 0.81777  0.38993  0.72317  Biso   1.000  H
  C336     1.0000 0.89398  0.41312  0.73817  Biso   1.000  C
  C337     1.0000 0.09107  0.47426  0.73699  Biso   1.000  C
  H184     1.0000 0.14885  0.49515  0.72097  Biso   1.000  H
  H185     1.0000 0.82044  0.52406  0.70477  Biso   1.000  H
  C338     1.0000 0.89209  0.69246  0.70416  Biso   1.000  C
  C339     1.0000 0.09364  0.78557  0.70373  Biso   1.000  C
  H186     1.0000 0.15171  0.67677  0.70407  Biso   1.000  H
  H187     1.0000 0.82852  0.39283  0.74237  Biso   1.000  H
  C340     1.0000 0.99585  0.44348  0.74381  Biso   1.000  C
  H188     1.0000 0.16096  0.49515  0.74036  Biso   1.000  H
  C341     1.0000 0.99496  0.79231  0.70375  Biso   1.000  C
  H189     1.0000 0.82421  0.69391  0.70417  Biso   1.000  H
  H190     1.0000 0.16469  0.85132  0.70347  Biso   1.000  H
  C342     1.0000 0.00422  0.44766  0.75619  Biso   1.000  C
  C343     1.0000 0.99863  0.90333  0.70353  Biso   1.000  C
  C344     1.0000 0.90892  0.38319  0.76302  Biso   1.000  C
  C345     1.0000 0.10596  0.51911  0.76182  Biso   1.000  C
  N38      1.0000 0.89816  0.90000  0.70352  Biso   1.000  N
  N39      1.0000 0.09995  0.99815  0.70352  Biso   1.000  N
  H191     1.0000 0.83904  0.33425  0.75963  Biso   1.000  H
  C346     1.0000 0.91632  0.39061  0.77472  Biso   1.000  C
  C347     1.0000 0.11197  0.52448  0.77341  Biso   1.000  C
  H192     1.0000 0.17146  0.56430  0.75764  Biso   1.000  H
  C348     1.0000 0.90470  0.00139  0.70353  Biso   1.000  C
  C349     1.0000 0.09667  0.09527  0.70353  Biso   1.000  C
  H193     1.0000 0.85114  0.34636  0.77904  Biso   1.000  H
  C350     1.0000 0.01835  0.46249  0.78031  Biso   1.000  C
  H194     1.0000 0.18218  0.57215  0.77684  Biso   1.000  H
  C351     1.0000 0.79735  0.00497  0.70375  Biso   1.000  C
  N40      1.0000 0.00184  0.10175  0.70352  Biso   1.000  N
  C352     1.0000 0.20762  0.20271  0.70375  Biso   1.000  C
  B20      1.0000 0.02500  0.48125  0.79353  Biso   1.000  B
  C353     1.0000 0.69190  0.90631  0.70373  Biso   1.000  C
  C354     1.0000 0.80036  0.10789  0.70416  Biso   1.000  C
  C355     1.0000 0.21445  0.30810  0.70373  Biso   1.000  C
  C356     1.0000 0.30759  0.19972  0.70416  Biso   1.000  C
  O39      1.0000 0.93529  0.39206  0.80046  Biso   1.000  O
  O40      1.0000 0.13406  0.50973  0.79890  Biso   1.000  O
  N41      1.0000 0.01497  0.59884  0.79539  Biso   1.000  N
  H195     1.0000 0.68666  0.83529  0.70347  Biso   1.000  H
  C357     1.0000 0.59554  0.91476  0.70414  Biso   1.000  C
  C358     1.0000 0.70052  0.10951  0.70456  Biso   1.000  C
  H196     1.0000 0.86974  0.17576  0.70417  Biso   1.000  H
  H197     1.0000 0.14864  0.31338  0.70347  Biso   1.000  H
  C359     1.0000 0.31919  0.40445  0.70414  Biso   1.000  C
  C360     1.0000 0.40894  0.29949  0.70456  Biso   1.000  C
  H198     1.0000 0.30604  0.13031  0.70417  Biso   1.000  H
  C361     1.0000 0.98712  0.39914  0.81055  Biso   1.000  C
  C362     1.0000 0.10477  0.47051  0.80968  Biso   1.000  C
  C363     1.0000 0.91473  0.59551  0.79586  Biso   1.000  C
  C364     1.0000 0.10943  0.70048  0.79545  Biso   1.000  C
  H199     1.0000 0.52499  0.84825  0.70407  Biso   1.000  H
  N42      1.0000 0.59886  0.01503  0.70462  Biso   1.000  N
  H200     1.0000 0.70367  0.17960  0.70477  Biso   1.000  H
  H201     1.0000 0.32322  0.47497  0.70407  Biso   1.000  H
  N43      1.0000 0.41616  0.40121  0.70462  Biso   1.000  N
  H202     1.0000 0.47593  0.29642  0.70477  Biso   1.000  H
  C365     1.0000 0.93844  0.34815  0.82058  Biso   1.000  C
  C366     1.0000 0.17563  0.49379  0.81877  Biso   1.000  C
  C367     1.0000 0.90638  0.69195  0.79627  Biso   1.000  C
  H203     1.0000 0.84823  0.52500  0.79594  Biso   1.000  H
  H204     1.0000 0.17954  0.70363  0.79523  Biso   1.000  H
  C368     1.0000 0.10789  0.80033  0.79584  Biso   1.000  C
  B21      1.0000 0.48127  0.02501  0.70648  Biso   1.000  B
  B22      1.0000 0.54377  0.51880  0.70648  Biso   1.000  B
  H205     1.0000 0.86037  0.29835  0.82113  Biso   1.000  H
  C369     1.0000 0.01081  0.37356  0.82993  Biso   1.000  C
  C370     1.0000 0.12691  0.44655  0.82906  Biso   1.000  C
  H206     1.0000 0.25427  0.54000  0.81803  Biso   1.000  H
  H207     1.0000 0.83524  0.68658  0.79654  Biso   1.000  H
  C371     1.0000 0.00501  0.79734  0.79625  Biso   1.000  C
  H208     1.0000 0.17575  0.86973  0.79583  Biso   1.000  H
  O41      1.0000 0.39199  0.93522  0.69953  Biso   1.000  O
  C372     1.0000 0.46251  0.01836  0.71970  Biso   1.000  C
  O42      1.0000 0.50973  0.13407  0.70111  Biso   1.000  O
  C373     1.0000 0.55584  0.53747  0.71970  Biso   1.000  C
  O43      1.0000 0.62435  0.49032  0.70111  Biso   1.000  O
  O44      1.0000 0.54325  0.60799  0.69953  Biso   1.000  O
  Cl39     1.0000 0.94920  0.31208  0.84279  Biso   1.000  Cl
  Cl40     1.0000 0.21414  0.47938  0.84084  Biso   1.000  Cl
  C374     1.0000 0.00138  0.90469  0.79647  Biso   1.000  C
  C375     1.0000 0.39913  0.98715  0.68944  Biso   1.000  C
  C376     1.0000 0.39062  0.91638  0.72527  Biso   1.000  C
  C377     1.0000 0.52453  0.11198  0.72658  Biso   1.000  C
  C378     1.0000 0.47052  0.10482  0.69031  Biso   1.000  C
  C379     1.0000 0.58747  0.47548  0.72658  Biso   1.000  C
  C380     1.0000 0.52569  0.60935  0.72527  Biso   1.000  C
  C381     1.0000 0.63424  0.52945  0.69031  Biso   1.000  C
  C382     1.0000 0.58808  0.60091  0.68944  Biso   1.000  C
  N44      1.0000 0.90007  0.89821  0.79649  Biso   1.000  N
  N45      1.0000 0.10182  0.00190  0.79649  Biso   1.000  N
  C383     1.0000 0.34813  0.93846  0.67943  Biso   1.000  C
  C384     1.0000 0.38322  0.90896  0.73699  Biso   1.000  C
  H209     1.0000 0.34634  0.85115  0.72097  Biso   1.000  H
  H210     1.0000 0.57210  0.18216  0.72317  Biso   1.000  H
  C385     1.0000 0.51911  0.10601  0.73817  Biso   1.000  C
  C386     1.0000 0.49383  0.17568  0.68123  Biso   1.000  C
  H211     1.0000 0.61005  0.42790  0.72317  Biso   1.000  H
  C387     1.0000 0.58683  0.48085  0.73817  Biso   1.000  C
  C388     1.0000 0.52571  0.61677  0.73699  Biso   1.000  C
  H212     1.0000 0.50481  0.65369  0.72097  Biso   1.000  H
  C389     1.0000 0.68183  0.50618  0.68123  Biso   1.000  C
  C390     1.0000 0.59031  0.65190  0.67943  Biso   1.000  C
  C391     1.0000 0.90336  0.99857  0.79647  Biso   1.000  C
  C392     1.0000 0.09528  0.09663  0.79647  Biso   1.000  C
  H213     1.0000 0.29837  0.86036  0.67887  Biso   1.000  H
  C393     1.0000 0.37350  0.01077  0.67006  Biso   1.000  C
  H214     1.0000 0.33423  0.83904  0.74036  Biso   1.000  H
  C394     1.0000 0.44768  0.00420  0.74381  Biso   1.000  C
  H215     1.0000 0.56433  0.17150  0.74237  Biso   1.000  H
  C395     1.0000 0.44656  0.12690  0.67094  Biso   1.000  C
  H216     1.0000 0.54001  0.25429  0.68197  Biso   1.000  H
  H217     1.0000 0.60714  0.43566  0.74237  Biso   1.000  H
  C396     1.0000 0.55651  0.55239  0.74381  Biso   1.000  C
  H218     1.0000 0.50481  0.66580  0.74036  Biso   1.000  H
  C397     1.0000 0.68031  0.55350  0.67094  Biso   1.000  C
  H219     1.0000 0.71425  0.45996  0.68197  Biso   1.000  H
  H220     1.0000 0.56204  0.70170  0.67887  Biso   1.000  H
  C398     1.0000 0.63727  0.62649  0.67006  Biso   1.000  C
  C399     1.0000 0.79236  0.99499  0.79625  Biso   1.000  C
  N46      1.0000 0.99814  0.09996  0.79649  Biso   1.000  N
  C400     1.0000 0.20270  0.20765  0.79625  Biso   1.000  C
  Cl41     1.0000 0.31207  0.94920  0.65721  Biso   1.000  Cl
  C401     1.0000 0.44350  0.99585  0.75619  Biso   1.000  C
  Cl42     1.0000 0.47932  0.21413  0.65916  Biso   1.000  Cl
  C402     1.0000 0.55239  0.55657  0.75619  Biso   1.000  C
  Cl43     1.0000 0.73479  0.52067  0.65916  Biso   1.000  Cl
  Cl44     1.0000 0.63710  0.68788  0.65721  Biso   1.000  Cl
  C403     1.0000 0.69246  0.89207  0.79584  Biso   1.000  C
  C404     1.0000 0.78556  0.09365  0.79627  Biso   1.000  C
  C405     1.0000 0.30809  0.21447  0.79627  Biso   1.000  C
  C406     1.0000 0.19972  0.30759  0.79584  Biso   1.000  C
  C407     1.0000 0.41320  0.89404  0.76182  Biso   1.000  C
  C408     1.0000 0.47429  0.09109  0.76302  Biso   1.000  C
  C409     1.0000 0.48084  0.58684  0.76182  Biso   1.000  C
  C410     1.0000 0.61676  0.52579  0.76302  Biso   1.000  C
  C411     1.0000 0.59104  0.89054  0.79545  Biso   1.000  C
  H221     1.0000 0.69396  0.82420  0.79583  Biso   1.000  H
  H222     1.0000 0.85140  0.16476  0.79654  Biso   1.000  H
  C412     1.0000 0.68081  0.08529  0.79586  Biso   1.000  C
  H223     1.0000 0.31336  0.14865  0.79654  Biso   1.000  H
  C413     1.0000 0.40450  0.31927  0.79586  Biso   1.000  C
  C414     1.0000 0.29945  0.40897  0.79545  Biso   1.000  C
  H224     1.0000 0.13028  0.30605  0.79583  Biso   1.000  H
  C415     1.0000 0.41253  0.88798  0.77341  Biso   1.000  C
  H225     1.0000 0.39286  0.82855  0.75764  Biso   1.000  H
  H226     1.0000 0.49517  0.16093  0.75963  Biso   1.000  H
  C416     1.0000 0.47427  0.08367  0.77472  Biso   1.000  C
  C417     1.0000 0.47545  0.58744  0.77341  Biso   1.000  C
  H227     1.0000 0.43567  0.60713  0.75764  Biso   1.000  H
  H228     1.0000 0.66571  0.50481  0.75963  Biso   1.000  H
  C418     1.0000 0.60937  0.52579  0.77472  Biso   1.000  C
  N47      1.0000 0.58385  0.98502  0.79539  Biso   1.000  N
  H229     1.0000 0.52409  0.82045  0.79523  Biso   1.000  H
  H230     1.0000 0.67673  0.15172  0.79594  Biso   1.000  H
  H231     1.0000 0.47496  0.32328  0.79594  Biso   1.000  H
  N48      1.0000 0.40117  0.41613  0.79539  Biso   1.000  N
  H232     1.0000 0.29636  0.47591  0.79523  Biso   1.000  H
  C419     1.0000 0.44413  0.98161  0.78031  Biso   1.000  C
  H233     1.0000 0.38993  0.81781  0.77684  Biso   1.000  H
  H234     1.0000 0.49517  0.14882  0.77904  Biso   1.000  H
  C420     1.0000 0.53751  0.55589  0.78031  Biso   1.000  C
  H235     1.0000 0.42789  0.61003  0.77684  Biso   1.000  H
  H236     1.0000 0.65368  0.50481  0.77904  Biso   1.000  H
  B23      1.0000 0.45628  0.97504  0.79353  Biso   1.000  B
  B24      1.0000 0.51875  0.54378  0.79353  Biso   1.000  B
  O45      1.0000 0.37565  0.86590  0.79890  Biso   1.000  O
  O46      1.0000 0.45675  0.06474  0.80046  Biso   1.000  O
  O47      1.0000 0.49029  0.62436  0.79890  Biso   1.000  O
  O48      1.0000 0.60799  0.54327  0.80046  Biso   1.000  O
  C421     1.0000 0.36580  0.89523  0.80968  Biso   1.000  C
  C422     1.0000 0.41200  0.01290  0.81055  Biso   1.000  C
  C423     1.0000 0.52950  0.63425  0.80968  Biso   1.000  C
  C424     1.0000 0.60084  0.58803  0.81055  Biso   1.000  C
  C425     1.0000 0.31814  0.82429  0.81877  Biso   1.000  C
  C426     1.0000 0.40969  0.06159  0.82058  Biso   1.000  C
  C427     1.0000 0.50618  0.68183  0.81877  Biso   1.000  C
  C428     1.0000 0.65184  0.59034  0.82058  Biso   1.000  C
  C429     1.0000 0.31968  0.87315  0.82906  Biso   1.000  C
  H237     1.0000 0.28581  0.74575  0.81803  Biso   1.000  H
  C430     1.0000 0.36279  0.98920  0.82993  Biso   1.000  C
  H238     1.0000 0.43796  0.13969  0.82113  Biso   1.000  H
  C431     1.0000 0.55345  0.68038  0.82906  Biso   1.000  C
  H239     1.0000 0.45998  0.71423  0.81803  Biso   1.000  H
  H240     1.0000 0.70163  0.56203  0.82113  Biso   1.000  H
  C432     1.0000 0.62647  0.63723  0.82993  Biso   1.000  C
  Cl45     1.0000 0.26524  0.78583  0.84084  Biso   1.000  Cl
  Cl46     1.0000 0.36285  0.05076  0.84279  Biso   1.000  Cl
  Cl47     1.0000 0.52062  0.73478  0.84084  Biso   1.000  Cl
  Cl48     1.0000 0.68787  0.63715  0.84279  Biso   1.000  Cl
  C433     1.0000 0.97054  0.67746  0.83673  Biso   1.000  C
  C434     1.0000 0.92368  0.60515  0.84610  Biso   1.000  C
  Cl49     1.0000 0.97048  0.61589  0.82388  Biso   1.000  Cl
  C435     1.0000 0.01365  0.79350  0.83760  Biso   1.000  C
  C436     1.0000 0.92136  0.65384  0.85611  Biso   1.000  C
  H241     1.0000 0.89533  0.52704  0.84553  Biso   1.000  H
  C437     1.0000 0.01514  0.84228  0.84789  Biso   1.000  C
  Cl50     1.0000 0.06816  0.88082  0.82582  Biso   1.000  Cl
  C438     1.0000 0.96753  0.77142  0.85698  Biso   1.000  C
  O49      1.0000 0.87657  0.60191  0.86620  Biso   1.000  O
  H242     1.0000 0.04758  0.92090  0.84863  Biso   1.000  H
  O50      1.0000 0.95768  0.80075  0.86778  Biso   1.000  O
  B25      1.0000 0.87704  0.69161  0.87315  Biso   1.000  B
  C439     1.0000 0.88919  0.68504  0.88637  Biso   1.000  C
  N49      1.0000 0.74947  0.68163  0.87129  Biso   1.000  N
  C440     1.0000 0.92075  0.77858  0.89325  Biso   1.000  C
  C441     1.0000 0.85906  0.58298  0.89194  Biso   1.000  C
  C442     1.0000 0.65256  0.58144  0.87080  Biso   1.000  C
  C443     1.0000 0.74221  0.77611  0.87123  Biso   1.000  C
  H243     1.0000 0.94333  0.84884  0.88984  Biso   1.000  H
  C444     1.0000 0.92013  0.77261  0.90484  Biso   1.000  C
  C445     1.0000 0.85908  0.57564  0.90366  Biso   1.000  C
  H244     1.0000 0.83815  0.51783  0.88764  Biso   1.000  H
  C446     1.0000 0.54776  0.57300  0.87040  Biso   1.000  C
  H245     1.0000 0.65652  0.51493  0.87074  Biso   1.000  H
  H246     1.0000 0.80923  0.84620  0.87143  Biso   1.000  H
  C447     1.0000 0.64083  0.77449  0.87082  Biso   1.000  C
  H247     1.0000 0.94046  0.83810  0.90904  Biso   1.000  H
  C448     1.0000 0.88983  0.67080  0.91047  Biso   1.000  C
  H248     1.0000 0.83815  0.50573  0.90703  Biso   1.000  H
  C449     1.0000 0.54097  0.67166  0.87041  Biso   1.000  C
  H249     1.0000 0.48193  0.50189  0.87014  Biso   1.000  H
  H250     1.0000 0.63936  0.84245  0.87084  Biso   1.000  H
  C450     1.0000 0.88565  0.66245  0.92286  Biso   1.000  C
  C451     1.0000 0.42992  0.66799  0.87019  Biso   1.000  C
  C452     1.0000 0.81418  0.56072  0.92849  Biso   1.000  C
  C453     1.0000 0.95011  0.75769  0.92968  Biso   1.000  C
  N50      1.0000 0.43325  0.76844  0.87019  Biso   1.000  N
  N51      1.0000 0.33511  0.56669  0.87019  Biso   1.000  N
  C454     1.0000 0.80879  0.55467  0.94008  Biso   1.000  C
  H251     1.0000 0.76899  0.49515  0.92430  Biso   1.000  H
  H252     1.0000 0.99910  0.82761  0.92630  Biso   1.000  H
  C455     1.0000 0.94270  0.75027  0.94139  Biso   1.000  C
  C456     1.0000 0.33195  0.76196  0.87019  Biso   1.000  C
  C457     1.0000 0.23804  0.57002  0.87019  Biso   1.000  C
  C458     1.0000 0.87082  0.64829  0.94697  Biso   1.000  C
  H253     1.0000 0.76115  0.48449  0.94350  Biso   1.000  H
  H254     1.0000 0.98699  0.81550  0.94570  Biso   1.000  H
  N52      1.0000 0.23155  0.66484  0.87019  Biso   1.000  N
  C459     1.0000 0.32839  0.86931  0.87041  Biso   1.000  C
  C460     1.0000 0.13062  0.45900  0.87041  Biso   1.000  C
  B26      1.0000 0.85210  0.64173  0.96019  Biso   1.000  B
  C461     1.0000 0.42695  0.97470  0.87040  Biso   1.000  C
  C462     1.0000 0.22544  0.86632  0.87082  Biso   1.000  C
  C463     1.0000 0.02527  0.45226  0.87040  Biso   1.000  C
  C464     1.0000 0.13364  0.35915  0.87082  Biso   1.000  C
  O51      1.0000 0.82360  0.53258  0.96556  Biso   1.000  O
  O52      1.0000 0.94129  0.73134  0.96713  Biso   1.000  O
  N53      1.0000 0.73451  0.65170  0.96205  Biso   1.000  N
  H255     1.0000 0.49804  0.97999  0.87014  Biso   1.000  H
  C465     1.0000 0.41853  0.07114  0.87080  Biso   1.000  C
  C466     1.0000 0.22385  0.96609  0.87123  Biso   1.000  C
  H256     1.0000 0.15758  0.79692  0.87084  Biso   1.000  H
  H257     1.0000 0.01997  0.51800  0.87014  Biso   1.000  H
  C467     1.0000 0.92887  0.34747  0.87080  Biso   1.000  C
  C468     1.0000 0.03392  0.25777  0.87123  Biso   1.000  C
  H258     1.0000 0.20304  0.36060  0.87084  Biso   1.000  H
  C469     1.0000 0.86278  0.56192  0.97635  Biso   1.000  C
  C470     1.0000 0.93420  0.67950  0.97722  Biso   1.000  C
  C471     1.0000 0.73778  0.75189  0.96253  Biso   1.000  C
  C472     1.0000 0.63277  0.55723  0.96211  Biso   1.000  C
  H259     1.0000 0.48509  0.14165  0.87074  Biso   1.000  H
  N54      1.0000 0.31840  0.06790  0.87129  Biso   1.000  N
  H260     1.0000 0.15379  0.96302  0.87143  Biso   1.000  H
  H261     1.0000 0.85833  0.34346  0.87074  Biso   1.000  H
  N55      1.0000 0.93216  0.25052  0.87129  Biso   1.000  N
  H262     1.0000 0.03696  0.19074  0.87143  Biso   1.000  H
  C473     1.0000 0.83949  0.49097  0.98544  Biso   1.000  C
  C474     1.0000 0.98520  0.72819  0.98724  Biso   1.000  C
  C475     1.0000 0.64139  0.76025  0.96294  Biso   1.000  C
  H263     1.0000 0.80826  0.81840  0.96260  Biso   1.000  H
  H264     1.0000 0.62966  0.48705  0.96190  Biso   1.000  H
  C476     1.0000 0.53296  0.55876  0.96251  Biso   1.000  C
  B27      1.0000 0.30837  0.18548  0.87315  Biso   1.000  B
  B28      1.0000 0.81454  0.12296  0.87315  Biso   1.000  B
  C477     1.0000 0.88677  0.53975  0.99573  Biso   1.000  C
  H265     1.0000 0.79324  0.41236  0.98470  Biso   1.000  H
  C478     1.0000 0.95975  0.65588  0.99660  Biso   1.000  C
  H266     1.0000 0.03503  0.80630  0.98780  Biso   1.000  H
  C479     1.0000 0.53598  0.66168  0.96292  Biso   1.000  C
  H267     1.0000 0.64667  0.83136  0.96320  Biso   1.000  H
  H268     1.0000 0.46358  0.49089  0.96250  Biso   1.000  H
  C480     1.0000 0.31497  0.20416  0.88637  Biso   1.000  C
  O53      1.0000 0.19927  0.15692  0.86778  Biso   1.000  O
  O54      1.0000 0.39808  0.27467  0.86620  Biso   1.000  O
  C481     1.0000 0.79586  0.11085  0.88637  Biso   1.000  C
  O55      1.0000 0.84303  0.04229  0.86778  Biso   1.000  O
  O56      1.0000 0.72537  0.12347  0.86620  Biso   1.000  O
  Cl51     1.0000 0.85394  0.45252  0.00751  Biso   1.000  Cl
  Cl52     1.0000 0.02121  0.71736  0.00946  Biso   1.000  Cl
  C482     1.0000 0.42855  0.66526  0.96314  Biso   1.000  C
  C483     1.0000 0.22136  0.14217  0.89325  Biso   1.000  C
  C484     1.0000 0.41693  0.27604  0.89194  Biso   1.000  C
  C485     1.0000 0.22855  0.19614  0.85698  Biso   1.000  C
  C486     1.0000 0.34613  0.26751  0.85611  Biso   1.000  C
  C487     1.0000 0.85780  0.07921  0.89325  Biso   1.000  C
  C488     1.0000 0.72400  0.14095  0.89194  Biso   1.000  C
  C489     1.0000 0.80382  0.03240  0.85698  Biso   1.000  C
  C490     1.0000 0.73241  0.07862  0.85611  Biso   1.000  C
  N56      1.0000 0.43504  0.76656  0.96315  Biso   1.000  N
  N57      1.0000 0.33148  0.56490  0.96315  Biso   1.000  N
  H269     1.0000 0.15119  0.09459  0.88984  Biso   1.000  H
  C491     1.0000 0.22737  0.14754  0.90484  Biso   1.000  C
  C492     1.0000 0.42440  0.28346  0.90366  Biso   1.000  C
  H270     1.0000 0.48215  0.32038  0.88764  Biso   1.000  H
  C493     1.0000 0.15769  0.17286  0.84789  Biso   1.000  C
  C494     1.0000 0.39486  0.31859  0.84610  Biso   1.000  C
  H271     1.0000 0.90543  0.05662  0.88984  Biso   1.000  H
  C495     1.0000 0.85241  0.07981  0.90484  Biso   1.000  C
  C496     1.0000 0.71654  0.14095  0.90366  Biso   1.000  C
  H272     1.0000 0.67965  0.16184  0.88764  Biso   1.000  H
  C497     1.0000 0.82715  0.98482  0.84789  Biso   1.000  C
  C498     1.0000 0.68142  0.07631  0.84610  Biso   1.000  C
  C499     1.0000 0.33469  0.76332  0.96314  Biso   1.000  C
  C500     1.0000 0.23666  0.57138  0.96314  Biso   1.000  C
  H273     1.0000 0.16187  0.10235  0.90904  Biso   1.000  H
  C501     1.0000 0.32915  0.21908  0.91047  Biso   1.000  C
  H274     1.0000 0.49426  0.33248  0.90703  Biso   1.000  H
  C502     1.0000 0.20646  0.22019  0.83760  Biso   1.000  C
  H275     1.0000 0.07905  0.12665  0.84863  Biso   1.000  H
  H276     1.0000 0.47300  0.36838  0.84553  Biso   1.000  H
  C503     1.0000 0.32256  0.29318  0.83673  Biso   1.000  C
  H277     1.0000 0.89765  0.05952  0.90904  Biso   1.000  H
  C504     1.0000 0.78097  0.11017  0.91047  Biso   1.000  C
  H278     1.0000 0.66754  0.16184  0.90703  Biso   1.000  H
  C505     1.0000 0.77980  0.98627  0.83760  Biso   1.000  C
  H279     1.0000 0.87335  0.95242  0.84863  Biso   1.000  H
  H280     1.0000 0.63162  0.10462  0.84553  Biso   1.000  H
  C506     1.0000 0.70685  0.02942  0.83673  Biso   1.000  C
  N58      1.0000 0.23338  0.66850  0.96315  Biso   1.000  N
  C507     1.0000 0.33825  0.87425  0.96292  Biso   1.000  C
  C508     1.0000 0.12575  0.46403  0.96292  Biso   1.000  C
  C509     1.0000 0.33752  0.22326  0.92286  Biso   1.000  C
  Cl53     1.0000 0.11923  0.18736  0.82582  Biso   1.000  Cl
  Cl54     1.0000 0.38405  0.35457  0.82388  Biso   1.000  Cl
  C510     1.0000 0.77674  0.11426  0.92286  Biso   1.000  C
  Cl55     1.0000 0.81271  0.93187  0.82582  Biso   1.000  Cl
  Cl56     1.0000 0.64538  0.02950  0.82388  Biso   1.000  Cl
  C511     1.0000 0.23968  0.88108  0.96294  Biso   1.000  C
  C512     1.0000 0.44116  0.97419  0.96251  Biso   1.000  C
  C513     1.0000 0.11887  0.35855  0.96294  Biso   1.000  C
  C514     1.0000 0.02578  0.46701  0.96251  Biso   1.000  C
  C515     1.0000 0.43927  0.25353  0.92849  Biso   1.000  C
  C516     1.0000 0.24226  0.19239  0.92968  Biso   1.000  C
  C517     1.0000 0.74650  0.18580  0.92849  Biso   1.000  C
  C518     1.0000 0.80754  0.04988  0.92968  Biso   1.000  C
  H281     1.0000 0.16859  0.81525  0.96320  Biso   1.000  H
  C519     1.0000 0.24807  0.98587  0.96253  Biso   1.000  C
  H282     1.0000 0.50907  0.97265  0.96250  Biso   1.000  H
  C520     1.0000 0.44279  0.07566  0.96211  Biso   1.000  C
  H283     1.0000 0.18468  0.35327  0.96320  Biso   1.000  H
  C521     1.0000 0.01413  0.26220  0.96253  Biso   1.000  C
  H284     1.0000 0.02733  0.53642  0.96250  Biso   1.000  H
  C522     1.0000 0.92439  0.36716  0.96211  Biso   1.000  C
  C523     1.0000 0.44533  0.25412  0.94008  Biso   1.000  C
  H285     1.0000 0.50480  0.27382  0.92430  Biso   1.000  H
  H286     1.0000 0.17237  0.17150  0.92630  Biso   1.000  H
  C524     1.0000 0.24972  0.19239  0.94139  Biso   1.000  C
  C525     1.0000 0.74586  0.19117  0.94008  Biso   1.000  C
  H287     1.0000 0.72619  0.23099  0.92430  Biso   1.000  H
  H288     1.0000 0.82849  0.00094  0.92630  Biso   1.000  H
  C526     1.0000 0.80756  0.05730  0.94139  Biso   1.000  C
  H289     1.0000 0.18162  0.98988  0.96260  Biso   1.000  H
  N59      1.0000 0.34831  0.08282  0.96205  Biso   1.000  N
  H290     1.0000 0.51289  0.14259  0.96190  Biso   1.000  H
  H291     1.0000 0.01011  0.19168  0.96260  Biso   1.000  H
  N60      1.0000 0.91721  0.26552  0.96205  Biso   1.000  N
  H292     1.0000 0.85736  0.37032  0.96190  Biso   1.000  H
  C527     1.0000 0.35168  0.22249  0.94697  Biso   1.000  C
  H293     1.0000 0.51548  0.27672  0.94350  Biso   1.000  H
  H294     1.0000 0.18448  0.17150  0.94570  Biso   1.000  H
  C528     1.0000 0.77748  0.12918  0.94697  Biso   1.000  C
  H295     1.0000 0.72332  0.23884  0.94350  Biso   1.000  H
  H296     1.0000 0.82844  0.01296  0.94570  Biso   1.000  H
  B29      1.0000 0.35825  0.21038  0.96019  Biso   1.000  B
  B30      1.0000 0.78955  0.14785  0.96019  Biso   1.000  B
  O57      1.0000 0.46741  0.29104  0.96556  Biso   1.000  O
  O58      1.0000 0.26862  0.20995  0.96713  Biso   1.000  O
  O59      1.0000 0.70902  0.17642  0.96556  Biso   1.000  O
  O60      1.0000 0.79008  0.05866  0.96713  Biso   1.000  O
  C529     1.0000 0.43809  0.30094  0.97635  Biso   1.000  C
  C530     1.0000 0.32054  0.25472  0.97722  Biso   1.000  C
  C531     1.0000 0.69908  0.13720  0.97635  Biso   1.000  C
  C532     1.0000 0.74529  0.06583  0.97722  Biso   1.000  C
  C533     1.0000 0.50899  0.34851  0.98544  Biso   1.000  C
  C534     1.0000 0.27184  0.25702  0.98724  Biso   1.000  C
  C535     1.0000 0.65150  0.16047  0.98544  Biso   1.000  C
  C536     1.0000 0.74298  0.01484  0.98724  Biso   1.000  C
  C537     1.0000 0.46015  0.34698  0.99573  Biso   1.000  C
  H297     1.0000 0.58759  0.38092  0.98470  Biso   1.000  H
  H298     1.0000 0.19374  0.22871  0.98780  Biso   1.000  H
  C538     1.0000 0.34410  0.30392  0.99660  Biso   1.000  C
  C539     1.0000 0.65298  0.11324  0.99573  Biso   1.000  C
  H299     1.0000 0.61907  0.20669  0.98470  Biso   1.000  H
  H300     1.0000 0.77128  0.96495  0.98780  Biso   1.000  H
  C540     1.0000 0.69605  0.04016  0.99660  Biso   1.000  C
  Cl57     1.0000 0.54751  0.40147  0.00751  Biso   1.000  Cl
  Cl58     1.0000 0.28262  0.30383  0.00946  Biso   1.000  Cl
  Cl59     1.0000 0.59858  0.14606  0.00751  Biso   1.000  Cl
  Cl60     1.0000 0.69611  0.97868  0.00946  Biso   1.000  Cl
  C541     1.0000 0.22010  0.01367  0.16240  Biso   1.000  C
  C542     1.0000 0.17286  0.01520  0.15211  Biso   1.000  C
  C543     1.0000 0.29312  0.97052  0.16327  Biso   1.000  C
  Cl61     1.0000 0.18730  0.06815  0.17418  Biso   1.000  Cl
  C544     1.0000 0.19614  0.96754  0.14302  Biso   1.000  C
  H301     1.0000 0.12667  0.04760  0.15137  Biso   1.000  H
  C545     1.0000 0.31848  0.92362  0.15390  Biso   1.000  C
  Cl62     1.0000 0.35451  0.97044  0.17612  Biso   1.000  Cl
  O61      1.0000 0.15694  0.95765  0.13222  Biso   1.000  O
  C546     1.0000 0.26748  0.92132  0.14389  Biso   1.000  C
  H302     1.0000 0.36827  0.89531  0.15447  Biso   1.000  H
  B31      1.0000 0.18547  0.87707  0.12685  Biso   1.000  B
  O62      1.0000 0.27464  0.87656  0.13380  Biso   1.000  O
  N61      1.0000 0.06781  0.74942  0.12871  Biso   1.000  N
  C547     1.0000 0.20415  0.88918  0.11363  Biso   1.000  C
  C548     1.0000 0.07115  0.65256  0.12920  Biso   1.000  C
  C549     1.0000 0.96609  0.74226  0.12877  Biso   1.000  C
  C550     1.0000 0.14209  0.92072  0.10675  Biso   1.000  C
  C551     1.0000 0.27602  0.85908  0.10806  Biso   1.000  C
  C552     1.0000 0.97474  0.54776  0.12960  Biso   1.000  C
  H303     1.0000 0.14160  0.65656  0.12926  Biso   1.000  H
  C553     1.0000 0.86629  0.64087  0.12918  Biso   1.000  C
  H304     1.0000 0.96305  0.80928  0.12857  Biso   1.000  H
  H305     1.0000 0.09454  0.94332  0.11016  Biso   1.000  H
  C554     1.0000 0.14755  0.92013  0.09516  Biso   1.000  C
  C555     1.0000 0.28347  0.85908  0.09634  Biso   1.000  C
  H306     1.0000 0.32036  0.83819  0.11236  Biso   1.000  H
  C556     1.0000 0.86927  0.54094  0.12959  Biso   1.000  C
  H307     1.0000 0.98000  0.48194  0.12986  Biso   1.000  H
  H308     1.0000 0.79693  0.63934  0.12916  Biso   1.000  H
  H309     1.0000 0.10232  0.94042  0.09096  Biso   1.000  H
  C557     1.0000 0.21904  0.88986  0.08953  Biso   1.000  C
  H310     1.0000 0.33247  0.83819  0.09297  Biso   1.000  H
  C558     1.0000 0.76193  0.42992  0.12981  Biso   1.000  C
  C559     1.0000 0.22323  0.88568  0.07714  Biso   1.000  C
  N62      1.0000 0.66478  0.43325  0.12981  Biso   1.000  N
  N63      1.0000 0.76847  0.33519  0.12981  Biso   1.000  N
  C560     1.0000 0.25347  0.81414  0.07151  Biso   1.000  C
  C561     1.0000 0.19235  0.95006  0.07032  Biso   1.000  C
  C562     1.0000 0.57005  0.33195  0.12981  Biso   1.000  C
  C563     1.0000 0.66799  0.23807  0.12981  Biso   1.000  C
  C564     1.0000 0.25411  0.80877  0.05992  Biso   1.000  C
  H311     1.0000 0.27378  0.76895  0.07570  Biso   1.000  H
  H312     1.0000 0.17153  0.99909  0.07370  Biso   1.000  H
  C565     1.0000 0.19241  0.94264  0.05861  Biso   1.000  C
  C566     1.0000 0.45904  0.32837  0.12959  Biso   1.000  C
  N64      1.0000 0.56676  0.23159  0.12981  Biso   1.000  N
  C567     1.0000 0.67158  0.13063  0.12959  Biso   1.000  C
  C568     1.0000 0.22249  0.87076  0.05303  Biso   1.000  C
  H313     1.0000 0.27670  0.76119  0.05650  Biso   1.000  H
  H314     1.0000 0.17153  0.98698  0.05430  Biso   1.000  H
  C569     1.0000 0.45221  0.42694  0.12960  Biso   1.000  C
  C570     1.0000 0.35914  0.22545  0.12918  Biso   1.000  C
  C571     1.0000 0.57302  0.02524  0.12960  Biso   1.000  C
  C572     1.0000 0.77450  0.13370  0.12918  Biso   1.000  C
  B32      1.0000 0.21042  0.85208  0.03981  Biso   1.000  B
  C573     1.0000 0.34745  0.41858  0.12920  Biso   1.000  C
  H315     1.0000 0.51804  0.49805  0.12986  Biso   1.000  H
  C574     1.0000 0.25768  0.22383  0.12877  Biso   1.000  C
  H316     1.0000 0.36065  0.15758  0.12916  Biso   1.000  H
  H317     1.0000 0.50193  0.01995  0.12986  Biso   1.000  H
  C575     1.0000 0.58137  0.92880  0.12920  Biso   1.000  C
  C576     1.0000 0.77612  0.03385  0.12877  Biso   1.000  C
  H318     1.0000 0.84239  0.20302  0.12916  Biso   1.000  H
  N65      1.0000 0.08280  0.73450  0.03795  Biso   1.000  N
  O63      1.0000 0.29099  0.82360  0.03444  Biso   1.000  O
  O64      1.0000 0.20989  0.94127  0.03287  Biso   1.000  O
  N66      1.0000 0.25054  0.31839  0.12871  Biso   1.000  N
  H319     1.0000 0.34342  0.48509  0.12926  Biso   1.000  H
  H320     1.0000 0.19074  0.15374  0.12857  Biso   1.000  H
  H321     1.0000 0.51488  0.85828  0.12926  Biso   1.000  H
  N67      1.0000 0.68161  0.93213  0.12871  Biso   1.000  N
  H322     1.0000 0.84622  0.03701  0.12857  Biso   1.000  H
  C577     1.0000 0.98588  0.73782  0.03747  Biso   1.000  C
  C578     1.0000 0.07558  0.63277  0.03789  Biso   1.000  C
  C579     1.0000 0.30089  0.86274  0.02365  Biso   1.000  C
  C580     1.0000 0.25472  0.93420  0.02278  Biso   1.000  C
  B33      1.0000 0.12293  0.30833  0.12685  Biso   1.000  B
  B34      1.0000 0.69165  0.81454  0.12685  Biso   1.000  B
  C581     1.0000 0.88110  0.64139  0.03706  Biso   1.000  C
  H323     1.0000 0.98986  0.80826  0.03740  Biso   1.000  H
  C582     1.0000 0.97416  0.53301  0.03749  Biso   1.000  C
  H324     1.0000 0.14257  0.62970  0.03810  Biso   1.000  H
  C583     1.0000 0.34847  0.83946  0.01456  Biso   1.000  C
  C584     1.0000 0.25703  0.98519  0.01276  Biso   1.000  C
  O65      1.0000 0.12340  0.39803  0.13380  Biso   1.000  O
  O66      1.0000 0.04233  0.19927  0.13222  Biso   1.000  O
  C585     1.0000 0.11082  0.31498  0.11363  Biso   1.000  C
  C586     1.0000 0.68500  0.79578  0.11363  Biso   1.000  C
  O67      1.0000 0.80070  0.84302  0.13222  Biso   1.000  O
  O68      1.0000 0.60193  0.72535  0.13380  Biso   1.000  O
  C587     1.0000 0.87426  0.53600  0.03708  Biso   1.000  C
  H325     1.0000 0.81529  0.64667  0.03680  Biso   1.000  H
  H326     1.0000 0.97268  0.46360  0.03750  Biso   1.000  H
  C588     1.0000 0.34703  0.88679  0.00427  Biso   1.000  C
  H327     1.0000 0.38090  0.79325  0.01530  Biso   1.000  H
  C589     1.0000 0.30392  0.95978  0.00340  Biso   1.000  C
  H328     1.0000 0.22869  0.03498  0.01220  Biso   1.000  H
  C590     1.0000 0.07865  0.34619  0.14389  Biso   1.000  C
  C591     1.0000 0.03248  0.22860  0.14302  Biso   1.000  C
  C592     1.0000 0.07922  0.22136  0.10675  Biso   1.000  C
  C593     1.0000 0.14091  0.41696  0.10806  Biso   1.000  C
  C594     1.0000 0.77866  0.85786  0.10675  Biso   1.000  C
  C595     1.0000 0.58297  0.72390  0.10806  Biso   1.000  C
  C596     1.0000 0.77142  0.80380  0.14302  Biso   1.000  C
  C597     1.0000 0.65384  0.73243  0.14389  Biso   1.000  C
  C598     1.0000 0.76324  0.42856  0.03686  Biso   1.000  C
  Cl63     1.0000 0.40143  0.85396  0.99249  Biso   1.000  Cl
  Cl64     1.0000 0.30379  0.02126  0.99054  Biso   1.000  Cl
  C599     1.0000 0.07633  0.39488  0.15390  Biso   1.000  C
  C600     1.0000 0.98483  0.15766  0.15211  Biso   1.000  C
  H329     1.0000 0.05661  0.15118  0.11016  Biso   1.000  H
  C601     1.0000 0.07984  0.22732  0.09516  Biso   1.000  C
  C602     1.0000 0.14093  0.42438  0.09634  Biso   1.000  C
  H330     1.0000 0.16186  0.48219  0.11236  Biso   1.000  H
  H331     1.0000 0.84882  0.90544  0.11016  Biso   1.000  H
  C603     1.0000 0.77260  0.85240  0.09516  Biso   1.000  C
  C604     1.0000 0.57561  0.71657  0.09634  Biso   1.000  C
  H332     1.0000 0.51779  0.67965  0.11236  Biso   1.000  H
  C605     1.0000 0.84232  0.82716  0.15211  Biso   1.000  C
  C606     1.0000 0.60508  0.68144  0.15390  Biso   1.000  C
  N68      1.0000 0.66853  0.43512  0.03685  Biso   1.000  N
  N69      1.0000 0.76663  0.33152  0.03685  Biso   1.000  N
  C607     1.0000 0.02947  0.32257  0.16327  Biso   1.000  C
  H333     1.0000 0.10468  0.47298  0.15447  Biso   1.000  H
  C608     1.0000 0.98632  0.20643  0.16240  Biso   1.000  C
  H334     1.0000 0.95239  0.07904  0.15137  Biso   1.000  H
  H335     1.0000 0.05950  0.16184  0.09096  Biso   1.000  H
  C609     1.0000 0.11014  0.32913  0.08953  Biso   1.000  C
  H336     1.0000 0.16182  0.49421  0.09297  Biso   1.000  H
  H337     1.0000 0.83810  0.89759  0.09096  Biso   1.000  H
  C610     1.0000 0.67079  0.78095  0.08953  Biso   1.000  C
  H338     1.0000 0.50568  0.66754  0.09297  Biso   1.000  H
  C611     1.0000 0.79348  0.77984  0.16240  Biso   1.000  C
  H339     1.0000 0.92092  0.87329  0.15137  Biso   1.000  H
  H340     1.0000 0.52702  0.63164  0.15447  Biso   1.000  H
  C612     1.0000 0.67745  0.70685  0.16327  Biso   1.000  C
  C613     1.0000 0.57141  0.33468  0.03686  Biso   1.000  C
  C614     1.0000 0.66532  0.23670  0.03686  Biso   1.000  C
  Cl65     1.0000 0.02949  0.38405  0.17612  Biso   1.000  Cl
  Cl66     1.0000 0.93185  0.11920  0.17418  Biso   1.000  Cl
  C615     1.0000 0.11432  0.33749  0.07714  Biso   1.000  C
  C616     1.0000 0.66249  0.77677  0.07714  Biso   1.000  C
  Cl67     1.0000 0.88078  0.81267  0.17418  Biso   1.000  Cl
  Cl68     1.0000 0.61585  0.64537  0.17612  Biso   1.000  Cl
  C617     1.0000 0.46399  0.33826  0.03708  Biso   1.000  C
  N70      1.0000 0.56485  0.23338  0.03685  Biso   1.000  N
  C618     1.0000 0.66165  0.12569  0.03708  Biso   1.000  C
  C619     1.0000 0.18583  0.43930  0.07151  Biso   1.000  C
  C620     1.0000 0.04991  0.24233  0.07032  Biso   1.000  C
  C621     1.0000 0.56067  0.74650  0.07151  Biso   1.000  C
  C622     1.0000 0.75764  0.80755  0.07032  Biso   1.000  C
  C623     1.0000 0.35858  0.23969  0.03706  Biso   1.000  C
  C624     1.0000 0.46701  0.44118  0.03749  Biso   1.000  C
  C625     1.0000 0.76029  0.11886  0.03706  Biso   1.000  C
  C626     1.0000 0.55878  0.02584  0.03749  Biso   1.000  C
  C627     1.0000 0.19118  0.44527  0.05992  Biso   1.000  C
  H341     1.0000 0.23098  0.50479  0.07570  Biso   1.000  H
  H342     1.0000 0.00092  0.17241  0.07370  Biso   1.000  H
  C628     1.0000 0.05726  0.24966  0.05861  Biso   1.000  C
  C629     1.0000 0.55468  0.74590  0.05992  Biso   1.000  C
  H343     1.0000 0.49517  0.72612  0.07570  Biso   1.000  H
  H344     1.0000 0.82753  0.82844  0.07370  Biso   1.000  H
  C630     1.0000 0.75025  0.80755  0.05861  Biso   1.000  C
  C631     1.0000 0.26223  0.24813  0.03747  Biso   1.000  C
  H345     1.0000 0.35330  0.16858  0.03680  Biso   1.000  H
  C632     1.0000 0.36717  0.44280  0.03789  Biso   1.000  C
  H346     1.0000 0.53639  0.50905  0.03750  Biso   1.000  H
  H347     1.0000 0.83138  0.18469  0.03680  Biso   1.000  H
  C633     1.0000 0.75190  0.01407  0.03747  Biso   1.000  C
  H348     1.0000 0.49090  0.02729  0.03750  Biso   1.000  H
  C634     1.0000 0.55715  0.92437  0.03789  Biso   1.000  C
  C635     1.0000 0.12920  0.35173  0.05303  Biso   1.000  C
  H349     1.0000 0.23879  0.51553  0.05650  Biso   1.000  H
  H350     1.0000 0.01303  0.18452  0.05430  Biso   1.000  H
  C636     1.0000 0.64829  0.77745  0.05303  Biso   1.000  C
  H351     1.0000 0.48449  0.72322  0.05650  Biso   1.000  H
  H352     1.0000 0.81549  0.82844  0.05430  Biso   1.000  H
  N71      1.0000 0.26551  0.34832  0.03795  Biso   1.000  N
  H353     1.0000 0.19168  0.18162  0.03740  Biso   1.000  H
  H354     1.0000 0.37031  0.51289  0.03810  Biso   1.000  H
  H355     1.0000 0.81835  0.01006  0.03740  Biso   1.000  H
  N72      1.0000 0.65166  0.91712  0.03795  Biso   1.000  N
  H356     1.0000 0.48708  0.85735  0.03810  Biso   1.000  H
  B35      1.0000 0.14791  0.35830  0.03981  Biso   1.000  B
  B36      1.0000 0.64164  0.78956  0.03981  Biso   1.000  B
  O69      1.0000 0.17637  0.46735  0.03444  Biso   1.000  O
  O70      1.0000 0.05868  0.26859  0.03287  Biso   1.000  O
  O71      1.0000 0.53260  0.70898  0.03444  Biso   1.000  O
  O72      1.0000 0.73140  0.79007  0.03287  Biso   1.000  O
  C637     1.0000 0.13723  0.43811  0.02365  Biso   1.000  C
  C638     1.0000 0.06581  0.32052  0.02278  Biso   1.000  C
  C639     1.0000 0.56192  0.69909  0.02365  Biso   1.000  C
  C640     1.0000 0.67943  0.74522  0.02278  Biso   1.000  C
  C641     1.0000 0.16048  0.50897  0.01456  Biso   1.000  C
  C642     1.0000 0.01481  0.27183  0.01276  Biso   1.000  C
  C643     1.0000 0.49098  0.65142  0.01456  Biso   1.000  C
  C644     1.0000 0.72813  0.74292  0.01276  Biso   1.000  C
  C645     1.0000 0.11320  0.46019  0.00427  Biso   1.000  C
  H357     1.0000 0.20673  0.58758  0.01530  Biso   1.000  H
  C646     1.0000 0.04022  0.34406  0.00340  Biso   1.000  C
  H358     1.0000 0.96498  0.19373  0.01220  Biso   1.000  H
  C647     1.0000 0.53974  0.65296  0.00427  Biso   1.000  C
  H359     1.0000 0.41238  0.61902  0.01530  Biso   1.000  H
  H360     1.0000 0.80623  0.77123  0.01220  Biso   1.000  H
  C648     1.0000 0.65587  0.69602  0.00340  Biso   1.000  C
  Cl69     1.0000 0.14608  0.54751  0.99249  Biso   1.000  Cl
  Cl70     1.0000 0.97876  0.28258  0.99054  Biso   1.000  Cl
  Cl71     1.0000 0.45246  0.59847  0.99249  Biso   1.000  Cl
  Cl72     1.0000 0.71735  0.69610  0.99054  Biso   1.000  Cl
  Ne1      1.0000 0.99999  0.00000  0.25000  Biso   1.000  Ne
  He1      1.0000 0.39932  0.41193  0.24299  Biso   1.000  He
  He2      1.0000 0.00079  0.94210  0.24999  Biso   1.000  He
  He3      1.0000 0.93847  0.00086  0.25002  Biso   1.000  He
  Ar1      1.0000 0.99999  0.00000  0.25000  Biso   1.000  Ar
  Ne2      1.0000 0.33332  0.66666  0.41667  Biso   1.000  Ne
  He4      1.0000 0.26686  0.59920  0.41669  Biso   1.000  He
  He5      1.0000 0.33415  0.72403  0.41665  Biso   1.000  He
  He6      1.0000 0.45194  0.64404  0.41667  Biso   1.000  He
  Ar2      1.0000 0.33337  0.66667  0.41667  Biso   1.000  Ar
  Ne3      1.0000 0.66665  0.33331  0.08333  Biso   1.000  Ne
  He7      1.0000 0.60019  0.26591  0.08335  Biso   1.000  He
  He8      1.0000 0.66744  0.39069  0.08332  Biso   1.000  He
  He9      1.0000 0.78522  0.31063  0.08334  Biso   1.000  He
  Ar3      1.0000 0.66665  0.33331  0.08333  Biso   1.000  Ar
  Ne4      1.0000 0.66665  0.33331  0.58333  Biso   1.000  Ne
  He10     1.0000 0.06596  0.74522  0.57632  Biso   1.000  He
  He11     1.0000 0.66747  0.27547  0.58332  Biso   1.000  He
  He12     1.0000 0.60514  0.33419  0.58335  Biso   1.000  He
  Ar4      1.0000 0.66665  0.33331  0.58333  Biso   1.000  Ar
  Ne5      1.0000 0.99999  0.00000  0.75000  Biso   1.000  Ne
  He13     1.0000 0.93352  0.93251  0.75002  Biso   1.000  He
  He14     1.0000 0.00081  0.05734  0.74998  Biso   1.000  He
  He15     1.0000 0.11880  0.97776  0.75001  Biso   1.000  He
  Ar5      1.0000 0.00000  0.00000  0.75000  Biso   1.000  Ar
  Ne6      1.0000 0.33332  0.66666  0.91667  Biso   1.000  Ne
  He16     1.0000 0.73267  0.07861  0.90965  Biso   1.000  He
  He17     1.0000 0.33407  0.60876  0.91665  Biso   1.000  He
  He18     1.0000 0.27148  0.66684  0.91667  Biso   1.000  He
  Ar6      1.0000 0.33330  0.66667  0.91667  Biso   1.000  Ar
