data_image0
_cell_length_a       13.542
_cell_length_b       13.542
_cell_length_c       118.223
_cell_angle_alpha    90
_cell_angle_beta     90
_cell_angle_gamma    120

_symmetry_space_group_name_H-M    "P 1"
_symmetry_int_tables_number       1

loop_
  _symmetry_equiv_pos_as_xyz
  'x, y, z'

loop_
  _atom_site_label
  _atom_site_occupancy
  _atom_site_fract_x
  _atom_site_fract_y
  _atom_site_fract_z
  _atom_site_thermal_displace_type
  _atom_site_B_iso_or_equiv
  _atom_site_type_symbol
  C1       1.0000 0.44123  0.46701  0.46251  Biso   1.000  C
  C2       1.0000 0.44278  0.36716  0.46211  Biso   1.000  C
  C3       1.0000 0.33828  0.46403  0.46292  Biso   1.000  C
  H1       1.0000 0.50909  0.53642  0.46250  Biso   1.000  H
  N1       1.0000 0.34831  0.26552  0.46205  Biso   1.000  N
  H2       1.0000 0.51288  0.37032  0.46190  Biso   1.000  H
  C4       1.0000 0.23968  0.35855  0.46294  Biso   1.000  C
  C5       1.0000 0.33472  0.57138  0.46314  Biso   1.000  C
  B1       1.0000 0.35830  0.14785  0.46019  Biso   1.000  B
  C6       1.0000 0.24807  0.26220  0.46253  Biso   1.000  C
  H3       1.0000 0.16858  0.35327  0.46320  Biso   1.000  H
  N2       1.0000 0.23342  0.56490  0.46315  Biso   1.000  N
  N3       1.0000 0.43512  0.66850  0.46315  Biso   1.000  N
  C7       1.0000 0.35170  0.12918  0.44697  Biso   1.000  C
  O1       1.0000 0.46740  0.17642  0.46556  Biso   1.000  O
  O2       1.0000 0.26859  0.05866  0.46713  Biso   1.000  O
  H4       1.0000 0.18157  0.19168  0.46260  Biso   1.000  H
  C8       1.0000 0.23671  0.66526  0.46314  Biso   1.000  C
  C9       1.0000 0.42862  0.76332  0.46314  Biso   1.000  C
  C10      1.0000 0.44531  0.19117  0.44008  Biso   1.000  C
  C11      1.0000 0.24967  0.05730  0.44139  Biso   1.000  C
  C12      1.0000 0.43812  0.13720  0.47635  Biso   1.000  C
  C13      1.0000 0.32054  0.06583  0.47722  Biso   1.000  C
  C14      1.0000 0.12570  0.66168  0.46292  Biso   1.000  C
  N4       1.0000 0.33152  0.76656  0.46315  Biso   1.000  N
  C15      1.0000 0.53600  0.87425  0.46292  Biso   1.000  C
  C16      1.0000 0.43930  0.18580  0.42849  Biso   1.000  C
  H5       1.0000 0.51552  0.23884  0.44350  Biso   1.000  H
  C17      1.0000 0.24226  0.04988  0.42968  Biso   1.000  C
  H6       1.0000 0.18445  0.01296  0.44570  Biso   1.000  H
  C18      1.0000 0.50898  0.16047  0.48544  Biso   1.000  C
  C19      1.0000 0.27178  0.01484  0.48724  Biso   1.000  C
  C20      1.0000 0.11886  0.76025  0.46294  Biso   1.000  C
  C21      1.0000 0.02580  0.55876  0.46251  Biso   1.000  C
  C22      1.0000 0.64139  0.88108  0.46294  Biso   1.000  C
  C23      1.0000 0.53303  0.97419  0.46251  Biso   1.000  C
  C24      1.0000 0.33744  0.11426  0.42286  Biso   1.000  C
  H7       1.0000 0.50480  0.23099  0.42430  Biso   1.000  H
  H8       1.0000 0.17238  0.00094  0.42630  Biso   1.000  H
  C25      1.0000 0.46018  0.11324  0.49573  Biso   1.000  C
  H9       1.0000 0.58762  0.20669  0.48470  Biso   1.000  H
  C26      1.0000 0.34411  0.04016  0.49660  Biso   1.000  C
  H10      1.0000 0.19367  0.96495  0.48780  Biso   1.000  H
  H11      1.0000 0.18470  0.83136  0.46320  Biso   1.000  H
  C27      1.0000 0.01411  0.75189  0.46253  Biso   1.000  C
  H12      1.0000 0.02731  0.49089  0.46250  Biso   1.000  H
  C28      1.0000 0.92446  0.55723  0.46211  Biso   1.000  C
  H13      1.0000 0.64666  0.81525  0.46320  Biso   1.000  H
  C29      1.0000 0.73780  0.98587  0.46253  Biso   1.000  C
  H14      1.0000 0.46358  0.97265  0.46250  Biso   1.000  H
  C30      1.0000 0.63279  0.07566  0.46211  Biso   1.000  C
  C31      1.0000 0.32919  0.11017  0.41047  Biso   1.000  C
  Cl1      1.0000 0.54748  0.14606  0.50751  Biso   1.000  Cl
  Cl2      1.0000 0.28250  0.97868  0.50946  Biso   1.000  Cl
  H15      1.0000 0.01015  0.81840  0.46260  Biso   1.000  H
  N5       1.0000 0.91720  0.65170  0.46205  Biso   1.000  N
  H16      1.0000 0.85739  0.48705  0.46190  Biso   1.000  H
  H17      1.0000 0.80826  0.98988  0.46260  Biso   1.000  H
  N6       1.0000 0.73451  0.08282  0.46205  Biso   1.000  N
  H18      1.0000 0.62975  0.14268  0.46190  Biso   1.000  H
  C32      1.0000 0.22732  0.07981  0.40485  Biso   1.000  C
  C33      1.0000 0.42434  0.14095  0.40365  Biso   1.000  C
  B2       1.0000 0.78963  0.64173  0.46019  Biso   1.000  B
  B3       1.0000 0.85209  0.21047  0.46019  Biso   1.000  B
  C34      1.0000 0.22134  0.07921  0.39326  Biso   1.000  C
  H19      1.0000 0.16187  0.05952  0.40903  Biso   1.000  H
  C35      1.0000 0.41695  0.14095  0.39195  Biso   1.000  C
  H20      1.0000 0.49423  0.16184  0.40704  Biso   1.000  H
  C36      1.0000 0.77748  0.64829  0.44697  Biso   1.000  C
  O3       1.0000 0.70899  0.53258  0.46556  Biso   1.000  O
  O4       1.0000 0.79006  0.73134  0.46713  Biso   1.000  O
  C37      1.0000 0.87085  0.22257  0.44697  Biso   1.000  C
  O5       1.0000 0.82363  0.29104  0.46556  Biso   1.000  O
  O6       1.0000 0.94134  0.20995  0.46713  Biso   1.000  O
  C38      1.0000 0.31499  0.11085  0.38636  Biso   1.000  C
  H21      1.0000 0.15119  0.05662  0.38983  Biso   1.000  H
  H22      1.0000 0.48219  0.16184  0.38763  Biso   1.000  H
  C39      1.0000 0.74588  0.55467  0.44008  Biso   1.000  C
  C40      1.0000 0.80757  0.75027  0.44139  Biso   1.000  C
  C41      1.0000 0.69914  0.56192  0.47635  Biso   1.000  C
  C42      1.0000 0.74530  0.67950  0.47722  Biso   1.000  C
  C43      1.0000 0.80879  0.25412  0.44008  Biso   1.000  C
  C44      1.0000 0.94271  0.19247  0.44139  Biso   1.000  C
  C45      1.0000 0.86284  0.30094  0.47635  Biso   1.000  C
  C46      1.0000 0.93418  0.25472  0.47722  Biso   1.000  C
  B4       1.0000 0.30834  0.12296  0.37314  Biso   1.000  B
  C47      1.0000 0.74654  0.56072  0.42849  Biso   1.000  C
  H23      1.0000 0.72334  0.48449  0.44350  Biso   1.000  H
  C48      1.0000 0.80759  0.75769  0.42968  Biso   1.000  C
  H24      1.0000 0.82852  0.81550  0.44570  Biso   1.000  H
  C49      1.0000 0.65148  0.49097  0.48544  Biso   1.000  C
  C50      1.0000 0.74299  0.72819  0.48724  Biso   1.000  C
  C51      1.0000 0.81418  0.25353  0.42849  Biso   1.000  C
  H25      1.0000 0.76124  0.27672  0.44350  Biso   1.000  H
  C52      1.0000 0.95010  0.19247  0.42968  Biso   1.000  C
  H26      1.0000 0.98706  0.17158  0.44570  Biso   1.000  H
  C53      1.0000 0.83952  0.34851  0.48544  Biso   1.000  C
  C54      1.0000 0.98518  0.25702  0.48724  Biso   1.000  C
  O7       1.0000 0.39810  0.12347  0.36621  Biso   1.000  O
  O8       1.0000 0.19926  0.04229  0.36777  Biso   1.000  O
  N7       1.0000 0.31836  0.25052  0.37128  Biso   1.000  N
  C55      1.0000 0.77680  0.66245  0.42286  Biso   1.000  C
  H27      1.0000 0.72616  0.49515  0.42430  Biso   1.000  H
  H28      1.0000 0.82852  0.82761  0.42630  Biso   1.000  H
  C56      1.0000 0.65298  0.53975  0.49573  Biso   1.000  C
  H29      1.0000 0.61912  0.41236  0.48470  Biso   1.000  H
  H30      1.0000 0.77134  0.80630  0.48780  Biso   1.000  H
  C57      1.0000 0.69613  0.65588  0.49660  Biso   1.000  C
  C58      1.0000 0.88574  0.22326  0.42286  Biso   1.000  C
  H31      1.0000 0.76902  0.27382  0.42430  Biso   1.000  H
  H32      1.0000 0.99910  0.17158  0.42630  Biso   1.000  H
  C59      1.0000 0.88680  0.34707  0.49573  Biso   1.000  C
  H33      1.0000 0.79332  0.38092  0.48470  Biso   1.000  H
  C60      1.0000 0.95982  0.30392  0.49660  Biso   1.000  C
  H34      1.0000 0.03502  0.22880  0.48780  Biso   1.000  H
  C61      1.0000 0.34613  0.07862  0.35612  Biso   1.000  C
  C62      1.0000 0.22858  0.03240  0.35699  Biso   1.000  C
  C63      1.0000 0.41860  0.34747  0.37080  Biso   1.000  C
  C64      1.0000 0.22385  0.25777  0.37122  Biso   1.000  C
  C65      1.0000 0.78098  0.67080  0.41047  Biso   1.000  C
  Cl3      1.0000 0.59858  0.45252  0.50751  Biso   1.000  Cl
  Cl4      1.0000 0.69615  0.71736  0.50946  Biso   1.000  Cl
  C66      1.0000 0.88985  0.21908  0.41047  Biso   1.000  C
  Cl5      1.0000 0.85396  0.40147  0.50751  Biso   1.000  Cl
  Cl6      1.0000 0.02121  0.30383  0.50946  Biso   1.000  Cl
  C67      1.0000 0.39483  0.07631  0.34609  Biso   1.000  C
  C68      1.0000 0.15763  0.98474  0.34789  Biso   1.000  C
  C69      1.0000 0.42699  0.45226  0.37039  Biso   1.000  C
  H35      1.0000 0.48505  0.34346  0.37073  Biso   1.000  H
  H36      1.0000 0.15378  0.19074  0.37143  Biso   1.000  H
  C70      1.0000 0.22551  0.35915  0.37082  Biso   1.000  C
  C71      1.0000 0.85249  0.77261  0.40485  Biso   1.000  C
  C72      1.0000 0.71656  0.57564  0.40365  Biso   1.000  C
  C73      1.0000 0.92022  0.14762  0.40485  Biso   1.000  C
  C74      1.0000 0.85905  0.28346  0.40365  Biso   1.000  C
  C75      1.0000 0.32257  0.02942  0.33674  Biso   1.000  C
  H37      1.0000 0.47293  0.10462  0.34553  Biso   1.000  H
  C76      1.0000 0.20640  0.98627  0.33760  Biso   1.000  C
  H38      1.0000 0.07903  0.95234  0.34863  Biso   1.000  H
  C77      1.0000 0.32838  0.45900  0.37041  Biso   1.000  C
  H39      1.0000 0.49804  0.51800  0.37013  Biso   1.000  H
  H40      1.0000 0.15756  0.36060  0.37083  Biso   1.000  H
  C78      1.0000 0.85783  0.77858  0.39326  Biso   1.000  C
  H41      1.0000 0.89764  0.83810  0.40903  Biso   1.000  H
  C79      1.0000 0.72392  0.58298  0.39195  Biso   1.000  C
  H42      1.0000 0.66757  0.50573  0.40704  Biso   1.000  H
  C80      1.0000 0.92081  0.14217  0.39326  Biso   1.000  C
  H43      1.0000 0.94052  0.10243  0.40903  Biso   1.000  H
  C81      1.0000 0.85908  0.27612  0.39195  Biso   1.000  C
  H44      1.0000 0.83815  0.33248  0.40704  Biso   1.000  H
  Cl7      1.0000 0.38405  0.02950  0.32388  Biso   1.000  Cl
  Cl8      1.0000 0.11912  0.93179  0.32582  Biso   1.000  Cl
  C82      1.0000 0.33197  0.57002  0.37019  Biso   1.000  C
  C83      1.0000 0.79585  0.68504  0.38636  Biso   1.000  C
  H45      1.0000 0.90552  0.84884  0.38983  Biso   1.000  H
  H46      1.0000 0.67968  0.51783  0.38763  Biso   1.000  H
  C84      1.0000 0.88918  0.20416  0.38636  Biso   1.000  C
  H47      1.0000 0.94339  0.09459  0.38983  Biso   1.000  H
  H48      1.0000 0.83815  0.32038  0.38763  Biso   1.000  H
  N8       1.0000 0.23158  0.56669  0.37018  Biso   1.000  N
  N9       1.0000 0.43329  0.66484  0.37018  Biso   1.000  N
  B5       1.0000 0.81457  0.69161  0.37314  Biso   1.000  B
  B6       1.0000 0.87712  0.18548  0.37314  Biso   1.000  B
  C85      1.0000 0.23807  0.66799  0.37019  Biso   1.000  C
  C86      1.0000 0.43001  0.76196  0.37019  Biso   1.000  C
  N10      1.0000 0.93216  0.68163  0.37128  Biso   1.000  N
  O9       1.0000 0.84307  0.80075  0.36777  Biso   1.000  O
  O10      1.0000 0.72534  0.60191  0.36621  Biso   1.000  O
  N11      1.0000 0.74950  0.06790  0.37128  Biso   1.000  N
  O11      1.0000 0.95769  0.15700  0.36777  Biso   1.000  O
  O12      1.0000 0.87659  0.27467  0.36621  Biso   1.000  O
  N12      1.0000 0.33519  0.76844  0.37018  Biso   1.000  N
  C87      1.0000 0.13069  0.67166  0.37041  Biso   1.000  C
  C88      1.0000 0.54092  0.86931  0.37041  Biso   1.000  C
  C89      1.0000 0.92888  0.58144  0.37080  Biso   1.000  C
  C90      1.0000 0.03390  0.77611  0.37122  Biso   1.000  C
  C91      1.0000 0.80389  0.77142  0.35699  Biso   1.000  C
  C92      1.0000 0.73247  0.65384  0.35612  Biso   1.000  C
  C93      1.0000 0.65258  0.07122  0.37080  Biso   1.000  C
  C94      1.0000 0.74224  0.96609  0.37122  Biso   1.000  C
  C95      1.0000 0.96763  0.19623  0.35699  Biso   1.000  C
  C96      1.0000 0.92142  0.26760  0.35612  Biso   1.000  C
  C97      1.0000 0.02524  0.57300  0.37039  Biso   1.000  C
  C98      1.0000 0.13366  0.77449  0.37082  Biso   1.000  C
  C99      1.0000 0.54775  0.97470  0.37039  Biso   1.000  C
  C100     1.0000 0.64089  0.86632  0.37082  Biso   1.000  C
  H49      1.0000 0.85841  0.51493  0.37073  Biso   1.000  H
  H50      1.0000 0.03697  0.84620  0.37143  Biso   1.000  H
  C101     1.0000 0.82714  0.84228  0.34789  Biso   1.000  C
  C102     1.0000 0.68147  0.60515  0.34609  Biso   1.000  C
  H51      1.0000 0.65656  0.14165  0.37073  Biso   1.000  H
  H52      1.0000 0.80923  0.96302  0.37143  Biso   1.000  H
  C103     1.0000 0.01517  0.17286  0.34789  Biso   1.000  C
  C104     1.0000 0.92366  0.31859  0.34609  Biso   1.000  C
  H53      1.0000 0.01996  0.50189  0.37013  Biso   1.000  H
  H54      1.0000 0.20309  0.84245  0.37083  Biso   1.000  H
  H55      1.0000 0.48194  0.97999  0.37013  Biso   1.000  H
  H56      1.0000 0.63934  0.79692  0.37083  Biso   1.000  H
  C105     1.0000 0.77986  0.79350  0.33760  Biso   1.000  C
  H57      1.0000 0.87339  0.92090  0.34863  Biso   1.000  H
  H58      1.0000 0.63171  0.52704  0.34553  Biso   1.000  H
  C106     1.0000 0.70692  0.67746  0.33674  Biso   1.000  C
  C107     1.0000 0.01365  0.22019  0.33760  Biso   1.000  C
  H59      1.0000 0.04764  0.12673  0.34863  Biso   1.000  H
  H60      1.0000 0.89539  0.36838  0.34553  Biso   1.000  H
  C108     1.0000 0.97062  0.29318  0.33674  Biso   1.000  C
  Cl9      1.0000 0.81273  0.88082  0.32582  Biso   1.000  Cl
  Cl10     1.0000 0.64541  0.61589  0.32388  Biso   1.000  Cl
  Cl11     1.0000 0.06813  0.18736  0.32582  Biso   1.000  Cl
  Cl12     1.0000 0.97049  0.35465  0.32388  Biso   1.000  Cl
  C109     1.0000 0.55878  0.53301  0.53749  Biso   1.000  C
  C110     1.0000 0.55719  0.63277  0.53789  Biso   1.000  C
  C111     1.0000 0.66166  0.53600  0.53708  Biso   1.000  C
  H61      1.0000 0.49092  0.46360  0.53750  Biso   1.000  H
  N13      1.0000 0.65170  0.73450  0.53795  Biso   1.000  N
  H62      1.0000 0.48713  0.62970  0.53810  Biso   1.000  H
  C112     1.0000 0.76029  0.64139  0.53706  Biso   1.000  C
  C113     1.0000 0.66525  0.42856  0.53686  Biso   1.000  C
  B7       1.0000 0.64167  0.85208  0.53981  Biso   1.000  B
  C114     1.0000 0.75187  0.73782  0.53747  Biso   1.000  C
  H63      1.0000 0.83139  0.64667  0.53680  Biso   1.000  H
  N14      1.0000 0.76659  0.43512  0.53685  Biso   1.000  N
  N15      1.0000 0.56489  0.33152  0.53685  Biso   1.000  N
  O13      1.0000 0.53261  0.82360  0.53444  Biso   1.000  O
  O14      1.0000 0.73138  0.94127  0.53287  Biso   1.000  O
  C115     1.0000 0.64827  0.87076  0.55303  Biso   1.000  C
  H64      1.0000 0.81839  0.80826  0.53740  Biso   1.000  H
  C116     1.0000 0.76326  0.33468  0.53686  Biso   1.000  C
  C117     1.0000 0.57139  0.23670  0.53686  Biso   1.000  C
  C118     1.0000 0.56185  0.86274  0.52365  Biso   1.000  C
  C119     1.0000 0.67947  0.93420  0.52278  Biso   1.000  C
  C120     1.0000 0.55466  0.80877  0.55992  Biso   1.000  C
  C121     1.0000 0.75023  0.94264  0.55861  Biso   1.000  C
  C122     1.0000 0.87427  0.33826  0.53708  Biso   1.000  C
  N16      1.0000 0.66845  0.23338  0.53685  Biso   1.000  N
  C123     1.0000 0.46397  0.12569  0.53708  Biso   1.000  C
  C124     1.0000 0.49099  0.83946  0.51456  Biso   1.000  C
  C125     1.0000 0.72816  0.98519  0.51276  Biso   1.000  C
  H65      1.0000 0.48449  0.76119  0.55650  Biso   1.000  H
  C126     1.0000 0.56067  0.81414  0.57151  Biso   1.000  C
  C127     1.0000 0.75770  0.95006  0.57032  Biso   1.000  C
  H66      1.0000 0.81545  0.98698  0.55430  Biso   1.000  H
  C128     1.0000 0.88111  0.23969  0.53706  Biso   1.000  C
  C129     1.0000 0.97417  0.44118  0.53749  Biso   1.000  C
  C130     1.0000 0.35858  0.11886  0.53706  Biso   1.000  C
  C131     1.0000 0.46699  0.02584  0.53749  Biso   1.000  C
  C132     1.0000 0.53976  0.88679  0.50427  Biso   1.000  C
  H67      1.0000 0.41235  0.79325  0.51530  Biso   1.000  H
  C133     1.0000 0.65586  0.95978  0.50340  Biso   1.000  C
  H68      1.0000 0.80634  0.03507  0.51220  Biso   1.000  H
  H69      1.0000 0.49517  0.76895  0.57570  Biso   1.000  H
  C134     1.0000 0.66245  0.88568  0.57714  Biso   1.000  C
  H70      1.0000 0.82756  0.99909  0.57370  Biso   1.000  H
  H71      1.0000 0.81527  0.16858  0.53680  Biso   1.000  H
  C135     1.0000 0.98590  0.24813  0.53747  Biso   1.000  C
  H72      1.0000 0.97266  0.50905  0.53750  Biso   1.000  H
  C136     1.0000 0.07556  0.44280  0.53789  Biso   1.000  C
  H73      1.0000 0.35331  0.18469  0.53680  Biso   1.000  H
  C137     1.0000 0.26217  0.01407  0.53747  Biso   1.000  C
  H74      1.0000 0.53639  0.02729  0.53750  Biso   1.000  H
  C138     1.0000 0.36710  0.92428  0.53789  Biso   1.000  C
  Cl13     1.0000 0.45253  0.85396  0.49249  Biso   1.000  Cl
  Cl14     1.0000 0.71739  0.02126  0.49054  Biso   1.000  Cl
  C139     1.0000 0.67082  0.88986  0.58953  Biso   1.000  C
  H75      1.0000 0.98987  0.18162  0.53740  Biso   1.000  H
  N17      1.0000 0.08281  0.34832  0.53795  Biso   1.000  N
  H76      1.0000 0.14258  0.51289  0.53810  Biso   1.000  H
  H77      1.0000 0.19171  0.01006  0.53740  Biso   1.000  H
  N18      1.0000 0.26546  0.91712  0.53795  Biso   1.000  N
  H78      1.0000 0.37026  0.85735  0.53810  Biso   1.000  H
  C140     1.0000 0.77257  0.92013  0.59515  Biso   1.000  C
  C141     1.0000 0.57560  0.85908  0.59635  Biso   1.000  C
  B8       1.0000 0.21038  0.35830  0.53981  Biso   1.000  B
  B9       1.0000 0.14784  0.78956  0.53981  Biso   1.000  B
  C142     1.0000 0.77863  0.92072  0.60674  Biso   1.000  C
  H79      1.0000 0.83810  0.94042  0.59097  Biso   1.000  H
  H80      1.0000 0.50571  0.83819  0.59296  Biso   1.000  H
  C143     1.0000 0.58306  0.85908  0.60805  Biso   1.000  C
  C144     1.0000 0.22246  0.35173  0.55303  Biso   1.000  C
  O15      1.0000 0.29098  0.46735  0.53444  Biso   1.000  O
  O16      1.0000 0.20984  0.26859  0.53287  Biso   1.000  O
  C145     1.0000 0.12916  0.77745  0.55303  Biso   1.000  C
  O17      1.0000 0.17633  0.70889  0.53444  Biso   1.000  O
  O18      1.0000 0.05863  0.78998  0.53287  Biso   1.000  O
  C146     1.0000 0.68503  0.88918  0.61364  Biso   1.000  C
  H81      1.0000 0.84878  0.94332  0.61017  Biso   1.000  H
  H82      1.0000 0.51782  0.83819  0.61237  Biso   1.000  H
  C147     1.0000 0.25409  0.44527  0.55992  Biso   1.000  C
  C148     1.0000 0.19233  0.24966  0.55861  Biso   1.000  C
  C149     1.0000 0.30087  0.43811  0.52365  Biso   1.000  C
  C150     1.0000 0.25471  0.32052  0.52278  Biso   1.000  C
  C151     1.0000 0.19118  0.74582  0.55992  Biso   1.000  C
  C152     1.0000 0.05730  0.80755  0.55861  Biso   1.000  C
  C153     1.0000 0.13713  0.69900  0.52365  Biso   1.000  C
  C154     1.0000 0.06579  0.74522  0.52278  Biso   1.000  C
  B10      1.0000 0.69160  0.87707  0.62686  Biso   1.000  B
  H83      1.0000 0.27667  0.51553  0.55650  Biso   1.000  H
  C155     1.0000 0.25347  0.43930  0.57151  Biso   1.000  C
  C156     1.0000 0.19243  0.24233  0.57032  Biso   1.000  C
  H84      1.0000 0.17150  0.18452  0.55430  Biso   1.000  H
  C157     1.0000 0.34849  0.50897  0.51456  Biso   1.000  C
  C158     1.0000 0.25702  0.27183  0.51276  Biso   1.000  C
  H85      1.0000 0.23873  0.72322  0.55650  Biso   1.000  H
  C159     1.0000 0.18572  0.74641  0.57151  Biso   1.000  C
  C160     1.0000 0.04984  0.80755  0.57032  Biso   1.000  C
  H86      1.0000 0.01295  0.82844  0.55430  Biso   1.000  H
  C161     1.0000 0.16045  0.65142  0.51456  Biso   1.000  C
  C162     1.0000 0.01479  0.74292  0.51276  Biso   1.000  C
  O19      1.0000 0.80071  0.95765  0.63223  Biso   1.000  O
  O20      1.0000 0.60192  0.87656  0.63379  Biso   1.000  O
  N19      1.0000 0.68161  0.74942  0.62872  Biso   1.000  N
  H87      1.0000 0.27373  0.50479  0.57570  Biso   1.000  H
  C163     1.0000 0.22317  0.33749  0.57714  Biso   1.000  C
  H88      1.0000 0.17150  0.17241  0.57370  Biso   1.000  H
  C164     1.0000 0.34699  0.46019  0.50427  Biso   1.000  C
  H89      1.0000 0.38085  0.58758  0.51530  Biso   1.000  H
  H90      1.0000 0.22868  0.19373  0.51220  Biso   1.000  H
  C165     1.0000 0.30384  0.34406  0.50340  Biso   1.000  C
  H91      1.0000 0.23095  0.72612  0.57570  Biso   1.000  H
  C166     1.0000 0.11423  0.77668  0.57714  Biso   1.000  C
  H92      1.0000 0.00084  0.82844  0.57370  Biso   1.000  H
  C167     1.0000 0.11314  0.65296  0.50427  Biso   1.000  C
  H93      1.0000 0.20665  0.61902  0.51530  Biso   1.000  H
  H94      1.0000 0.96500  0.77123  0.51220  Biso   1.000  H
  C168     1.0000 0.04015  0.69602  0.50340  Biso   1.000  C
  C169     1.0000 0.77139  0.96754  0.64301  Biso   1.000  C
  C170     1.0000 0.65384  0.92132  0.64388  Biso   1.000  C
  C171     1.0000 0.58141  0.65256  0.62920  Biso   1.000  C
  C172     1.0000 0.77609  0.74226  0.62878  Biso   1.000  C
  C173     1.0000 0.21899  0.32913  0.58953  Biso   1.000  C
  Cl15     1.0000 0.40143  0.54751  0.49249  Biso   1.000  Cl
  Cl16     1.0000 0.30382  0.28258  0.49054  Biso   1.000  Cl
  C174     1.0000 0.11004  0.78086  0.58953  Biso   1.000  C
  Cl17     1.0000 0.14601  0.59847  0.49249  Biso   1.000  Cl
  Cl18     1.0000 0.97876  0.69610  0.49054  Biso   1.000  Cl
  C175     1.0000 0.84234  0.01520  0.65211  Biso   1.000  C
  C176     1.0000 0.60514  0.92362  0.65391  Biso   1.000  C
  C177     1.0000 0.57302  0.54776  0.62961  Biso   1.000  C
  H95      1.0000 0.51496  0.65656  0.62927  Biso   1.000  H
  H96      1.0000 0.84623  0.80928  0.62857  Biso   1.000  H
  C178     1.0000 0.77451  0.64087  0.62918  Biso   1.000  C
  C179     1.0000 0.14748  0.22732  0.59515  Biso   1.000  C
  C180     1.0000 0.28345  0.42438  0.59635  Biso   1.000  C
  C181     1.0000 0.07980  0.85240  0.59515  Biso   1.000  C
  C182     1.0000 0.14092  0.71648  0.59635  Biso   1.000  C
  C183     1.0000 0.79354  0.01375  0.66240  Biso   1.000  C
  H97      1.0000 0.92094  0.04760  0.65137  Biso   1.000  H
  H98      1.0000 0.52704  0.89531  0.65447  Biso   1.000  H
  C184     1.0000 0.67740  0.97052  0.66326  Biso   1.000  C
  C185     1.0000 0.67159  0.54094  0.62959  Biso   1.000  C
  H99      1.0000 0.50193  0.48194  0.62987  Biso   1.000  H
  H100     1.0000 0.84241  0.63934  0.62917  Biso   1.000  H
  C186     1.0000 0.14214  0.22136  0.60674  Biso   1.000  C
  H101     1.0000 0.10226  0.16184  0.59097  Biso   1.000  H
  H102     1.0000 0.33240  0.49421  0.59296  Biso   1.000  H
  C187     1.0000 0.27597  0.41696  0.60805  Biso   1.000  C
  C188     1.0000 0.07916  0.85777  0.60674  Biso   1.000  C
  H103     1.0000 0.05949  0.89759  0.59097  Biso   1.000  H
  H104     1.0000 0.16174  0.66745  0.59296  Biso   1.000  H
  C189     1.0000 0.14086  0.72390  0.60805  Biso   1.000  C
  Cl19     1.0000 0.88085  0.06815  0.67418  Biso   1.000  Cl
  Cl20     1.0000 0.61592  0.97044  0.67612  Biso   1.000  Cl
  C190     1.0000 0.66800  0.42992  0.62981  Biso   1.000  C
  C191     1.0000 0.20409  0.31498  0.61364  Biso   1.000  C
  H105     1.0000 0.09449  0.15118  0.61017  Biso   1.000  H
  H106     1.0000 0.32033  0.48219  0.61237  Biso   1.000  H
  C192     1.0000 0.11078  0.79578  0.61364  Biso   1.000  C
  H107     1.0000 0.05658  0.90535  0.61017  Biso   1.000  H
  H108     1.0000 0.16174  0.67956  0.61237  Biso   1.000  H
  N20      1.0000 0.76839  0.43325  0.62982  Biso   1.000  N
  N21      1.0000 0.56672  0.33519  0.62982  Biso   1.000  N
  B11      1.0000 0.18540  0.30833  0.62686  Biso   1.000  B
  B12      1.0000 0.12285  0.81446  0.62686  Biso   1.000  B
  C193     1.0000 0.76190  0.33195  0.62981  Biso   1.000  C
  C194     1.0000 0.57000  0.23807  0.62981  Biso   1.000  C
  N22      1.0000 0.06785  0.31839  0.62872  Biso   1.000  N
  O21      1.0000 0.15694  0.19927  0.63223  Biso   1.000  O
  O22      1.0000 0.27456  0.39803  0.63379  Biso   1.000  O
  N23      1.0000 0.25047  0.93204  0.62872  Biso   1.000  N
  O23      1.0000 0.04232  0.84302  0.63223  Biso   1.000  O
  O24      1.0000 0.12338  0.72527  0.63379  Biso   1.000  O
  N24      1.0000 0.66483  0.23159  0.62982  Biso   1.000  N
  C195     1.0000 0.86932  0.32837  0.62959  Biso   1.000  C
  C196     1.0000 0.45898  0.13063  0.62959  Biso   1.000  C
  C197     1.0000 0.07113  0.41858  0.62920  Biso   1.000  C
  C198     1.0000 0.96607  0.22383  0.62878  Biso   1.000  C
  C199     1.0000 0.19612  0.22860  0.64301  Biso   1.000  C
  C200     1.0000 0.26754  0.34619  0.64388  Biso   1.000  C
  C201     1.0000 0.34736  0.92880  0.62920  Biso   1.000  C
  C202     1.0000 0.25773  0.03385  0.62878  Biso   1.000  C
  C203     1.0000 0.03238  0.80380  0.64301  Biso   1.000  C
  C204     1.0000 0.07859  0.73243  0.64388  Biso   1.000  C
  C205     1.0000 0.97473  0.42694  0.62961  Biso   1.000  C
  C206     1.0000 0.86631  0.22545  0.62918  Biso   1.000  C
  C207     1.0000 0.45222  0.02524  0.62961  Biso   1.000  C
  C208     1.0000 0.35913  0.13370  0.62918  Biso   1.000  C
  H109     1.0000 0.14160  0.48509  0.62927  Biso   1.000  H
  H110     1.0000 0.96300  0.15374  0.62857  Biso   1.000  H
  C209     1.0000 0.17283  0.15766  0.65211  Biso   1.000  C
  C210     1.0000 0.31854  0.39488  0.65391  Biso   1.000  C
  H111     1.0000 0.34341  0.85828  0.62927  Biso   1.000  H
  H112     1.0000 0.19078  0.03701  0.62857  Biso   1.000  H
  C211     1.0000 0.98480  0.82708  0.65211  Biso   1.000  C
  C212     1.0000 0.07624  0.68135  0.65391  Biso   1.000  C
  H113     1.0000 0.98001  0.49805  0.62987  Biso   1.000  H
  H114     1.0000 0.79692  0.15758  0.62917  Biso   1.000  H
  H115     1.0000 0.51803  0.01995  0.62987  Biso   1.000  H
  H116     1.0000 0.36063  0.20302  0.62917  Biso   1.000  H
  C213     1.0000 0.22011  0.20643  0.66240  Biso   1.000  C
  H117     1.0000 0.12658  0.07904  0.65137  Biso   1.000  H
  H118     1.0000 0.36830  0.47298  0.65447  Biso   1.000  H
  C214     1.0000 0.29310  0.32257  0.66326  Biso   1.000  C
  C215     1.0000 0.98624  0.77975  0.66240  Biso   1.000  C
  H119     1.0000 0.95237  0.87329  0.65137  Biso   1.000  H
  H120     1.0000 0.10458  0.63156  0.65447  Biso   1.000  H
  C216     1.0000 0.02935  0.70676  0.66326  Biso   1.000  C
  Cl21     1.0000 0.18728  0.11920  0.67418  Biso   1.000  Cl
  Cl22     1.0000 0.35456  0.38405  0.67612  Biso   1.000  Cl
  Cl23     1.0000 0.93184  0.81258  0.67418  Biso   1.000  Cl
  Cl24     1.0000 0.02945  0.64537  0.67612  Biso   1.000  Cl
  C217     1.0000 0.01075  0.63721  0.32994  Biso   1.000  C
  C218     1.0000 0.93849  0.59031  0.32057  Biso   1.000  C
  C219     1.0000 0.93853  0.59040  0.32057  Biso   1.000  C
  C220     1.0000 0.93841  0.59031  0.32057  Biso   1.000  C
  C221     1.0000 0.12691  0.68035  0.32906  Biso   1.000  C
  C222     1.0000 0.12684  0.68035  0.32906  Biso   1.000  C
  Cl25     1.0000 0.94927  0.63712  0.34279  Biso   1.000  Cl
  Cl26     1.0000 0.94931  0.63721  0.34279  Biso   1.000  Cl
  Cl27     1.0000 0.94919  0.63712  0.34279  Biso   1.000  Cl
  C223     1.0000 0.98718  0.58801  0.31056  Biso   1.000  C
  C224     1.0000 0.98722  0.58809  0.31056  Biso   1.000  C
  C225     1.0000 0.98711  0.58801  0.31056  Biso   1.000  C
  H121     1.0000 0.86038  0.56200  0.32113  Biso   1.000  H
  H122     1.0000 0.86043  0.56209  0.32113  Biso   1.000  H
  H123     1.0000 0.86031  0.56200  0.32113  Biso   1.000  H
  C226     1.0000 0.01079  0.63729  0.32994  Biso   1.000  C
  C227     1.0000 0.17564  0.68180  0.31877  Biso   1.000  C
  C228     1.0000 0.17568  0.68189  0.31877  Biso   1.000  C
  Cl28     1.0000 0.21415  0.73476  0.34084  Biso   1.000  Cl
  Cl29     1.0000 0.21419  0.73484  0.34084  Biso   1.000  Cl
  O25      1.0000 0.93526  0.54324  0.30047  Biso   1.000  O
  C229     1.0000 0.10474  0.63422  0.30969  Biso   1.000  C
  C230     1.0000 0.10481  0.63422  0.30969  Biso   1.000  C
  H124     1.0000 0.25424  0.71421  0.31803  Biso   1.000  H
  H125     1.0000 0.25428  0.71429  0.31803  Biso   1.000  H
  B13      1.0000 0.02502  0.54375  0.29352  Biso   1.000  B
  B14      1.0000 0.02494  0.54375  0.29352  Biso   1.000  B
  O26      1.0000 0.13405  0.62433  0.29889  Biso   1.000  O
  C231     1.0000 0.01837  0.55586  0.28030  Biso   1.000  C
  N25      1.0000 0.01495  0.41611  0.29538  Biso   1.000  N
  N26      1.0000 0.01499  0.41619  0.29538  Biso   1.000  N
  C232     1.0000 0.91640  0.52576  0.27473  Biso   1.000  C
  C233     1.0000 0.11198  0.58741  0.27342  Biso   1.000  C
  C234     1.0000 0.11202  0.58750  0.27342  Biso   1.000  C
  C235     1.0000 0.11190  0.58741  0.27342  Biso   1.000  C
  C236     1.0000 0.91475  0.31924  0.29586  Biso   1.000  C
  C237     1.0000 0.10951  0.40895  0.29544  Biso   1.000  C
  C238     1.0000 0.10944  0.40895  0.29544  Biso   1.000  C
  C239     1.0000 0.90902  0.52576  0.26301  Biso   1.000  C
  C240     1.0000 0.90895  0.52576  0.26301  Biso   1.000  C
  H126     1.0000 0.85112  0.50479  0.27903  Biso   1.000  H
  H127     1.0000 0.85124  0.50487  0.27903  Biso   1.000  H
  H128     1.0000 0.85117  0.50487  0.27903  Biso   1.000  H
  C241     1.0000 0.10599  0.58682  0.26183  Biso   1.000  C
  C242     1.0000 0.10603  0.58690  0.26183  Biso   1.000  C
  C243     1.0000 0.10592  0.58682  0.26183  Biso   1.000  C
  C244     1.0000 0.10596  0.58690  0.26183  Biso   1.000  C
  H129     1.0000 0.18213  0.61001  0.27683  Biso   1.000  H
  H130     1.0000 0.18224  0.61009  0.27683  Biso   1.000  H
  H131     1.0000 0.18217  0.61009  0.27683  Biso   1.000  H
  C245     1.0000 0.90637  0.21445  0.29627  Biso   1.000  C
  H132     1.0000 0.84830  0.32325  0.29593  Biso   1.000  H
  H133     1.0000 0.84823  0.32325  0.29593  Biso   1.000  H
  H134     1.0000 0.17953  0.47588  0.29523  Biso   1.000  H
  C246     1.0000 0.10785  0.30756  0.29584  Biso   1.000  C
  H135     1.0000 0.17957  0.47597  0.29523  Biso   1.000  H
  C247     1.0000 0.10792  0.30756  0.29584  Biso   1.000  C
  C248     1.0000 0.00416  0.55654  0.25619  Biso   1.000  C
  H136     1.0000 0.83909  0.50479  0.25964  Biso   1.000  H
  H137     1.0000 0.83913  0.50487  0.25964  Biso   1.000  H
  H138     1.0000 0.83901  0.50479  0.25964  Biso   1.000  H
  H139     1.0000 0.83906  0.50487  0.25964  Biso   1.000  H
  H140     1.0000 0.17145  0.60711  0.25763  Biso   1.000  H
  H141     1.0000 0.17149  0.60719  0.25763  Biso   1.000  H
  H142     1.0000 0.83528  0.14862  0.29653  Biso   1.000  H
  H143     1.0000 0.83532  0.14871  0.29653  Biso   1.000  H
  C249     1.0000 0.00494  0.20763  0.29625  Biso   1.000  C
  C250     1.0000 0.00501  0.20763  0.29625  Biso   1.000  C
  H144     1.0000 0.17576  0.30603  0.29583  Biso   1.000  H
  C251     1.0000 0.99587  0.55237  0.24381  Biso   1.000  C
  C252     1.0000 0.99580  0.55237  0.24381  Biso   1.000  C
  C253     1.0000 0.00134  0.09661  0.29647  Biso   1.000  C
  C254     1.0000 0.00138  0.09669  0.29647  Biso   1.000  C
  C255     1.0000 0.89401  0.48083  0.23818  Biso   1.000  C
  C256     1.0000 0.89405  0.48091  0.23818  Biso   1.000  C
  C257     1.0000 0.09105  0.61674  0.23698  Biso   1.000  C
  C258     1.0000 0.09109  0.61683  0.23698  Biso   1.000  C
  C259     1.0000 0.09097  0.61674  0.23698  Biso   1.000  C
  N27      1.0000 0.90007  0.00188  0.29648  Biso   1.000  N
  N28      1.0000 0.10173  0.09993  0.29648  Biso   1.000  N
  N29      1.0000 0.10181  0.09993  0.29648  Biso   1.000  N
  C260     1.0000 0.88800  0.47545  0.22659  Biso   1.000  C
  H145     1.0000 0.82851  0.43563  0.24236  Biso   1.000  H
  C261     1.0000 0.88807  0.47545  0.22659  Biso   1.000  C
  H146     1.0000 0.82855  0.43572  0.24236  Biso   1.000  H
  C262     1.0000 0.08365  0.60933  0.22528  Biso   1.000  C
  C263     1.0000 0.08369  0.60941  0.22528  Biso   1.000  C
  C264     1.0000 0.08357  0.60933  0.22528  Biso   1.000  C
  C265     1.0000 0.08362  0.60941  0.22528  Biso   1.000  C
  H147     1.0000 0.16098  0.66577  0.24037  Biso   1.000  H
  H148     1.0000 0.16090  0.66577  0.24037  Biso   1.000  H
  C266     1.0000 0.90330  0.90467  0.29647  Biso   1.000  C
  C267     1.0000 0.90338  0.90467  0.29647  Biso   1.000  C
  C268     1.0000 0.09520  0.99855  0.29647  Biso   1.000  C
  C269     1.0000 0.98162  0.53744  0.21969  Biso   1.000  C
  H149     1.0000 0.81784  0.42788  0.22316  Biso   1.000  H
  C270     1.0000 0.98166  0.53753  0.21969  Biso   1.000  C
  H150     1.0000 0.14887  0.65367  0.22096  Biso   1.000  H
  H151     1.0000 0.14879  0.65367  0.22096  Biso   1.000  H
  N30      1.0000 0.99813  0.89819  0.29648  Biso   1.000  N
  C271     1.0000 0.79235  0.79723  0.29625  Biso   1.000  C
  C272     1.0000 0.79240  0.79732  0.29625  Biso   1.000  C
  C273     1.0000 0.79228  0.79723  0.29625  Biso   1.000  C
  C274     1.0000 0.79232  0.79732  0.29625  Biso   1.000  C
  C275     1.0000 0.20262  0.99497  0.29625  Biso   1.000  C
  B15      1.0000 0.97501  0.51877  0.20647  Biso   1.000  B
  B16      1.0000 0.97508  0.51877  0.20647  Biso   1.000  B
  C276     1.0000 0.78552  0.69184  0.29627  Biso   1.000  C
  C277     1.0000 0.69238  0.80022  0.29584  Biso   1.000  C
  C278     1.0000 0.78556  0.69193  0.29627  Biso   1.000  C
  C279     1.0000 0.69250  0.80030  0.29584  Biso   1.000  C
  C280     1.0000 0.69243  0.80030  0.29584  Biso   1.000  C
  C281     1.0000 0.19961  0.89205  0.29584  Biso   1.000  C
  C282     1.0000 0.30807  0.09362  0.29627  Biso   1.000  C
  C283     1.0000 0.30812  0.09371  0.29627  Biso   1.000  C
  C284     1.0000 0.30800  0.09362  0.29627  Biso   1.000  C
  O27      1.0000 0.86596  0.49029  0.20110  Biso   1.000  O
  N31      1.0000 0.98504  0.40119  0.20461  Biso   1.000  N
  O28      1.0000 0.06473  0.60796  0.19954  Biso   1.000  O
  H152     1.0000 0.85133  0.68655  0.29653  Biso   1.000  H
  C285     1.0000 0.68077  0.59549  0.29586  Biso   1.000  C
  C286     1.0000 0.68070  0.59549  0.29586  Biso   1.000  C
  C287     1.0000 0.59103  0.70045  0.29544  Biso   1.000  C
  H153     1.0000 0.69393  0.86963  0.29583  Biso   1.000  H
  H154     1.0000 0.69397  0.86971  0.29583  Biso   1.000  H
  C288     1.0000 0.29937  0.89043  0.29544  Biso   1.000  C
  H155     1.0000 0.13022  0.82418  0.29583  Biso   1.000  H
  C289     1.0000 0.29949  0.89052  0.29544  Biso   1.000  C
  C290     1.0000 0.29942  0.89052  0.29544  Biso   1.000  C
  H156     1.0000 0.31335  0.16474  0.29653  Biso   1.000  H
  C291     1.0000 0.40447  0.08527  0.29586  Biso   1.000  C
  C292     1.0000 0.89520  0.52943  0.19032  Biso   1.000  C
  C293     1.0000 0.89524  0.52951  0.19032  Biso   1.000  C
  C294     1.0000 0.89054  0.29946  0.20455  Biso   1.000  C
  C295     1.0000 0.08524  0.40443  0.20414  Biso   1.000  C
  C296     1.0000 0.08529  0.40451  0.20414  Biso   1.000  C
  C297     1.0000 0.08517  0.40443  0.20414  Biso   1.000  C
  C298     1.0000 0.08521  0.40451  0.20414  Biso   1.000  C
  C299     1.0000 0.01282  0.60088  0.18945  Biso   1.000  C
  C300     1.0000 0.01289  0.60088  0.18945  Biso   1.000  C
  H157     1.0000 0.67675  0.52497  0.29593  Biso   1.000  H
  N32      1.0000 0.58381  0.59873  0.29538  Biso   1.000  N
  N33      1.0000 0.58386  0.59881  0.29538  Biso   1.000  N
  H158     1.0000 0.67668  0.52497  0.29593  Biso   1.000  H
  H159     1.0000 0.52404  0.70352  0.29523  Biso   1.000  H
  H160     1.0000 0.52408  0.70361  0.29523  Biso   1.000  H
  H161     1.0000 0.52397  0.70352  0.29523  Biso   1.000  H
  N34      1.0000 0.40111  0.98491  0.29538  Biso   1.000  N
  H162     1.0000 0.29630  0.82034  0.29523  Biso   1.000  H
  N35      1.0000 0.40115  0.98499  0.29538  Biso   1.000  N
  H163     1.0000 0.29634  0.82043  0.29523  Biso   1.000  H
  H164     1.0000 0.47490  0.15169  0.29593  Biso   1.000  H
  H165     1.0000 0.47502  0.15178  0.29593  Biso   1.000  H
  H166     1.0000 0.47494  0.15178  0.29593  Biso   1.000  H
  C301     1.0000 0.82434  0.50615  0.18123  Biso   1.000  C
  C302     1.0000 0.82438  0.50624  0.18123  Biso   1.000  C
  H167     1.0000 0.82047  0.29639  0.20477  Biso   1.000  H
  C303     1.0000 0.89212  0.19970  0.20416  Biso   1.000  C
  C304     1.0000 0.89220  0.19970  0.20416  Biso   1.000  C
  H168     1.0000 0.82040  0.29639  0.20477  Biso   1.000  H
  C305     1.0000 0.09363  0.30807  0.20373  Biso   1.000  C
  H169     1.0000 0.15174  0.47494  0.20406  Biso   1.000  H
  H170     1.0000 0.15178  0.47503  0.20406  Biso   1.000  H
  H171     1.0000 0.15166  0.47494  0.20406  Biso   1.000  H
  C306     1.0000 0.06157  0.65187  0.17942  Biso   1.000  C
  C307     1.0000 0.06150  0.65187  0.17942  Biso   1.000  C
  B17      1.0000 0.45620  0.48114  0.29352  Biso   1.000  B
  B18      1.0000 0.45631  0.48123  0.29352  Biso   1.000  B
  B19      1.0000 0.45624  0.48123  0.29352  Biso   1.000  B
  B20      1.0000 0.51870  0.97493  0.29352  Biso   1.000  B
  B21      1.0000 0.51874  0.97502  0.29352  Biso   1.000  B
  C308     1.0000 0.87318  0.55348  0.17094  Biso   1.000  C
  H172     1.0000 0.74570  0.45994  0.18197  Biso   1.000  H
  H173     1.0000 0.74581  0.46002  0.18197  Biso   1.000  H
  C309     1.0000 0.87310  0.55348  0.17094  Biso   1.000  C
  H174     1.0000 0.74574  0.46002  0.18197  Biso   1.000  H
  C310     1.0000 0.99508  0.20268  0.20375  Biso   1.000  C
  H175     1.0000 0.82426  0.13029  0.20417  Biso   1.000  H
  C311     1.0000 0.99501  0.20268  0.20375  Biso   1.000  C
  H176     1.0000 0.16473  0.31336  0.20346  Biso   1.000  H
  C312     1.0000 0.98920  0.62646  0.17007  Biso   1.000  C
  C313     1.0000 0.98928  0.62646  0.17007  Biso   1.000  C
  H177     1.0000 0.13964  0.70167  0.17887  Biso   1.000  H
  C314     1.0000 0.44413  0.46247  0.28030  Biso   1.000  C
  O29      1.0000 0.37562  0.50962  0.29889  Biso   1.000  O
  O30      1.0000 0.45672  0.39195  0.30047  Biso   1.000  O
  O31      1.0000 0.37566  0.50971  0.29889  Biso   1.000  O
  O32      1.0000 0.45676  0.39204  0.30047  Biso   1.000  O
  C315     1.0000 0.53746  0.98158  0.28030  Biso   1.000  C
  O33      1.0000 0.49024  0.86587  0.29889  Biso   1.000  O
  C316     1.0000 0.53739  0.98158  0.28030  Biso   1.000  C
  O34      1.0000 0.49017  0.86587  0.29889  Biso   1.000  O
  O35      1.0000 0.60798  0.06472  0.30047  Biso   1.000  O
  O36      1.0000 0.60802  0.06480  0.30047  Biso   1.000  O
  O37      1.0000 0.60790  0.06472  0.30047  Biso   1.000  O
  O38      1.0000 0.60794  0.06480  0.30047  Biso   1.000  O
  Cl30     1.0000 0.78587  0.52065  0.15916  Biso   1.000  Cl
  C317     1.0000 0.99859  0.09524  0.20353  Biso   1.000  C
  C318     1.0000 0.99871  0.09533  0.20353  Biso   1.000  C
  C319     1.0000 0.99863  0.09533  0.20353  Biso   1.000  C
  Cl31     1.0000 0.05077  0.68786  0.15721  Biso   1.000  Cl
  Cl32     1.0000 0.05081  0.68794  0.15721  Biso   1.000  Cl
  Cl33     1.0000 0.05069  0.68786  0.15721  Biso   1.000  Cl
  Cl34     1.0000 0.05074  0.68794  0.15721  Biso   1.000  Cl
  C320     1.0000 0.41250  0.52446  0.27342  Biso   1.000  C
  C321     1.0000 0.47428  0.39059  0.27473  Biso   1.000  C
  C322     1.0000 0.41258  0.52446  0.27342  Biso   1.000  C
  C323     1.0000 0.47420  0.39059  0.27473  Biso   1.000  C
  C324     1.0000 0.36573  0.47049  0.30969  Biso   1.000  C
  C325     1.0000 0.41189  0.39903  0.31056  Biso   1.000  C
  C326     1.0000 0.41201  0.39912  0.31056  Biso   1.000  C
  C327     1.0000 0.41193  0.39912  0.31056  Biso   1.000  C
  C328     1.0000 0.47544  0.88796  0.27342  Biso   1.000  C
  C329     1.0000 0.47536  0.88796  0.27342  Biso   1.000  C
  C330     1.0000 0.60939  0.08365  0.27473  Biso   1.000  C
  C331     1.0000 0.60932  0.08365  0.27473  Biso   1.000  C
  C332     1.0000 0.52938  0.89512  0.30969  Biso   1.000  C
  C333     1.0000 0.52942  0.89521  0.30969  Biso   1.000  C
  C334     1.0000 0.60088  0.01288  0.31056  Biso   1.000  C
  N36      1.0000 0.89815  0.99804  0.20351  Biso   1.000  N
  N37      1.0000 0.89819  0.99812  0.20351  Biso   1.000  N
  N38      1.0000 0.09990  0.10172  0.20351  Biso   1.000  N
  N39      1.0000 0.09994  0.10181  0.20351  Biso   1.000  N
  C335     1.0000 0.41314  0.51909  0.26183  Biso   1.000  C
  H178     1.0000 0.38992  0.57204  0.27683  Biso   1.000  H
  H179     1.0000 0.38996  0.57212  0.27683  Biso   1.000  H
  C336     1.0000 0.47426  0.38317  0.26301  Biso   1.000  C
  C337     1.0000 0.47419  0.38317  0.26301  Biso   1.000  C
  H180     1.0000 0.49516  0.34625  0.27903  Biso   1.000  H
  H181     1.0000 0.49520  0.34633  0.27903  Biso   1.000  H
  H182     1.0000 0.49509  0.34625  0.27903  Biso   1.000  H
  H183     1.0000 0.49513  0.34633  0.27903  Biso   1.000  H
  C338     1.0000 0.31814  0.49376  0.31877  Biso   1.000  C
  C339     1.0000 0.40966  0.34804  0.32057  Biso   1.000  C
  C340     1.0000 0.40970  0.34813  0.32057  Biso   1.000  C
  C341     1.0000 0.40958  0.34804  0.32057  Biso   1.000  C
  C342     1.0000 0.40963  0.34813  0.32057  Biso   1.000  C
  C343     1.0000 0.48078  0.89393  0.26183  Biso   1.000  C
  C344     1.0000 0.48083  0.89401  0.26183  Biso   1.000  C
  H184     1.0000 0.42780  0.81778  0.27683  Biso   1.000  H
  H185     1.0000 0.42787  0.81778  0.27683  Biso   1.000  H
  C345     1.0000 0.61679  0.09107  0.26301  Biso   1.000  C
  C346     1.0000 0.61672  0.09107  0.26301  Biso   1.000  C
  H186     1.0000 0.65363  0.14879  0.27903  Biso   1.000  H
  H187     1.0000 0.65367  0.14888  0.27903  Biso   1.000  H
  C347     1.0000 0.50614  0.82426  0.31877  Biso   1.000  C
  C348     1.0000 0.50606  0.82426  0.31877  Biso   1.000  C
  C349     1.0000 0.65189  0.06156  0.32057  Biso   1.000  C
  C350     1.0000 0.65181  0.06156  0.32057  Biso   1.000  C
  C351     1.0000 0.90469  0.90331  0.20353  Biso   1.000  C
  C352     1.0000 0.09661  0.00136  0.20353  Biso   1.000  C
  C353     1.0000 0.44346  0.44755  0.25619  Biso   1.000  C
  C354     1.0000 0.44350  0.44763  0.25619  Biso   1.000  C
  C355     1.0000 0.44339  0.44755  0.25619  Biso   1.000  C
  C356     1.0000 0.44343  0.44763  0.25619  Biso   1.000  C
  H188     1.0000 0.39283  0.56428  0.25763  Biso   1.000  H
  H189     1.0000 0.49516  0.33414  0.25964  Biso   1.000  H
  H190     1.0000 0.49520  0.33423  0.25964  Biso   1.000  H
  H191     1.0000 0.49509  0.33414  0.25964  Biso   1.000  H
  H192     1.0000 0.49513  0.33423  0.25964  Biso   1.000  H
  C357     1.0000 0.31966  0.44644  0.32906  Biso   1.000  C
  H193     1.0000 0.28572  0.53998  0.31803  Biso   1.000  H
  C358     1.0000 0.31970  0.44652  0.32906  Biso   1.000  C
  H194     1.0000 0.28579  0.53998  0.31803  Biso   1.000  H
  C359     1.0000 0.31959  0.44644  0.32906  Biso   1.000  C
  C360     1.0000 0.31963  0.44652  0.32906  Biso   1.000  C
  H195     1.0000 0.43793  0.29824  0.32113  Biso   1.000  H
  C361     1.0000 0.36270  0.37345  0.32994  Biso   1.000  C
  H196     1.0000 0.43797  0.29833  0.32113  Biso   1.000  H
  C362     1.0000 0.36281  0.37354  0.32994  Biso   1.000  C
  C363     1.0000 0.36274  0.37354  0.32994  Biso   1.000  C
  C364     1.0000 0.55229  0.99574  0.25619  Biso   1.000  C
  C365     1.0000 0.55233  0.99582  0.25619  Biso   1.000  C
  H197     1.0000 0.43564  0.82844  0.25763  Biso   1.000  H
  H198     1.0000 0.43568  0.82853  0.25763  Biso   1.000  H
  H199     1.0000 0.43556  0.82844  0.25763  Biso   1.000  H
  H200     1.0000 0.43560  0.82853  0.25763  Biso   1.000  H
  H201     1.0000 0.66574  0.16090  0.25964  Biso   1.000  H
  H202     1.0000 0.66578  0.16099  0.25964  Biso   1.000  H
  C366     1.0000 0.55341  0.87304  0.32906  Biso   1.000  C
  H203     1.0000 0.45989  0.74565  0.31803  Biso   1.000  H
  C367     1.0000 0.55346  0.87312  0.32906  Biso   1.000  C
  H204     1.0000 0.45993  0.74573  0.31803  Biso   1.000  H
  C368     1.0000 0.62640  0.98917  0.32994  Biso   1.000  C
  H205     1.0000 0.70165  0.13967  0.32113  Biso   1.000  H
  C369     1.0000 0.79727  0.79229  0.20375  Biso   1.000  C
  C370     1.0000 0.79734  0.79229  0.20375  Biso   1.000  C
  N40      1.0000 0.00176  0.89998  0.20351  Biso   1.000  N
  N41      1.0000 0.00183  0.89998  0.20351  Biso   1.000  N
  C371     1.0000 0.20761  0.00495  0.20375  Biso   1.000  C
  C372     1.0000 0.20765  0.00503  0.20375  Biso   1.000  C
  C373     1.0000 0.44757  0.44337  0.24381  Biso   1.000  C
  C374     1.0000 0.44762  0.44346  0.24381  Biso   1.000  C
  Cl35     1.0000 0.26518  0.47927  0.34084  Biso   1.000  Cl
  Cl36     1.0000 0.26523  0.47935  0.34084  Biso   1.000  Cl
  Cl37     1.0000 0.36287  0.31206  0.34279  Biso   1.000  Cl
  Cl38     1.0000 0.36279  0.31206  0.34279  Biso   1.000  Cl
  C375     1.0000 0.55651  0.00418  0.24381  Biso   1.000  C
  Cl39     1.0000 0.52058  0.78581  0.34084  Biso   1.000  Cl
  Cl40     1.0000 0.68790  0.05073  0.34279  Biso   1.000  Cl
  Cl41     1.0000 0.68794  0.05082  0.34279  Biso   1.000  Cl
  Cl42     1.0000 0.68782  0.05073  0.34279  Biso   1.000  Cl
  C376     1.0000 0.69188  0.78547  0.20373  Biso   1.000  C
  C377     1.0000 0.80025  0.69235  0.20416  Biso   1.000  C
  C378     1.0000 0.69192  0.78555  0.20373  Biso   1.000  C
  C379     1.0000 0.80036  0.69244  0.20416  Biso   1.000  C
  C380     1.0000 0.80029  0.69244  0.20416  Biso   1.000  C
  C381     1.0000 0.21441  0.90629  0.20373  Biso   1.000  C
  C382     1.0000 0.21433  0.90629  0.20373  Biso   1.000  C
  C383     1.0000 0.30751  0.10786  0.20416  Biso   1.000  C
  C384     1.0000 0.51913  0.41310  0.23818  Biso   1.000  C
  C385     1.0000 0.51906  0.41310  0.23818  Biso   1.000  C
  C386     1.0000 0.38321  0.47415  0.23698  Biso   1.000  C
  C387     1.0000 0.38326  0.47424  0.23698  Biso   1.000  C
  C388     1.0000 0.38314  0.47415  0.23698  Biso   1.000  C
  C389     1.0000 0.38318  0.47424  0.23698  Biso   1.000  C
  C390     1.0000 0.52568  0.90885  0.23698  Biso   1.000  C
  C391     1.0000 0.52573  0.90893  0.23698  Biso   1.000  C
  C392     1.0000 0.52561  0.90885  0.23698  Biso   1.000  C
  C393     1.0000 0.58681  0.10599  0.23818  Biso   1.000  C
  H206     1.0000 0.68661  0.85129  0.20346  Biso   1.000  H
  C394     1.0000 0.59547  0.68067  0.20414  Biso   1.000  C
  C395     1.0000 0.59551  0.68076  0.20414  Biso   1.000  C
  C396     1.0000 0.70052  0.59097  0.20455  Biso   1.000  C
  H207     1.0000 0.86969  0.69389  0.20417  Biso   1.000  H
  C397     1.0000 0.70056  0.59105  0.20455  Biso   1.000  C
  C398     1.0000 0.70045  0.59097  0.20455  Biso   1.000  C
  C399     1.0000 0.70049  0.59105  0.20455  Biso   1.000  C
  H208     1.0000 0.14857  0.83518  0.20346  Biso   1.000  H
  C400     1.0000 0.31916  0.91465  0.20414  Biso   1.000  C
  H209     1.0000 0.14862  0.83526  0.20346  Biso   1.000  H
  C401     1.0000 0.31920  0.91473  0.20414  Biso   1.000  C
  C402     1.0000 0.40890  0.10948  0.20455  Biso   1.000  C
  H210     1.0000 0.30600  0.17574  0.20417  Biso   1.000  H
  C403     1.0000 0.40897  0.10948  0.20455  Biso   1.000  C
  H211     1.0000 0.30605  0.17582  0.20417  Biso   1.000  H
  C404     1.0000 0.52452  0.41250  0.22659  Biso   1.000  C
  C405     1.0000 0.52445  0.41250  0.22659  Biso   1.000  C
  H212     1.0000 0.56430  0.39281  0.24236  Biso   1.000  H
  C406     1.0000 0.39060  0.47415  0.22528  Biso   1.000  C
  C407     1.0000 0.39064  0.47424  0.22528  Biso   1.000  C
  H213     1.0000 0.33426  0.49513  0.24037  Biso   1.000  H
  H214     1.0000 0.33418  0.49513  0.24037  Biso   1.000  H
  C408     1.0000 0.52570  0.91627  0.22528  Biso   1.000  C
  C409     1.0000 0.52574  0.91635  0.22528  Biso   1.000  C
  C410     1.0000 0.52563  0.91627  0.22528  Biso   1.000  C
  C411     1.0000 0.52567  0.91635  0.22528  Biso   1.000  C
  H215     1.0000 0.50480  0.83901  0.24037  Biso   1.000  H
  C412     1.0000 0.58744  0.11196  0.22659  Biso   1.000  C
  C413     1.0000 0.58748  0.11204  0.22659  Biso   1.000  C
  C414     1.0000 0.58736  0.11196  0.22659  Biso   1.000  C
  H216     1.0000 0.60715  0.17147  0.24236  Biso   1.000  H
  H217     1.0000 0.60708  0.17147  0.24236  Biso   1.000  H
  H218     1.0000 0.52501  0.67666  0.20406  Biso   1.000  H
  N42      1.0000 0.59880  0.58381  0.20461  Biso   1.000  N
  H219     1.0000 0.52505  0.67675  0.20406  Biso   1.000  H
  H220     1.0000 0.52494  0.67666  0.20406  Biso   1.000  H
  H221     1.0000 0.70361  0.52403  0.20477  Biso   1.000  H
  H222     1.0000 0.32317  0.84822  0.20406  Biso   1.000  H
  H223     1.0000 0.32324  0.84822  0.20406  Biso   1.000  H
  N43      1.0000 0.41616  0.01501  0.20461  Biso   1.000  N
  H224     1.0000 0.47592  0.17957  0.20477  Biso   1.000  H
  C415     1.0000 0.46246  0.44405  0.21969  Biso   1.000  C
  C416     1.0000 0.46251  0.44414  0.21969  Biso   1.000  C
  H225     1.0000 0.57208  0.38991  0.22316  Biso   1.000  H
  H226     1.0000 0.57215  0.38991  0.22316  Biso   1.000  H
  H227     1.0000 0.34629  0.49513  0.22096  Biso   1.000  H
  H228     1.0000 0.34637  0.49513  0.22096  Biso   1.000  H
  C417     1.0000 0.55584  0.01833  0.21969  Biso   1.000  C
  C418     1.0000 0.55588  0.01842  0.21969  Biso   1.000  C
  C419     1.0000 0.55576  0.01833  0.21969  Biso   1.000  C
  C420     1.0000 0.55580  0.01842  0.21969  Biso   1.000  C
  H229     1.0000 0.50480  0.85112  0.22096  Biso   1.000  H
  H230     1.0000 0.60997  0.18213  0.22316  Biso   1.000  H
  H231     1.0000 0.61009  0.18222  0.22316  Biso   1.000  H
  H232     1.0000 0.61001  0.18222  0.22316  Biso   1.000  H
  B22      1.0000 0.48122  0.45616  0.20647  Biso   1.000  B
  B23      1.0000 0.48126  0.45625  0.20647  Biso   1.000  B
  B24      1.0000 0.48114  0.45616  0.20647  Biso   1.000  B
  B25      1.0000 0.48119  0.45625  0.20647  Biso   1.000  B
  B26      1.0000 0.54373  0.02498  0.20647  Biso   1.000  B
  O39      1.0000 0.50968  0.37558  0.20110  Biso   1.000  O
  O40      1.0000 0.39197  0.45667  0.19954  Biso   1.000  O
  O41      1.0000 0.50972  0.37567  0.20110  Biso   1.000  O
  O42      1.0000 0.39202  0.45676  0.19954  Biso   1.000  O
  O43      1.0000 0.54321  0.93520  0.19954  Biso   1.000  O
  O44      1.0000 0.54314  0.93520  0.19954  Biso   1.000  O
  O45      1.0000 0.62432  0.13404  0.20110  Biso   1.000  O
  O46      1.0000 0.62437  0.13413  0.20110  Biso   1.000  O
  O47      1.0000 0.62425  0.13404  0.20110  Biso   1.000  O
  C421     1.0000 0.47047  0.36569  0.19032  Biso   1.000  C
  C422     1.0000 0.47059  0.36578  0.19032  Biso   1.000  C
  C423     1.0000 0.47051  0.36578  0.19032  Biso   1.000  C
  C424     1.0000 0.39913  0.41191  0.18945  Biso   1.000  C
  C425     1.0000 0.39906  0.41191  0.18945  Biso   1.000  C
  C426     1.0000 0.58797  0.98704  0.18945  Biso   1.000  C
  C427     1.0000 0.58801  0.98712  0.18945  Biso   1.000  C
  C428     1.0000 0.63422  0.10479  0.19032  Biso   1.000  C
  C429     1.0000 0.49379  0.31811  0.18123  Biso   1.000  C
  C430     1.0000 0.34813  0.40960  0.17942  Biso   1.000  C
  C431     1.0000 0.34806  0.40960  0.17942  Biso   1.000  C
  C432     1.0000 0.59028  0.93835  0.17942  Biso   1.000  C
  C433     1.0000 0.59032  0.93844  0.17942  Biso   1.000  C
  C434     1.0000 0.59021  0.93835  0.17942  Biso   1.000  C
  C435     1.0000 0.68183  0.17565  0.18123  Biso   1.000  C
  C436     1.0000 0.68187  0.17574  0.18123  Biso   1.000  C
  C437     1.0000 0.68176  0.17565  0.18123  Biso   1.000  C
  C438     1.0000 0.44652  0.31956  0.17094  Biso   1.000  C
  H233     1.0000 0.53999  0.28571  0.18197  Biso   1.000  H
  C439     1.0000 0.44656  0.31965  0.17094  Biso   1.000  C
  C440     1.0000 0.44644  0.31956  0.17094  Biso   1.000  C
  C441     1.0000 0.44649  0.31965  0.17094  Biso   1.000  C
  H234     1.0000 0.29834  0.43791  0.17887  Biso   1.000  H
  C442     1.0000 0.37350  0.36271  0.17007  Biso   1.000  C
  H235     1.0000 0.29827  0.43791  0.17887  Biso   1.000  H
  H236     1.0000 0.56193  0.86025  0.17887  Biso   1.000  H
  H237     1.0000 0.56198  0.86033  0.17887  Biso   1.000  H
  C443     1.0000 0.63718  0.01074  0.17007  Biso   1.000  C
  C444     1.0000 0.63723  0.01083  0.17007  Biso   1.000  C
  C445     1.0000 0.68034  0.12688  0.17094  Biso   1.000  C
  H238     1.0000 0.71420  0.25427  0.18197  Biso   1.000  H
  Cl43     1.0000 0.47935  0.26516  0.15916  Biso   1.000  Cl
  Cl44     1.0000 0.31210  0.36279  0.15721  Biso   1.000  Cl
  Cl45     1.0000 0.31203  0.36279  0.15721  Biso   1.000  Cl
  Cl46     1.0000 0.63712  0.94918  0.15721  Biso   1.000  Cl
  Cl47     1.0000 0.63705  0.94918  0.15721  Biso   1.000  Cl
  Cl48     1.0000 0.73473  0.21411  0.15916  Biso   1.000  Cl
  Cl49     1.0000 0.73477  0.21419  0.15916  Biso   1.000  Cl
  C446     1.0000 0.01075  0.63721  0.32994  Biso   1.000  C
  C447     1.0000 0.93853  0.59040  0.32057  Biso   1.000  C
  C448     1.0000 0.93849  0.59031  0.32057  Biso   1.000  C
  C449     1.0000 0.93841  0.59031  0.32057  Biso   1.000  C
  C450     1.0000 0.12691  0.68035  0.32906  Biso   1.000  C
  C451     1.0000 0.12684  0.68035  0.32906  Biso   1.000  C
  Cl50     1.0000 0.94931  0.63721  0.34279  Biso   1.000  Cl
  Cl51     1.0000 0.94927  0.63712  0.34279  Biso   1.000  Cl
  Cl52     1.0000 0.94919  0.63712  0.34279  Biso   1.000  Cl
  C452     1.0000 0.98722  0.58809  0.31056  Biso   1.000  C
  C453     1.0000 0.98718  0.58801  0.31056  Biso   1.000  C
  C454     1.0000 0.98711  0.58801  0.31056  Biso   1.000  C
  H239     1.0000 0.86043  0.56209  0.32113  Biso   1.000  H
  H240     1.0000 0.86038  0.56200  0.32113  Biso   1.000  H
  H241     1.0000 0.86031  0.56200  0.32113  Biso   1.000  H
  C455     1.0000 0.01079  0.63729  0.32994  Biso   1.000  C
  C456     1.0000 0.17564  0.68180  0.31877  Biso   1.000  C
  C457     1.0000 0.17568  0.68189  0.31877  Biso   1.000  C
  Cl53     1.0000 0.21415  0.73476  0.34084  Biso   1.000  Cl
  Cl54     1.0000 0.21419  0.73484  0.34084  Biso   1.000  Cl
  O48      1.0000 0.93526  0.54324  0.30047  Biso   1.000  O
  C458     1.0000 0.10474  0.63422  0.30969  Biso   1.000  C
  C459     1.0000 0.10481  0.63422  0.30969  Biso   1.000  C
  H242     1.0000 0.25424  0.71421  0.31803  Biso   1.000  H
  H243     1.0000 0.25428  0.71429  0.31803  Biso   1.000  H
  B27      1.0000 0.02502  0.54375  0.29352  Biso   1.000  B
  B28      1.0000 0.02494  0.54375  0.29352  Biso   1.000  B
  O49      1.0000 0.13405  0.62433  0.29889  Biso   1.000  O
  C460     1.0000 0.01837  0.55586  0.28030  Biso   1.000  C
  N44      1.0000 0.01495  0.41611  0.29538  Biso   1.000  N
  N45      1.0000 0.01499  0.41619  0.29538  Biso   1.000  N
  C461     1.0000 0.91640  0.52576  0.27473  Biso   1.000  C
  C462     1.0000 0.11198  0.58741  0.27342  Biso   1.000  C
  C463     1.0000 0.11202  0.58750  0.27342  Biso   1.000  C
  C464     1.0000 0.11190  0.58741  0.27342  Biso   1.000  C
  C465     1.0000 0.91475  0.31924  0.29586  Biso   1.000  C
  C466     1.0000 0.10951  0.40895  0.29544  Biso   1.000  C
  C467     1.0000 0.10944  0.40895  0.29544  Biso   1.000  C
  C468     1.0000 0.90902  0.52576  0.26301  Biso   1.000  C
  C469     1.0000 0.90895  0.52576  0.26301  Biso   1.000  C
  H244     1.0000 0.85112  0.50479  0.27903  Biso   1.000  H
  H245     1.0000 0.85124  0.50487  0.27903  Biso   1.000  H
  H246     1.0000 0.85117  0.50487  0.27903  Biso   1.000  H
  C470     1.0000 0.10599  0.58682  0.26183  Biso   1.000  C
  C471     1.0000 0.10603  0.58690  0.26183  Biso   1.000  C
  C472     1.0000 0.10592  0.58682  0.26183  Biso   1.000  C
  C473     1.0000 0.10596  0.58690  0.26183  Biso   1.000  C
  H247     1.0000 0.18213  0.61001  0.27683  Biso   1.000  H
  H248     1.0000 0.18224  0.61009  0.27683  Biso   1.000  H
  H249     1.0000 0.18217  0.61009  0.27683  Biso   1.000  H
  C474     1.0000 0.90637  0.21445  0.29627  Biso   1.000  C
  H250     1.0000 0.84830  0.32325  0.29593  Biso   1.000  H
  H251     1.0000 0.84823  0.32325  0.29593  Biso   1.000  H
  H252     1.0000 0.17953  0.47588  0.29523  Biso   1.000  H
  C475     1.0000 0.10785  0.30756  0.29584  Biso   1.000  C
  H253     1.0000 0.17957  0.47597  0.29523  Biso   1.000  H
  C476     1.0000 0.10792  0.30756  0.29584  Biso   1.000  C
  C477     1.0000 0.00416  0.55654  0.25619  Biso   1.000  C
  H254     1.0000 0.83909  0.50479  0.25964  Biso   1.000  H
  H255     1.0000 0.83913  0.50487  0.25964  Biso   1.000  H
  H256     1.0000 0.83901  0.50479  0.25964  Biso   1.000  H
  H257     1.0000 0.83906  0.50487  0.25964  Biso   1.000  H
  H258     1.0000 0.17145  0.60711  0.25763  Biso   1.000  H
  H259     1.0000 0.17149  0.60719  0.25763  Biso   1.000  H
  H260     1.0000 0.83528  0.14862  0.29653  Biso   1.000  H
  H261     1.0000 0.83532  0.14871  0.29653  Biso   1.000  H
  C478     1.0000 0.00494  0.20763  0.29625  Biso   1.000  C
  C479     1.0000 0.00501  0.20763  0.29625  Biso   1.000  C
  H262     1.0000 0.17576  0.30603  0.29583  Biso   1.000  H
  C480     1.0000 0.99587  0.55237  0.24381  Biso   1.000  C
  C481     1.0000 0.99580  0.55237  0.24381  Biso   1.000  C
  C482     1.0000 0.00134  0.09661  0.29647  Biso   1.000  C
  C483     1.0000 0.00138  0.09669  0.29647  Biso   1.000  C
  C484     1.0000 0.89401  0.48083  0.23818  Biso   1.000  C
  C485     1.0000 0.89405  0.48091  0.23818  Biso   1.000  C
  C486     1.0000 0.09105  0.61674  0.23698  Biso   1.000  C
  C487     1.0000 0.09109  0.61683  0.23698  Biso   1.000  C
  C488     1.0000 0.09097  0.61674  0.23698  Biso   1.000  C
  N46      1.0000 0.90007  0.00188  0.29648  Biso   1.000  N
  N47      1.0000 0.10173  0.09993  0.29648  Biso   1.000  N
  N48      1.0000 0.10181  0.09993  0.29648  Biso   1.000  N
  C489     1.0000 0.88800  0.47545  0.22659  Biso   1.000  C
  H263     1.0000 0.82851  0.43563  0.24236  Biso   1.000  H
  H264     1.0000 0.82855  0.43572  0.24236  Biso   1.000  H
  C490     1.0000 0.88807  0.47545  0.22659  Biso   1.000  C
  H265     1.0000 0.16098  0.66577  0.24037  Biso   1.000  H
  C491     1.0000 0.08365  0.60933  0.22528  Biso   1.000  C
  C492     1.0000 0.08369  0.60941  0.22528  Biso   1.000  C
  H266     1.0000 0.16090  0.66577  0.24037  Biso   1.000  H
  C493     1.0000 0.08357  0.60933  0.22528  Biso   1.000  C
  C494     1.0000 0.08362  0.60941  0.22528  Biso   1.000  C
  C495     1.0000 0.90330  0.90467  0.29647  Biso   1.000  C
  C496     1.0000 0.90338  0.90467  0.29647  Biso   1.000  C
  C497     1.0000 0.09520  0.99855  0.29647  Biso   1.000  C
  H267     1.0000 0.81784  0.42788  0.22316  Biso   1.000  H
  C498     1.0000 0.98162  0.53744  0.21969  Biso   1.000  C
  C499     1.0000 0.98166  0.53753  0.21969  Biso   1.000  C
  H268     1.0000 0.14887  0.65367  0.22096  Biso   1.000  H
  H269     1.0000 0.14879  0.65367  0.22096  Biso   1.000  H
  N49      1.0000 0.99813  0.89819  0.29648  Biso   1.000  N
  C500     1.0000 0.79235  0.79723  0.29625  Biso   1.000  C
  C501     1.0000 0.79240  0.79732  0.29625  Biso   1.000  C
  C502     1.0000 0.79228  0.79723  0.29625  Biso   1.000  C
  C503     1.0000 0.79232  0.79732  0.29625  Biso   1.000  C
  C504     1.0000 0.20262  0.99497  0.29625  Biso   1.000  C
  B29      1.0000 0.97501  0.51877  0.20647  Biso   1.000  B
  B30      1.0000 0.97508  0.51877  0.20647  Biso   1.000  B
  C505     1.0000 0.78552  0.69184  0.29627  Biso   1.000  C
  C506     1.0000 0.69238  0.80022  0.29584  Biso   1.000  C
  C507     1.0000 0.78556  0.69193  0.29627  Biso   1.000  C
  C508     1.0000 0.69250  0.80030  0.29584  Biso   1.000  C
  C509     1.0000 0.69243  0.80030  0.29584  Biso   1.000  C
  C510     1.0000 0.19961  0.89205  0.29584  Biso   1.000  C
  C511     1.0000 0.30807  0.09362  0.29627  Biso   1.000  C
  C512     1.0000 0.30812  0.09371  0.29627  Biso   1.000  C
  C513     1.0000 0.30800  0.09362  0.29627  Biso   1.000  C
  O50      1.0000 0.86596  0.49029  0.20110  Biso   1.000  O
  N50      1.0000 0.98504  0.40119  0.20461  Biso   1.000  N
  O51      1.0000 0.06473  0.60796  0.19954  Biso   1.000  O
  H270     1.0000 0.85133  0.68655  0.29653  Biso   1.000  H
  C514     1.0000 0.68077  0.59549  0.29586  Biso   1.000  C
  C515     1.0000 0.68070  0.59549  0.29586  Biso   1.000  C
  C516     1.0000 0.59103  0.70045  0.29544  Biso   1.000  C
  H271     1.0000 0.69393  0.86963  0.29583  Biso   1.000  H
  H272     1.0000 0.69397  0.86971  0.29583  Biso   1.000  H
  C517     1.0000 0.29937  0.89043  0.29544  Biso   1.000  C
  H273     1.0000 0.13022  0.82418  0.29583  Biso   1.000  H
  C518     1.0000 0.29949  0.89052  0.29544  Biso   1.000  C
  C519     1.0000 0.29942  0.89052  0.29544  Biso   1.000  C
  H274     1.0000 0.31335  0.16474  0.29653  Biso   1.000  H
  C520     1.0000 0.40447  0.08527  0.29586  Biso   1.000  C
  C521     1.0000 0.89520  0.52943  0.19032  Biso   1.000  C
  C522     1.0000 0.89524  0.52951  0.19032  Biso   1.000  C
  C523     1.0000 0.89054  0.29946  0.20455  Biso   1.000  C
  C524     1.0000 0.08524  0.40443  0.20414  Biso   1.000  C
  C525     1.0000 0.08529  0.40451  0.20414  Biso   1.000  C
  C526     1.0000 0.08517  0.40443  0.20414  Biso   1.000  C
  C527     1.0000 0.08521  0.40451  0.20414  Biso   1.000  C
  C528     1.0000 0.01282  0.60088  0.18945  Biso   1.000  C
  C529     1.0000 0.01289  0.60088  0.18945  Biso   1.000  C
  H275     1.0000 0.67675  0.52497  0.29593  Biso   1.000  H
  N51      1.0000 0.58381  0.59873  0.29538  Biso   1.000  N
  N52      1.0000 0.58386  0.59881  0.29538  Biso   1.000  N
  H276     1.0000 0.67668  0.52497  0.29593  Biso   1.000  H
  H277     1.0000 0.52404  0.70352  0.29523  Biso   1.000  H
  H278     1.0000 0.52408  0.70361  0.29523  Biso   1.000  H
  H279     1.0000 0.52397  0.70352  0.29523  Biso   1.000  H
  N53      1.0000 0.40111  0.98491  0.29538  Biso   1.000  N
  H280     1.0000 0.29630  0.82034  0.29523  Biso   1.000  H
  N54      1.0000 0.40115  0.98499  0.29538  Biso   1.000  N
  H281     1.0000 0.29634  0.82043  0.29523  Biso   1.000  H
  H282     1.0000 0.47490  0.15169  0.29593  Biso   1.000  H
  H283     1.0000 0.47502  0.15178  0.29593  Biso   1.000  H
  H284     1.0000 0.47494  0.15178  0.29593  Biso   1.000  H
  C530     1.0000 0.82434  0.50615  0.18123  Biso   1.000  C
  C531     1.0000 0.82438  0.50624  0.18123  Biso   1.000  C
  H285     1.0000 0.82047  0.29639  0.20477  Biso   1.000  H
  C532     1.0000 0.89212  0.19970  0.20416  Biso   1.000  C
  C533     1.0000 0.89220  0.19970  0.20416  Biso   1.000  C
  H286     1.0000 0.82040  0.29639  0.20477  Biso   1.000  H
  C534     1.0000 0.09363  0.30807  0.20373  Biso   1.000  C
  H287     1.0000 0.15174  0.47494  0.20406  Biso   1.000  H
  H288     1.0000 0.15178  0.47503  0.20406  Biso   1.000  H
  H289     1.0000 0.15166  0.47494  0.20406  Biso   1.000  H
  C535     1.0000 0.06157  0.65187  0.17942  Biso   1.000  C
  C536     1.0000 0.06150  0.65187  0.17942  Biso   1.000  C
  B31      1.0000 0.45620  0.48114  0.29352  Biso   1.000  B
  B32      1.0000 0.45631  0.48123  0.29352  Biso   1.000  B
  B33      1.0000 0.45624  0.48123  0.29352  Biso   1.000  B
  B34      1.0000 0.51870  0.97493  0.29352  Biso   1.000  B
  B35      1.0000 0.51874  0.97502  0.29352  Biso   1.000  B
  C537     1.0000 0.87318  0.55348  0.17094  Biso   1.000  C
  H290     1.0000 0.74570  0.45994  0.18197  Biso   1.000  H
  C538     1.0000 0.87310  0.55348  0.17094  Biso   1.000  C
  H291     1.0000 0.74581  0.46002  0.18197  Biso   1.000  H
  H292     1.0000 0.74574  0.46002  0.18197  Biso   1.000  H
  C539     1.0000 0.99508  0.20268  0.20375  Biso   1.000  C
  H293     1.0000 0.82426  0.13029  0.20417  Biso   1.000  H
  C540     1.0000 0.99501  0.20268  0.20375  Biso   1.000  C
  H294     1.0000 0.16473  0.31336  0.20346  Biso   1.000  H
  C541     1.0000 0.98920  0.62646  0.17007  Biso   1.000  C
  C542     1.0000 0.98928  0.62646  0.17007  Biso   1.000  C
  H295     1.0000 0.13964  0.70167  0.17887  Biso   1.000  H
  C543     1.0000 0.44413  0.46247  0.28030  Biso   1.000  C
  O52      1.0000 0.37562  0.50962  0.29889  Biso   1.000  O
  O53      1.0000 0.45672  0.39195  0.30047  Biso   1.000  O
  O54      1.0000 0.37566  0.50971  0.29889  Biso   1.000  O
  O55      1.0000 0.45676  0.39204  0.30047  Biso   1.000  O
  C544     1.0000 0.53746  0.98158  0.28030  Biso   1.000  C
  O56      1.0000 0.49024  0.86587  0.29889  Biso   1.000  O
  C545     1.0000 0.53739  0.98158  0.28030  Biso   1.000  C
  O57      1.0000 0.49017  0.86587  0.29889  Biso   1.000  O
  O58      1.0000 0.60798  0.06472  0.30047  Biso   1.000  O
  O59      1.0000 0.60802  0.06480  0.30047  Biso   1.000  O
  O60      1.0000 0.60790  0.06472  0.30047  Biso   1.000  O
  O61      1.0000 0.60794  0.06480  0.30047  Biso   1.000  O
  Cl55     1.0000 0.78587  0.52065  0.15916  Biso   1.000  Cl
  C546     1.0000 0.99859  0.09524  0.20353  Biso   1.000  C
  C547     1.0000 0.99871  0.09533  0.20353  Biso   1.000  C
  C548     1.0000 0.99863  0.09533  0.20353  Biso   1.000  C
  Cl56     1.0000 0.05077  0.68786  0.15721  Biso   1.000  Cl
  Cl57     1.0000 0.05081  0.68794  0.15721  Biso   1.000  Cl
  Cl58     1.0000 0.05069  0.68786  0.15721  Biso   1.000  Cl
  Cl59     1.0000 0.05074  0.68794  0.15721  Biso   1.000  Cl
  C549     1.0000 0.41250  0.52446  0.27342  Biso   1.000  C
  C550     1.0000 0.47428  0.39059  0.27473  Biso   1.000  C
  C551     1.0000 0.41258  0.52446  0.27342  Biso   1.000  C
  C552     1.0000 0.47420  0.39059  0.27473  Biso   1.000  C
  C553     1.0000 0.36573  0.47049  0.30969  Biso   1.000  C
  C554     1.0000 0.41189  0.39903  0.31056  Biso   1.000  C
  C555     1.0000 0.41201  0.39912  0.31056  Biso   1.000  C
  C556     1.0000 0.41193  0.39912  0.31056  Biso   1.000  C
  C557     1.0000 0.47544  0.88796  0.27342  Biso   1.000  C
  C558     1.0000 0.47536  0.88796  0.27342  Biso   1.000  C
  C559     1.0000 0.60939  0.08365  0.27473  Biso   1.000  C
  C560     1.0000 0.60932  0.08365  0.27473  Biso   1.000  C
  C561     1.0000 0.52938  0.89512  0.30969  Biso   1.000  C
  C562     1.0000 0.52942  0.89521  0.30969  Biso   1.000  C
  C563     1.0000 0.60088  0.01288  0.31056  Biso   1.000  C
  N55      1.0000 0.89815  0.99804  0.20351  Biso   1.000  N
  N56      1.0000 0.89819  0.99812  0.20351  Biso   1.000  N
  N57      1.0000 0.09990  0.10172  0.20351  Biso   1.000  N
  N58      1.0000 0.09994  0.10181  0.20351  Biso   1.000  N
  H296     1.0000 0.38992  0.57204  0.27683  Biso   1.000  H
  C564     1.0000 0.41314  0.51909  0.26183  Biso   1.000  C
  H297     1.0000 0.38996  0.57212  0.27683  Biso   1.000  H
  C565     1.0000 0.47426  0.38317  0.26301  Biso   1.000  C
  H298     1.0000 0.49516  0.34625  0.27903  Biso   1.000  H
  H299     1.0000 0.49520  0.34633  0.27903  Biso   1.000  H
  C566     1.0000 0.47419  0.38317  0.26301  Biso   1.000  C
  H300     1.0000 0.49509  0.34625  0.27903  Biso   1.000  H
  H301     1.0000 0.49513  0.34633  0.27903  Biso   1.000  H
  C567     1.0000 0.31814  0.49376  0.31877  Biso   1.000  C
  C568     1.0000 0.40966  0.34804  0.32057  Biso   1.000  C
  C569     1.0000 0.40970  0.34813  0.32057  Biso   1.000  C
  C570     1.0000 0.40958  0.34804  0.32057  Biso   1.000  C
  C571     1.0000 0.40963  0.34813  0.32057  Biso   1.000  C
  H302     1.0000 0.42780  0.81778  0.27683  Biso   1.000  H
  C572     1.0000 0.48078  0.89393  0.26183  Biso   1.000  C
  H303     1.0000 0.42787  0.81778  0.27683  Biso   1.000  H
  C573     1.0000 0.48083  0.89401  0.26183  Biso   1.000  C
  C574     1.0000 0.61679  0.09107  0.26301  Biso   1.000  C
  H304     1.0000 0.65363  0.14879  0.27903  Biso   1.000  H
  H305     1.0000 0.65367  0.14888  0.27903  Biso   1.000  H
  C575     1.0000 0.61672  0.09107  0.26301  Biso   1.000  C
  C576     1.0000 0.50614  0.82426  0.31877  Biso   1.000  C
  C577     1.0000 0.50606  0.82426  0.31877  Biso   1.000  C
  C578     1.0000 0.65189  0.06156  0.32057  Biso   1.000  C
  C579     1.0000 0.65181  0.06156  0.32057  Biso   1.000  C
  C580     1.0000 0.90469  0.90331  0.20353  Biso   1.000  C
  C581     1.0000 0.09661  0.00136  0.20353  Biso   1.000  C
  C582     1.0000 0.44346  0.44755  0.25619  Biso   1.000  C
  C583     1.0000 0.44350  0.44763  0.25619  Biso   1.000  C
  C584     1.0000 0.44339  0.44755  0.25619  Biso   1.000  C
  C585     1.0000 0.44343  0.44763  0.25619  Biso   1.000  C
  H306     1.0000 0.39283  0.56428  0.25763  Biso   1.000  H
  H307     1.0000 0.49516  0.33414  0.25964  Biso   1.000  H
  H308     1.0000 0.49520  0.33423  0.25964  Biso   1.000  H
  H309     1.0000 0.49509  0.33414  0.25964  Biso   1.000  H
  H310     1.0000 0.49513  0.33423  0.25964  Biso   1.000  H
  C586     1.0000 0.31966  0.44644  0.32906  Biso   1.000  C
  H311     1.0000 0.28572  0.53998  0.31803  Biso   1.000  H
  C587     1.0000 0.31970  0.44652  0.32906  Biso   1.000  C
  H312     1.0000 0.28579  0.53998  0.31803  Biso   1.000  H
  C588     1.0000 0.31959  0.44644  0.32906  Biso   1.000  C
  C589     1.0000 0.31963  0.44652  0.32906  Biso   1.000  C
  H313     1.0000 0.43793  0.29824  0.32113  Biso   1.000  H
  C590     1.0000 0.36270  0.37345  0.32994  Biso   1.000  C
  H314     1.0000 0.43797  0.29833  0.32113  Biso   1.000  H
  C591     1.0000 0.36281  0.37354  0.32994  Biso   1.000  C
  C592     1.0000 0.36274  0.37354  0.32994  Biso   1.000  C
  C593     1.0000 0.55229  0.99574  0.25619  Biso   1.000  C
  C594     1.0000 0.55233  0.99582  0.25619  Biso   1.000  C
  H315     1.0000 0.43564  0.82844  0.25763  Biso   1.000  H
  H316     1.0000 0.43568  0.82853  0.25763  Biso   1.000  H
  H317     1.0000 0.43556  0.82844  0.25763  Biso   1.000  H
  H318     1.0000 0.43560  0.82853  0.25763  Biso   1.000  H
  H319     1.0000 0.66574  0.16090  0.25964  Biso   1.000  H
  H320     1.0000 0.66578  0.16099  0.25964  Biso   1.000  H
  C595     1.0000 0.55341  0.87304  0.32906  Biso   1.000  C
  H321     1.0000 0.45989  0.74565  0.31803  Biso   1.000  H
  C596     1.0000 0.55346  0.87312  0.32906  Biso   1.000  C
  H322     1.0000 0.45993  0.74573  0.31803  Biso   1.000  H
  C597     1.0000 0.62640  0.98917  0.32994  Biso   1.000  C
  H323     1.0000 0.70165  0.13967  0.32113  Biso   1.000  H
  C598     1.0000 0.79727  0.79229  0.20375  Biso   1.000  C
  C599     1.0000 0.79734  0.79229  0.20375  Biso   1.000  C
  N59      1.0000 0.00176  0.89998  0.20351  Biso   1.000  N
  N60      1.0000 0.00183  0.89998  0.20351  Biso   1.000  N
  C600     1.0000 0.20761  0.00495  0.20375  Biso   1.000  C
  C601     1.0000 0.20765  0.00503  0.20375  Biso   1.000  C
  C602     1.0000 0.44757  0.44337  0.24381  Biso   1.000  C
  C603     1.0000 0.44762  0.44346  0.24381  Biso   1.000  C
  Cl60     1.0000 0.26518  0.47927  0.34084  Biso   1.000  Cl
  Cl61     1.0000 0.26523  0.47935  0.34084  Biso   1.000  Cl
  Cl62     1.0000 0.36287  0.31206  0.34279  Biso   1.000  Cl
  Cl63     1.0000 0.36279  0.31206  0.34279  Biso   1.000  Cl
  C604     1.0000 0.55651  0.00418  0.24381  Biso   1.000  C
  Cl64     1.0000 0.52058  0.78581  0.34084  Biso   1.000  Cl
  Cl65     1.0000 0.68790  0.05073  0.34279  Biso   1.000  Cl
  Cl66     1.0000 0.68794  0.05082  0.34279  Biso   1.000  Cl
  Cl67     1.0000 0.68782  0.05073  0.34279  Biso   1.000  Cl
  C605     1.0000 0.69188  0.78547  0.20373  Biso   1.000  C
  C606     1.0000 0.80025  0.69235  0.20416  Biso   1.000  C
  C607     1.0000 0.69192  0.78555  0.20373  Biso   1.000  C
  C608     1.0000 0.80036  0.69244  0.20416  Biso   1.000  C
  C609     1.0000 0.80029  0.69244  0.20416  Biso   1.000  C
  C610     1.0000 0.21441  0.90629  0.20373  Biso   1.000  C
  C611     1.0000 0.21433  0.90629  0.20373  Biso   1.000  C
  C612     1.0000 0.30751  0.10786  0.20416  Biso   1.000  C
  C613     1.0000 0.51913  0.41310  0.23818  Biso   1.000  C
  C614     1.0000 0.51906  0.41310  0.23818  Biso   1.000  C
  C615     1.0000 0.38321  0.47415  0.23698  Biso   1.000  C
  C616     1.0000 0.38326  0.47424  0.23698  Biso   1.000  C
  C617     1.0000 0.38314  0.47415  0.23698  Biso   1.000  C
  C618     1.0000 0.38318  0.47424  0.23698  Biso   1.000  C
  C619     1.0000 0.52568  0.90885  0.23698  Biso   1.000  C
  C620     1.0000 0.52573  0.90893  0.23698  Biso   1.000  C
  C621     1.0000 0.52561  0.90885  0.23698  Biso   1.000  C
  C622     1.0000 0.58681  0.10599  0.23818  Biso   1.000  C
  H324     1.0000 0.68661  0.85129  0.20346  Biso   1.000  H
  C623     1.0000 0.59547  0.68067  0.20414  Biso   1.000  C
  C624     1.0000 0.59551  0.68076  0.20414  Biso   1.000  C
  C625     1.0000 0.70052  0.59097  0.20455  Biso   1.000  C
  H325     1.0000 0.86969  0.69389  0.20417  Biso   1.000  H
  C626     1.0000 0.70056  0.59105  0.20455  Biso   1.000  C
  C627     1.0000 0.70045  0.59097  0.20455  Biso   1.000  C
  C628     1.0000 0.70049  0.59105  0.20455  Biso   1.000  C
  H326     1.0000 0.14857  0.83518  0.20346  Biso   1.000  H
  C629     1.0000 0.31916  0.91465  0.20414  Biso   1.000  C
  H327     1.0000 0.14862  0.83526  0.20346  Biso   1.000  H
  C630     1.0000 0.31920  0.91473  0.20414  Biso   1.000  C
  C631     1.0000 0.40890  0.10948  0.20455  Biso   1.000  C
  H328     1.0000 0.30600  0.17574  0.20417  Biso   1.000  H
  C632     1.0000 0.40897  0.10948  0.20455  Biso   1.000  C
  H329     1.0000 0.30605  0.17582  0.20417  Biso   1.000  H
  C633     1.0000 0.52452  0.41250  0.22659  Biso   1.000  C
  C634     1.0000 0.52445  0.41250  0.22659  Biso   1.000  C
  H330     1.0000 0.56430  0.39281  0.24236  Biso   1.000  H
  C635     1.0000 0.39060  0.47415  0.22528  Biso   1.000  C
  C636     1.0000 0.39064  0.47424  0.22528  Biso   1.000  C
  H331     1.0000 0.33426  0.49513  0.24037  Biso   1.000  H
  H332     1.0000 0.33418  0.49513  0.24037  Biso   1.000  H
  C637     1.0000 0.52570  0.91627  0.22528  Biso   1.000  C
  C638     1.0000 0.52574  0.91635  0.22528  Biso   1.000  C
  C639     1.0000 0.52563  0.91627  0.22528  Biso   1.000  C
  C640     1.0000 0.52567  0.91635  0.22528  Biso   1.000  C
  H333     1.0000 0.50480  0.83901  0.24037  Biso   1.000  H
  C641     1.0000 0.58744  0.11196  0.22659  Biso   1.000  C
  C642     1.0000 0.58748  0.11204  0.22659  Biso   1.000  C
  C643     1.0000 0.58736  0.11196  0.22659  Biso   1.000  C
  H334     1.0000 0.60715  0.17147  0.24236  Biso   1.000  H
  H335     1.0000 0.60708  0.17147  0.24236  Biso   1.000  H
  H336     1.0000 0.52501  0.67666  0.20406  Biso   1.000  H
  N61      1.0000 0.59880  0.58381  0.20461  Biso   1.000  N
  H337     1.0000 0.52505  0.67675  0.20406  Biso   1.000  H
  H338     1.0000 0.52494  0.67666  0.20406  Biso   1.000  H
  H339     1.0000 0.70361  0.52403  0.20477  Biso   1.000  H
  H340     1.0000 0.32317  0.84822  0.20406  Biso   1.000  H
  H341     1.0000 0.32324  0.84822  0.20406  Biso   1.000  H
  N62      1.0000 0.41616  0.01501  0.20461  Biso   1.000  N
  H342     1.0000 0.47592  0.17957  0.20477  Biso   1.000  H
  C644     1.0000 0.46246  0.44405  0.21969  Biso   1.000  C
  C645     1.0000 0.46251  0.44414  0.21969  Biso   1.000  C
  H343     1.0000 0.57208  0.38991  0.22316  Biso   1.000  H
  H344     1.0000 0.57215  0.38991  0.22316  Biso   1.000  H
  H345     1.0000 0.34629  0.49513  0.22096  Biso   1.000  H
  H346     1.0000 0.34637  0.49513  0.22096  Biso   1.000  H
  C646     1.0000 0.55584  0.01833  0.21969  Biso   1.000  C
  C647     1.0000 0.55588  0.01842  0.21969  Biso   1.000  C
  C648     1.0000 0.55576  0.01833  0.21969  Biso   1.000  C
  C649     1.0000 0.55580  0.01842  0.21969  Biso   1.000  C
  H347     1.0000 0.50480  0.85112  0.22096  Biso   1.000  H
  H348     1.0000 0.60997  0.18213  0.22316  Biso   1.000  H
  H349     1.0000 0.61009  0.18222  0.22316  Biso   1.000  H
  H350     1.0000 0.61001  0.18222  0.22316  Biso   1.000  H
  B36      1.0000 0.48122  0.45616  0.20647  Biso   1.000  B
  B37      1.0000 0.48126  0.45625  0.20647  Biso   1.000  B
  B38      1.0000 0.48114  0.45616  0.20647  Biso   1.000  B
  B39      1.0000 0.48119  0.45625  0.20647  Biso   1.000  B
  B40      1.0000 0.54373  0.02498  0.20647  Biso   1.000  B
  O62      1.0000 0.50968  0.37558  0.20110  Biso   1.000  O
  O63      1.0000 0.39197  0.45667  0.19954  Biso   1.000  O
  O64      1.0000 0.50972  0.37567  0.20110  Biso   1.000  O
  O65      1.0000 0.39202  0.45676  0.19954  Biso   1.000  O
  O66      1.0000 0.54321  0.93520  0.19954  Biso   1.000  O
  O67      1.0000 0.54314  0.93520  0.19954  Biso   1.000  O
  O68      1.0000 0.62432  0.13404  0.20110  Biso   1.000  O
  O69      1.0000 0.62437  0.13413  0.20110  Biso   1.000  O
  O70      1.0000 0.62425  0.13404  0.20110  Biso   1.000  O
  C650     1.0000 0.47047  0.36569  0.19032  Biso   1.000  C
  C651     1.0000 0.47059  0.36578  0.19032  Biso   1.000  C
  C652     1.0000 0.47051  0.36578  0.19032  Biso   1.000  C
  C653     1.0000 0.39913  0.41191  0.18945  Biso   1.000  C
  C654     1.0000 0.39906  0.41191  0.18945  Biso   1.000  C
  C655     1.0000 0.58797  0.98704  0.18945  Biso   1.000  C
  C656     1.0000 0.58801  0.98712  0.18945  Biso   1.000  C
  C657     1.0000 0.63422  0.10479  0.19032  Biso   1.000  C
  C658     1.0000 0.49379  0.31811  0.18123  Biso   1.000  C
  C659     1.0000 0.34813  0.40960  0.17942  Biso   1.000  C
  C660     1.0000 0.34806  0.40960  0.17942  Biso   1.000  C
  C661     1.0000 0.59028  0.93835  0.17942  Biso   1.000  C
  C662     1.0000 0.59032  0.93844  0.17942  Biso   1.000  C
  C663     1.0000 0.59021  0.93835  0.17942  Biso   1.000  C
  C664     1.0000 0.68183  0.17565  0.18123  Biso   1.000  C
  C665     1.0000 0.68187  0.17574  0.18123  Biso   1.000  C
  C666     1.0000 0.68176  0.17565  0.18123  Biso   1.000  C
  C667     1.0000 0.44652  0.31956  0.17094  Biso   1.000  C
  H351     1.0000 0.53999  0.28571  0.18197  Biso   1.000  H
  C668     1.0000 0.44656  0.31965  0.17094  Biso   1.000  C
  C669     1.0000 0.44644  0.31956  0.17094  Biso   1.000  C
  C670     1.0000 0.44649  0.31965  0.17094  Biso   1.000  C
  H352     1.0000 0.29834  0.43791  0.17887  Biso   1.000  H
  C671     1.0000 0.37350  0.36271  0.17007  Biso   1.000  C
  H353     1.0000 0.29827  0.43791  0.17887  Biso   1.000  H
  H354     1.0000 0.56193  0.86025  0.17887  Biso   1.000  H
  H355     1.0000 0.56198  0.86033  0.17887  Biso   1.000  H
  C672     1.0000 0.63718  0.01074  0.17007  Biso   1.000  C
  C673     1.0000 0.63723  0.01083  0.17007  Biso   1.000  C
  C674     1.0000 0.68034  0.12688  0.17094  Biso   1.000  C
  H356     1.0000 0.71420  0.25427  0.18197  Biso   1.000  H
  Cl68     1.0000 0.47935  0.26516  0.15916  Biso   1.000  Cl
  Cl69     1.0000 0.31210  0.36279  0.15721  Biso   1.000  Cl
  Cl70     1.0000 0.31203  0.36279  0.15721  Biso   1.000  Cl
  Cl71     1.0000 0.63712  0.94918  0.15721  Biso   1.000  Cl
  Cl72     1.0000 0.63705  0.94918  0.15721  Biso   1.000  Cl
  Cl73     1.0000 0.73473  0.21411  0.15916  Biso   1.000  Cl
  Cl74     1.0000 0.73477  0.21419  0.15916  Biso   1.000  Cl
  C675     1.0000 0.01075  0.63721  0.32994  Biso   1.000  C
  C676     1.0000 0.93849  0.59031  0.32057  Biso   1.000  C
  C677     1.0000 0.93853  0.59040  0.32057  Biso   1.000  C
  C678     1.0000 0.93841  0.59031  0.32057  Biso   1.000  C
  C679     1.0000 0.12691  0.68035  0.32906  Biso   1.000  C
  C680     1.0000 0.12684  0.68035  0.32906  Biso   1.000  C
  Cl75     1.0000 0.94927  0.63712  0.34279  Biso   1.000  Cl
  Cl76     1.0000 0.94931  0.63721  0.34279  Biso   1.000  Cl
  Cl77     1.0000 0.94919  0.63712  0.34279  Biso   1.000  Cl
  C681     1.0000 0.98718  0.58801  0.31056  Biso   1.000  C
  C682     1.0000 0.98722  0.58809  0.31056  Biso   1.000  C
  C683     1.0000 0.98711  0.58801  0.31056  Biso   1.000  C
  H357     1.0000 0.86038  0.56200  0.32113  Biso   1.000  H
  H358     1.0000 0.86043  0.56209  0.32113  Biso   1.000  H
  H359     1.0000 0.86031  0.56200  0.32113  Biso   1.000  H
  C684     1.0000 0.01079  0.63729  0.32994  Biso   1.000  C
  C685     1.0000 0.17564  0.68180  0.31877  Biso   1.000  C
  C686     1.0000 0.17568  0.68189  0.31877  Biso   1.000  C
  Cl78     1.0000 0.21415  0.73476  0.34084  Biso   1.000  Cl
  Cl79     1.0000 0.21419  0.73484  0.34084  Biso   1.000  Cl
  O71      1.0000 0.93526  0.54324  0.30047  Biso   1.000  O
  C687     1.0000 0.10474  0.63422  0.30969  Biso   1.000  C
  C688     1.0000 0.10481  0.63422  0.30969  Biso   1.000  C
  H360     1.0000 0.25424  0.71421  0.31803  Biso   1.000  H
  H361     1.0000 0.25428  0.71429  0.31803  Biso   1.000  H
  B41      1.0000 0.02502  0.54375  0.29352  Biso   1.000  B
  B42      1.0000 0.02494  0.54375  0.29352  Biso   1.000  B
  O72      1.0000 0.13405  0.62433  0.29889  Biso   1.000  O
  C689     1.0000 0.01837  0.55586  0.28030  Biso   1.000  C
  N63      1.0000 0.01495  0.41611  0.29538  Biso   1.000  N
  N64      1.0000 0.01499  0.41619  0.29538  Biso   1.000  N
  C690     1.0000 0.91640  0.52576  0.27473  Biso   1.000  C
  C691     1.0000 0.11198  0.58741  0.27342  Biso   1.000  C
  C692     1.0000 0.11202  0.58750  0.27342  Biso   1.000  C
  C693     1.0000 0.11190  0.58741  0.27342  Biso   1.000  C
  C694     1.0000 0.91475  0.31924  0.29586  Biso   1.000  C
  C695     1.0000 0.10951  0.40895  0.29544  Biso   1.000  C
  C696     1.0000 0.10944  0.40895  0.29544  Biso   1.000  C
  C697     1.0000 0.90902  0.52576  0.26301  Biso   1.000  C
  C698     1.0000 0.90895  0.52576  0.26301  Biso   1.000  C
  H362     1.0000 0.85112  0.50479  0.27903  Biso   1.000  H
  H363     1.0000 0.85124  0.50487  0.27903  Biso   1.000  H
  H364     1.0000 0.85117  0.50487  0.27903  Biso   1.000  H
  C699     1.0000 0.10599  0.58682  0.26183  Biso   1.000  C
  C700     1.0000 0.10603  0.58690  0.26183  Biso   1.000  C
  C701     1.0000 0.10592  0.58682  0.26183  Biso   1.000  C
  C702     1.0000 0.10596  0.58690  0.26183  Biso   1.000  C
  H365     1.0000 0.18213  0.61001  0.27683  Biso   1.000  H
  H366     1.0000 0.18224  0.61009  0.27683  Biso   1.000  H
  H367     1.0000 0.18217  0.61009  0.27683  Biso   1.000  H
  C703     1.0000 0.90637  0.21445  0.29627  Biso   1.000  C
  H368     1.0000 0.84830  0.32325  0.29593  Biso   1.000  H
  H369     1.0000 0.84823  0.32325  0.29593  Biso   1.000  H
  H370     1.0000 0.17953  0.47588  0.29523  Biso   1.000  H
  C704     1.0000 0.10785  0.30756  0.29584  Biso   1.000  C
  H371     1.0000 0.17957  0.47597  0.29523  Biso   1.000  H
  C705     1.0000 0.10792  0.30756  0.29584  Biso   1.000  C
  C706     1.0000 0.00416  0.55654  0.25619  Biso   1.000  C
  H372     1.0000 0.83909  0.50479  0.25964  Biso   1.000  H
  H373     1.0000 0.83913  0.50487  0.25964  Biso   1.000  H
  H374     1.0000 0.83901  0.50479  0.25964  Biso   1.000  H
  H375     1.0000 0.83906  0.50487  0.25964  Biso   1.000  H
  H376     1.0000 0.17145  0.60711  0.25763  Biso   1.000  H
  H377     1.0000 0.17149  0.60719  0.25763  Biso   1.000  H
  H378     1.0000 0.83528  0.14862  0.29653  Biso   1.000  H
  H379     1.0000 0.83532  0.14871  0.29653  Biso   1.000  H
  C707     1.0000 0.00494  0.20763  0.29625  Biso   1.000  C
  C708     1.0000 0.00501  0.20763  0.29625  Biso   1.000  C
  H380     1.0000 0.17576  0.30603  0.29583  Biso   1.000  H
  C709     1.0000 0.99587  0.55237  0.24381  Biso   1.000  C
  C710     1.0000 0.99580  0.55237  0.24381  Biso   1.000  C
  C711     1.0000 0.00134  0.09661  0.29647  Biso   1.000  C
  C712     1.0000 0.00138  0.09669  0.29647  Biso   1.000  C
  C713     1.0000 0.89401  0.48083  0.23818  Biso   1.000  C
  C714     1.0000 0.89405  0.48091  0.23818  Biso   1.000  C
  C715     1.0000 0.09105  0.61674  0.23698  Biso   1.000  C
  C716     1.0000 0.09109  0.61683  0.23698  Biso   1.000  C
  C717     1.0000 0.09097  0.61674  0.23698  Biso   1.000  C
  N65      1.0000 0.90007  0.00188  0.29648  Biso   1.000  N
  N66      1.0000 0.10173  0.09993  0.29648  Biso   1.000  N
  N67      1.0000 0.10181  0.09993  0.29648  Biso   1.000  N
  C718     1.0000 0.88800  0.47545  0.22659  Biso   1.000  C
  C719     1.0000 0.88807  0.47545  0.22659  Biso   1.000  C
  H381     1.0000 0.82851  0.43563  0.24236  Biso   1.000  H
  H382     1.0000 0.82855  0.43572  0.24236  Biso   1.000  H
  C720     1.0000 0.08365  0.60933  0.22528  Biso   1.000  C
  C721     1.0000 0.08369  0.60941  0.22528  Biso   1.000  C
  C722     1.0000 0.08357  0.60933  0.22528  Biso   1.000  C
  C723     1.0000 0.08362  0.60941  0.22528  Biso   1.000  C
  H383     1.0000 0.16098  0.66577  0.24037  Biso   1.000  H
  H384     1.0000 0.16090  0.66577  0.24037  Biso   1.000  H
  C724     1.0000 0.90330  0.90467  0.29647  Biso   1.000  C
  C725     1.0000 0.90338  0.90467  0.29647  Biso   1.000  C
  C726     1.0000 0.09520  0.99855  0.29647  Biso   1.000  C
  H385     1.0000 0.81784  0.42788  0.22316  Biso   1.000  H
  C727     1.0000 0.98162  0.53744  0.21969  Biso   1.000  C
  C728     1.0000 0.98166  0.53753  0.21969  Biso   1.000  C
  H386     1.0000 0.14887  0.65367  0.22096  Biso   1.000  H
  H387     1.0000 0.14879  0.65367  0.22096  Biso   1.000  H
  N68      1.0000 0.99813  0.89819  0.29648  Biso   1.000  N
  C729     1.0000 0.79235  0.79723  0.29625  Biso   1.000  C
  C730     1.0000 0.79240  0.79732  0.29625  Biso   1.000  C
  C731     1.0000 0.79228  0.79723  0.29625  Biso   1.000  C
  C732     1.0000 0.79232  0.79732  0.29625  Biso   1.000  C
  C733     1.0000 0.20262  0.99497  0.29625  Biso   1.000  C
  B43      1.0000 0.97501  0.51877  0.20647  Biso   1.000  B
  B44      1.0000 0.97508  0.51877  0.20647  Biso   1.000  B
  C734     1.0000 0.78552  0.69184  0.29627  Biso   1.000  C
  C735     1.0000 0.69238  0.80022  0.29584  Biso   1.000  C
  C736     1.0000 0.78556  0.69193  0.29627  Biso   1.000  C
  C737     1.0000 0.69250  0.80030  0.29584  Biso   1.000  C
  C738     1.0000 0.69243  0.80030  0.29584  Biso   1.000  C
  C739     1.0000 0.19961  0.89205  0.29584  Biso   1.000  C
  C740     1.0000 0.30807  0.09362  0.29627  Biso   1.000  C
  C741     1.0000 0.30812  0.09371  0.29627  Biso   1.000  C
  C742     1.0000 0.30800  0.09362  0.29627  Biso   1.000  C
  O73      1.0000 0.86596  0.49029  0.20110  Biso   1.000  O
  N69      1.0000 0.98504  0.40119  0.20461  Biso   1.000  N
  O74      1.0000 0.06473  0.60796  0.19954  Biso   1.000  O
  H388     1.0000 0.85133  0.68655  0.29653  Biso   1.000  H
  C743     1.0000 0.68077  0.59549  0.29586  Biso   1.000  C
  C744     1.0000 0.68070  0.59549  0.29586  Biso   1.000  C
  C745     1.0000 0.59103  0.70045  0.29544  Biso   1.000  C
  H389     1.0000 0.69393  0.86963  0.29583  Biso   1.000  H
  H390     1.0000 0.69397  0.86971  0.29583  Biso   1.000  H
  C746     1.0000 0.29937  0.89043  0.29544  Biso   1.000  C
  H391     1.0000 0.13022  0.82418  0.29583  Biso   1.000  H
  C747     1.0000 0.29949  0.89052  0.29544  Biso   1.000  C
  C748     1.0000 0.29942  0.89052  0.29544  Biso   1.000  C
  H392     1.0000 0.31335  0.16474  0.29653  Biso   1.000  H
  C749     1.0000 0.40447  0.08527  0.29586  Biso   1.000  C
  C750     1.0000 0.89520  0.52943  0.19032  Biso   1.000  C
  C751     1.0000 0.89524  0.52951  0.19032  Biso   1.000  C
  C752     1.0000 0.89054  0.29946  0.20455  Biso   1.000  C
  C753     1.0000 0.08524  0.40443  0.20414  Biso   1.000  C
  C754     1.0000 0.08529  0.40451  0.20414  Biso   1.000  C
  C755     1.0000 0.08517  0.40443  0.20414  Biso   1.000  C
  C756     1.0000 0.08521  0.40451  0.20414  Biso   1.000  C
  C757     1.0000 0.01282  0.60088  0.18945  Biso   1.000  C
  C758     1.0000 0.01289  0.60088  0.18945  Biso   1.000  C
  H393     1.0000 0.67675  0.52497  0.29593  Biso   1.000  H
  N70      1.0000 0.58381  0.59873  0.29538  Biso   1.000  N
  N71      1.0000 0.58386  0.59881  0.29538  Biso   1.000  N
  H394     1.0000 0.67668  0.52497  0.29593  Biso   1.000  H
  H395     1.0000 0.52404  0.70352  0.29523  Biso   1.000  H
  H396     1.0000 0.52408  0.70361  0.29523  Biso   1.000  H
  H397     1.0000 0.52397  0.70352  0.29523  Biso   1.000  H
  N72      1.0000 0.40111  0.98491  0.29538  Biso   1.000  N
  H398     1.0000 0.29630  0.82034  0.29523  Biso   1.000  H
  N73      1.0000 0.40115  0.98499  0.29538  Biso   1.000  N
  H399     1.0000 0.29634  0.82043  0.29523  Biso   1.000  H
  H400     1.0000 0.47490  0.15169  0.29593  Biso   1.000  H
  H401     1.0000 0.47502  0.15178  0.29593  Biso   1.000  H
  H402     1.0000 0.47494  0.15178  0.29593  Biso   1.000  H
  C759     1.0000 0.82434  0.50615  0.18123  Biso   1.000  C
  C760     1.0000 0.82438  0.50624  0.18123  Biso   1.000  C
  H403     1.0000 0.82047  0.29639  0.20477  Biso   1.000  H
  C761     1.0000 0.89212  0.19970  0.20416  Biso   1.000  C
  C762     1.0000 0.89220  0.19970  0.20416  Biso   1.000  C
  H404     1.0000 0.82040  0.29639  0.20477  Biso   1.000  H
  C763     1.0000 0.09363  0.30807  0.20373  Biso   1.000  C
  H405     1.0000 0.15174  0.47494  0.20406  Biso   1.000  H
  H406     1.0000 0.15178  0.47503  0.20406  Biso   1.000  H
  H407     1.0000 0.15166  0.47494  0.20406  Biso   1.000  H
  C764     1.0000 0.06157  0.65187  0.17942  Biso   1.000  C
  C765     1.0000 0.06150  0.65187  0.17942  Biso   1.000  C
  B45      1.0000 0.45620  0.48114  0.29352  Biso   1.000  B
  B46      1.0000 0.45631  0.48123  0.29352  Biso   1.000  B
  B47      1.0000 0.45624  0.48123  0.29352  Biso   1.000  B
  B48      1.0000 0.51870  0.97493  0.29352  Biso   1.000  B
  B49      1.0000 0.51874  0.97502  0.29352  Biso   1.000  B
  C766     1.0000 0.87318  0.55348  0.17094  Biso   1.000  C
  H408     1.0000 0.74570  0.45994  0.18197  Biso   1.000  H
  H409     1.0000 0.74581  0.46002  0.18197  Biso   1.000  H
  C767     1.0000 0.87310  0.55348  0.17094  Biso   1.000  C
  H410     1.0000 0.74574  0.46002  0.18197  Biso   1.000  H
  H411     1.0000 0.82426  0.13029  0.20417  Biso   1.000  H
  C768     1.0000 0.99508  0.20268  0.20375  Biso   1.000  C
  C769     1.0000 0.99501  0.20268  0.20375  Biso   1.000  C
  H412     1.0000 0.16473  0.31336  0.20346  Biso   1.000  H
  C770     1.0000 0.98920  0.62646  0.17007  Biso   1.000  C
  C771     1.0000 0.98928  0.62646  0.17007  Biso   1.000  C
  H413     1.0000 0.13964  0.70167  0.17887  Biso   1.000  H
  C772     1.0000 0.44413  0.46247  0.28030  Biso   1.000  C
  O75      1.0000 0.37562  0.50962  0.29889  Biso   1.000  O
  O76      1.0000 0.45672  0.39195  0.30047  Biso   1.000  O
  O77      1.0000 0.37566  0.50971  0.29889  Biso   1.000  O
  O78      1.0000 0.45676  0.39204  0.30047  Biso   1.000  O
  C773     1.0000 0.53746  0.98158  0.28030  Biso   1.000  C
  O79      1.0000 0.49024  0.86587  0.29889  Biso   1.000  O
  C774     1.0000 0.53739  0.98158  0.28030  Biso   1.000  C
  O80      1.0000 0.49017  0.86587  0.29889  Biso   1.000  O
  O81      1.0000 0.60798  0.06472  0.30047  Biso   1.000  O
  O82      1.0000 0.60802  0.06480  0.30047  Biso   1.000  O
  O83      1.0000 0.60790  0.06472  0.30047  Biso   1.000  O
  O84      1.0000 0.60794  0.06480  0.30047  Biso   1.000  O
  Cl80     1.0000 0.78587  0.52065  0.15916  Biso   1.000  Cl
  C775     1.0000 0.99859  0.09524  0.20353  Biso   1.000  C
  C776     1.0000 0.99871  0.09533  0.20353  Biso   1.000  C
  C777     1.0000 0.99863  0.09533  0.20353  Biso   1.000  C
  Cl81     1.0000 0.05077  0.68786  0.15721  Biso   1.000  Cl
  Cl82     1.0000 0.05081  0.68794  0.15721  Biso   1.000  Cl
  Cl83     1.0000 0.05069  0.68786  0.15721  Biso   1.000  Cl
  Cl84     1.0000 0.05074  0.68794  0.15721  Biso   1.000  Cl
  C778     1.0000 0.41250  0.52446  0.27342  Biso   1.000  C
  C779     1.0000 0.41258  0.52446  0.27342  Biso   1.000  C
  C780     1.0000 0.47428  0.39059  0.27473  Biso   1.000  C
  C781     1.0000 0.47420  0.39059  0.27473  Biso   1.000  C
  C782     1.0000 0.36573  0.47049  0.30969  Biso   1.000  C
  C783     1.0000 0.41189  0.39903  0.31056  Biso   1.000  C
  C784     1.0000 0.41201  0.39912  0.31056  Biso   1.000  C
  C785     1.0000 0.41193  0.39912  0.31056  Biso   1.000  C
  C786     1.0000 0.47544  0.88796  0.27342  Biso   1.000  C
  C787     1.0000 0.47536  0.88796  0.27342  Biso   1.000  C
  C788     1.0000 0.60939  0.08365  0.27473  Biso   1.000  C
  C789     1.0000 0.60932  0.08365  0.27473  Biso   1.000  C
  C790     1.0000 0.52938  0.89512  0.30969  Biso   1.000  C
  C791     1.0000 0.52942  0.89521  0.30969  Biso   1.000  C
  C792     1.0000 0.60088  0.01288  0.31056  Biso   1.000  C
  N74      1.0000 0.89815  0.99804  0.20351  Biso   1.000  N
  N75      1.0000 0.89819  0.99812  0.20351  Biso   1.000  N
  N76      1.0000 0.09990  0.10172  0.20351  Biso   1.000  N
  N77      1.0000 0.09994  0.10181  0.20351  Biso   1.000  N
  C793     1.0000 0.41314  0.51909  0.26183  Biso   1.000  C
  H414     1.0000 0.38992  0.57204  0.27683  Biso   1.000  H
  H415     1.0000 0.38996  0.57212  0.27683  Biso   1.000  H
  C794     1.0000 0.47426  0.38317  0.26301  Biso   1.000  C
  C795     1.0000 0.47419  0.38317  0.26301  Biso   1.000  C
  H416     1.0000 0.49516  0.34625  0.27903  Biso   1.000  H
  H417     1.0000 0.49520  0.34633  0.27903  Biso   1.000  H
  H418     1.0000 0.49509  0.34625  0.27903  Biso   1.000  H
  H419     1.0000 0.49513  0.34633  0.27903  Biso   1.000  H
  C796     1.0000 0.31814  0.49376  0.31877  Biso   1.000  C
  C797     1.0000 0.40966  0.34804  0.32057  Biso   1.000  C
  C798     1.0000 0.40970  0.34813  0.32057  Biso   1.000  C
  C799     1.0000 0.40958  0.34804  0.32057  Biso   1.000  C
  C800     1.0000 0.40963  0.34813  0.32057  Biso   1.000  C
  C801     1.0000 0.48078  0.89393  0.26183  Biso   1.000  C
  C802     1.0000 0.48083  0.89401  0.26183  Biso   1.000  C
  H420     1.0000 0.42780  0.81778  0.27683  Biso   1.000  H
  H421     1.0000 0.42787  0.81778  0.27683  Biso   1.000  H
  C803     1.0000 0.61679  0.09107  0.26301  Biso   1.000  C
  C804     1.0000 0.61672  0.09107  0.26301  Biso   1.000  C
  H422     1.0000 0.65363  0.14879  0.27903  Biso   1.000  H
  H423     1.0000 0.65367  0.14888  0.27903  Biso   1.000  H
  C805     1.0000 0.50614  0.82426  0.31877  Biso   1.000  C
  C806     1.0000 0.50606  0.82426  0.31877  Biso   1.000  C
  C807     1.0000 0.65189  0.06156  0.32057  Biso   1.000  C
  C808     1.0000 0.65181  0.06156  0.32057  Biso   1.000  C
  C809     1.0000 0.90469  0.90331  0.20353  Biso   1.000  C
  C810     1.0000 0.09661  0.00136  0.20353  Biso   1.000  C
  C811     1.0000 0.44346  0.44755  0.25619  Biso   1.000  C
  C812     1.0000 0.44350  0.44763  0.25619  Biso   1.000  C
  C813     1.0000 0.44339  0.44755  0.25619  Biso   1.000  C
  C814     1.0000 0.44343  0.44763  0.25619  Biso   1.000  C
  H424     1.0000 0.39283  0.56428  0.25763  Biso   1.000  H
  H425     1.0000 0.49516  0.33414  0.25964  Biso   1.000  H
  H426     1.0000 0.49520  0.33423  0.25964  Biso   1.000  H
  H427     1.0000 0.49509  0.33414  0.25964  Biso   1.000  H
  H428     1.0000 0.49513  0.33423  0.25964  Biso   1.000  H
  C815     1.0000 0.31966  0.44644  0.32906  Biso   1.000  C
  H429     1.0000 0.28572  0.53998  0.31803  Biso   1.000  H
  C816     1.0000 0.31970  0.44652  0.32906  Biso   1.000  C
  H430     1.0000 0.28579  0.53998  0.31803  Biso   1.000  H
  C817     1.0000 0.31959  0.44644  0.32906  Biso   1.000  C
  C818     1.0000 0.31963  0.44652  0.32906  Biso   1.000  C
  H431     1.0000 0.43793  0.29824  0.32113  Biso   1.000  H
  C819     1.0000 0.36270  0.37345  0.32994  Biso   1.000  C
  H432     1.0000 0.43797  0.29833  0.32113  Biso   1.000  H
  C820     1.0000 0.36281  0.37354  0.32994  Biso   1.000  C
  C821     1.0000 0.36274  0.37354  0.32994  Biso   1.000  C
  C822     1.0000 0.55229  0.99574  0.25619  Biso   1.000  C
  C823     1.0000 0.55233  0.99582  0.25619  Biso   1.000  C
  H433     1.0000 0.43564  0.82844  0.25763  Biso   1.000  H
  H434     1.0000 0.43568  0.82853  0.25763  Biso   1.000  H
  H435     1.0000 0.43556  0.82844  0.25763  Biso   1.000  H
  H436     1.0000 0.43560  0.82853  0.25763  Biso   1.000  H
  H437     1.0000 0.66574  0.16090  0.25964  Biso   1.000  H
  H438     1.0000 0.66578  0.16099  0.25964  Biso   1.000  H
  C824     1.0000 0.55341  0.87304  0.32906  Biso   1.000  C
  H439     1.0000 0.45989  0.74565  0.31803  Biso   1.000  H
  C825     1.0000 0.55346  0.87312  0.32906  Biso   1.000  C
  H440     1.0000 0.45993  0.74573  0.31803  Biso   1.000  H
  C826     1.0000 0.62640  0.98917  0.32994  Biso   1.000  C
  H441     1.0000 0.70165  0.13967  0.32113  Biso   1.000  H
  C827     1.0000 0.79727  0.79229  0.20375  Biso   1.000  C
  C828     1.0000 0.79734  0.79229  0.20375  Biso   1.000  C
  N78      1.0000 0.00176  0.89998  0.20351  Biso   1.000  N
  N79      1.0000 0.00183  0.89998  0.20351  Biso   1.000  N
  C829     1.0000 0.20761  0.00495  0.20375  Biso   1.000  C
  C830     1.0000 0.20765  0.00503  0.20375  Biso   1.000  C
  C831     1.0000 0.44757  0.44337  0.24381  Biso   1.000  C
  C832     1.0000 0.44762  0.44346  0.24381  Biso   1.000  C
  Cl85     1.0000 0.26518  0.47927  0.34084  Biso   1.000  Cl
  Cl86     1.0000 0.26523  0.47935  0.34084  Biso   1.000  Cl
  Cl87     1.0000 0.36287  0.31206  0.34279  Biso   1.000  Cl
  Cl88     1.0000 0.36279  0.31206  0.34279  Biso   1.000  Cl
  C833     1.0000 0.55651  0.00418  0.24381  Biso   1.000  C
  Cl89     1.0000 0.52058  0.78581  0.34084  Biso   1.000  Cl
  Cl90     1.0000 0.68790  0.05073  0.34279  Biso   1.000  Cl
  Cl91     1.0000 0.68794  0.05082  0.34279  Biso   1.000  Cl
  Cl92     1.0000 0.68782  0.05073  0.34279  Biso   1.000  Cl
  C834     1.0000 0.69188  0.78547  0.20373  Biso   1.000  C
  C835     1.0000 0.80025  0.69235  0.20416  Biso   1.000  C
  C836     1.0000 0.69192  0.78555  0.20373  Biso   1.000  C
  C837     1.0000 0.80036  0.69244  0.20416  Biso   1.000  C
  C838     1.0000 0.80029  0.69244  0.20416  Biso   1.000  C
  C839     1.0000 0.21441  0.90629  0.20373  Biso   1.000  C
  C840     1.0000 0.21433  0.90629  0.20373  Biso   1.000  C
  C841     1.0000 0.30751  0.10786  0.20416  Biso   1.000  C
  C842     1.0000 0.51913  0.41310  0.23818  Biso   1.000  C
  C843     1.0000 0.51906  0.41310  0.23818  Biso   1.000  C
  C844     1.0000 0.38321  0.47415  0.23698  Biso   1.000  C
  C845     1.0000 0.38326  0.47424  0.23698  Biso   1.000  C
  C846     1.0000 0.38314  0.47415  0.23698  Biso   1.000  C
  C847     1.0000 0.38318  0.47424  0.23698  Biso   1.000  C
  C848     1.0000 0.52568  0.90885  0.23698  Biso   1.000  C
  C849     1.0000 0.52573  0.90893  0.23698  Biso   1.000  C
  C850     1.0000 0.52561  0.90885  0.23698  Biso   1.000  C
  C851     1.0000 0.58681  0.10599  0.23818  Biso   1.000  C
  H442     1.0000 0.68661  0.85129  0.20346  Biso   1.000  H
  C852     1.0000 0.59547  0.68067  0.20414  Biso   1.000  C
  C853     1.0000 0.59551  0.68076  0.20414  Biso   1.000  C
  C854     1.0000 0.70052  0.59097  0.20455  Biso   1.000  C
  H443     1.0000 0.86969  0.69389  0.20417  Biso   1.000  H
  C855     1.0000 0.70056  0.59105  0.20455  Biso   1.000  C
  C856     1.0000 0.70045  0.59097  0.20455  Biso   1.000  C
  C857     1.0000 0.70049  0.59105  0.20455  Biso   1.000  C
  H444     1.0000 0.14857  0.83518  0.20346  Biso   1.000  H
  C858     1.0000 0.31916  0.91465  0.20414  Biso   1.000  C
  H445     1.0000 0.14862  0.83526  0.20346  Biso   1.000  H
  C859     1.0000 0.31920  0.91473  0.20414  Biso   1.000  C
  C860     1.0000 0.40890  0.10948  0.20455  Biso   1.000  C
  H446     1.0000 0.30600  0.17574  0.20417  Biso   1.000  H
  C861     1.0000 0.40897  0.10948  0.20455  Biso   1.000  C
  H447     1.0000 0.30605  0.17582  0.20417  Biso   1.000  H
  C862     1.0000 0.52452  0.41250  0.22659  Biso   1.000  C
  C863     1.0000 0.52445  0.41250  0.22659  Biso   1.000  C
  H448     1.0000 0.56430  0.39281  0.24236  Biso   1.000  H
  C864     1.0000 0.39060  0.47415  0.22528  Biso   1.000  C
  C865     1.0000 0.39064  0.47424  0.22528  Biso   1.000  C
  H449     1.0000 0.33426  0.49513  0.24037  Biso   1.000  H
  H450     1.0000 0.33418  0.49513  0.24037  Biso   1.000  H
  C866     1.0000 0.52570  0.91627  0.22528  Biso   1.000  C
  C867     1.0000 0.52574  0.91635  0.22528  Biso   1.000  C
  C868     1.0000 0.52563  0.91627  0.22528  Biso   1.000  C
  C869     1.0000 0.52567  0.91635  0.22528  Biso   1.000  C
  H451     1.0000 0.50480  0.83901  0.24037  Biso   1.000  H
  C870     1.0000 0.58744  0.11196  0.22659  Biso   1.000  C
  C871     1.0000 0.58748  0.11204  0.22659  Biso   1.000  C
  C872     1.0000 0.58736  0.11196  0.22659  Biso   1.000  C
  H452     1.0000 0.60715  0.17147  0.24236  Biso   1.000  H
  H453     1.0000 0.60708  0.17147  0.24236  Biso   1.000  H
  H454     1.0000 0.52501  0.67666  0.20406  Biso   1.000  H
  N80      1.0000 0.59880  0.58381  0.20461  Biso   1.000  N
  H455     1.0000 0.52505  0.67675  0.20406  Biso   1.000  H
  H456     1.0000 0.52494  0.67666  0.20406  Biso   1.000  H
  H457     1.0000 0.70361  0.52403  0.20477  Biso   1.000  H
  H458     1.0000 0.32317  0.84822  0.20406  Biso   1.000  H
  H459     1.0000 0.32324  0.84822  0.20406  Biso   1.000  H
  N81      1.0000 0.41616  0.01501  0.20461  Biso   1.000  N
  H460     1.0000 0.47592  0.17957  0.20477  Biso   1.000  H
  C873     1.0000 0.46246  0.44405  0.21969  Biso   1.000  C
  C874     1.0000 0.46251  0.44414  0.21969  Biso   1.000  C
  H461     1.0000 0.57208  0.38991  0.22316  Biso   1.000  H
  H462     1.0000 0.57215  0.38991  0.22316  Biso   1.000  H
  H463     1.0000 0.34629  0.49513  0.22096  Biso   1.000  H
  H464     1.0000 0.34637  0.49513  0.22096  Biso   1.000  H
  C875     1.0000 0.55584  0.01833  0.21969  Biso   1.000  C
  C876     1.0000 0.55588  0.01842  0.21969  Biso   1.000  C
  C877     1.0000 0.55576  0.01833  0.21969  Biso   1.000  C
  C878     1.0000 0.55580  0.01842  0.21969  Biso   1.000  C
  H465     1.0000 0.50480  0.85112  0.22096  Biso   1.000  H
  H466     1.0000 0.60997  0.18213  0.22316  Biso   1.000  H
  H467     1.0000 0.61009  0.18222  0.22316  Biso   1.000  H
  H468     1.0000 0.61001  0.18222  0.22316  Biso   1.000  H
  B50      1.0000 0.48122  0.45616  0.20647  Biso   1.000  B
  B51      1.0000 0.48126  0.45625  0.20647  Biso   1.000  B
  B52      1.0000 0.48114  0.45616  0.20647  Biso   1.000  B
  B53      1.0000 0.48119  0.45625  0.20647  Biso   1.000  B
  B54      1.0000 0.54373  0.02498  0.20647  Biso   1.000  B
  O85      1.0000 0.50968  0.37558  0.20110  Biso   1.000  O
  O86      1.0000 0.39197  0.45667  0.19954  Biso   1.000  O
  O87      1.0000 0.50972  0.37567  0.20110  Biso   1.000  O
  O88      1.0000 0.39202  0.45676  0.19954  Biso   1.000  O
  O89      1.0000 0.54321  0.93520  0.19954  Biso   1.000  O
  O90      1.0000 0.54314  0.93520  0.19954  Biso   1.000  O
  O91      1.0000 0.62432  0.13404  0.20110  Biso   1.000  O
  O92      1.0000 0.62437  0.13413  0.20110  Biso   1.000  O
  O93      1.0000 0.62425  0.13404  0.20110  Biso   1.000  O
  C879     1.0000 0.47047  0.36569  0.19032  Biso   1.000  C
  C880     1.0000 0.47059  0.36578  0.19032  Biso   1.000  C
  C881     1.0000 0.47051  0.36578  0.19032  Biso   1.000  C
  C882     1.0000 0.39913  0.41191  0.18945  Biso   1.000  C
  C883     1.0000 0.39906  0.41191  0.18945  Biso   1.000  C
  C884     1.0000 0.58797  0.98704  0.18945  Biso   1.000  C
  C885     1.0000 0.58801  0.98712  0.18945  Biso   1.000  C
  C886     1.0000 0.63422  0.10479  0.19032  Biso   1.000  C
  C887     1.0000 0.49379  0.31811  0.18123  Biso   1.000  C
  C888     1.0000 0.34813  0.40960  0.17942  Biso   1.000  C
  C889     1.0000 0.34806  0.40960  0.17942  Biso   1.000  C
  C890     1.0000 0.59028  0.93835  0.17942  Biso   1.000  C
  C891     1.0000 0.59032  0.93844  0.17942  Biso   1.000  C
  C892     1.0000 0.59021  0.93835  0.17942  Biso   1.000  C
  C893     1.0000 0.68183  0.17565  0.18123  Biso   1.000  C
  C894     1.0000 0.68187  0.17574  0.18123  Biso   1.000  C
  C895     1.0000 0.68176  0.17565  0.18123  Biso   1.000  C
  C896     1.0000 0.44652  0.31956  0.17094  Biso   1.000  C
  H469     1.0000 0.53999  0.28571  0.18197  Biso   1.000  H
  C897     1.0000 0.44656  0.31965  0.17094  Biso   1.000  C
  C898     1.0000 0.44644  0.31956  0.17094  Biso   1.000  C
  C899     1.0000 0.44649  0.31965  0.17094  Biso   1.000  C
  H470     1.0000 0.29834  0.43791  0.17887  Biso   1.000  H
  C900     1.0000 0.37350  0.36271  0.17007  Biso   1.000  C
  H471     1.0000 0.29827  0.43791  0.17887  Biso   1.000  H
  H472     1.0000 0.56193  0.86025  0.17887  Biso   1.000  H
  H473     1.0000 0.56198  0.86033  0.17887  Biso   1.000  H
  C901     1.0000 0.63718  0.01074  0.17007  Biso   1.000  C
  C902     1.0000 0.63723  0.01083  0.17007  Biso   1.000  C
  C903     1.0000 0.68034  0.12688  0.17094  Biso   1.000  C
  H474     1.0000 0.71420  0.25427  0.18197  Biso   1.000  H
  Cl93     1.0000 0.47935  0.26516  0.15916  Biso   1.000  Cl
  Cl94     1.0000 0.31210  0.36279  0.15721  Biso   1.000  Cl
  Cl95     1.0000 0.31203  0.36279  0.15721  Biso   1.000  Cl
  Cl96     1.0000 0.63712  0.94918  0.15721  Biso   1.000  Cl
  Cl97     1.0000 0.63705  0.94918  0.15721  Biso   1.000  Cl
  Cl98     1.0000 0.73473  0.21411  0.15916  Biso   1.000  Cl
  Cl99     1.0000 0.73477  0.21419  0.15916  Biso   1.000  Cl
  C904     1.0000 0.01075  0.63721  0.32994  Biso   1.000  C
  C905     1.0000 0.93849  0.59031  0.32057  Biso   1.000  C
  C906     1.0000 0.93853  0.59040  0.32057  Biso   1.000  C
  C907     1.0000 0.93841  0.59031  0.32057  Biso   1.000  C
  C908     1.0000 0.12691  0.68035  0.32906  Biso   1.000  C
  C909     1.0000 0.12684  0.68035  0.32906  Biso   1.000  C
  Cl100    1.0000 0.94927  0.63712  0.34279  Biso   1.000  Cl
  Cl101    1.0000 0.94931  0.63721  0.34279  Biso   1.000  Cl
  Cl102    1.0000 0.94919  0.63712  0.34279  Biso   1.000  Cl
  C910     1.0000 0.98718  0.58801  0.31056  Biso   1.000  C
  C911     1.0000 0.98722  0.58809  0.31056  Biso   1.000  C
  C912     1.0000 0.98711  0.58801  0.31056  Biso   1.000  C
  H475     1.0000 0.86038  0.56200  0.32113  Biso   1.000  H
  H476     1.0000 0.86043  0.56209  0.32113  Biso   1.000  H
  H477     1.0000 0.86031  0.56200  0.32113  Biso   1.000  H
  C913     1.0000 0.01079  0.63729  0.32994  Biso   1.000  C
  C914     1.0000 0.17564  0.68180  0.31877  Biso   1.000  C
  C915     1.0000 0.17568  0.68189  0.31877  Biso   1.000  C
  Cl103    1.0000 0.21415  0.73476  0.34084  Biso   1.000  Cl
  Cl104    1.0000 0.21419  0.73484  0.34084  Biso   1.000  Cl
  O94      1.0000 0.93526  0.54324  0.30047  Biso   1.000  O
  C916     1.0000 0.10474  0.63422  0.30969  Biso   1.000  C
  C917     1.0000 0.10481  0.63422  0.30969  Biso   1.000  C
  H478     1.0000 0.25424  0.71421  0.31803  Biso   1.000  H
  H479     1.0000 0.25428  0.71429  0.31803  Biso   1.000  H
  B55      1.0000 0.02502  0.54375  0.29352  Biso   1.000  B
  B56      1.0000 0.02494  0.54375  0.29352  Biso   1.000  B
  O95      1.0000 0.13405  0.62433  0.29889  Biso   1.000  O
  C918     1.0000 0.01837  0.55586  0.28030  Biso   1.000  C
  N82      1.0000 0.01495  0.41611  0.29538  Biso   1.000  N
  N83      1.0000 0.01499  0.41619  0.29538  Biso   1.000  N
  C919     1.0000 0.91640  0.52576  0.27473  Biso   1.000  C
  C920     1.0000 0.11198  0.58741  0.27342  Biso   1.000  C
  C921     1.0000 0.11202  0.58750  0.27342  Biso   1.000  C
  C922     1.0000 0.11190  0.58741  0.27342  Biso   1.000  C
  C923     1.0000 0.91475  0.31924  0.29586  Biso   1.000  C
  C924     1.0000 0.10951  0.40895  0.29544  Biso   1.000  C
  C925     1.0000 0.10944  0.40895  0.29544  Biso   1.000  C
  C926     1.0000 0.90902  0.52576  0.26301  Biso   1.000  C
  H480     1.0000 0.85112  0.50479  0.27903  Biso   1.000  H
  H481     1.0000 0.85124  0.50487  0.27903  Biso   1.000  H
  C927     1.0000 0.90895  0.52576  0.26301  Biso   1.000  C
  H482     1.0000 0.85117  0.50487  0.27903  Biso   1.000  H
  C928     1.0000 0.10599  0.58682  0.26183  Biso   1.000  C
  C929     1.0000 0.10603  0.58690  0.26183  Biso   1.000  C
  C930     1.0000 0.10592  0.58682  0.26183  Biso   1.000  C
  C931     1.0000 0.10596  0.58690  0.26183  Biso   1.000  C
  H483     1.0000 0.18213  0.61001  0.27683  Biso   1.000  H
  H484     1.0000 0.18224  0.61009  0.27683  Biso   1.000  H
  H485     1.0000 0.18217  0.61009  0.27683  Biso   1.000  H
  C932     1.0000 0.90637  0.21445  0.29627  Biso   1.000  C
  H486     1.0000 0.84830  0.32325  0.29593  Biso   1.000  H
  H487     1.0000 0.84823  0.32325  0.29593  Biso   1.000  H
  H488     1.0000 0.17953  0.47588  0.29523  Biso   1.000  H
  C933     1.0000 0.10785  0.30756  0.29584  Biso   1.000  C
  H489     1.0000 0.17957  0.47597  0.29523  Biso   1.000  H
  C934     1.0000 0.10792  0.30756  0.29584  Biso   1.000  C
  H490     1.0000 0.83909  0.50479  0.25964  Biso   1.000  H
  H491     1.0000 0.83913  0.50487  0.25964  Biso   1.000  H
  H492     1.0000 0.83901  0.50479  0.25964  Biso   1.000  H
  H493     1.0000 0.83906  0.50487  0.25964  Biso   1.000  H
  C935     1.0000 0.00416  0.55654  0.25619  Biso   1.000  C
  H494     1.0000 0.17145  0.60711  0.25763  Biso   1.000  H
  H495     1.0000 0.17149  0.60719  0.25763  Biso   1.000  H
  H496     1.0000 0.83528  0.14862  0.29653  Biso   1.000  H
  H497     1.0000 0.83532  0.14871  0.29653  Biso   1.000  H
  C936     1.0000 0.00494  0.20763  0.29625  Biso   1.000  C
  C937     1.0000 0.00501  0.20763  0.29625  Biso   1.000  C
  H498     1.0000 0.17576  0.30603  0.29583  Biso   1.000  H
  C938     1.0000 0.99587  0.55237  0.24381  Biso   1.000  C
  C939     1.0000 0.99580  0.55237  0.24381  Biso   1.000  C
  C940     1.0000 0.00134  0.09661  0.29647  Biso   1.000  C
  C941     1.0000 0.00138  0.09669  0.29647  Biso   1.000  C
  C942     1.0000 0.89401  0.48083  0.23818  Biso   1.000  C
  C943     1.0000 0.89405  0.48091  0.23818  Biso   1.000  C
  C944     1.0000 0.09105  0.61674  0.23698  Biso   1.000  C
  C945     1.0000 0.09109  0.61683  0.23698  Biso   1.000  C
  C946     1.0000 0.09097  0.61674  0.23698  Biso   1.000  C
  N84      1.0000 0.90007  0.00188  0.29648  Biso   1.000  N
  N85      1.0000 0.10173  0.09993  0.29648  Biso   1.000  N
  N86      1.0000 0.10181  0.09993  0.29648  Biso   1.000  N
  C947     1.0000 0.88800  0.47545  0.22659  Biso   1.000  C
  H499     1.0000 0.82851  0.43563  0.24236  Biso   1.000  H
  C948     1.0000 0.88807  0.47545  0.22659  Biso   1.000  C
  H500     1.0000 0.82855  0.43572  0.24236  Biso   1.000  H
  H501     1.0000 0.16098  0.66577  0.24037  Biso   1.000  H
  C949     1.0000 0.08365  0.60933  0.22528  Biso   1.000  C
  C950     1.0000 0.08369  0.60941  0.22528  Biso   1.000  C
  H502     1.0000 0.16090  0.66577  0.24037  Biso   1.000  H
  C951     1.0000 0.08357  0.60933  0.22528  Biso   1.000  C
  C952     1.0000 0.08362  0.60941  0.22528  Biso   1.000  C
  C953     1.0000 0.90330  0.90467  0.29647  Biso   1.000  C
  C954     1.0000 0.90338  0.90467  0.29647  Biso   1.000  C
  C955     1.0000 0.09520  0.99855  0.29647  Biso   1.000  C
  H503     1.0000 0.81784  0.42788  0.22316  Biso   1.000  H
  C956     1.0000 0.98162  0.53744  0.21969  Biso   1.000  C
  C957     1.0000 0.98166  0.53753  0.21969  Biso   1.000  C
  H504     1.0000 0.14887  0.65367  0.22096  Biso   1.000  H
  H505     1.0000 0.14879  0.65367  0.22096  Biso   1.000  H
  N87      1.0000 0.99813  0.89819  0.29648  Biso   1.000  N
  C958     1.0000 0.79235  0.79723  0.29625  Biso   1.000  C
  C959     1.0000 0.79240  0.79732  0.29625  Biso   1.000  C
  C960     1.0000 0.79228  0.79723  0.29625  Biso   1.000  C
  C961     1.0000 0.79232  0.79732  0.29625  Biso   1.000  C
  C962     1.0000 0.20262  0.99497  0.29625  Biso   1.000  C
  B57      1.0000 0.97501  0.51877  0.20647  Biso   1.000  B
  B58      1.0000 0.97508  0.51877  0.20647  Biso   1.000  B
  C963     1.0000 0.78552  0.69184  0.29627  Biso   1.000  C
  C964     1.0000 0.69238  0.80022  0.29584  Biso   1.000  C
  C965     1.0000 0.78556  0.69193  0.29627  Biso   1.000  C
  C966     1.0000 0.69250  0.80030  0.29584  Biso   1.000  C
  C967     1.0000 0.69243  0.80030  0.29584  Biso   1.000  C
  C968     1.0000 0.19961  0.89205  0.29584  Biso   1.000  C
  C969     1.0000 0.30807  0.09362  0.29627  Biso   1.000  C
  C970     1.0000 0.30812  0.09371  0.29627  Biso   1.000  C
  C971     1.0000 0.30800  0.09362  0.29627  Biso   1.000  C
  O96      1.0000 0.86596  0.49029  0.20110  Biso   1.000  O
  N88      1.0000 0.98504  0.40119  0.20461  Biso   1.000  N
  O97      1.0000 0.06473  0.60796  0.19954  Biso   1.000  O
  H506     1.0000 0.85133  0.68655  0.29653  Biso   1.000  H
  C972     1.0000 0.68077  0.59549  0.29586  Biso   1.000  C
  C973     1.0000 0.68070  0.59549  0.29586  Biso   1.000  C
  C974     1.0000 0.59103  0.70045  0.29544  Biso   1.000  C
  H507     1.0000 0.69393  0.86963  0.29583  Biso   1.000  H
  H508     1.0000 0.69397  0.86971  0.29583  Biso   1.000  H
  C975     1.0000 0.29937  0.89043  0.29544  Biso   1.000  C
  H509     1.0000 0.13022  0.82418  0.29583  Biso   1.000  H
  C976     1.0000 0.29949  0.89052  0.29544  Biso   1.000  C
  C977     1.0000 0.29942  0.89052  0.29544  Biso   1.000  C
  H510     1.0000 0.31335  0.16474  0.29653  Biso   1.000  H
  C978     1.0000 0.40447  0.08527  0.29586  Biso   1.000  C
  C979     1.0000 0.89520  0.52943  0.19032  Biso   1.000  C
  C980     1.0000 0.89524  0.52951  0.19032  Biso   1.000  C
  C981     1.0000 0.89054  0.29946  0.20455  Biso   1.000  C
  C982     1.0000 0.08524  0.40443  0.20414  Biso   1.000  C
  C983     1.0000 0.08529  0.40451  0.20414  Biso   1.000  C
  C984     1.0000 0.08517  0.40443  0.20414  Biso   1.000  C
  C985     1.0000 0.08521  0.40451  0.20414  Biso   1.000  C
  C986     1.0000 0.01282  0.60088  0.18945  Biso   1.000  C
  C987     1.0000 0.01289  0.60088  0.18945  Biso   1.000  C
  H511     1.0000 0.67675  0.52497  0.29593  Biso   1.000  H
  N89      1.0000 0.58381  0.59873  0.29538  Biso   1.000  N
  N90      1.0000 0.58386  0.59881  0.29538  Biso   1.000  N
  H512     1.0000 0.67668  0.52497  0.29593  Biso   1.000  H
  H513     1.0000 0.52404  0.70352  0.29523  Biso   1.000  H
  H514     1.0000 0.52408  0.70361  0.29523  Biso   1.000  H
  H515     1.0000 0.52397  0.70352  0.29523  Biso   1.000  H
  N91      1.0000 0.40111  0.98491  0.29538  Biso   1.000  N
  H516     1.0000 0.29630  0.82034  0.29523  Biso   1.000  H
  N92      1.0000 0.40115  0.98499  0.29538  Biso   1.000  N
  H517     1.0000 0.29634  0.82043  0.29523  Biso   1.000  H
  H518     1.0000 0.47490  0.15169  0.29593  Biso   1.000  H
  H519     1.0000 0.47502  0.15178  0.29593  Biso   1.000  H
  H520     1.0000 0.47494  0.15178  0.29593  Biso   1.000  H
  C988     1.0000 0.82434  0.50615  0.18123  Biso   1.000  C
  C989     1.0000 0.82438  0.50624  0.18123  Biso   1.000  C
  H521     1.0000 0.82047  0.29639  0.20477  Biso   1.000  H
  C990     1.0000 0.89212  0.19970  0.20416  Biso   1.000  C
  C991     1.0000 0.89220  0.19970  0.20416  Biso   1.000  C
  H522     1.0000 0.82040  0.29639  0.20477  Biso   1.000  H
  C992     1.0000 0.09363  0.30807  0.20373  Biso   1.000  C
  H523     1.0000 0.15174  0.47494  0.20406  Biso   1.000  H
  H524     1.0000 0.15178  0.47503  0.20406  Biso   1.000  H
  H525     1.0000 0.15166  0.47494  0.20406  Biso   1.000  H
  C993     1.0000 0.06157  0.65187  0.17942  Biso   1.000  C
  C994     1.0000 0.06150  0.65187  0.17942  Biso   1.000  C
  B59      1.0000 0.45620  0.48114  0.29352  Biso   1.000  B
  B60      1.0000 0.45631  0.48123  0.29352  Biso   1.000  B
  B61      1.0000 0.45624  0.48123  0.29352  Biso   1.000  B
  B62      1.0000 0.51870  0.97493  0.29352  Biso   1.000  B
  B63      1.0000 0.51874  0.97502  0.29352  Biso   1.000  B
  C995     1.0000 0.87318  0.55348  0.17094  Biso   1.000  C
  H526     1.0000 0.74570  0.45994  0.18197  Biso   1.000  H
  H527     1.0000 0.74581  0.46002  0.18197  Biso   1.000  H
  C996     1.0000 0.87310  0.55348  0.17094  Biso   1.000  C
  H528     1.0000 0.74574  0.46002  0.18197  Biso   1.000  H
  H529     1.0000 0.82426  0.13029  0.20417  Biso   1.000  H
  C997     1.0000 0.99508  0.20268  0.20375  Biso   1.000  C
  C998     1.0000 0.99501  0.20268  0.20375  Biso   1.000  C
  H530     1.0000 0.16473  0.31336  0.20346  Biso   1.000  H
  C999     1.0000 0.98920  0.62646  0.17007  Biso   1.000  C
  C1000    1.0000 0.98928  0.62646  0.17007  Biso   1.000  C
  H531     1.0000 0.13964  0.70167  0.17887  Biso   1.000  H
  C1001    1.0000 0.44413  0.46247  0.28030  Biso   1.000  C
  O98      1.0000 0.37562  0.50962  0.29889  Biso   1.000  O
  O99      1.0000 0.45672  0.39195  0.30047  Biso   1.000  O
  O100     1.0000 0.37566  0.50971  0.29889  Biso   1.000  O
  O101     1.0000 0.45676  0.39204  0.30047  Biso   1.000  O
  C1002    1.0000 0.53746  0.98158  0.28030  Biso   1.000  C
  O102     1.0000 0.49024  0.86587  0.29889  Biso   1.000  O
  C1003    1.0000 0.53739  0.98158  0.28030  Biso   1.000  C
  O103     1.0000 0.49017  0.86587  0.29889  Biso   1.000  O
  O104     1.0000 0.60798  0.06472  0.30047  Biso   1.000  O
  O105     1.0000 0.60802  0.06480  0.30047  Biso   1.000  O
  O106     1.0000 0.60790  0.06472  0.30047  Biso   1.000  O
  O107     1.0000 0.60794  0.06480  0.30047  Biso   1.000  O
  Cl105    1.0000 0.78587  0.52065  0.15916  Biso   1.000  Cl
  C1004    1.0000 0.99859  0.09524  0.20353  Biso   1.000  C
  C1005    1.0000 0.99871  0.09533  0.20353  Biso   1.000  C
  C1006    1.0000 0.99863  0.09533  0.20353  Biso   1.000  C
  Cl106    1.0000 0.05077  0.68786  0.15721  Biso   1.000  Cl
  Cl107    1.0000 0.05081  0.68794  0.15721  Biso   1.000  Cl
  Cl108    1.0000 0.05069  0.68786  0.15721  Biso   1.000  Cl
  Cl109    1.0000 0.05074  0.68794  0.15721  Biso   1.000  Cl
  C1007    1.0000 0.41250  0.52446  0.27342  Biso   1.000  C
  C1008    1.0000 0.47428  0.39059  0.27473  Biso   1.000  C
  C1009    1.0000 0.41258  0.52446  0.27342  Biso   1.000  C
  C1010    1.0000 0.47420  0.39059  0.27473  Biso   1.000  C
  C1011    1.0000 0.36573  0.47049  0.30969  Biso   1.000  C
  C1012    1.0000 0.41189  0.39903  0.31056  Biso   1.000  C
  C1013    1.0000 0.41201  0.39912  0.31056  Biso   1.000  C
  C1014    1.0000 0.41193  0.39912  0.31056  Biso   1.000  C
  C1015    1.0000 0.47544  0.88796  0.27342  Biso   1.000  C
  C1016    1.0000 0.47536  0.88796  0.27342  Biso   1.000  C
  C1017    1.0000 0.60939  0.08365  0.27473  Biso   1.000  C
  C1018    1.0000 0.60932  0.08365  0.27473  Biso   1.000  C
  C1019    1.0000 0.52938  0.89512  0.30969  Biso   1.000  C
  C1020    1.0000 0.52942  0.89521  0.30969  Biso   1.000  C
  C1021    1.0000 0.60088  0.01288  0.31056  Biso   1.000  C
  N93      1.0000 0.89815  0.99804  0.20351  Biso   1.000  N
  N94      1.0000 0.89819  0.99812  0.20351  Biso   1.000  N
  N95      1.0000 0.09990  0.10172  0.20351  Biso   1.000  N
  N96      1.0000 0.09994  0.10181  0.20351  Biso   1.000  N
  H532     1.0000 0.38992  0.57204  0.27683  Biso   1.000  H
  C1022    1.0000 0.41314  0.51909  0.26183  Biso   1.000  C
  H533     1.0000 0.38996  0.57212  0.27683  Biso   1.000  H
  C1023    1.0000 0.47426  0.38317  0.26301  Biso   1.000  C
  H534     1.0000 0.49516  0.34625  0.27903  Biso   1.000  H
  H535     1.0000 0.49520  0.34633  0.27903  Biso   1.000  H
  C1024    1.0000 0.47419  0.38317  0.26301  Biso   1.000  C
  H536     1.0000 0.49509  0.34625  0.27903  Biso   1.000  H
  H537     1.0000 0.49513  0.34633  0.27903  Biso   1.000  H
  C1025    1.0000 0.31814  0.49376  0.31877  Biso   1.000  C
  C1026    1.0000 0.40966  0.34804  0.32057  Biso   1.000  C
  C1027    1.0000 0.40970  0.34813  0.32057  Biso   1.000  C
  C1028    1.0000 0.40958  0.34804  0.32057  Biso   1.000  C
  C1029    1.0000 0.40963  0.34813  0.32057  Biso   1.000  C
  H538     1.0000 0.42780  0.81778  0.27683  Biso   1.000  H
  C1030    1.0000 0.48078  0.89393  0.26183  Biso   1.000  C
  H539     1.0000 0.42787  0.81778  0.27683  Biso   1.000  H
  C1031    1.0000 0.48083  0.89401  0.26183  Biso   1.000  C
  C1032    1.0000 0.61679  0.09107  0.26301  Biso   1.000  C
  H540     1.0000 0.65363  0.14879  0.27903  Biso   1.000  H
  H541     1.0000 0.65367  0.14888  0.27903  Biso   1.000  H
  C1033    1.0000 0.61672  0.09107  0.26301  Biso   1.000  C
  C1034    1.0000 0.50614  0.82426  0.31877  Biso   1.000  C
  C1035    1.0000 0.50606  0.82426  0.31877  Biso   1.000  C
  C1036    1.0000 0.65189  0.06156  0.32057  Biso   1.000  C
  C1037    1.0000 0.65181  0.06156  0.32057  Biso   1.000  C
  C1038    1.0000 0.90469  0.90331  0.20353  Biso   1.000  C
  C1039    1.0000 0.09661  0.00136  0.20353  Biso   1.000  C
  H542     1.0000 0.39283  0.56428  0.25763  Biso   1.000  H
  C1040    1.0000 0.44346  0.44755  0.25619  Biso   1.000  C
  C1041    1.0000 0.44350  0.44763  0.25619  Biso   1.000  C
  C1042    1.0000 0.44339  0.44755  0.25619  Biso   1.000  C
  C1043    1.0000 0.44343  0.44763  0.25619  Biso   1.000  C
  H543     1.0000 0.49516  0.33414  0.25964  Biso   1.000  H
  H544     1.0000 0.49520  0.33423  0.25964  Biso   1.000  H
  H545     1.0000 0.49509  0.33414  0.25964  Biso   1.000  H
  H546     1.0000 0.49513  0.33423  0.25964  Biso   1.000  H
  C1044    1.0000 0.31966  0.44644  0.32906  Biso   1.000  C
  H547     1.0000 0.28572  0.53998  0.31803  Biso   1.000  H
  C1045    1.0000 0.31970  0.44652  0.32906  Biso   1.000  C
  H548     1.0000 0.28579  0.53998  0.31803  Biso   1.000  H
  C1046    1.0000 0.31959  0.44644  0.32906  Biso   1.000  C
  C1047    1.0000 0.31963  0.44652  0.32906  Biso   1.000  C
  H549     1.0000 0.43793  0.29824  0.32113  Biso   1.000  H
  C1048    1.0000 0.36270  0.37345  0.32994  Biso   1.000  C
  H550     1.0000 0.43797  0.29833  0.32113  Biso   1.000  H
  C1049    1.0000 0.36281  0.37354  0.32994  Biso   1.000  C
  C1050    1.0000 0.36274  0.37354  0.32994  Biso   1.000  C
  H551     1.0000 0.43564  0.82844  0.25763  Biso   1.000  H
  C1051    1.0000 0.55229  0.99574  0.25619  Biso   1.000  C
  H552     1.0000 0.43568  0.82853  0.25763  Biso   1.000  H
  C1052    1.0000 0.55233  0.99582  0.25619  Biso   1.000  C
  H553     1.0000 0.43556  0.82844  0.25763  Biso   1.000  H
  H554     1.0000 0.43560  0.82853  0.25763  Biso   1.000  H
  H555     1.0000 0.66574  0.16090  0.25964  Biso   1.000  H
  H556     1.0000 0.66578  0.16099  0.25964  Biso   1.000  H
  C1053    1.0000 0.55341  0.87304  0.32906  Biso   1.000  C
  H557     1.0000 0.45989  0.74565  0.31803  Biso   1.000  H
  C1054    1.0000 0.55346  0.87312  0.32906  Biso   1.000  C
  H558     1.0000 0.45993  0.74573  0.31803  Biso   1.000  H
  C1055    1.0000 0.62640  0.98917  0.32994  Biso   1.000  C
  H559     1.0000 0.70165  0.13967  0.32113  Biso   1.000  H
  C1056    1.0000 0.79727  0.79229  0.20375  Biso   1.000  C
  C1057    1.0000 0.79734  0.79229  0.20375  Biso   1.000  C
  N97      1.0000 0.00176  0.89998  0.20351  Biso   1.000  N
  N98      1.0000 0.00183  0.89998  0.20351  Biso   1.000  N
  C1058    1.0000 0.20761  0.00495  0.20375  Biso   1.000  C
  C1059    1.0000 0.20765  0.00503  0.20375  Biso   1.000  C
  C1060    1.0000 0.44757  0.44337  0.24381  Biso   1.000  C
  C1061    1.0000 0.44762  0.44346  0.24381  Biso   1.000  C
  Cl110    1.0000 0.26518  0.47927  0.34084  Biso   1.000  Cl
  Cl111    1.0000 0.26523  0.47935  0.34084  Biso   1.000  Cl
  Cl112    1.0000 0.36287  0.31206  0.34279  Biso   1.000  Cl
  Cl113    1.0000 0.36279  0.31206  0.34279  Biso   1.000  Cl
  C1062    1.0000 0.55651  0.00418  0.24381  Biso   1.000  C
  Cl114    1.0000 0.52058  0.78581  0.34084  Biso   1.000  Cl
  Cl115    1.0000 0.68790  0.05073  0.34279  Biso   1.000  Cl
  Cl116    1.0000 0.68794  0.05082  0.34279  Biso   1.000  Cl
  Cl117    1.0000 0.68782  0.05073  0.34279  Biso   1.000  Cl
  C1063    1.0000 0.69188  0.78547  0.20373  Biso   1.000  C
  C1064    1.0000 0.80025  0.69235  0.20416  Biso   1.000  C
  C1065    1.0000 0.69192  0.78555  0.20373  Biso   1.000  C
  C1066    1.0000 0.80036  0.69244  0.20416  Biso   1.000  C
  C1067    1.0000 0.80029  0.69244  0.20416  Biso   1.000  C
  C1068    1.0000 0.21441  0.90629  0.20373  Biso   1.000  C
  C1069    1.0000 0.21433  0.90629  0.20373  Biso   1.000  C
  C1070    1.0000 0.30751  0.10786  0.20416  Biso   1.000  C
  C1071    1.0000 0.51913  0.41310  0.23818  Biso   1.000  C
  C1072    1.0000 0.38321  0.47415  0.23698  Biso   1.000  C
  C1073    1.0000 0.38326  0.47424  0.23698  Biso   1.000  C
  C1074    1.0000 0.51906  0.41310  0.23818  Biso   1.000  C
  C1075    1.0000 0.38314  0.47415  0.23698  Biso   1.000  C
  C1076    1.0000 0.38318  0.47424  0.23698  Biso   1.000  C
  C1077    1.0000 0.52568  0.90885  0.23698  Biso   1.000  C
  C1078    1.0000 0.52573  0.90893  0.23698  Biso   1.000  C
  C1079    1.0000 0.52561  0.90885  0.23698  Biso   1.000  C
  C1080    1.0000 0.58681  0.10599  0.23818  Biso   1.000  C
  H560     1.0000 0.68661  0.85129  0.20346  Biso   1.000  H
  C1081    1.0000 0.59547  0.68067  0.20414  Biso   1.000  C
  C1082    1.0000 0.59551  0.68076  0.20414  Biso   1.000  C
  C1083    1.0000 0.70052  0.59097  0.20455  Biso   1.000  C
  H561     1.0000 0.86969  0.69389  0.20417  Biso   1.000  H
  C1084    1.0000 0.70056  0.59105  0.20455  Biso   1.000  C
  C1085    1.0000 0.70045  0.59097  0.20455  Biso   1.000  C
  C1086    1.0000 0.70049  0.59105  0.20455  Biso   1.000  C
  H562     1.0000 0.14857  0.83518  0.20346  Biso   1.000  H
  C1087    1.0000 0.31916  0.91465  0.20414  Biso   1.000  C
  H563     1.0000 0.14862  0.83526  0.20346  Biso   1.000  H
  C1088    1.0000 0.31920  0.91473  0.20414  Biso   1.000  C
  C1089    1.0000 0.40890  0.10948  0.20455  Biso   1.000  C
  H564     1.0000 0.30600  0.17574  0.20417  Biso   1.000  H
  C1090    1.0000 0.40897  0.10948  0.20455  Biso   1.000  C
  H565     1.0000 0.30605  0.17582  0.20417  Biso   1.000  H
  C1091    1.0000 0.52452  0.41250  0.22659  Biso   1.000  C
  C1092    1.0000 0.52445  0.41250  0.22659  Biso   1.000  C
  H566     1.0000 0.56430  0.39281  0.24236  Biso   1.000  H
  C1093    1.0000 0.39060  0.47415  0.22528  Biso   1.000  C
  C1094    1.0000 0.39064  0.47424  0.22528  Biso   1.000  C
  H567     1.0000 0.33426  0.49513  0.24037  Biso   1.000  H
  H568     1.0000 0.33418  0.49513  0.24037  Biso   1.000  H
  C1095    1.0000 0.52570  0.91627  0.22528  Biso   1.000  C
  C1096    1.0000 0.52574  0.91635  0.22528  Biso   1.000  C
  C1097    1.0000 0.52563  0.91627  0.22528  Biso   1.000  C
  C1098    1.0000 0.52567  0.91635  0.22528  Biso   1.000  C
  H569     1.0000 0.50480  0.83901  0.24037  Biso   1.000  H
  C1099    1.0000 0.58744  0.11196  0.22659  Biso   1.000  C
  C1100    1.0000 0.58748  0.11204  0.22659  Biso   1.000  C
  C1101    1.0000 0.58736  0.11196  0.22659  Biso   1.000  C
  H570     1.0000 0.60715  0.17147  0.24236  Biso   1.000  H
  H571     1.0000 0.60708  0.17147  0.24236  Biso   1.000  H
  H572     1.0000 0.52501  0.67666  0.20406  Biso   1.000  H
  N99      1.0000 0.59880  0.58381  0.20461  Biso   1.000  N
  H573     1.0000 0.52505  0.67675  0.20406  Biso   1.000  H
  H574     1.0000 0.52494  0.67666  0.20406  Biso   1.000  H
  H575     1.0000 0.70361  0.52403  0.20477  Biso   1.000  H
  H576     1.0000 0.32317  0.84822  0.20406  Biso   1.000  H
  H577     1.0000 0.32324  0.84822  0.20406  Biso   1.000  H
  N100     1.0000 0.41616  0.01501  0.20461  Biso   1.000  N
  H578     1.0000 0.47592  0.17957  0.20477  Biso   1.000  H
  C1102    1.0000 0.46246  0.44405  0.21969  Biso   1.000  C
  C1103    1.0000 0.46251  0.44414  0.21969  Biso   1.000  C
  H579     1.0000 0.57208  0.38991  0.22316  Biso   1.000  H
  H580     1.0000 0.57215  0.38991  0.22316  Biso   1.000  H
  H581     1.0000 0.34629  0.49513  0.22096  Biso   1.000  H
  H582     1.0000 0.34637  0.49513  0.22096  Biso   1.000  H
  C1104    1.0000 0.55584  0.01833  0.21969  Biso   1.000  C
  C1105    1.0000 0.55588  0.01842  0.21969  Biso   1.000  C
  C1106    1.0000 0.55576  0.01833  0.21969  Biso   1.000  C
  C1107    1.0000 0.55580  0.01842  0.21969  Biso   1.000  C
  H583     1.0000 0.50480  0.85112  0.22096  Biso   1.000  H
  H584     1.0000 0.60997  0.18213  0.22316  Biso   1.000  H
  H585     1.0000 0.61009  0.18222  0.22316  Biso   1.000  H
  H586     1.0000 0.61001  0.18222  0.22316  Biso   1.000  H
  B64      1.0000 0.48122  0.45616  0.20647  Biso   1.000  B
  B65      1.0000 0.48126  0.45625  0.20647  Biso   1.000  B
  B66      1.0000 0.48114  0.45616  0.20647  Biso   1.000  B
  B67      1.0000 0.48119  0.45625  0.20647  Biso   1.000  B
  B68      1.0000 0.54373  0.02498  0.20647  Biso   1.000  B
  O108     1.0000 0.50968  0.37558  0.20110  Biso   1.000  O
  O109     1.0000 0.39197  0.45667  0.19954  Biso   1.000  O
  O110     1.0000 0.50972  0.37567  0.20110  Biso   1.000  O
  O111     1.0000 0.39202  0.45676  0.19954  Biso   1.000  O
  O112     1.0000 0.54321  0.93520  0.19954  Biso   1.000  O
  O113     1.0000 0.54314  0.93520  0.19954  Biso   1.000  O
  O114     1.0000 0.62432  0.13404  0.20110  Biso   1.000  O
  O115     1.0000 0.62437  0.13413  0.20110  Biso   1.000  O
  O116     1.0000 0.62425  0.13404  0.20110  Biso   1.000  O
  C1108    1.0000 0.47047  0.36569  0.19032  Biso   1.000  C
  C1109    1.0000 0.47059  0.36578  0.19032  Biso   1.000  C
  C1110    1.0000 0.47051  0.36578  0.19032  Biso   1.000  C
  C1111    1.0000 0.39913  0.41191  0.18945  Biso   1.000  C
  C1112    1.0000 0.39906  0.41191  0.18945  Biso   1.000  C
  C1113    1.0000 0.58797  0.98704  0.18945  Biso   1.000  C
  C1114    1.0000 0.58801  0.98712  0.18945  Biso   1.000  C
  C1115    1.0000 0.63422  0.10479  0.19032  Biso   1.000  C
  C1116    1.0000 0.49379  0.31811  0.18123  Biso   1.000  C
  C1117    1.0000 0.34813  0.40960  0.17942  Biso   1.000  C
  C1118    1.0000 0.34806  0.40960  0.17942  Biso   1.000  C
  C1119    1.0000 0.59028  0.93835  0.17942  Biso   1.000  C
  C1120    1.0000 0.59032  0.93844  0.17942  Biso   1.000  C
  C1121    1.0000 0.59021  0.93835  0.17942  Biso   1.000  C
  C1122    1.0000 0.68183  0.17565  0.18123  Biso   1.000  C
  C1123    1.0000 0.68187  0.17574  0.18123  Biso   1.000  C
  C1124    1.0000 0.68176  0.17565  0.18123  Biso   1.000  C
  C1125    1.0000 0.44652  0.31956  0.17094  Biso   1.000  C
  H587     1.0000 0.53999  0.28571  0.18197  Biso   1.000  H
  C1126    1.0000 0.44656  0.31965  0.17094  Biso   1.000  C
  C1127    1.0000 0.44644  0.31956  0.17094  Biso   1.000  C
  C1128    1.0000 0.44649  0.31965  0.17094  Biso   1.000  C
  H588     1.0000 0.29834  0.43791  0.17887  Biso   1.000  H
  C1129    1.0000 0.37350  0.36271  0.17007  Biso   1.000  C
  H589     1.0000 0.29827  0.43791  0.17887  Biso   1.000  H
  H590     1.0000 0.56193  0.86025  0.17887  Biso   1.000  H
  H591     1.0000 0.56198  0.86033  0.17887  Biso   1.000  H
  C1130    1.0000 0.63718  0.01074  0.17007  Biso   1.000  C
  C1131    1.0000 0.63723  0.01083  0.17007  Biso   1.000  C
  C1132    1.0000 0.68034  0.12688  0.17094  Biso   1.000  C
  H592     1.0000 0.71420  0.25427  0.18197  Biso   1.000  H
  Cl118    1.0000 0.47935  0.26516  0.15916  Biso   1.000  Cl
  Cl119    1.0000 0.31210  0.36279  0.15721  Biso   1.000  Cl
  Cl120    1.0000 0.31203  0.36279  0.15721  Biso   1.000  Cl
  Cl121    1.0000 0.63712  0.94918  0.15721  Biso   1.000  Cl
  Cl122    1.0000 0.63705  0.94918  0.15721  Biso   1.000  Cl
  Cl123    1.0000 0.73473  0.21411  0.15916  Biso   1.000  Cl
  Cl124    1.0000 0.73477  0.21419  0.15916  Biso   1.000  Cl
  C1133    1.0000 0.98922  0.36273  0.67006  Biso   1.000  C
  C1134    1.0000 0.06148  0.40963  0.67943  Biso   1.000  C
  Cl125    1.0000 0.05070  0.36282  0.65721  Biso   1.000  Cl
  C1135    1.0000 0.87305  0.31958  0.67094  Biso   1.000  C
  C1136    1.0000 0.87317  0.31967  0.67094  Biso   1.000  C
  C1137    1.0000 0.87310  0.31967  0.67094  Biso   1.000  C
  C1138    1.0000 0.01279  0.41193  0.68944  Biso   1.000  C
  H593     1.0000 0.13959  0.43794  0.67887  Biso   1.000  H
  C1139    1.0000 0.82433  0.31814  0.68123  Biso   1.000  C
  C1140    1.0000 0.82426  0.31814  0.68123  Biso   1.000  C
  Cl126    1.0000 0.78582  0.26518  0.65916  Biso   1.000  Cl
  O117     1.0000 0.06471  0.45670  0.69953  Biso   1.000  O
  O118     1.0000 0.06475  0.45678  0.69953  Biso   1.000  O
  O119     1.0000 0.06464  0.45670  0.69953  Biso   1.000  O
  C1141    1.0000 0.89523  0.36571  0.69031  Biso   1.000  C
  C1142    1.0000 0.89528  0.36580  0.69031  Biso   1.000  C
  C1143    1.0000 0.89516  0.36571  0.69031  Biso   1.000  C
  C1144    1.0000 0.89520  0.36580  0.69031  Biso   1.000  C
  H594     1.0000 0.74573  0.28573  0.68197  Biso   1.000  H
  H595     1.0000 0.74566  0.28573  0.68197  Biso   1.000  H
  B69      1.0000 0.97495  0.45618  0.70648  Biso   1.000  B
  B70      1.0000 0.97507  0.45627  0.70648  Biso   1.000  B
  B71      1.0000 0.97500  0.45627  0.70648  Biso   1.000  B
  O120     1.0000 0.86592  0.37561  0.70111  Biso   1.000  O
  O121     1.0000 0.86596  0.37569  0.70111  Biso   1.000  O
  O122     1.0000 0.86584  0.37561  0.70111  Biso   1.000  O
  C1145    1.0000 0.98160  0.44408  0.71970  Biso   1.000  C
  N101     1.0000 0.98502  0.58383  0.70462  Biso   1.000  N
  C1146    1.0000 0.98164  0.44416  0.71970  Biso   1.000  C
  C1147    1.0000 0.98153  0.44408  0.71970  Biso   1.000  C
  C1148    1.0000 0.08357  0.47418  0.72527  Biso   1.000  C
  C1149    1.0000 0.08361  0.47426  0.72527  Biso   1.000  C
  C1150    1.0000 0.88799  0.41253  0.72658  Biso   1.000  C
  C1151    1.0000 0.08522  0.68070  0.70414  Biso   1.000  C
  C1152    1.0000 0.08526  0.68078  0.70414  Biso   1.000  C
  C1153    1.0000 0.08514  0.68070  0.70414  Biso   1.000  C
  C1154    1.0000 0.89046  0.59099  0.70456  Biso   1.000  C
  C1155    1.0000 0.89058  0.59108  0.70456  Biso   1.000  C
  C1156    1.0000 0.89050  0.59108  0.70456  Biso   1.000  C
  C1157    1.0000 0.09095  0.47418  0.73699  Biso   1.000  C
  H596     1.0000 0.14885  0.49515  0.72097  Biso   1.000  H
  C1158    1.0000 0.09107  0.47426  0.73699  Biso   1.000  C
  H597     1.0000 0.14877  0.49515  0.72097  Biso   1.000  H
  C1159    1.0000 0.09099  0.47426  0.73699  Biso   1.000  C
  H598     1.0000 0.81784  0.38993  0.72317  Biso   1.000  H
  C1160    1.0000 0.89398  0.41312  0.73817  Biso   1.000  C
  C1161    1.0000 0.89405  0.41312  0.73817  Biso   1.000  C
  H599     1.0000 0.81777  0.38993  0.72317  Biso   1.000  H
  C1162    1.0000 0.09360  0.78549  0.70373  Biso   1.000  C
  H600     1.0000 0.15167  0.67669  0.70407  Biso   1.000  H
  C1163    1.0000 0.09364  0.78557  0.70373  Biso   1.000  C
  H601     1.0000 0.15171  0.67677  0.70407  Biso   1.000  H
  H602     1.0000 0.82044  0.52406  0.70477  Biso   1.000  H
  C1164    1.0000 0.89212  0.69238  0.70416  Biso   1.000  C
  C1165    1.0000 0.89216  0.69246  0.70416  Biso   1.000  C
  C1166    1.0000 0.89205  0.69238  0.70416  Biso   1.000  C
  C1167    1.0000 0.89209  0.69246  0.70416  Biso   1.000  C
  H603     1.0000 0.16088  0.49515  0.74036  Biso   1.000  H
  H604     1.0000 0.16096  0.49515  0.74036  Biso   1.000  H
  C1168    1.0000 0.99581  0.44339  0.74381  Biso   1.000  C
  C1169    1.0000 0.99585  0.44348  0.74381  Biso   1.000  C
  C1170    1.0000 0.99573  0.44339  0.74381  Biso   1.000  C
  H605     1.0000 0.82852  0.39283  0.74237  Biso   1.000  H
  H606     1.0000 0.16469  0.85132  0.70347  Biso   1.000  H
  C1171    1.0000 0.99503  0.79231  0.70375  Biso   1.000  C
  C1172    1.0000 0.99496  0.79231  0.70375  Biso   1.000  C
  H607     1.0000 0.82421  0.69391  0.70417  Biso   1.000  H
  C1173    1.0000 0.00410  0.44757  0.75619  Biso   1.000  C
  C1174    1.0000 0.00422  0.44766  0.75619  Biso   1.000  C
  C1175    1.0000 0.00414  0.44766  0.75619  Biso   1.000  C
  C1176    1.0000 0.99863  0.90333  0.70353  Biso   1.000  C
  C1177    1.0000 0.99856  0.90333  0.70353  Biso   1.000  C
  C1178    1.0000 0.10596  0.51911  0.76182  Biso   1.000  C
  C1179    1.0000 0.90892  0.38319  0.76302  Biso   1.000  C
  N102     1.0000 0.09990  0.99806  0.70352  Biso   1.000  N
  N103     1.0000 0.09995  0.99815  0.70352  Biso   1.000  N
  N104     1.0000 0.09983  0.99806  0.70352  Biso   1.000  N
  N105     1.0000 0.89824  0.90000  0.70352  Biso   1.000  N
  N106     1.0000 0.89816  0.90000  0.70352  Biso   1.000  N
  C1180    1.0000 0.11197  0.52448  0.77341  Biso   1.000  C
  H608     1.0000 0.17146  0.56430  0.75764  Biso   1.000  H
  C1181    1.0000 0.11189  0.52448  0.77341  Biso   1.000  C
  H609     1.0000 0.17139  0.56430  0.75764  Biso   1.000  H
  H610     1.0000 0.83899  0.33417  0.75963  Biso   1.000  H
  C1182    1.0000 0.91632  0.39061  0.77472  Biso   1.000  C
  H611     1.0000 0.83911  0.33425  0.75963  Biso   1.000  H
  C1183    1.0000 0.91640  0.39061  0.77472  Biso   1.000  C
  H612     1.0000 0.83904  0.33425  0.75963  Biso   1.000  H
  C1184    1.0000 0.09667  0.09527  0.70353  Biso   1.000  C
  C1185    1.0000 0.09671  0.09535  0.70353  Biso   1.000  C
  C1186    1.0000 0.09659  0.09527  0.70353  Biso   1.000  C
  C1187    1.0000 0.09664  0.09535  0.70353  Biso   1.000  C
  C1188    1.0000 0.90477  0.00139  0.70353  Biso   1.000  C
  C1189    1.0000 0.90470  0.00139  0.70353  Biso   1.000  C
  C1190    1.0000 0.01835  0.46249  0.78031  Biso   1.000  C
  H613     1.0000 0.18213  0.57206  0.77684  Biso   1.000  H
  H614     1.0000 0.18218  0.57215  0.77684  Biso   1.000  H
  H615     1.0000 0.85110  0.34627  0.77904  Biso   1.000  H
  H616     1.0000 0.85122  0.34636  0.77904  Biso   1.000  H
  H617     1.0000 0.85114  0.34636  0.77904  Biso   1.000  H
  N107     1.0000 0.00184  0.10175  0.70352  Biso   1.000  N
  C1191    1.0000 0.20762  0.20271  0.70375  Biso   1.000  C
  N108     1.0000 0.00188  0.10183  0.70352  Biso   1.000  N
  C1192    1.0000 0.20769  0.20271  0.70375  Biso   1.000  C
  N109     1.0000 0.00177  0.10175  0.70352  Biso   1.000  N
  C1193    1.0000 0.79735  0.00497  0.70375  Biso   1.000  C
  C1194    1.0000 0.79739  0.00506  0.70375  Biso   1.000  C
  B72      1.0000 0.02496  0.48117  0.79353  Biso   1.000  B
  B73      1.0000 0.02500  0.48125  0.79353  Biso   1.000  B
  B74      1.0000 0.02488  0.48117  0.79353  Biso   1.000  B
  B75      1.0000 0.02493  0.48125  0.79353  Biso   1.000  B
  C1195    1.0000 0.21445  0.30810  0.70373  Biso   1.000  C
  C1196    1.0000 0.30759  0.19972  0.70416  Biso   1.000  C
  C1197    1.0000 0.30751  0.19972  0.70416  Biso   1.000  C
  C1198    1.0000 0.69190  0.90631  0.70373  Biso   1.000  C
  C1199    1.0000 0.80036  0.10789  0.70416  Biso   1.000  C
  O123     1.0000 0.13401  0.50965  0.79890  Biso   1.000  O
  N110     1.0000 0.01493  0.59875  0.79539  Biso   1.000  N
  O124     1.0000 0.13406  0.50973  0.79890  Biso   1.000  O
  N111     1.0000 0.01497  0.59884  0.79539  Biso   1.000  N
  O125     1.0000 0.93524  0.39198  0.80046  Biso   1.000  O
  O126     1.0000 0.93529  0.39206  0.80046  Biso   1.000  O
  H618     1.0000 0.14864  0.31338  0.70347  Biso   1.000  H
  C1200    1.0000 0.31919  0.40445  0.70414  Biso   1.000  C
  C1201    1.0000 0.31931  0.40454  0.70414  Biso   1.000  C
  C1202    1.0000 0.31924  0.40454  0.70414  Biso   1.000  C
  C1203    1.0000 0.40894  0.29949  0.70456  Biso   1.000  C
  H619     1.0000 0.30604  0.13031  0.70417  Biso   1.000  H
  H620     1.0000 0.68662  0.83520  0.70347  Biso   1.000  H
  C1204    1.0000 0.59550  0.91467  0.70414  Biso   1.000  C
  H621     1.0000 0.68666  0.83529  0.70347  Biso   1.000  H
  C1205    1.0000 0.59554  0.91476  0.70414  Biso   1.000  C
  C1206    1.0000 0.70060  0.10951  0.70456  Biso   1.000  C
  H622     1.0000 0.86974  0.17576  0.70417  Biso   1.000  H
  H623     1.0000 0.86979  0.17585  0.70417  Biso   1.000  H
  C1207    1.0000 0.70052  0.10951  0.70456  Biso   1.000  C
  C1208    1.0000 0.10477  0.47051  0.80968  Biso   1.000  C
  C1209    1.0000 0.10470  0.47051  0.80968  Biso   1.000  C
  C1210    1.0000 0.10943  0.70048  0.79545  Biso   1.000  C
  C1211    1.0000 0.91473  0.59551  0.79586  Biso   1.000  C
  C1212    1.0000 0.91480  0.59551  0.79586  Biso   1.000  C
  C1213    1.0000 0.98715  0.39905  0.81055  Biso   1.000  C
  C1214    1.0000 0.98719  0.39914  0.81055  Biso   1.000  C
  C1215    1.0000 0.98708  0.39905  0.81055  Biso   1.000  C
  C1216    1.0000 0.98712  0.39914  0.81055  Biso   1.000  C
  H624     1.0000 0.32322  0.47497  0.70407  Biso   1.000  H
  N112     1.0000 0.41616  0.40121  0.70462  Biso   1.000  N
  H625     1.0000 0.32326  0.47505  0.70407  Biso   1.000  H
  H626     1.0000 0.47593  0.29642  0.70477  Biso   1.000  H
  H627     1.0000 0.52507  0.84825  0.70407  Biso   1.000  H
  H628     1.0000 0.52499  0.84825  0.70407  Biso   1.000  H
  N113     1.0000 0.59886  0.01503  0.70462  Biso   1.000  N
  H629     1.0000 0.70367  0.17960  0.70477  Biso   1.000  H
  C1217    1.0000 0.17563  0.49379  0.81877  Biso   1.000  C
  H630     1.0000 0.17949  0.70355  0.79523  Biso   1.000  H
  C1218    1.0000 0.10784  0.80024  0.79584  Biso   1.000  C
  H631     1.0000 0.17954  0.70363  0.79523  Biso   1.000  H
  C1219    1.0000 0.10789  0.80033  0.79584  Biso   1.000  C
  C1220    1.0000 0.10777  0.80024  0.79584  Biso   1.000  C
  C1221    1.0000 0.10781  0.80033  0.79584  Biso   1.000  C
  C1222    1.0000 0.90634  0.69187  0.79627  Biso   1.000  C
  H632     1.0000 0.84823  0.52500  0.79594  Biso   1.000  H
  C1223    1.0000 0.90638  0.69195  0.79627  Biso   1.000  C
  C1224    1.0000 0.93839  0.34806  0.82058  Biso   1.000  C
  C1225    1.0000 0.93851  0.34815  0.82058  Biso   1.000  C
  C1226    1.0000 0.93844  0.34815  0.82058  Biso   1.000  C
  B76      1.0000 0.54377  0.51880  0.70648  Biso   1.000  B
  B77      1.0000 0.54370  0.51880  0.70648  Biso   1.000  B
  B78      1.0000 0.48127  0.02501  0.70648  Biso   1.000  B
  C1227    1.0000 0.12679  0.44646  0.82906  Biso   1.000  C
  H633     1.0000 0.25427  0.54000  0.81803  Biso   1.000  H
  C1228    1.0000 0.12691  0.44655  0.82906  Biso   1.000  C
  H634     1.0000 0.25420  0.54000  0.81803  Biso   1.000  H
  C1229    1.0000 0.12683  0.44655  0.82906  Biso   1.000  C
  C1230    1.0000 0.00489  0.79726  0.79625  Biso   1.000  C
  H635     1.0000 0.17570  0.86965  0.79583  Biso   1.000  H
  C1231    1.0000 0.00501  0.79734  0.79625  Biso   1.000  C
  H636     1.0000 0.17575  0.86973  0.79583  Biso   1.000  H
  C1232    1.0000 0.00493  0.79734  0.79625  Biso   1.000  C
  H637     1.0000 0.83524  0.68658  0.79654  Biso   1.000  H
  C1233    1.0000 0.01077  0.37347  0.82993  Biso   1.000  C
  C1234    1.0000 0.01081  0.37356  0.82993  Biso   1.000  C
  C1235    1.0000 0.01069  0.37347  0.82993  Biso   1.000  C
  C1236    1.0000 0.01073  0.37356  0.82993  Biso   1.000  C
  H638     1.0000 0.86033  0.29827  0.82113  Biso   1.000  H
  H639     1.0000 0.86037  0.29835  0.82113  Biso   1.000  H
  C1237    1.0000 0.55584  0.53747  0.71970  Biso   1.000  C
  O127     1.0000 0.62435  0.49032  0.70111  Biso   1.000  O
  O128     1.0000 0.54325  0.60799  0.69953  Biso   1.000  O
  C1238    1.0000 0.55588  0.53755  0.71970  Biso   1.000  C
  O129     1.0000 0.39199  0.93522  0.69953  Biso   1.000  O
  O130     1.0000 0.39207  0.93522  0.69953  Biso   1.000  O
  C1239    1.0000 0.46251  0.01836  0.71970  Biso   1.000  C
  O131     1.0000 0.50973  0.13407  0.70111  Biso   1.000  O
  C1240    1.0000 0.46263  0.01844  0.71970  Biso   1.000  C
  O132     1.0000 0.50977  0.13415  0.70111  Biso   1.000  O
  C1241    1.0000 0.46255  0.01844  0.71970  Biso   1.000  C
  Cl127    1.0000 0.21410  0.47929  0.84084  Biso   1.000  Cl
  Cl128    1.0000 0.21414  0.47938  0.84084  Biso   1.000  Cl
  C1242    1.0000 0.00138  0.90469  0.79647  Biso   1.000  C
  C1243    1.0000 0.00131  0.90469  0.79647  Biso   1.000  C
  Cl129    1.0000 0.94920  0.31208  0.84279  Biso   1.000  Cl
  Cl130    1.0000 0.94928  0.31208  0.84279  Biso   1.000  Cl
  C1244    1.0000 0.58747  0.47548  0.72658  Biso   1.000  C
  C1245    1.0000 0.52569  0.60935  0.72527  Biso   1.000  C
  C1246    1.0000 0.52581  0.60944  0.72527  Biso   1.000  C
  C1247    1.0000 0.58739  0.47548  0.72658  Biso   1.000  C
  C1248    1.0000 0.52573  0.60944  0.72527  Biso   1.000  C
  C1249    1.0000 0.63424  0.52945  0.69031  Biso   1.000  C
  C1250    1.0000 0.63429  0.52954  0.69031  Biso   1.000  C
  C1251    1.0000 0.63417  0.52945  0.69031  Biso   1.000  C
  C1252    1.0000 0.58808  0.60091  0.68944  Biso   1.000  C
  C1253    1.0000 0.58800  0.60091  0.68944  Biso   1.000  C
  C1254    1.0000 0.39908  0.98706  0.68944  Biso   1.000  C
  C1255    1.0000 0.39913  0.98715  0.68944  Biso   1.000  C
  C1256    1.0000 0.39058  0.91629  0.72527  Biso   1.000  C
  C1257    1.0000 0.39069  0.91638  0.72527  Biso   1.000  C
  C1258    1.0000 0.39062  0.91638  0.72527  Biso   1.000  C
  C1259    1.0000 0.52453  0.11198  0.72658  Biso   1.000  C
  C1260    1.0000 0.52458  0.11207  0.72658  Biso   1.000  C
  C1261    1.0000 0.47059  0.10482  0.69031  Biso   1.000  C
  C1262    1.0000 0.47052  0.10482  0.69031  Biso   1.000  C
  N114     1.0000 0.90007  0.89821  0.79649  Biso   1.000  N
  N115     1.0000 0.90000  0.89821  0.79649  Biso   1.000  N
  N116     1.0000 0.10182  0.00190  0.79649  Biso   1.000  N
  N117     1.0000 0.10175  0.00190  0.79649  Biso   1.000  N
  H640     1.0000 0.61005  0.42790  0.72317  Biso   1.000  H
  C1263    1.0000 0.58683  0.48085  0.73817  Biso   1.000  C
  C1264    1.0000 0.58687  0.48094  0.73817  Biso   1.000  C
  C1265    1.0000 0.52571  0.61677  0.73699  Biso   1.000  C
  H641     1.0000 0.50481  0.65369  0.72097  Biso   1.000  H
  C1266    1.0000 0.52575  0.61685  0.73699  Biso   1.000  C
  H642     1.0000 0.50488  0.65369  0.72097  Biso   1.000  H
  C1267    1.0000 0.68183  0.50618  0.68123  Biso   1.000  C
  C1268    1.0000 0.68187  0.50626  0.68123  Biso   1.000  C
  C1269    1.0000 0.59031  0.65190  0.67943  Biso   1.000  C
  C1270    1.0000 0.59039  0.65190  0.67943  Biso   1.000  C
  C1271    1.0000 0.34808  0.93838  0.67943  Biso   1.000  C
  C1272    1.0000 0.34813  0.93846  0.67943  Biso   1.000  C
  C1273    1.0000 0.38318  0.90887  0.73699  Biso   1.000  C
  H643     1.0000 0.34634  0.85115  0.72097  Biso   1.000  H
  C1274    1.0000 0.38322  0.90896  0.73699  Biso   1.000  C
  H644     1.0000 0.57217  0.18216  0.72317  Biso   1.000  H
  C1275    1.0000 0.51919  0.10601  0.73817  Biso   1.000  C
  H645     1.0000 0.57222  0.18224  0.72317  Biso   1.000  H
  H646     1.0000 0.57210  0.18216  0.72317  Biso   1.000  H
  C1276    1.0000 0.51911  0.10601  0.73817  Biso   1.000  C
  H647     1.0000 0.57214  0.18224  0.72317  Biso   1.000  H
  C1277    1.0000 0.49383  0.17568  0.68123  Biso   1.000  C
  C1278    1.0000 0.49388  0.17576  0.68123  Biso   1.000  C
  C1279    1.0000 0.90336  0.99857  0.79647  Biso   1.000  C
  C1280    1.0000 0.90329  0.99857  0.79647  Biso   1.000  C
  C1281    1.0000 0.09528  0.09663  0.79647  Biso   1.000  C
  C1282    1.0000 0.09532  0.09672  0.79647  Biso   1.000  C
  C1283    1.0000 0.09521  0.09663  0.79647  Biso   1.000  C
  H648     1.0000 0.60714  0.43566  0.74237  Biso   1.000  H
  C1284    1.0000 0.55651  0.55239  0.74381  Biso   1.000  C
  H649     1.0000 0.60718  0.43574  0.74237  Biso   1.000  H
  C1285    1.0000 0.55658  0.55239  0.74381  Biso   1.000  C
  H650     1.0000 0.60706  0.43566  0.74237  Biso   1.000  H
  H651     1.0000 0.50481  0.66580  0.74036  Biso   1.000  H
  H652     1.0000 0.50488  0.66580  0.74036  Biso   1.000  H
  C1286    1.0000 0.68031  0.55350  0.67094  Biso   1.000  C
  H653     1.0000 0.71425  0.45996  0.68197  Biso   1.000  H
  C1287    1.0000 0.68038  0.55350  0.67094  Biso   1.000  C
  H654     1.0000 0.71429  0.46005  0.68197  Biso   1.000  H
  H655     1.0000 0.71418  0.45996  0.68197  Biso   1.000  H
  H656     1.0000 0.71422  0.46005  0.68197  Biso   1.000  H
  H657     1.0000 0.56204  0.70170  0.67887  Biso   1.000  H
  C1288    1.0000 0.63727  0.62649  0.67006  Biso   1.000  C
  C1289    1.0000 0.63720  0.62649  0.67006  Biso   1.000  C
  H658     1.0000 0.29832  0.86027  0.67887  Biso   1.000  H
  H659     1.0000 0.29837  0.86036  0.67887  Biso   1.000  H
  H660     1.0000 0.29825  0.86027  0.67887  Biso   1.000  H
  C1290    1.0000 0.37357  0.01077  0.67006  Biso   1.000  C
  C1291    1.0000 0.37361  0.01085  0.67006  Biso   1.000  C
  C1292    1.0000 0.37350  0.01077  0.67006  Biso   1.000  C
  H661     1.0000 0.33423  0.83904  0.74036  Biso   1.000  H
  C1293    1.0000 0.44768  0.00420  0.74381  Biso   1.000  C
  H662     1.0000 0.56433  0.17150  0.74237  Biso   1.000  H
  H663     1.0000 0.56441  0.17150  0.74237  Biso   1.000  H
  C1294    1.0000 0.44656  0.12690  0.67094  Biso   1.000  C
  H664     1.0000 0.54008  0.25429  0.68197  Biso   1.000  H
  H665     1.0000 0.54001  0.25429  0.68197  Biso   1.000  H
  C1295    1.0000 0.79236  0.99499  0.79625  Biso   1.000  C
  N118     1.0000 0.99821  0.09996  0.79649  Biso   1.000  N
  N119     1.0000 0.99814  0.09996  0.79649  Biso   1.000  N
  C1296    1.0000 0.20270  0.20765  0.79625  Biso   1.000  C
  C1297    1.0000 0.20263  0.20765  0.79625  Biso   1.000  C
  C1298    1.0000 0.55239  0.55657  0.75619  Biso   1.000  C
  C1299    1.0000 0.55232  0.55657  0.75619  Biso   1.000  C
  Cl131    1.0000 0.73479  0.52067  0.65916  Biso   1.000  Cl
  Cl132    1.0000 0.63710  0.68788  0.65721  Biso   1.000  Cl
  Cl133    1.0000 0.63722  0.68797  0.65721  Biso   1.000  Cl
  Cl134    1.0000 0.63715  0.68797  0.65721  Biso   1.000  Cl
  Cl135    1.0000 0.31207  0.94920  0.65721  Biso   1.000  Cl
  C1300    1.0000 0.44346  0.99576  0.75619  Biso   1.000  C
  C1301    1.0000 0.44350  0.99585  0.75619  Biso   1.000  C
  Cl136    1.0000 0.47939  0.21413  0.65916  Biso   1.000  Cl
  Cl137    1.0000 0.47943  0.21422  0.65916  Biso   1.000  Cl
  Cl138    1.0000 0.47932  0.21413  0.65916  Biso   1.000  Cl
  C1302    1.0000 0.69246  0.89207  0.79584  Biso   1.000  C
  C1303    1.0000 0.78556  0.09365  0.79627  Biso   1.000  C
  C1304    1.0000 0.78561  0.09373  0.79627  Biso   1.000  C
  C1305    1.0000 0.30809  0.21447  0.79627  Biso   1.000  C
  C1306    1.0000 0.19972  0.30759  0.79584  Biso   1.000  C
  C1307    1.0000 0.19965  0.30759  0.79584  Biso   1.000  C
  C1308    1.0000 0.48084  0.58684  0.76182  Biso   1.000  C
  C1309    1.0000 0.61676  0.52579  0.76302  Biso   1.000  C
  C1310    1.0000 0.48095  0.58692  0.76182  Biso   1.000  C
  C1311    1.0000 0.61683  0.52579  0.76302  Biso   1.000  C
  C1312    1.0000 0.48088  0.58692  0.76182  Biso   1.000  C
  C1313    1.0000 0.41315  0.89395  0.76182  Biso   1.000  C
  C1314    1.0000 0.41320  0.89404  0.76182  Biso   1.000  C
  C1315    1.0000 0.41308  0.89395  0.76182  Biso   1.000  C
  C1316    1.0000 0.47429  0.09109  0.76302  Biso   1.000  C
  C1317    1.0000 0.59107  0.89045  0.79545  Biso   1.000  C
  H666     1.0000 0.69396  0.82420  0.79583  Biso   1.000  H
  C1318    1.0000 0.59111  0.89054  0.79545  Biso   1.000  C
  C1319    1.0000 0.59100  0.89045  0.79545  Biso   1.000  C
  C1320    1.0000 0.59104  0.89054  0.79545  Biso   1.000  C
  H667     1.0000 0.85140  0.16476  0.79654  Biso   1.000  H
  C1321    1.0000 0.68081  0.08529  0.79586  Biso   1.000  C
  H668     1.0000 0.31336  0.14865  0.79654  Biso   1.000  H
  C1322    1.0000 0.40450  0.31927  0.79586  Biso   1.000  C
  H669     1.0000 0.31340  0.14873  0.79654  Biso   1.000  H
  C1323    1.0000 0.40443  0.31927  0.79586  Biso   1.000  C
  C1324    1.0000 0.29945  0.40897  0.79545  Biso   1.000  C
  H670     1.0000 0.13028  0.30605  0.79583  Biso   1.000  H
  C1325    1.0000 0.29952  0.40897  0.79545  Biso   1.000  C
  C1326    1.0000 0.47545  0.58744  0.77341  Biso   1.000  C
  H671     1.0000 0.43567  0.60713  0.75764  Biso   1.000  H
  C1327    1.0000 0.47549  0.58752  0.77341  Biso   1.000  C
  H672     1.0000 0.43572  0.60722  0.75764  Biso   1.000  H
  H673     1.0000 0.66571  0.50481  0.75963  Biso   1.000  H
  C1328    1.0000 0.60937  0.52579  0.77472  Biso   1.000  C
  H674     1.0000 0.66583  0.50490  0.75963  Biso   1.000  H
  H675     1.0000 0.66576  0.50490  0.75963  Biso   1.000  H
  C1329    1.0000 0.41253  0.88798  0.77341  Biso   1.000  C
  H676     1.0000 0.39282  0.82846  0.75764  Biso   1.000  H
  H677     1.0000 0.39293  0.82855  0.75764  Biso   1.000  H
  H678     1.0000 0.39286  0.82855  0.75764  Biso   1.000  H
  H679     1.0000 0.49517  0.16093  0.75963  Biso   1.000  H
  C1330    1.0000 0.47427  0.08367  0.77472  Biso   1.000  C
  H680     1.0000 0.49521  0.16101  0.75963  Biso   1.000  H
  C1331    1.0000 0.47434  0.08367  0.77472  Biso   1.000  C
  N120     1.0000 0.58381  0.98493  0.79539  Biso   1.000  N
  H681     1.0000 0.52405  0.82036  0.79523  Biso   1.000  H
  N121     1.0000 0.58385  0.98502  0.79539  Biso   1.000  N
  H682     1.0000 0.52409  0.82045  0.79523  Biso   1.000  H
  H683     1.0000 0.67680  0.15172  0.79594  Biso   1.000  H
  H684     1.0000 0.67685  0.15180  0.79594  Biso   1.000  H
  H685     1.0000 0.67673  0.15172  0.79594  Biso   1.000  H
  H686     1.0000 0.67677  0.15180  0.79594  Biso   1.000  H
  H687     1.0000 0.47496  0.32328  0.79594  Biso   1.000  H
  N122     1.0000 0.40117  0.41613  0.79539  Biso   1.000  N
  N123     1.0000 0.40121  0.41622  0.79539  Biso   1.000  N
  H688     1.0000 0.29636  0.47591  0.79523  Biso   1.000  H
  H689     1.0000 0.29641  0.47599  0.79523  Biso   1.000  H
  C1332    1.0000 0.53751  0.55589  0.78031  Biso   1.000  C
  H690     1.0000 0.42789  0.61003  0.77684  Biso   1.000  H
  H691     1.0000 0.42794  0.61012  0.77684  Biso   1.000  H
  C1333    1.0000 0.53743  0.55589  0.78031  Biso   1.000  C
  H692     1.0000 0.42782  0.61003  0.77684  Biso   1.000  H
  H693     1.0000 0.42786  0.61012  0.77684  Biso   1.000  H
  H694     1.0000 0.65368  0.50481  0.77904  Biso   1.000  H
  H695     1.0000 0.65372  0.50490  0.77904  Biso   1.000  H
  H696     1.0000 0.65360  0.50481  0.77904  Biso   1.000  H
  H697     1.0000 0.65364  0.50490  0.77904  Biso   1.000  H
  C1334    1.0000 0.44413  0.98161  0.78031  Biso   1.000  C
  H698     1.0000 0.39000  0.81781  0.77684  Biso   1.000  H
  C1335    1.0000 0.44421  0.98161  0.78031  Biso   1.000  C
  H699     1.0000 0.38993  0.81781  0.77684  Biso   1.000  H
  H700     1.0000 0.49517  0.14882  0.77904  Biso   1.000  H
  H701     1.0000 0.49522  0.14890  0.77904  Biso   1.000  H
  B79      1.0000 0.45624  0.97496  0.79353  Biso   1.000  B
  B80      1.0000 0.45628  0.97504  0.79353  Biso   1.000  B
  B81      1.0000 0.51875  0.54378  0.79353  Biso   1.000  B
  B82      1.0000 0.51882  0.54378  0.79353  Biso   1.000  B
  O133     1.0000 0.37565  0.86590  0.79890  Biso   1.000  O
  O134     1.0000 0.45675  0.06474  0.80046  Biso   1.000  O
  O135     1.0000 0.45687  0.06483  0.80046  Biso   1.000  O
  O136     1.0000 0.45680  0.06483  0.80046  Biso   1.000  O
  O137     1.0000 0.49029  0.62436  0.79890  Biso   1.000  O
  O138     1.0000 0.60799  0.54327  0.80046  Biso   1.000  O
  O139     1.0000 0.49022  0.62436  0.79890  Biso   1.000  O
  O140     1.0000 0.60792  0.54327  0.80046  Biso   1.000  O
  C1336    1.0000 0.36575  0.89514  0.80968  Biso   1.000  C
  C1337    1.0000 0.36580  0.89523  0.80968  Biso   1.000  C
  C1338    1.0000 0.36568  0.89514  0.80968  Biso   1.000  C
  C1339    1.0000 0.41200  0.01290  0.81055  Biso   1.000  C
  C1340    1.0000 0.52950  0.63425  0.80968  Biso   1.000  C
  C1341    1.0000 0.52943  0.63425  0.80968  Biso   1.000  C
  C1342    1.0000 0.60084  0.58803  0.81055  Biso   1.000  C
  C1343    1.0000 0.60088  0.58812  0.81055  Biso   1.000  C
  C1344    1.0000 0.31814  0.82429  0.81877  Biso   1.000  C
  C1345    1.0000 0.40969  0.06159  0.82058  Biso   1.000  C
  C1346    1.0000 0.50618  0.68183  0.81877  Biso   1.000  C
  C1347    1.0000 0.50622  0.68191  0.81877  Biso   1.000  C
  C1348    1.0000 0.50610  0.68183  0.81877  Biso   1.000  C
  C1349    1.0000 0.65184  0.59034  0.82058  Biso   1.000  C
  C1350    1.0000 0.65188  0.59042  0.82058  Biso   1.000  C
  C1351    1.0000 0.31963  0.87306  0.82906  Biso   1.000  C
  H702     1.0000 0.28577  0.74567  0.81803  Biso   1.000  H
  C1352    1.0000 0.31968  0.87315  0.82906  Biso   1.000  C
  H703     1.0000 0.28581  0.74575  0.81803  Biso   1.000  H
  H704     1.0000 0.28570  0.74567  0.81803  Biso   1.000  H
  C1353    1.0000 0.36279  0.98920  0.82993  Biso   1.000  C
  C1354    1.0000 0.36271  0.98920  0.82993  Biso   1.000  C
  H705     1.0000 0.43803  0.13969  0.82113  Biso   1.000  H
  H706     1.0000 0.43796  0.13969  0.82113  Biso   1.000  H
  C1355    1.0000 0.55345  0.68038  0.82906  Biso   1.000  C
  H707     1.0000 0.45998  0.71423  0.81803  Biso   1.000  H
  C1356    1.0000 0.55353  0.68038  0.82906  Biso   1.000  C
  H708     1.0000 0.46002  0.71432  0.81803  Biso   1.000  H
  H709     1.0000 0.45991  0.71423  0.81803  Biso   1.000  H
  H710     1.0000 0.70163  0.56203  0.82113  Biso   1.000  H
  C1357    1.0000 0.62647  0.63723  0.82993  Biso   1.000  C
  H711     1.0000 0.70167  0.56211  0.82113  Biso   1.000  H
  C1358    1.0000 0.62652  0.63732  0.82993  Biso   1.000  C
  Cl139    1.0000 0.26524  0.78583  0.84084  Biso   1.000  Cl
  Cl140    1.0000 0.26516  0.78583  0.84084  Biso   1.000  Cl
  Cl141    1.0000 0.36285  0.05076  0.84279  Biso   1.000  Cl
  Cl142    1.0000 0.36289  0.05084  0.84279  Biso   1.000  Cl
  Cl143    1.0000 0.52062  0.73478  0.84084  Biso   1.000  Cl
  Cl144    1.0000 0.52066  0.73486  0.84084  Biso   1.000  Cl
  Cl145    1.0000 0.68787  0.63715  0.84279  Biso   1.000  Cl
  Cl146    1.0000 0.68791  0.63723  0.84279  Biso   1.000  Cl
  C1359    1.0000 0.98922  0.36273  0.67006  Biso   1.000  C
  C1360    1.0000 0.06148  0.40963  0.67943  Biso   1.000  C
  Cl147    1.0000 0.05070  0.36282  0.65721  Biso   1.000  Cl
  C1361    1.0000 0.87305  0.31958  0.67094  Biso   1.000  C
  C1362    1.0000 0.87317  0.31967  0.67094  Biso   1.000  C
  C1363    1.0000 0.87310  0.31967  0.67094  Biso   1.000  C
  C1364    1.0000 0.01279  0.41193  0.68944  Biso   1.000  C
  H712     1.0000 0.13959  0.43794  0.67887  Biso   1.000  H
  C1365    1.0000 0.82433  0.31814  0.68123  Biso   1.000  C
  C1366    1.0000 0.82426  0.31814  0.68123  Biso   1.000  C
  Cl148    1.0000 0.78582  0.26518  0.65916  Biso   1.000  Cl
  O141     1.0000 0.06475  0.45678  0.69953  Biso   1.000  O
  C1367    1.0000 0.89523  0.36571  0.69031  Biso   1.000  C
  C1368    1.0000 0.89528  0.36580  0.69031  Biso   1.000  C
  C1369    1.0000 0.89516  0.36571  0.69031  Biso   1.000  C
  C1370    1.0000 0.89520  0.36580  0.69031  Biso   1.000  C
  O142     1.0000 0.06471  0.45670  0.69953  Biso   1.000  O
  O143     1.0000 0.06464  0.45670  0.69953  Biso   1.000  O
  H713     1.0000 0.74573  0.28573  0.68197  Biso   1.000  H
  H714     1.0000 0.74566  0.28573  0.68197  Biso   1.000  H
  B83      1.0000 0.97495  0.45618  0.70648  Biso   1.000  B
  B84      1.0000 0.97507  0.45627  0.70648  Biso   1.000  B
  B85      1.0000 0.97500  0.45627  0.70648  Biso   1.000  B
  O144     1.0000 0.86592  0.37561  0.70111  Biso   1.000  O
  O145     1.0000 0.86596  0.37569  0.70111  Biso   1.000  O
  O146     1.0000 0.86584  0.37561  0.70111  Biso   1.000  O
  C1371    1.0000 0.98160  0.44408  0.71970  Biso   1.000  C
  N124     1.0000 0.98502  0.58383  0.70462  Biso   1.000  N
  C1372    1.0000 0.98164  0.44416  0.71970  Biso   1.000  C
  C1373    1.0000 0.98153  0.44408  0.71970  Biso   1.000  C
  C1374    1.0000 0.08357  0.47418  0.72527  Biso   1.000  C
  C1375    1.0000 0.08361  0.47426  0.72527  Biso   1.000  C
  C1376    1.0000 0.88799  0.41253  0.72658  Biso   1.000  C
  C1377    1.0000 0.08526  0.68078  0.70414  Biso   1.000  C
  C1378    1.0000 0.89046  0.59099  0.70456  Biso   1.000  C
  C1379    1.0000 0.89058  0.59108  0.70456  Biso   1.000  C
  C1380    1.0000 0.89050  0.59108  0.70456  Biso   1.000  C
  C1381    1.0000 0.08522  0.68070  0.70414  Biso   1.000  C
  C1382    1.0000 0.08514  0.68070  0.70414  Biso   1.000  C
  H715     1.0000 0.14885  0.49515  0.72097  Biso   1.000  H
  C1383    1.0000 0.09095  0.47418  0.73699  Biso   1.000  C
  H716     1.0000 0.14877  0.49515  0.72097  Biso   1.000  H
  C1384    1.0000 0.09107  0.47426  0.73699  Biso   1.000  C
  C1385    1.0000 0.09099  0.47426  0.73699  Biso   1.000  C
  H717     1.0000 0.81784  0.38993  0.72317  Biso   1.000  H
  C1386    1.0000 0.89398  0.41312  0.73817  Biso   1.000  C
  C1387    1.0000 0.89405  0.41312  0.73817  Biso   1.000  C
  H718     1.0000 0.81777  0.38993  0.72317  Biso   1.000  H
  C1388    1.0000 0.09360  0.78549  0.70373  Biso   1.000  C
  H719     1.0000 0.15167  0.67669  0.70407  Biso   1.000  H
  C1389    1.0000 0.09364  0.78557  0.70373  Biso   1.000  C
  H720     1.0000 0.15171  0.67677  0.70407  Biso   1.000  H
  H721     1.0000 0.82044  0.52406  0.70477  Biso   1.000  H
  C1390    1.0000 0.89212  0.69238  0.70416  Biso   1.000  C
  C1391    1.0000 0.89216  0.69246  0.70416  Biso   1.000  C
  C1392    1.0000 0.89205  0.69238  0.70416  Biso   1.000  C
  C1393    1.0000 0.89209  0.69246  0.70416  Biso   1.000  C
  H722     1.0000 0.16088  0.49515  0.74036  Biso   1.000  H
  C1394    1.0000 0.99581  0.44339  0.74381  Biso   1.000  C
  C1395    1.0000 0.99585  0.44348  0.74381  Biso   1.000  C
  C1396    1.0000 0.99573  0.44339  0.74381  Biso   1.000  C
  H723     1.0000 0.16096  0.49515  0.74036  Biso   1.000  H
  H724     1.0000 0.82852  0.39283  0.74237  Biso   1.000  H
  H725     1.0000 0.16469  0.85132  0.70347  Biso   1.000  H
  C1397    1.0000 0.99503  0.79231  0.70375  Biso   1.000  C
  C1398    1.0000 0.99496  0.79231  0.70375  Biso   1.000  C
  H726     1.0000 0.82421  0.69391  0.70417  Biso   1.000  H
  C1399    1.0000 0.00410  0.44757  0.75619  Biso   1.000  C
  C1400    1.0000 0.00422  0.44766  0.75619  Biso   1.000  C
  C1401    1.0000 0.00414  0.44766  0.75619  Biso   1.000  C
  C1402    1.0000 0.99863  0.90333  0.70353  Biso   1.000  C
  C1403    1.0000 0.99856  0.90333  0.70353  Biso   1.000  C
  C1404    1.0000 0.10596  0.51911  0.76182  Biso   1.000  C
  C1405    1.0000 0.90892  0.38319  0.76302  Biso   1.000  C
  N125     1.0000 0.09995  0.99815  0.70352  Biso   1.000  N
  N126     1.0000 0.89824  0.90000  0.70352  Biso   1.000  N
  N127     1.0000 0.89816  0.90000  0.70352  Biso   1.000  N
  N128     1.0000 0.09990  0.99806  0.70352  Biso   1.000  N
  N129     1.0000 0.09983  0.99806  0.70352  Biso   1.000  N
  C1406    1.0000 0.11197  0.52448  0.77341  Biso   1.000  C
  H727     1.0000 0.17146  0.56430  0.75764  Biso   1.000  H
  C1407    1.0000 0.11189  0.52448  0.77341  Biso   1.000  C
  H728     1.0000 0.17139  0.56430  0.75764  Biso   1.000  H
  H729     1.0000 0.83899  0.33417  0.75963  Biso   1.000  H
  C1408    1.0000 0.91632  0.39061  0.77472  Biso   1.000  C
  H730     1.0000 0.83911  0.33425  0.75963  Biso   1.000  H
  C1409    1.0000 0.91640  0.39061  0.77472  Biso   1.000  C
  H731     1.0000 0.83904  0.33425  0.75963  Biso   1.000  H
  C1410    1.0000 0.09667  0.09527  0.70353  Biso   1.000  C
  C1411    1.0000 0.09671  0.09535  0.70353  Biso   1.000  C
  C1412    1.0000 0.09659  0.09527  0.70353  Biso   1.000  C
  C1413    1.0000 0.09664  0.09535  0.70353  Biso   1.000  C
  C1414    1.0000 0.90477  0.00139  0.70353  Biso   1.000  C
  C1415    1.0000 0.90470  0.00139  0.70353  Biso   1.000  C
  C1416    1.0000 0.01835  0.46249  0.78031  Biso   1.000  C
  H732     1.0000 0.18213  0.57206  0.77684  Biso   1.000  H
  H733     1.0000 0.18218  0.57215  0.77684  Biso   1.000  H
  H734     1.0000 0.85110  0.34627  0.77904  Biso   1.000  H
  H735     1.0000 0.85122  0.34636  0.77904  Biso   1.000  H
  H736     1.0000 0.85114  0.34636  0.77904  Biso   1.000  H
  N130     1.0000 0.00184  0.10175  0.70352  Biso   1.000  N
  C1417    1.0000 0.20762  0.20271  0.70375  Biso   1.000  C
  N131     1.0000 0.00188  0.10183  0.70352  Biso   1.000  N
  C1418    1.0000 0.20769  0.20271  0.70375  Biso   1.000  C
  N132     1.0000 0.00177  0.10175  0.70352  Biso   1.000  N
  C1419    1.0000 0.79735  0.00497  0.70375  Biso   1.000  C
  C1420    1.0000 0.79739  0.00506  0.70375  Biso   1.000  C
  B86      1.0000 0.02496  0.48117  0.79353  Biso   1.000  B
  B87      1.0000 0.02500  0.48125  0.79353  Biso   1.000  B
  B88      1.0000 0.02488  0.48117  0.79353  Biso   1.000  B
  B89      1.0000 0.02493  0.48125  0.79353  Biso   1.000  B
  C1421    1.0000 0.21445  0.30810  0.70373  Biso   1.000  C
  C1422    1.0000 0.30759  0.19972  0.70416  Biso   1.000  C
  C1423    1.0000 0.30751  0.19972  0.70416  Biso   1.000  C
  C1424    1.0000 0.69190  0.90631  0.70373  Biso   1.000  C
  C1425    1.0000 0.80036  0.10789  0.70416  Biso   1.000  C
  O147     1.0000 0.13401  0.50965  0.79890  Biso   1.000  O
  N133     1.0000 0.01493  0.59875  0.79539  Biso   1.000  N
  O148     1.0000 0.13406  0.50973  0.79890  Biso   1.000  O
  N134     1.0000 0.01497  0.59884  0.79539  Biso   1.000  N
  O149     1.0000 0.93524  0.39198  0.80046  Biso   1.000  O
  O150     1.0000 0.93529  0.39206  0.80046  Biso   1.000  O
  H737     1.0000 0.14864  0.31338  0.70347  Biso   1.000  H
  C1426    1.0000 0.31919  0.40445  0.70414  Biso   1.000  C
  C1427    1.0000 0.31931  0.40454  0.70414  Biso   1.000  C
  C1428    1.0000 0.31924  0.40454  0.70414  Biso   1.000  C
  C1429    1.0000 0.40894  0.29949  0.70456  Biso   1.000  C
  H738     1.0000 0.30604  0.13031  0.70417  Biso   1.000  H
  H739     1.0000 0.68662  0.83520  0.70347  Biso   1.000  H
  C1430    1.0000 0.59550  0.91467  0.70414  Biso   1.000  C
  H740     1.0000 0.68666  0.83529  0.70347  Biso   1.000  H
  C1431    1.0000 0.59554  0.91476  0.70414  Biso   1.000  C
  C1432    1.0000 0.70060  0.10951  0.70456  Biso   1.000  C
  H741     1.0000 0.86974  0.17576  0.70417  Biso   1.000  H
  H742     1.0000 0.86979  0.17585  0.70417  Biso   1.000  H
  C1433    1.0000 0.70052  0.10951  0.70456  Biso   1.000  C
  C1434    1.0000 0.10477  0.47051  0.80968  Biso   1.000  C
  C1435    1.0000 0.10470  0.47051  0.80968  Biso   1.000  C
  C1436    1.0000 0.10943  0.70048  0.79545  Biso   1.000  C
  C1437    1.0000 0.91473  0.59551  0.79586  Biso   1.000  C
  C1438    1.0000 0.91480  0.59551  0.79586  Biso   1.000  C
  C1439    1.0000 0.98715  0.39905  0.81055  Biso   1.000  C
  C1440    1.0000 0.98719  0.39914  0.81055  Biso   1.000  C
  C1441    1.0000 0.98708  0.39905  0.81055  Biso   1.000  C
  C1442    1.0000 0.98712  0.39914  0.81055  Biso   1.000  C
  H743     1.0000 0.32322  0.47497  0.70407  Biso   1.000  H
  N135     1.0000 0.41616  0.40121  0.70462  Biso   1.000  N
  H744     1.0000 0.32326  0.47505  0.70407  Biso   1.000  H
  H745     1.0000 0.47593  0.29642  0.70477  Biso   1.000  H
  H746     1.0000 0.52507  0.84825  0.70407  Biso   1.000  H
  H747     1.0000 0.52499  0.84825  0.70407  Biso   1.000  H
  N136     1.0000 0.59886  0.01503  0.70462  Biso   1.000  N
  H748     1.0000 0.70367  0.17960  0.70477  Biso   1.000  H
  C1443    1.0000 0.17563  0.49379  0.81877  Biso   1.000  C
  H749     1.0000 0.17949  0.70355  0.79523  Biso   1.000  H
  H750     1.0000 0.17954  0.70363  0.79523  Biso   1.000  H
  C1444    1.0000 0.10784  0.80024  0.79584  Biso   1.000  C
  C1445    1.0000 0.10789  0.80033  0.79584  Biso   1.000  C
  C1446    1.0000 0.10777  0.80024  0.79584  Biso   1.000  C
  C1447    1.0000 0.10781  0.80033  0.79584  Biso   1.000  C
  C1448    1.0000 0.90634  0.69187  0.79627  Biso   1.000  C
  H751     1.0000 0.84823  0.52500  0.79594  Biso   1.000  H
  C1449    1.0000 0.90638  0.69195  0.79627  Biso   1.000  C
  C1450    1.0000 0.93839  0.34806  0.82058  Biso   1.000  C
  C1451    1.0000 0.93851  0.34815  0.82058  Biso   1.000  C
  C1452    1.0000 0.93844  0.34815  0.82058  Biso   1.000  C
  B90      1.0000 0.54377  0.51880  0.70648  Biso   1.000  B
  B91      1.0000 0.54370  0.51880  0.70648  Biso   1.000  B
  B92      1.0000 0.48127  0.02501  0.70648  Biso   1.000  B
  H752     1.0000 0.25427  0.54000  0.81803  Biso   1.000  H
  C1453    1.0000 0.12679  0.44646  0.82906  Biso   1.000  C
  H753     1.0000 0.25420  0.54000  0.81803  Biso   1.000  H
  C1454    1.0000 0.12691  0.44655  0.82906  Biso   1.000  C
  C1455    1.0000 0.12683  0.44655  0.82906  Biso   1.000  C
  C1456    1.0000 0.00489  0.79726  0.79625  Biso   1.000  C
  H754     1.0000 0.17570  0.86965  0.79583  Biso   1.000  H
  H755     1.0000 0.17575  0.86973  0.79583  Biso   1.000  H
  C1457    1.0000 0.00501  0.79734  0.79625  Biso   1.000  C
  C1458    1.0000 0.00493  0.79734  0.79625  Biso   1.000  C
  H756     1.0000 0.83524  0.68658  0.79654  Biso   1.000  H
  H757     1.0000 0.86033  0.29827  0.82113  Biso   1.000  H
  H758     1.0000 0.86037  0.29835  0.82113  Biso   1.000  H
  C1459    1.0000 0.01077  0.37347  0.82993  Biso   1.000  C
  C1460    1.0000 0.01081  0.37356  0.82993  Biso   1.000  C
  C1461    1.0000 0.01069  0.37347  0.82993  Biso   1.000  C
  C1462    1.0000 0.01073  0.37356  0.82993  Biso   1.000  C
  C1463    1.0000 0.55584  0.53747  0.71970  Biso   1.000  C
  O151     1.0000 0.62435  0.49032  0.70111  Biso   1.000  O
  O152     1.0000 0.54325  0.60799  0.69953  Biso   1.000  O
  C1464    1.0000 0.55588  0.53755  0.71970  Biso   1.000  C
  O153     1.0000 0.39199  0.93522  0.69953  Biso   1.000  O
  O154     1.0000 0.39207  0.93522  0.69953  Biso   1.000  O
  C1465    1.0000 0.46251  0.01836  0.71970  Biso   1.000  C
  O155     1.0000 0.50973  0.13407  0.70111  Biso   1.000  O
  C1466    1.0000 0.46263  0.01844  0.71970  Biso   1.000  C
  O156     1.0000 0.50977  0.13415  0.70111  Biso   1.000  O
  C1467    1.0000 0.46255  0.01844  0.71970  Biso   1.000  C
  Cl149    1.0000 0.21410  0.47929  0.84084  Biso   1.000  Cl
  Cl150    1.0000 0.21414  0.47938  0.84084  Biso   1.000  Cl
  C1468    1.0000 0.00138  0.90469  0.79647  Biso   1.000  C
  C1469    1.0000 0.00131  0.90469  0.79647  Biso   1.000  C
  Cl151    1.0000 0.94920  0.31208  0.84279  Biso   1.000  Cl
  Cl152    1.0000 0.94928  0.31208  0.84279  Biso   1.000  Cl
  C1470    1.0000 0.58747  0.47548  0.72658  Biso   1.000  C
  C1471    1.0000 0.52569  0.60935  0.72527  Biso   1.000  C
  C1472    1.0000 0.52581  0.60944  0.72527  Biso   1.000  C
  C1473    1.0000 0.58739  0.47548  0.72658  Biso   1.000  C
  C1474    1.0000 0.52573  0.60944  0.72527  Biso   1.000  C
  C1475    1.0000 0.63424  0.52945  0.69031  Biso   1.000  C
  C1476    1.0000 0.63429  0.52954  0.69031  Biso   1.000  C
  C1477    1.0000 0.63417  0.52945  0.69031  Biso   1.000  C
  C1478    1.0000 0.58808  0.60091  0.68944  Biso   1.000  C
  C1479    1.0000 0.58800  0.60091  0.68944  Biso   1.000  C
  C1480    1.0000 0.39908  0.98706  0.68944  Biso   1.000  C
  C1481    1.0000 0.39913  0.98715  0.68944  Biso   1.000  C
  C1482    1.0000 0.39058  0.91629  0.72527  Biso   1.000  C
  C1483    1.0000 0.39069  0.91638  0.72527  Biso   1.000  C
  C1484    1.0000 0.39062  0.91638  0.72527  Biso   1.000  C
  C1485    1.0000 0.52453  0.11198  0.72658  Biso   1.000  C
  C1486    1.0000 0.52458  0.11207  0.72658  Biso   1.000  C
  C1487    1.0000 0.47059  0.10482  0.69031  Biso   1.000  C
  C1488    1.0000 0.47052  0.10482  0.69031  Biso   1.000  C
  N137     1.0000 0.90007  0.89821  0.79649  Biso   1.000  N
  N138     1.0000 0.90000  0.89821  0.79649  Biso   1.000  N
  N139     1.0000 0.10182  0.00190  0.79649  Biso   1.000  N
  N140     1.0000 0.10175  0.00190  0.79649  Biso   1.000  N
  H759     1.0000 0.61005  0.42790  0.72317  Biso   1.000  H
  C1489    1.0000 0.58683  0.48085  0.73817  Biso   1.000  C
  C1490    1.0000 0.58687  0.48094  0.73817  Biso   1.000  C
  C1491    1.0000 0.52571  0.61677  0.73699  Biso   1.000  C
  H760     1.0000 0.50481  0.65369  0.72097  Biso   1.000  H
  C1492    1.0000 0.52575  0.61685  0.73699  Biso   1.000  C
  H761     1.0000 0.50488  0.65369  0.72097  Biso   1.000  H
  C1493    1.0000 0.68183  0.50618  0.68123  Biso   1.000  C
  C1494    1.0000 0.68187  0.50626  0.68123  Biso   1.000  C
  C1495    1.0000 0.59031  0.65190  0.67943  Biso   1.000  C
  C1496    1.0000 0.59039  0.65190  0.67943  Biso   1.000  C
  C1497    1.0000 0.34808  0.93838  0.67943  Biso   1.000  C
  C1498    1.0000 0.34813  0.93846  0.67943  Biso   1.000  C
  C1499    1.0000 0.38318  0.90887  0.73699  Biso   1.000  C
  H762     1.0000 0.34634  0.85115  0.72097  Biso   1.000  H
  C1500    1.0000 0.38322  0.90896  0.73699  Biso   1.000  C
  H763     1.0000 0.57217  0.18216  0.72317  Biso   1.000  H
  C1501    1.0000 0.51919  0.10601  0.73817  Biso   1.000  C
  H764     1.0000 0.57222  0.18224  0.72317  Biso   1.000  H
  H765     1.0000 0.57210  0.18216  0.72317  Biso   1.000  H
  C1502    1.0000 0.51911  0.10601  0.73817  Biso   1.000  C
  H766     1.0000 0.57214  0.18224  0.72317  Biso   1.000  H
  C1503    1.0000 0.49383  0.17568  0.68123  Biso   1.000  C
  C1504    1.0000 0.49388  0.17576  0.68123  Biso   1.000  C
  C1505    1.0000 0.90336  0.99857  0.79647  Biso   1.000  C
  C1506    1.0000 0.90329  0.99857  0.79647  Biso   1.000  C
  C1507    1.0000 0.09528  0.09663  0.79647  Biso   1.000  C
  C1508    1.0000 0.09532  0.09672  0.79647  Biso   1.000  C
  C1509    1.0000 0.09521  0.09663  0.79647  Biso   1.000  C
  H767     1.0000 0.60714  0.43566  0.74237  Biso   1.000  H
  C1510    1.0000 0.55651  0.55239  0.74381  Biso   1.000  C
  H768     1.0000 0.60718  0.43574  0.74237  Biso   1.000  H
  C1511    1.0000 0.55658  0.55239  0.74381  Biso   1.000  C
  H769     1.0000 0.60706  0.43566  0.74237  Biso   1.000  H
  H770     1.0000 0.50481  0.66580  0.74036  Biso   1.000  H
  H771     1.0000 0.50488  0.66580  0.74036  Biso   1.000  H
  C1512    1.0000 0.68031  0.55350  0.67094  Biso   1.000  C
  H772     1.0000 0.71425  0.45996  0.68197  Biso   1.000  H
  C1513    1.0000 0.68038  0.55350  0.67094  Biso   1.000  C
  H773     1.0000 0.71429  0.46005  0.68197  Biso   1.000  H
  H774     1.0000 0.71418  0.45996  0.68197  Biso   1.000  H
  H775     1.0000 0.71422  0.46005  0.68197  Biso   1.000  H
  H776     1.0000 0.56204  0.70170  0.67887  Biso   1.000  H
  C1514    1.0000 0.63727  0.62649  0.67006  Biso   1.000  C
  C1515    1.0000 0.63720  0.62649  0.67006  Biso   1.000  C
  H777     1.0000 0.29832  0.86027  0.67887  Biso   1.000  H
  H778     1.0000 0.29837  0.86036  0.67887  Biso   1.000  H
  H779     1.0000 0.29825  0.86027  0.67887  Biso   1.000  H
  C1516    1.0000 0.37357  0.01077  0.67006  Biso   1.000  C
  C1517    1.0000 0.37361  0.01085  0.67006  Biso   1.000  C
  C1518    1.0000 0.37350  0.01077  0.67006  Biso   1.000  C
  H780     1.0000 0.33423  0.83904  0.74036  Biso   1.000  H
  C1519    1.0000 0.44768  0.00420  0.74381  Biso   1.000  C
  H781     1.0000 0.56433  0.17150  0.74237  Biso   1.000  H
  H782     1.0000 0.56441  0.17150  0.74237  Biso   1.000  H
  C1520    1.0000 0.44656  0.12690  0.67094  Biso   1.000  C
  H783     1.0000 0.54008  0.25429  0.68197  Biso   1.000  H
  H784     1.0000 0.54001  0.25429  0.68197  Biso   1.000  H
  C1521    1.0000 0.79236  0.99499  0.79625  Biso   1.000  C
  N141     1.0000 0.99821  0.09996  0.79649  Biso   1.000  N
  N142     1.0000 0.99814  0.09996  0.79649  Biso   1.000  N
  C1522    1.0000 0.20270  0.20765  0.79625  Biso   1.000  C
  C1523    1.0000 0.20263  0.20765  0.79625  Biso   1.000  C
  C1524    1.0000 0.55239  0.55657  0.75619  Biso   1.000  C
  C1525    1.0000 0.55232  0.55657  0.75619  Biso   1.000  C
  Cl153    1.0000 0.73479  0.52067  0.65916  Biso   1.000  Cl
  Cl154    1.0000 0.63710  0.68788  0.65721  Biso   1.000  Cl
  Cl155    1.0000 0.63722  0.68797  0.65721  Biso   1.000  Cl
  Cl156    1.0000 0.63715  0.68797  0.65721  Biso   1.000  Cl
  Cl157    1.0000 0.31207  0.94920  0.65721  Biso   1.000  Cl
  C1526    1.0000 0.44346  0.99576  0.75619  Biso   1.000  C
  C1527    1.0000 0.44350  0.99585  0.75619  Biso   1.000  C
  Cl158    1.0000 0.47939  0.21413  0.65916  Biso   1.000  Cl
  Cl159    1.0000 0.47943  0.21422  0.65916  Biso   1.000  Cl
  Cl160    1.0000 0.47932  0.21413  0.65916  Biso   1.000  Cl
  C1528    1.0000 0.69246  0.89207  0.79584  Biso   1.000  C
  C1529    1.0000 0.78556  0.09365  0.79627  Biso   1.000  C
  C1530    1.0000 0.78561  0.09373  0.79627  Biso   1.000  C
  C1531    1.0000 0.30809  0.21447  0.79627  Biso   1.000  C
  C1532    1.0000 0.19972  0.30759  0.79584  Biso   1.000  C
  C1533    1.0000 0.19965  0.30759  0.79584  Biso   1.000  C
  C1534    1.0000 0.48084  0.58684  0.76182  Biso   1.000  C
  C1535    1.0000 0.61676  0.52579  0.76302  Biso   1.000  C
  C1536    1.0000 0.48095  0.58692  0.76182  Biso   1.000  C
  C1537    1.0000 0.61683  0.52579  0.76302  Biso   1.000  C
  C1538    1.0000 0.48088  0.58692  0.76182  Biso   1.000  C
  C1539    1.0000 0.41315  0.89395  0.76182  Biso   1.000  C
  C1540    1.0000 0.41320  0.89404  0.76182  Biso   1.000  C
  C1541    1.0000 0.41308  0.89395  0.76182  Biso   1.000  C
  C1542    1.0000 0.47429  0.09109  0.76302  Biso   1.000  C
  C1543    1.0000 0.59107  0.89045  0.79545  Biso   1.000  C
  H785     1.0000 0.69396  0.82420  0.79583  Biso   1.000  H
  C1544    1.0000 0.59111  0.89054  0.79545  Biso   1.000  C
  C1545    1.0000 0.59100  0.89045  0.79545  Biso   1.000  C
  C1546    1.0000 0.59104  0.89054  0.79545  Biso   1.000  C
  H786     1.0000 0.85140  0.16476  0.79654  Biso   1.000  H
  C1547    1.0000 0.68081  0.08529  0.79586  Biso   1.000  C
  H787     1.0000 0.31336  0.14865  0.79654  Biso   1.000  H
  C1548    1.0000 0.40450  0.31927  0.79586  Biso   1.000  C
  H788     1.0000 0.31340  0.14873  0.79654  Biso   1.000  H
  C1549    1.0000 0.40443  0.31927  0.79586  Biso   1.000  C
  C1550    1.0000 0.29945  0.40897  0.79545  Biso   1.000  C
  H789     1.0000 0.13028  0.30605  0.79583  Biso   1.000  H
  C1551    1.0000 0.29952  0.40897  0.79545  Biso   1.000  C
  C1552    1.0000 0.47545  0.58744  0.77341  Biso   1.000  C
  H790     1.0000 0.43567  0.60713  0.75764  Biso   1.000  H
  C1553    1.0000 0.47549  0.58752  0.77341  Biso   1.000  C
  H791     1.0000 0.43572  0.60722  0.75764  Biso   1.000  H
  H792     1.0000 0.66571  0.50481  0.75963  Biso   1.000  H
  C1554    1.0000 0.60937  0.52579  0.77472  Biso   1.000  C
  H793     1.0000 0.66583  0.50490  0.75963  Biso   1.000  H
  H794     1.0000 0.66576  0.50490  0.75963  Biso   1.000  H
  C1555    1.0000 0.41253  0.88798  0.77341  Biso   1.000  C
  H795     1.0000 0.39282  0.82846  0.75764  Biso   1.000  H
  H796     1.0000 0.39293  0.82855  0.75764  Biso   1.000  H
  H797     1.0000 0.39286  0.82855  0.75764  Biso   1.000  H
  H798     1.0000 0.49517  0.16093  0.75963  Biso   1.000  H
  C1556    1.0000 0.47427  0.08367  0.77472  Biso   1.000  C
  H799     1.0000 0.49521  0.16101  0.75963  Biso   1.000  H
  C1557    1.0000 0.47434  0.08367  0.77472  Biso   1.000  C
  N143     1.0000 0.58381  0.98493  0.79539  Biso   1.000  N
  H800     1.0000 0.52405  0.82036  0.79523  Biso   1.000  H
  N144     1.0000 0.58385  0.98502  0.79539  Biso   1.000  N
  H801     1.0000 0.52409  0.82045  0.79523  Biso   1.000  H
  H802     1.0000 0.67680  0.15172  0.79594  Biso   1.000  H
  H803     1.0000 0.67685  0.15180  0.79594  Biso   1.000  H
  H804     1.0000 0.67673  0.15172  0.79594  Biso   1.000  H
  H805     1.0000 0.67677  0.15180  0.79594  Biso   1.000  H
  H806     1.0000 0.47496  0.32328  0.79594  Biso   1.000  H
  N145     1.0000 0.40117  0.41613  0.79539  Biso   1.000  N
  N146     1.0000 0.40121  0.41622  0.79539  Biso   1.000  N
  H807     1.0000 0.29636  0.47591  0.79523  Biso   1.000  H
  H808     1.0000 0.29641  0.47599  0.79523  Biso   1.000  H
  C1558    1.0000 0.53751  0.55589  0.78031  Biso   1.000  C
  H809     1.0000 0.42789  0.61003  0.77684  Biso   1.000  H
  H810     1.0000 0.42794  0.61012  0.77684  Biso   1.000  H
  C1559    1.0000 0.53743  0.55589  0.78031  Biso   1.000  C
  H811     1.0000 0.42782  0.61003  0.77684  Biso   1.000  H
  H812     1.0000 0.42786  0.61012  0.77684  Biso   1.000  H
  H813     1.0000 0.65368  0.50481  0.77904  Biso   1.000  H
  H814     1.0000 0.65372  0.50490  0.77904  Biso   1.000  H
  H815     1.0000 0.65360  0.50481  0.77904  Biso   1.000  H
  H816     1.0000 0.65364  0.50490  0.77904  Biso   1.000  H
  C1560    1.0000 0.44413  0.98161  0.78031  Biso   1.000  C
  H817     1.0000 0.39000  0.81781  0.77684  Biso   1.000  H
  C1561    1.0000 0.44421  0.98161  0.78031  Biso   1.000  C
  H818     1.0000 0.38993  0.81781  0.77684  Biso   1.000  H
  H819     1.0000 0.49517  0.14882  0.77904  Biso   1.000  H
  H820     1.0000 0.49522  0.14890  0.77904  Biso   1.000  H
  B93      1.0000 0.45624  0.97496  0.79353  Biso   1.000  B
  B94      1.0000 0.45628  0.97504  0.79353  Biso   1.000  B
  B95      1.0000 0.51875  0.54378  0.79353  Biso   1.000  B
  B96      1.0000 0.51882  0.54378  0.79353  Biso   1.000  B
  O157     1.0000 0.37565  0.86590  0.79890  Biso   1.000  O
  O158     1.0000 0.45675  0.06474  0.80046  Biso   1.000  O
  O159     1.0000 0.45687  0.06483  0.80046  Biso   1.000  O
  O160     1.0000 0.45680  0.06483  0.80046  Biso   1.000  O
  O161     1.0000 0.49029  0.62436  0.79890  Biso   1.000  O
  O162     1.0000 0.60799  0.54327  0.80046  Biso   1.000  O
  O163     1.0000 0.49022  0.62436  0.79890  Biso   1.000  O
  O164     1.0000 0.60792  0.54327  0.80046  Biso   1.000  O
  C1562    1.0000 0.36575  0.89514  0.80968  Biso   1.000  C
  C1563    1.0000 0.36580  0.89523  0.80968  Biso   1.000  C
  C1564    1.0000 0.36568  0.89514  0.80968  Biso   1.000  C
  C1565    1.0000 0.41200  0.01290  0.81055  Biso   1.000  C
  C1566    1.0000 0.52950  0.63425  0.80968  Biso   1.000  C
  C1567    1.0000 0.52943  0.63425  0.80968  Biso   1.000  C
  C1568    1.0000 0.60084  0.58803  0.81055  Biso   1.000  C
  C1569    1.0000 0.60088  0.58812  0.81055  Biso   1.000  C
  C1570    1.0000 0.31814  0.82429  0.81877  Biso   1.000  C
  C1571    1.0000 0.40969  0.06159  0.82058  Biso   1.000  C
  C1572    1.0000 0.50618  0.68183  0.81877  Biso   1.000  C
  C1573    1.0000 0.50622  0.68191  0.81877  Biso   1.000  C
  C1574    1.0000 0.50610  0.68183  0.81877  Biso   1.000  C
  C1575    1.0000 0.65184  0.59034  0.82058  Biso   1.000  C
  C1576    1.0000 0.65188  0.59042  0.82058  Biso   1.000  C
  C1577    1.0000 0.31963  0.87306  0.82906  Biso   1.000  C
  H821     1.0000 0.28577  0.74567  0.81803  Biso   1.000  H
  C1578    1.0000 0.31968  0.87315  0.82906  Biso   1.000  C
  H822     1.0000 0.28581  0.74575  0.81803  Biso   1.000  H
  H823     1.0000 0.28570  0.74567  0.81803  Biso   1.000  H
  C1579    1.0000 0.36279  0.98920  0.82993  Biso   1.000  C
  C1580    1.0000 0.36271  0.98920  0.82993  Biso   1.000  C
  H824     1.0000 0.43803  0.13969  0.82113  Biso   1.000  H
  H825     1.0000 0.43796  0.13969  0.82113  Biso   1.000  H
  C1581    1.0000 0.55345  0.68038  0.82906  Biso   1.000  C
  H826     1.0000 0.45998  0.71423  0.81803  Biso   1.000  H
  C1582    1.0000 0.55353  0.68038  0.82906  Biso   1.000  C
  H827     1.0000 0.46002  0.71432  0.81803  Biso   1.000  H
  H828     1.0000 0.45991  0.71423  0.81803  Biso   1.000  H
  H829     1.0000 0.70163  0.56203  0.82113  Biso   1.000  H
  C1583    1.0000 0.62647  0.63723  0.82993  Biso   1.000  C
  H830     1.0000 0.70167  0.56211  0.82113  Biso   1.000  H
  C1584    1.0000 0.62652  0.63732  0.82993  Biso   1.000  C
  Cl161    1.0000 0.26524  0.78583  0.84084  Biso   1.000  Cl
  Cl162    1.0000 0.26516  0.78583  0.84084  Biso   1.000  Cl
  Cl163    1.0000 0.36285  0.05076  0.84279  Biso   1.000  Cl
  Cl164    1.0000 0.36289  0.05084  0.84279  Biso   1.000  Cl
  Cl165    1.0000 0.52062  0.73478  0.84084  Biso   1.000  Cl
  Cl166    1.0000 0.52066  0.73486  0.84084  Biso   1.000  Cl
  Cl167    1.0000 0.68787  0.63715  0.84279  Biso   1.000  Cl
  Cl168    1.0000 0.68791  0.63723  0.84279  Biso   1.000  Cl
  C1585    1.0000 0.98922  0.36273  0.67006  Biso   1.000  C
  C1586    1.0000 0.06148  0.40963  0.67943  Biso   1.000  C
  Cl169    1.0000 0.05070  0.36282  0.65721  Biso   1.000  Cl
  C1587    1.0000 0.87305  0.31958  0.67094  Biso   1.000  C
  C1588    1.0000 0.87317  0.31967  0.67094  Biso   1.000  C
  C1589    1.0000 0.87310  0.31967  0.67094  Biso   1.000  C
  C1590    1.0000 0.01279  0.41193  0.68944  Biso   1.000  C
  H831     1.0000 0.13959  0.43794  0.67887  Biso   1.000  H
  C1591    1.0000 0.82433  0.31814  0.68123  Biso   1.000  C
  C1592    1.0000 0.82426  0.31814  0.68123  Biso   1.000  C
  Cl170    1.0000 0.78582  0.26518  0.65916  Biso   1.000  Cl
  C1593    1.0000 0.89523  0.36571  0.69031  Biso   1.000  C
  C1594    1.0000 0.89528  0.36580  0.69031  Biso   1.000  C
  C1595    1.0000 0.89516  0.36571  0.69031  Biso   1.000  C
  C1596    1.0000 0.89520  0.36580  0.69031  Biso   1.000  C
  O165     1.0000 0.06471  0.45670  0.69953  Biso   1.000  O
  O166     1.0000 0.06475  0.45678  0.69953  Biso   1.000  O
  O167     1.0000 0.06464  0.45670  0.69953  Biso   1.000  O
  H832     1.0000 0.74573  0.28573  0.68197  Biso   1.000  H
  H833     1.0000 0.74566  0.28573  0.68197  Biso   1.000  H
  O168     1.0000 0.86592  0.37561  0.70111  Biso   1.000  O
  O169     1.0000 0.86596  0.37569  0.70111  Biso   1.000  O
  O170     1.0000 0.86584  0.37561  0.70111  Biso   1.000  O
  B97      1.0000 0.97495  0.45618  0.70648  Biso   1.000  B
  B98      1.0000 0.97507  0.45627  0.70648  Biso   1.000  B
  B99      1.0000 0.97500  0.45627  0.70648  Biso   1.000  B
  C1597    1.0000 0.98160  0.44408  0.71970  Biso   1.000  C
  N147     1.0000 0.98502  0.58383  0.70462  Biso   1.000  N
  C1598    1.0000 0.98164  0.44416  0.71970  Biso   1.000  C
  C1599    1.0000 0.98153  0.44408  0.71970  Biso   1.000  C
  C1600    1.0000 0.88799  0.41253  0.72658  Biso   1.000  C
  C1601    1.0000 0.08357  0.47418  0.72527  Biso   1.000  C
  C1602    1.0000 0.08361  0.47426  0.72527  Biso   1.000  C
  C1603    1.0000 0.89046  0.59099  0.70456  Biso   1.000  C
  C1604    1.0000 0.89058  0.59108  0.70456  Biso   1.000  C
  C1605    1.0000 0.89050  0.59108  0.70456  Biso   1.000  C
  C1606    1.0000 0.08522  0.68070  0.70414  Biso   1.000  C
  C1607    1.0000 0.08526  0.68078  0.70414  Biso   1.000  C
  C1608    1.0000 0.08514  0.68070  0.70414  Biso   1.000  C
  H834     1.0000 0.81784  0.38993  0.72317  Biso   1.000  H
  C1609    1.0000 0.89398  0.41312  0.73817  Biso   1.000  C
  C1610    1.0000 0.89405  0.41312  0.73817  Biso   1.000  C
  H835     1.0000 0.81777  0.38993  0.72317  Biso   1.000  H
  C1611    1.0000 0.09095  0.47418  0.73699  Biso   1.000  C
  H836     1.0000 0.14885  0.49515  0.72097  Biso   1.000  H
  C1612    1.0000 0.09107  0.47426  0.73699  Biso   1.000  C
  H837     1.0000 0.14877  0.49515  0.72097  Biso   1.000  H
  C1613    1.0000 0.09099  0.47426  0.73699  Biso   1.000  C
  H838     1.0000 0.82044  0.52406  0.70477  Biso   1.000  H
  C1614    1.0000 0.89212  0.69238  0.70416  Biso   1.000  C
  C1615    1.0000 0.89216  0.69246  0.70416  Biso   1.000  C
  C1616    1.0000 0.89205  0.69238  0.70416  Biso   1.000  C
  C1617    1.0000 0.89209  0.69246  0.70416  Biso   1.000  C
  C1618    1.0000 0.09360  0.78549  0.70373  Biso   1.000  C
  H839     1.0000 0.15167  0.67669  0.70407  Biso   1.000  H
  C1619    1.0000 0.09364  0.78557  0.70373  Biso   1.000  C
  H840     1.0000 0.15171  0.67677  0.70407  Biso   1.000  H
  H841     1.0000 0.82852  0.39283  0.74237  Biso   1.000  H
  C1620    1.0000 0.99581  0.44339  0.74381  Biso   1.000  C
  C1621    1.0000 0.99585  0.44348  0.74381  Biso   1.000  C
  C1622    1.0000 0.99573  0.44339  0.74381  Biso   1.000  C
  H842     1.0000 0.16088  0.49515  0.74036  Biso   1.000  H
  H843     1.0000 0.16096  0.49515  0.74036  Biso   1.000  H
  C1623    1.0000 0.99503  0.79231  0.70375  Biso   1.000  C
  H844     1.0000 0.82421  0.69391  0.70417  Biso   1.000  H
  C1624    1.0000 0.99496  0.79231  0.70375  Biso   1.000  C
  H845     1.0000 0.16469  0.85132  0.70347  Biso   1.000  H
  C1625    1.0000 0.00410  0.44757  0.75619  Biso   1.000  C
  C1626    1.0000 0.00422  0.44766  0.75619  Biso   1.000  C
  C1627    1.0000 0.00414  0.44766  0.75619  Biso   1.000  C
  C1628    1.0000 0.99863  0.90333  0.70353  Biso   1.000  C
  C1629    1.0000 0.99856  0.90333  0.70353  Biso   1.000  C
  C1630    1.0000 0.10596  0.51911  0.76182  Biso   1.000  C
  C1631    1.0000 0.90892  0.38319  0.76302  Biso   1.000  C
  N148     1.0000 0.89824  0.90000  0.70352  Biso   1.000  N
  N149     1.0000 0.89816  0.90000  0.70352  Biso   1.000  N
  N150     1.0000 0.09990  0.99806  0.70352  Biso   1.000  N
  N151     1.0000 0.09995  0.99815  0.70352  Biso   1.000  N
  N152     1.0000 0.09983  0.99806  0.70352  Biso   1.000  N
  H846     1.0000 0.17146  0.56430  0.75764  Biso   1.000  H
  C1632    1.0000 0.11197  0.52448  0.77341  Biso   1.000  C
  C1633    1.0000 0.11189  0.52448  0.77341  Biso   1.000  C
  H847     1.0000 0.17139  0.56430  0.75764  Biso   1.000  H
  H848     1.0000 0.83899  0.33417  0.75963  Biso   1.000  H
  C1634    1.0000 0.91632  0.39061  0.77472  Biso   1.000  C
  H849     1.0000 0.83911  0.33425  0.75963  Biso   1.000  H
  C1635    1.0000 0.91640  0.39061  0.77472  Biso   1.000  C
  H850     1.0000 0.83904  0.33425  0.75963  Biso   1.000  H
  C1636    1.0000 0.90477  0.00139  0.70353  Biso   1.000  C
  C1637    1.0000 0.90470  0.00139  0.70353  Biso   1.000  C
  C1638    1.0000 0.09667  0.09527  0.70353  Biso   1.000  C
  C1639    1.0000 0.09671  0.09535  0.70353  Biso   1.000  C
  C1640    1.0000 0.09659  0.09527  0.70353  Biso   1.000  C
  C1641    1.0000 0.09664  0.09535  0.70353  Biso   1.000  C
  C1642    1.0000 0.01835  0.46249  0.78031  Biso   1.000  C
  H851     1.0000 0.18213  0.57206  0.77684  Biso   1.000  H
  H852     1.0000 0.18218  0.57215  0.77684  Biso   1.000  H
  H853     1.0000 0.85110  0.34627  0.77904  Biso   1.000  H
  H854     1.0000 0.85122  0.34636  0.77904  Biso   1.000  H
  H855     1.0000 0.85114  0.34636  0.77904  Biso   1.000  H
  C1643    1.0000 0.79735  0.00497  0.70375  Biso   1.000  C
  C1644    1.0000 0.79739  0.00506  0.70375  Biso   1.000  C
  N153     1.0000 0.00184  0.10175  0.70352  Biso   1.000  N
  N154     1.0000 0.00188  0.10183  0.70352  Biso   1.000  N
  N155     1.0000 0.00177  0.10175  0.70352  Biso   1.000  N
  C1645    1.0000 0.20762  0.20271  0.70375  Biso   1.000  C
  C1646    1.0000 0.20769  0.20271  0.70375  Biso   1.000  C
  B100     1.0000 0.02496  0.48117  0.79353  Biso   1.000  B
  B101     1.0000 0.02500  0.48125  0.79353  Biso   1.000  B
  B102     1.0000 0.02488  0.48117  0.79353  Biso   1.000  B
  B103     1.0000 0.02493  0.48125  0.79353  Biso   1.000  B
  C1647    1.0000 0.69190  0.90631  0.70373  Biso   1.000  C
  C1648    1.0000 0.80036  0.10789  0.70416  Biso   1.000  C
  C1649    1.0000 0.21445  0.30810  0.70373  Biso   1.000  C
  C1650    1.0000 0.30759  0.19972  0.70416  Biso   1.000  C
  C1651    1.0000 0.30751  0.19972  0.70416  Biso   1.000  C
  O171     1.0000 0.93524  0.39198  0.80046  Biso   1.000  O
  O172     1.0000 0.93529  0.39206  0.80046  Biso   1.000  O
  O173     1.0000 0.13401  0.50965  0.79890  Biso   1.000  O
  N156     1.0000 0.01493  0.59875  0.79539  Biso   1.000  N
  O174     1.0000 0.13406  0.50973  0.79890  Biso   1.000  O
  N157     1.0000 0.01497  0.59884  0.79539  Biso   1.000  N
  H856     1.0000 0.68662  0.83520  0.70347  Biso   1.000  H
  C1652    1.0000 0.59550  0.91467  0.70414  Biso   1.000  C
  H857     1.0000 0.68666  0.83529  0.70347  Biso   1.000  H
  C1653    1.0000 0.59554  0.91476  0.70414  Biso   1.000  C
  C1654    1.0000 0.70060  0.10951  0.70456  Biso   1.000  C
  H858     1.0000 0.86974  0.17576  0.70417  Biso   1.000  H
  H859     1.0000 0.86979  0.17585  0.70417  Biso   1.000  H
  C1655    1.0000 0.70052  0.10951  0.70456  Biso   1.000  C
  H860     1.0000 0.14864  0.31338  0.70347  Biso   1.000  H
  C1656    1.0000 0.31919  0.40445  0.70414  Biso   1.000  C
  C1657    1.0000 0.31931  0.40454  0.70414  Biso   1.000  C
  C1658    1.0000 0.31924  0.40454  0.70414  Biso   1.000  C
  C1659    1.0000 0.40894  0.29949  0.70456  Biso   1.000  C
  H861     1.0000 0.30604  0.13031  0.70417  Biso   1.000  H
  C1660    1.0000 0.98715  0.39905  0.81055  Biso   1.000  C
  C1661    1.0000 0.98719  0.39914  0.81055  Biso   1.000  C
  C1662    1.0000 0.98708  0.39905  0.81055  Biso   1.000  C
  C1663    1.0000 0.98712  0.39914  0.81055  Biso   1.000  C
  C1664    1.0000 0.10477  0.47051  0.80968  Biso   1.000  C
  C1665    1.0000 0.10470  0.47051  0.80968  Biso   1.000  C
  C1666    1.0000 0.10943  0.70048  0.79545  Biso   1.000  C
  C1667    1.0000 0.91473  0.59551  0.79586  Biso   1.000  C
  C1668    1.0000 0.91480  0.59551  0.79586  Biso   1.000  C
  H862     1.0000 0.52507  0.84825  0.70407  Biso   1.000  H
  H863     1.0000 0.52499  0.84825  0.70407  Biso   1.000  H
  N158     1.0000 0.59886  0.01503  0.70462  Biso   1.000  N
  H864     1.0000 0.70367  0.17960  0.70477  Biso   1.000  H
  H865     1.0000 0.32322  0.47497  0.70407  Biso   1.000  H
  N159     1.0000 0.41616  0.40121  0.70462  Biso   1.000  N
  H866     1.0000 0.32326  0.47505  0.70407  Biso   1.000  H
  H867     1.0000 0.47593  0.29642  0.70477  Biso   1.000  H
  C1669    1.0000 0.93839  0.34806  0.82058  Biso   1.000  C
  C1670    1.0000 0.93851  0.34815  0.82058  Biso   1.000  C
  C1671    1.0000 0.93844  0.34815  0.82058  Biso   1.000  C
  C1672    1.0000 0.17563  0.49379  0.81877  Biso   1.000  C
  H868     1.0000 0.17949  0.70355  0.79523  Biso   1.000  H
  C1673    1.0000 0.10784  0.80024  0.79584  Biso   1.000  C
  H869     1.0000 0.17954  0.70363  0.79523  Biso   1.000  H
  C1674    1.0000 0.10789  0.80033  0.79584  Biso   1.000  C
  C1675    1.0000 0.10777  0.80024  0.79584  Biso   1.000  C
  C1676    1.0000 0.10781  0.80033  0.79584  Biso   1.000  C
  C1677    1.0000 0.90634  0.69187  0.79627  Biso   1.000  C
  H870     1.0000 0.84823  0.52500  0.79594  Biso   1.000  H
  C1678    1.0000 0.90638  0.69195  0.79627  Biso   1.000  C
  B104     1.0000 0.48127  0.02501  0.70648  Biso   1.000  B
  B105     1.0000 0.54377  0.51880  0.70648  Biso   1.000  B
  B106     1.0000 0.54370  0.51880  0.70648  Biso   1.000  B
  H871     1.0000 0.86033  0.29827  0.82113  Biso   1.000  H
  H872     1.0000 0.86037  0.29835  0.82113  Biso   1.000  H
  C1679    1.0000 0.01077  0.37347  0.82993  Biso   1.000  C
  C1680    1.0000 0.01081  0.37356  0.82993  Biso   1.000  C
  C1681    1.0000 0.01069  0.37347  0.82993  Biso   1.000  C
  C1682    1.0000 0.01073  0.37356  0.82993  Biso   1.000  C
  C1683    1.0000 0.12679  0.44646  0.82906  Biso   1.000  C
  H873     1.0000 0.25427  0.54000  0.81803  Biso   1.000  H
  C1684    1.0000 0.12691  0.44655  0.82906  Biso   1.000  C
  H874     1.0000 0.25420  0.54000  0.81803  Biso   1.000  H
  C1685    1.0000 0.12683  0.44655  0.82906  Biso   1.000  C
  C1686    1.0000 0.00489  0.79726  0.79625  Biso   1.000  C
  H875     1.0000 0.17570  0.86965  0.79583  Biso   1.000  H
  C1687    1.0000 0.00501  0.79734  0.79625  Biso   1.000  C
  H876     1.0000 0.17575  0.86973  0.79583  Biso   1.000  H
  C1688    1.0000 0.00493  0.79734  0.79625  Biso   1.000  C
  H877     1.0000 0.83524  0.68658  0.79654  Biso   1.000  H
  O175     1.0000 0.39199  0.93522  0.69953  Biso   1.000  O
  O176     1.0000 0.39207  0.93522  0.69953  Biso   1.000  O
  C1689    1.0000 0.46251  0.01836  0.71970  Biso   1.000  C
  O177     1.0000 0.50973  0.13407  0.70111  Biso   1.000  O
  C1690    1.0000 0.46263  0.01844  0.71970  Biso   1.000  C
  O178     1.0000 0.50977  0.13415  0.70111  Biso   1.000  O
  C1691    1.0000 0.46255  0.01844  0.71970  Biso   1.000  C
  C1692    1.0000 0.55584  0.53747  0.71970  Biso   1.000  C
  O179     1.0000 0.62435  0.49032  0.70111  Biso   1.000  O
  O180     1.0000 0.54325  0.60799  0.69953  Biso   1.000  O
  C1693    1.0000 0.55588  0.53755  0.71970  Biso   1.000  C
  Cl171    1.0000 0.94920  0.31208  0.84279  Biso   1.000  Cl
  Cl172    1.0000 0.94928  0.31208  0.84279  Biso   1.000  Cl
  Cl173    1.0000 0.21410  0.47929  0.84084  Biso   1.000  Cl
  Cl174    1.0000 0.21414  0.47938  0.84084  Biso   1.000  Cl
  C1694    1.0000 0.00138  0.90469  0.79647  Biso   1.000  C
  C1695    1.0000 0.00131  0.90469  0.79647  Biso   1.000  C
  C1696    1.0000 0.39908  0.98706  0.68944  Biso   1.000  C
  C1697    1.0000 0.39913  0.98715  0.68944  Biso   1.000  C
  C1698    1.0000 0.39058  0.91629  0.72527  Biso   1.000  C
  C1699    1.0000 0.39069  0.91638  0.72527  Biso   1.000  C
  C1700    1.0000 0.39062  0.91638  0.72527  Biso   1.000  C
  C1701    1.0000 0.52453  0.11198  0.72658  Biso   1.000  C
  C1702    1.0000 0.52458  0.11207  0.72658  Biso   1.000  C
  C1703    1.0000 0.47059  0.10482  0.69031  Biso   1.000  C
  C1704    1.0000 0.47052  0.10482  0.69031  Biso   1.000  C
  C1705    1.0000 0.58747  0.47548  0.72658  Biso   1.000  C
  C1706    1.0000 0.52569  0.60935  0.72527  Biso   1.000  C
  C1707    1.0000 0.52581  0.60944  0.72527  Biso   1.000  C
  C1708    1.0000 0.58739  0.47548  0.72658  Biso   1.000  C
  C1709    1.0000 0.52573  0.60944  0.72527  Biso   1.000  C
  C1710    1.0000 0.63424  0.52945  0.69031  Biso   1.000  C
  C1711    1.0000 0.63429  0.52954  0.69031  Biso   1.000  C
  C1712    1.0000 0.63417  0.52945  0.69031  Biso   1.000  C
  C1713    1.0000 0.58808  0.60091  0.68944  Biso   1.000  C
  C1714    1.0000 0.58800  0.60091  0.68944  Biso   1.000  C
  N160     1.0000 0.90007  0.89821  0.79649  Biso   1.000  N
  N161     1.0000 0.90000  0.89821  0.79649  Biso   1.000  N
  N162     1.0000 0.10182  0.00190  0.79649  Biso   1.000  N
  N163     1.0000 0.10175  0.00190  0.79649  Biso   1.000  N
  C1715    1.0000 0.34808  0.93838  0.67943  Biso   1.000  C
  C1716    1.0000 0.34813  0.93846  0.67943  Biso   1.000  C
  C1717    1.0000 0.38318  0.90887  0.73699  Biso   1.000  C
  H878     1.0000 0.34634  0.85115  0.72097  Biso   1.000  H
  C1718    1.0000 0.38322  0.90896  0.73699  Biso   1.000  C
  H879     1.0000 0.57217  0.18216  0.72317  Biso   1.000  H
  C1719    1.0000 0.51919  0.10601  0.73817  Biso   1.000  C
  H880     1.0000 0.57222  0.18224  0.72317  Biso   1.000  H
  H881     1.0000 0.57210  0.18216  0.72317  Biso   1.000  H
  C1720    1.0000 0.51911  0.10601  0.73817  Biso   1.000  C
  H882     1.0000 0.57214  0.18224  0.72317  Biso   1.000  H
  C1721    1.0000 0.49383  0.17568  0.68123  Biso   1.000  C
  C1722    1.0000 0.49388  0.17576  0.68123  Biso   1.000  C
  H883     1.0000 0.61005  0.42790  0.72317  Biso   1.000  H
  C1723    1.0000 0.58683  0.48085  0.73817  Biso   1.000  C
  C1724    1.0000 0.58687  0.48094  0.73817  Biso   1.000  C
  C1725    1.0000 0.52571  0.61677  0.73699  Biso   1.000  C
  H884     1.0000 0.50481  0.65369  0.72097  Biso   1.000  H
  C1726    1.0000 0.52575  0.61685  0.73699  Biso   1.000  C
  H885     1.0000 0.50488  0.65369  0.72097  Biso   1.000  H
  C1727    1.0000 0.68183  0.50618  0.68123  Biso   1.000  C
  C1728    1.0000 0.68187  0.50626  0.68123  Biso   1.000  C
  C1729    1.0000 0.59031  0.65190  0.67943  Biso   1.000  C
  C1730    1.0000 0.59039  0.65190  0.67943  Biso   1.000  C
  C1731    1.0000 0.90336  0.99857  0.79647  Biso   1.000  C
  C1732    1.0000 0.90329  0.99857  0.79647  Biso   1.000  C
  C1733    1.0000 0.09528  0.09663  0.79647  Biso   1.000  C
  C1734    1.0000 0.09532  0.09672  0.79647  Biso   1.000  C
  C1735    1.0000 0.09521  0.09663  0.79647  Biso   1.000  C
  H886     1.0000 0.29832  0.86027  0.67887  Biso   1.000  H
  H887     1.0000 0.29837  0.86036  0.67887  Biso   1.000  H
  H888     1.0000 0.29825  0.86027  0.67887  Biso   1.000  H
  C1736    1.0000 0.37357  0.01077  0.67006  Biso   1.000  C
  C1737    1.0000 0.37361  0.01085  0.67006  Biso   1.000  C
  C1738    1.0000 0.37350  0.01077  0.67006  Biso   1.000  C
  H889     1.0000 0.33423  0.83904  0.74036  Biso   1.000  H
  C1739    1.0000 0.44768  0.00420  0.74381  Biso   1.000  C
  H890     1.0000 0.56433  0.17150  0.74237  Biso   1.000  H
  H891     1.0000 0.56441  0.17150  0.74237  Biso   1.000  H
  C1740    1.0000 0.44656  0.12690  0.67094  Biso   1.000  C
  H892     1.0000 0.54008  0.25429  0.68197  Biso   1.000  H
  H893     1.0000 0.54001  0.25429  0.68197  Biso   1.000  H
  H894     1.0000 0.60714  0.43566  0.74237  Biso   1.000  H
  C1741    1.0000 0.55651  0.55239  0.74381  Biso   1.000  C
  H895     1.0000 0.60718  0.43574  0.74237  Biso   1.000  H
  C1742    1.0000 0.55658  0.55239  0.74381  Biso   1.000  C
  H896     1.0000 0.60706  0.43566  0.74237  Biso   1.000  H
  H897     1.0000 0.50481  0.66580  0.74036  Biso   1.000  H
  H898     1.0000 0.50488  0.66580  0.74036  Biso   1.000  H
  C1743    1.0000 0.68031  0.55350  0.67094  Biso   1.000  C
  H899     1.0000 0.71425  0.45996  0.68197  Biso   1.000  H
  C1744    1.0000 0.68038  0.55350  0.67094  Biso   1.000  C
  H900     1.0000 0.71429  0.46005  0.68197  Biso   1.000  H
  H901     1.0000 0.71418  0.45996  0.68197  Biso   1.000  H
  H902     1.0000 0.71422  0.46005  0.68197  Biso   1.000  H
  H903     1.0000 0.56204  0.70170  0.67887  Biso   1.000  H
  C1745    1.0000 0.63727  0.62649  0.67006  Biso   1.000  C
  C1746    1.0000 0.63720  0.62649  0.67006  Biso   1.000  C
  C1747    1.0000 0.79236  0.99499  0.79625  Biso   1.000  C
  N164     1.0000 0.99821  0.09996  0.79649  Biso   1.000  N
  N165     1.0000 0.99814  0.09996  0.79649  Biso   1.000  N
  C1748    1.0000 0.20270  0.20765  0.79625  Biso   1.000  C
  C1749    1.0000 0.20263  0.20765  0.79625  Biso   1.000  C
  Cl175    1.0000 0.31207  0.94920  0.65721  Biso   1.000  Cl
  C1750    1.0000 0.44346  0.99576  0.75619  Biso   1.000  C
  C1751    1.0000 0.44350  0.99585  0.75619  Biso   1.000  C
  Cl176    1.0000 0.47939  0.21413  0.65916  Biso   1.000  Cl
  Cl177    1.0000 0.47943  0.21422  0.65916  Biso   1.000  Cl
  Cl178    1.0000 0.47932  0.21413  0.65916  Biso   1.000  Cl
  C1752    1.0000 0.55239  0.55657  0.75619  Biso   1.000  C
  C1753    1.0000 0.55232  0.55657  0.75619  Biso   1.000  C
  Cl179    1.0000 0.73479  0.52067  0.65916  Biso   1.000  Cl
  Cl180    1.0000 0.63710  0.68788  0.65721  Biso   1.000  Cl
  Cl181    1.0000 0.63722  0.68797  0.65721  Biso   1.000  Cl
  Cl182    1.0000 0.63715  0.68797  0.65721  Biso   1.000  Cl
  C1754    1.0000 0.69246  0.89207  0.79584  Biso   1.000  C
  C1755    1.0000 0.78556  0.09365  0.79627  Biso   1.000  C
  C1756    1.0000 0.78561  0.09373  0.79627  Biso   1.000  C
  C1757    1.0000 0.30809  0.21447  0.79627  Biso   1.000  C
  C1758    1.0000 0.19972  0.30759  0.79584  Biso   1.000  C
  C1759    1.0000 0.19965  0.30759  0.79584  Biso   1.000  C
  C1760    1.0000 0.41315  0.89395  0.76182  Biso   1.000  C
  C1761    1.0000 0.41320  0.89404  0.76182  Biso   1.000  C
  C1762    1.0000 0.41308  0.89395  0.76182  Biso   1.000  C
  C1763    1.0000 0.47429  0.09109  0.76302  Biso   1.000  C
  C1764    1.0000 0.48084  0.58684  0.76182  Biso   1.000  C
  C1765    1.0000 0.61676  0.52579  0.76302  Biso   1.000  C
  C1766    1.0000 0.48095  0.58692  0.76182  Biso   1.000  C
  C1767    1.0000 0.61683  0.52579  0.76302  Biso   1.000  C
  C1768    1.0000 0.48088  0.58692  0.76182  Biso   1.000  C
  C1769    1.0000 0.59107  0.89045  0.79545  Biso   1.000  C
  H904     1.0000 0.69396  0.82420  0.79583  Biso   1.000  H
  C1770    1.0000 0.59111  0.89054  0.79545  Biso   1.000  C
  C1771    1.0000 0.59100  0.89045  0.79545  Biso   1.000  C
  C1772    1.0000 0.59104  0.89054  0.79545  Biso   1.000  C
  H905     1.0000 0.85140  0.16476  0.79654  Biso   1.000  H
  C1773    1.0000 0.68081  0.08529  0.79586  Biso   1.000  C
  H906     1.0000 0.31336  0.14865  0.79654  Biso   1.000  H
  C1774    1.0000 0.40450  0.31927  0.79586  Biso   1.000  C
  H907     1.0000 0.31340  0.14873  0.79654  Biso   1.000  H
  C1775    1.0000 0.40443  0.31927  0.79586  Biso   1.000  C
  C1776    1.0000 0.29945  0.40897  0.79545  Biso   1.000  C
  H908     1.0000 0.13028  0.30605  0.79583  Biso   1.000  H
  C1777    1.0000 0.29952  0.40897  0.79545  Biso   1.000  C
  C1778    1.0000 0.41253  0.88798  0.77341  Biso   1.000  C
  H909     1.0000 0.39282  0.82846  0.75764  Biso   1.000  H
  H910     1.0000 0.39293  0.82855  0.75764  Biso   1.000  H
  H911     1.0000 0.39286  0.82855  0.75764  Biso   1.000  H
  H912     1.0000 0.49517  0.16093  0.75963  Biso   1.000  H
  C1779    1.0000 0.47427  0.08367  0.77472  Biso   1.000  C
  H913     1.0000 0.49521  0.16101  0.75963  Biso   1.000  H
  C1780    1.0000 0.47434  0.08367  0.77472  Biso   1.000  C
  C1781    1.0000 0.47545  0.58744  0.77341  Biso   1.000  C
  H914     1.0000 0.43567  0.60713  0.75764  Biso   1.000  H
  C1782    1.0000 0.47549  0.58752  0.77341  Biso   1.000  C
  H915     1.0000 0.43572  0.60722  0.75764  Biso   1.000  H
  H916     1.0000 0.66571  0.50481  0.75963  Biso   1.000  H
  C1783    1.0000 0.60937  0.52579  0.77472  Biso   1.000  C
  H917     1.0000 0.66583  0.50490  0.75963  Biso   1.000  H
  H918     1.0000 0.66576  0.50490  0.75963  Biso   1.000  H
  N166     1.0000 0.58381  0.98493  0.79539  Biso   1.000  N
  H919     1.0000 0.52405  0.82036  0.79523  Biso   1.000  H
  N167     1.0000 0.58385  0.98502  0.79539  Biso   1.000  N
  H920     1.0000 0.52409  0.82045  0.79523  Biso   1.000  H
  H921     1.0000 0.67680  0.15172  0.79594  Biso   1.000  H
  H922     1.0000 0.67685  0.15180  0.79594  Biso   1.000  H
  H923     1.0000 0.67673  0.15172  0.79594  Biso   1.000  H
  H924     1.0000 0.67677  0.15180  0.79594  Biso   1.000  H
  H925     1.0000 0.47496  0.32328  0.79594  Biso   1.000  H
  N168     1.0000 0.40117  0.41613  0.79539  Biso   1.000  N
  N169     1.0000 0.40121  0.41622  0.79539  Biso   1.000  N
  H926     1.0000 0.29636  0.47591  0.79523  Biso   1.000  H
  H927     1.0000 0.29641  0.47599  0.79523  Biso   1.000  H
  C1784    1.0000 0.44413  0.98161  0.78031  Biso   1.000  C
  H928     1.0000 0.39000  0.81781  0.77684  Biso   1.000  H
  C1785    1.0000 0.44421  0.98161  0.78031  Biso   1.000  C
  H929     1.0000 0.38993  0.81781  0.77684  Biso   1.000  H
  H930     1.0000 0.49517  0.14882  0.77904  Biso   1.000  H
  H931     1.0000 0.49522  0.14890  0.77904  Biso   1.000  H
  C1786    1.0000 0.53751  0.55589  0.78031  Biso   1.000  C
  H932     1.0000 0.42789  0.61003  0.77684  Biso   1.000  H
  H933     1.0000 0.42794  0.61012  0.77684  Biso   1.000  H
  C1787    1.0000 0.53743  0.55589  0.78031  Biso   1.000  C
  H934     1.0000 0.42782  0.61003  0.77684  Biso   1.000  H
  H935     1.0000 0.42786  0.61012  0.77684  Biso   1.000  H
  H936     1.0000 0.65368  0.50481  0.77904  Biso   1.000  H
  H937     1.0000 0.65372  0.50490  0.77904  Biso   1.000  H
  H938     1.0000 0.65360  0.50481  0.77904  Biso   1.000  H
  H939     1.0000 0.65364  0.50490  0.77904  Biso   1.000  H
  B107     1.0000 0.45624  0.97496  0.79353  Biso   1.000  B
  B108     1.0000 0.45628  0.97504  0.79353  Biso   1.000  B
  B109     1.0000 0.51875  0.54378  0.79353  Biso   1.000  B
  B110     1.0000 0.51882  0.54378  0.79353  Biso   1.000  B
  O181     1.0000 0.37565  0.86590  0.79890  Biso   1.000  O
  O182     1.0000 0.45675  0.06474  0.80046  Biso   1.000  O
  O183     1.0000 0.45687  0.06483  0.80046  Biso   1.000  O
  O184     1.0000 0.45680  0.06483  0.80046  Biso   1.000  O
  O185     1.0000 0.49029  0.62436  0.79890  Biso   1.000  O
  O186     1.0000 0.60799  0.54327  0.80046  Biso   1.000  O
  O187     1.0000 0.49022  0.62436  0.79890  Biso   1.000  O
  O188     1.0000 0.60792  0.54327  0.80046  Biso   1.000  O
  C1788    1.0000 0.36575  0.89514  0.80968  Biso   1.000  C
  C1789    1.0000 0.36580  0.89523  0.80968  Biso   1.000  C
  C1790    1.0000 0.36568  0.89514  0.80968  Biso   1.000  C
  C1791    1.0000 0.41200  0.01290  0.81055  Biso   1.000  C
  C1792    1.0000 0.52950  0.63425  0.80968  Biso   1.000  C
  C1793    1.0000 0.52943  0.63425  0.80968  Biso   1.000  C
  C1794    1.0000 0.60084  0.58803  0.81055  Biso   1.000  C
  C1795    1.0000 0.60088  0.58812  0.81055  Biso   1.000  C
  C1796    1.0000 0.31814  0.82429  0.81877  Biso   1.000  C
  C1797    1.0000 0.40969  0.06159  0.82058  Biso   1.000  C
  C1798    1.0000 0.50618  0.68183  0.81877  Biso   1.000  C
  C1799    1.0000 0.50622  0.68191  0.81877  Biso   1.000  C
  C1800    1.0000 0.50610  0.68183  0.81877  Biso   1.000  C
  C1801    1.0000 0.65184  0.59034  0.82058  Biso   1.000  C
  C1802    1.0000 0.65188  0.59042  0.82058  Biso   1.000  C
  C1803    1.0000 0.31963  0.87306  0.82906  Biso   1.000  C
  H940     1.0000 0.28577  0.74567  0.81803  Biso   1.000  H
  C1804    1.0000 0.31968  0.87315  0.82906  Biso   1.000  C
  H941     1.0000 0.28581  0.74575  0.81803  Biso   1.000  H
  H942     1.0000 0.28570  0.74567  0.81803  Biso   1.000  H
  C1805    1.0000 0.36279  0.98920  0.82993  Biso   1.000  C
  C1806    1.0000 0.36271  0.98920  0.82993  Biso   1.000  C
  H943     1.0000 0.43803  0.13969  0.82113  Biso   1.000  H
  H944     1.0000 0.43796  0.13969  0.82113  Biso   1.000  H
  C1807    1.0000 0.55345  0.68038  0.82906  Biso   1.000  C
  H945     1.0000 0.45998  0.71423  0.81803  Biso   1.000  H
  C1808    1.0000 0.55353  0.68038  0.82906  Biso   1.000  C
  H946     1.0000 0.46002  0.71432  0.81803  Biso   1.000  H
  H947     1.0000 0.45991  0.71423  0.81803  Biso   1.000  H
  H948     1.0000 0.70163  0.56203  0.82113  Biso   1.000  H
  C1809    1.0000 0.62647  0.63723  0.82993  Biso   1.000  C
  H949     1.0000 0.70167  0.56211  0.82113  Biso   1.000  H
  C1810    1.0000 0.62652  0.63732  0.82993  Biso   1.000  C
  Cl183    1.0000 0.26524  0.78583  0.84084  Biso   1.000  Cl
  Cl184    1.0000 0.26516  0.78583  0.84084  Biso   1.000  Cl
  Cl185    1.0000 0.36285  0.05076  0.84279  Biso   1.000  Cl
  Cl186    1.0000 0.36289  0.05084  0.84279  Biso   1.000  Cl
  Cl187    1.0000 0.52062  0.73478  0.84084  Biso   1.000  Cl
  Cl188    1.0000 0.52066  0.73486  0.84084  Biso   1.000  Cl
  Cl189    1.0000 0.68787  0.63715  0.84279  Biso   1.000  Cl
  Cl190    1.0000 0.68791  0.63723  0.84279  Biso   1.000  Cl
  C1811    1.0000 0.98922  0.36273  0.67006  Biso   1.000  C
  C1812    1.0000 0.06148  0.40963  0.67943  Biso   1.000  C
  Cl191    1.0000 0.05070  0.36282  0.65721  Biso   1.000  Cl
  C1813    1.0000 0.87305  0.31958  0.67094  Biso   1.000  C
  C1814    1.0000 0.87317  0.31967  0.67094  Biso   1.000  C
  C1815    1.0000 0.87310  0.31967  0.67094  Biso   1.000  C
  C1816    1.0000 0.01279  0.41193  0.68944  Biso   1.000  C
  H950     1.0000 0.13959  0.43794  0.67887  Biso   1.000  H
  C1817    1.0000 0.82433  0.31814  0.68123  Biso   1.000  C
  C1818    1.0000 0.82426  0.31814  0.68123  Biso   1.000  C
  Cl192    1.0000 0.78582  0.26518  0.65916  Biso   1.000  Cl
  C1819    1.0000 0.89523  0.36571  0.69031  Biso   1.000  C
  C1820    1.0000 0.89528  0.36580  0.69031  Biso   1.000  C
  C1821    1.0000 0.89516  0.36571  0.69031  Biso   1.000  C
  C1822    1.0000 0.89520  0.36580  0.69031  Biso   1.000  C
  O189     1.0000 0.06471  0.45670  0.69953  Biso   1.000  O
  O190     1.0000 0.06475  0.45678  0.69953  Biso   1.000  O
  O191     1.0000 0.06464  0.45670  0.69953  Biso   1.000  O
  H951     1.0000 0.74573  0.28573  0.68197  Biso   1.000  H
  H952     1.0000 0.74566  0.28573  0.68197  Biso   1.000  H
  O192     1.0000 0.86592  0.37561  0.70111  Biso   1.000  O
  O193     1.0000 0.86596  0.37569  0.70111  Biso   1.000  O
  O194     1.0000 0.86584  0.37561  0.70111  Biso   1.000  O
  B111     1.0000 0.97495  0.45618  0.70648  Biso   1.000  B
  B112     1.0000 0.97507  0.45627  0.70648  Biso   1.000  B
  B113     1.0000 0.97500  0.45627  0.70648  Biso   1.000  B
  C1823    1.0000 0.98160  0.44408  0.71970  Biso   1.000  C
  N170     1.0000 0.98502  0.58383  0.70462  Biso   1.000  N
  C1824    1.0000 0.98164  0.44416  0.71970  Biso   1.000  C
  C1825    1.0000 0.98153  0.44408  0.71970  Biso   1.000  C
  C1826    1.0000 0.88799  0.41253  0.72658  Biso   1.000  C
  C1827    1.0000 0.08357  0.47418  0.72527  Biso   1.000  C
  C1828    1.0000 0.08361  0.47426  0.72527  Biso   1.000  C
  C1829    1.0000 0.89046  0.59099  0.70456  Biso   1.000  C
  C1830    1.0000 0.89058  0.59108  0.70456  Biso   1.000  C
  C1831    1.0000 0.89050  0.59108  0.70456  Biso   1.000  C
  C1832    1.0000 0.08522  0.68070  0.70414  Biso   1.000  C
  C1833    1.0000 0.08526  0.68078  0.70414  Biso   1.000  C
  C1834    1.0000 0.08514  0.68070  0.70414  Biso   1.000  C
  H953     1.0000 0.81784  0.38993  0.72317  Biso   1.000  H
  C1835    1.0000 0.89398  0.41312  0.73817  Biso   1.000  C
  C1836    1.0000 0.89405  0.41312  0.73817  Biso   1.000  C
  H954     1.0000 0.81777  0.38993  0.72317  Biso   1.000  H
  C1837    1.0000 0.09095  0.47418  0.73699  Biso   1.000  C
  H955     1.0000 0.14885  0.49515  0.72097  Biso   1.000  H
  C1838    1.0000 0.09107  0.47426  0.73699  Biso   1.000  C
  H956     1.0000 0.14877  0.49515  0.72097  Biso   1.000  H
  C1839    1.0000 0.09099  0.47426  0.73699  Biso   1.000  C
  H957     1.0000 0.82044  0.52406  0.70477  Biso   1.000  H
  C1840    1.0000 0.89212  0.69238  0.70416  Biso   1.000  C
  C1841    1.0000 0.89216  0.69246  0.70416  Biso   1.000  C
  C1842    1.0000 0.89205  0.69238  0.70416  Biso   1.000  C
  C1843    1.0000 0.89209  0.69246  0.70416  Biso   1.000  C
  C1844    1.0000 0.09360  0.78549  0.70373  Biso   1.000  C
  H958     1.0000 0.15167  0.67669  0.70407  Biso   1.000  H
  C1845    1.0000 0.09364  0.78557  0.70373  Biso   1.000  C
  H959     1.0000 0.15171  0.67677  0.70407  Biso   1.000  H
  H960     1.0000 0.82852  0.39283  0.74237  Biso   1.000  H
  C1846    1.0000 0.99581  0.44339  0.74381  Biso   1.000  C
  C1847    1.0000 0.99585  0.44348  0.74381  Biso   1.000  C
  C1848    1.0000 0.99573  0.44339  0.74381  Biso   1.000  C
  H961     1.0000 0.16088  0.49515  0.74036  Biso   1.000  H
  H962     1.0000 0.16096  0.49515  0.74036  Biso   1.000  H
  C1849    1.0000 0.99503  0.79231  0.70375  Biso   1.000  C
  H963     1.0000 0.82421  0.69391  0.70417  Biso   1.000  H
  C1850    1.0000 0.99496  0.79231  0.70375  Biso   1.000  C
  H964     1.0000 0.16469  0.85132  0.70347  Biso   1.000  H
  C1851    1.0000 0.00410  0.44757  0.75619  Biso   1.000  C
  C1852    1.0000 0.00422  0.44766  0.75619  Biso   1.000  C
  C1853    1.0000 0.00414  0.44766  0.75619  Biso   1.000  C
  C1854    1.0000 0.99863  0.90333  0.70353  Biso   1.000  C
  C1855    1.0000 0.99856  0.90333  0.70353  Biso   1.000  C
  C1856    1.0000 0.10596  0.51911  0.76182  Biso   1.000  C
  C1857    1.0000 0.90892  0.38319  0.76302  Biso   1.000  C
  N171     1.0000 0.89824  0.90000  0.70352  Biso   1.000  N
  N172     1.0000 0.89816  0.90000  0.70352  Biso   1.000  N
  N173     1.0000 0.09990  0.99806  0.70352  Biso   1.000  N
  N174     1.0000 0.09995  0.99815  0.70352  Biso   1.000  N
  N175     1.0000 0.09983  0.99806  0.70352  Biso   1.000  N
  C1858    1.0000 0.11197  0.52448  0.77341  Biso   1.000  C
  H965     1.0000 0.17146  0.56430  0.75764  Biso   1.000  H
  C1859    1.0000 0.11189  0.52448  0.77341  Biso   1.000  C
  H966     1.0000 0.17139  0.56430  0.75764  Biso   1.000  H
  H967     1.0000 0.83899  0.33417  0.75963  Biso   1.000  H
  C1860    1.0000 0.91632  0.39061  0.77472  Biso   1.000  C
  H968     1.0000 0.83911  0.33425  0.75963  Biso   1.000  H
  C1861    1.0000 0.91640  0.39061  0.77472  Biso   1.000  C
  H969     1.0000 0.83904  0.33425  0.75963  Biso   1.000  H
  C1862    1.0000 0.90477  0.00139  0.70353  Biso   1.000  C
  C1863    1.0000 0.90470  0.00139  0.70353  Biso   1.000  C
  C1864    1.0000 0.09667  0.09527  0.70353  Biso   1.000  C
  C1865    1.0000 0.09671  0.09535  0.70353  Biso   1.000  C
  C1866    1.0000 0.09659  0.09527  0.70353  Biso   1.000  C
  C1867    1.0000 0.09664  0.09535  0.70353  Biso   1.000  C
  C1868    1.0000 0.01835  0.46249  0.78031  Biso   1.000  C
  H970     1.0000 0.18213  0.57206  0.77684  Biso   1.000  H
  H971     1.0000 0.18218  0.57215  0.77684  Biso   1.000  H
  H972     1.0000 0.85110  0.34627  0.77904  Biso   1.000  H
  H973     1.0000 0.85122  0.34636  0.77904  Biso   1.000  H
  H974     1.0000 0.85114  0.34636  0.77904  Biso   1.000  H
  C1869    1.0000 0.79735  0.00497  0.70375  Biso   1.000  C
  C1870    1.0000 0.79739  0.00506  0.70375  Biso   1.000  C
  N176     1.0000 0.00184  0.10175  0.70352  Biso   1.000  N
  N177     1.0000 0.00188  0.10183  0.70352  Biso   1.000  N
  N178     1.0000 0.00177  0.10175  0.70352  Biso   1.000  N
  C1871    1.0000 0.20762  0.20271  0.70375  Biso   1.000  C
  C1872    1.0000 0.20769  0.20271  0.70375  Biso   1.000  C
  B114     1.0000 0.02496  0.48117  0.79353  Biso   1.000  B
  B115     1.0000 0.02500  0.48125  0.79353  Biso   1.000  B
  B116     1.0000 0.02488  0.48117  0.79353  Biso   1.000  B
  B117     1.0000 0.02493  0.48125  0.79353  Biso   1.000  B
  C1873    1.0000 0.69190  0.90631  0.70373  Biso   1.000  C
  C1874    1.0000 0.80036  0.10789  0.70416  Biso   1.000  C
  C1875    1.0000 0.21445  0.30810  0.70373  Biso   1.000  C
  C1876    1.0000 0.30759  0.19972  0.70416  Biso   1.000  C
  C1877    1.0000 0.30751  0.19972  0.70416  Biso   1.000  C
  O195     1.0000 0.93524  0.39198  0.80046  Biso   1.000  O
  O196     1.0000 0.93529  0.39206  0.80046  Biso   1.000  O
  O197     1.0000 0.13401  0.50965  0.79890  Biso   1.000  O
  N179     1.0000 0.01493  0.59875  0.79539  Biso   1.000  N
  O198     1.0000 0.13406  0.50973  0.79890  Biso   1.000  O
  N180     1.0000 0.01497  0.59884  0.79539  Biso   1.000  N
  H975     1.0000 0.68662  0.83520  0.70347  Biso   1.000  H
  C1878    1.0000 0.59550  0.91467  0.70414  Biso   1.000  C
  H976     1.0000 0.68666  0.83529  0.70347  Biso   1.000  H
  C1879    1.0000 0.59554  0.91476  0.70414  Biso   1.000  C
  C1880    1.0000 0.70060  0.10951  0.70456  Biso   1.000  C
  H977     1.0000 0.86974  0.17576  0.70417  Biso   1.000  H
  H978     1.0000 0.86979  0.17585  0.70417  Biso   1.000  H
  C1881    1.0000 0.70052  0.10951  0.70456  Biso   1.000  C
  H979     1.0000 0.14864  0.31338  0.70347  Biso   1.000  H
  C1882    1.0000 0.31919  0.40445  0.70414  Biso   1.000  C
  C1883    1.0000 0.31931  0.40454  0.70414  Biso   1.000  C
  C1884    1.0000 0.31924  0.40454  0.70414  Biso   1.000  C
  C1885    1.0000 0.40894  0.29949  0.70456  Biso   1.000  C
  H980     1.0000 0.30604  0.13031  0.70417  Biso   1.000  H
  C1886    1.0000 0.98715  0.39905  0.81055  Biso   1.000  C
  C1887    1.0000 0.98719  0.39914  0.81055  Biso   1.000  C
  C1888    1.0000 0.98708  0.39905  0.81055  Biso   1.000  C
  C1889    1.0000 0.98712  0.39914  0.81055  Biso   1.000  C
  C1890    1.0000 0.10477  0.47051  0.80968  Biso   1.000  C
  C1891    1.0000 0.10470  0.47051  0.80968  Biso   1.000  C
  C1892    1.0000 0.10943  0.70048  0.79545  Biso   1.000  C
  C1893    1.0000 0.91473  0.59551  0.79586  Biso   1.000  C
  C1894    1.0000 0.91480  0.59551  0.79586  Biso   1.000  C
  H981     1.0000 0.52507  0.84825  0.70407  Biso   1.000  H
  H982     1.0000 0.52499  0.84825  0.70407  Biso   1.000  H
  N181     1.0000 0.59886  0.01503  0.70462  Biso   1.000  N
  H983     1.0000 0.70367  0.17960  0.70477  Biso   1.000  H
  H984     1.0000 0.32322  0.47497  0.70407  Biso   1.000  H
  N182     1.0000 0.41616  0.40121  0.70462  Biso   1.000  N
  H985     1.0000 0.32326  0.47505  0.70407  Biso   1.000  H
  H986     1.0000 0.47593  0.29642  0.70477  Biso   1.000  H
  C1895    1.0000 0.93839  0.34806  0.82058  Biso   1.000  C
  C1896    1.0000 0.93851  0.34815  0.82058  Biso   1.000  C
  C1897    1.0000 0.93844  0.34815  0.82058  Biso   1.000  C
  C1898    1.0000 0.17563  0.49379  0.81877  Biso   1.000  C
  H987     1.0000 0.17949  0.70355  0.79523  Biso   1.000  H
  C1899    1.0000 0.10784  0.80024  0.79584  Biso   1.000  C
  H988     1.0000 0.17954  0.70363  0.79523  Biso   1.000  H
  C1900    1.0000 0.10789  0.80033  0.79584  Biso   1.000  C
  C1901    1.0000 0.10777  0.80024  0.79584  Biso   1.000  C
  C1902    1.0000 0.10781  0.80033  0.79584  Biso   1.000  C
  C1903    1.0000 0.90634  0.69187  0.79627  Biso   1.000  C
  H989     1.0000 0.84823  0.52500  0.79594  Biso   1.000  H
  C1904    1.0000 0.90638  0.69195  0.79627  Biso   1.000  C
  B118     1.0000 0.48127  0.02501  0.70648  Biso   1.000  B
  B119     1.0000 0.54377  0.51880  0.70648  Biso   1.000  B
  B120     1.0000 0.54370  0.51880  0.70648  Biso   1.000  B
  H990     1.0000 0.86033  0.29827  0.82113  Biso   1.000  H
  H991     1.0000 0.86037  0.29835  0.82113  Biso   1.000  H
  C1905    1.0000 0.01077  0.37347  0.82993  Biso   1.000  C
  C1906    1.0000 0.01081  0.37356  0.82993  Biso   1.000  C
  C1907    1.0000 0.01069  0.37347  0.82993  Biso   1.000  C
  C1908    1.0000 0.01073  0.37356  0.82993  Biso   1.000  C
  C1909    1.0000 0.12679  0.44646  0.82906  Biso   1.000  C
  H992     1.0000 0.25427  0.54000  0.81803  Biso   1.000  H
  C1910    1.0000 0.12691  0.44655  0.82906  Biso   1.000  C
  H993     1.0000 0.25420  0.54000  0.81803  Biso   1.000  H
  C1911    1.0000 0.12683  0.44655  0.82906  Biso   1.000  C
  C1912    1.0000 0.00489  0.79726  0.79625  Biso   1.000  C
  H994     1.0000 0.17570  0.86965  0.79583  Biso   1.000  H
  C1913    1.0000 0.00501  0.79734  0.79625  Biso   1.000  C
  H995     1.0000 0.17575  0.86973  0.79583  Biso   1.000  H
  C1914    1.0000 0.00493  0.79734  0.79625  Biso   1.000  C
  H996     1.0000 0.83524  0.68658  0.79654  Biso   1.000  H
  O199     1.0000 0.39199  0.93522  0.69953  Biso   1.000  O
  O200     1.0000 0.39207  0.93522  0.69953  Biso   1.000  O
  C1915    1.0000 0.46251  0.01836  0.71970  Biso   1.000  C
  O201     1.0000 0.50973  0.13407  0.70111  Biso   1.000  O
  C1916    1.0000 0.46263  0.01844  0.71970  Biso   1.000  C
  O202     1.0000 0.50977  0.13415  0.70111  Biso   1.000  O
  C1917    1.0000 0.46255  0.01844  0.71970  Biso   1.000  C
  C1918    1.0000 0.55584  0.53747  0.71970  Biso   1.000  C
  O203     1.0000 0.62435  0.49032  0.70111  Biso   1.000  O
  O204     1.0000 0.54325  0.60799  0.69953  Biso   1.000  O
  C1919    1.0000 0.55588  0.53755  0.71970  Biso   1.000  C
  Cl193    1.0000 0.94920  0.31208  0.84279  Biso   1.000  Cl
  Cl194    1.0000 0.94928  0.31208  0.84279  Biso   1.000  Cl
  Cl195    1.0000 0.21410  0.47929  0.84084  Biso   1.000  Cl
  Cl196    1.0000 0.21414  0.47938  0.84084  Biso   1.000  Cl
  C1920    1.0000 0.00138  0.90469  0.79647  Biso   1.000  C
  C1921    1.0000 0.00131  0.90469  0.79647  Biso   1.000  C
  C1922    1.0000 0.39908  0.98706  0.68944  Biso   1.000  C
  C1923    1.0000 0.39913  0.98715  0.68944  Biso   1.000  C
  C1924    1.0000 0.39058  0.91629  0.72527  Biso   1.000  C
  C1925    1.0000 0.39069  0.91638  0.72527  Biso   1.000  C
  C1926    1.0000 0.39062  0.91638  0.72527  Biso   1.000  C
  C1927    1.0000 0.52453  0.11198  0.72658  Biso   1.000  C
  C1928    1.0000 0.52458  0.11207  0.72658  Biso   1.000  C
  C1929    1.0000 0.47059  0.10482  0.69031  Biso   1.000  C
  C1930    1.0000 0.47052  0.10482  0.69031  Biso   1.000  C
  C1931    1.0000 0.58747  0.47548  0.72658  Biso   1.000  C
  C1932    1.0000 0.52569  0.60935  0.72527  Biso   1.000  C
  C1933    1.0000 0.52581  0.60944  0.72527  Biso   1.000  C
  C1934    1.0000 0.58739  0.47548  0.72658  Biso   1.000  C
  C1935    1.0000 0.52573  0.60944  0.72527  Biso   1.000  C
  C1936    1.0000 0.63424  0.52945  0.69031  Biso   1.000  C
  C1937    1.0000 0.63429  0.52954  0.69031  Biso   1.000  C
  C1938    1.0000 0.63417  0.52945  0.69031  Biso   1.000  C
  C1939    1.0000 0.58808  0.60091  0.68944  Biso   1.000  C
  C1940    1.0000 0.58800  0.60091  0.68944  Biso   1.000  C
  N183     1.0000 0.90007  0.89821  0.79649  Biso   1.000  N
  N184     1.0000 0.90000  0.89821  0.79649  Biso   1.000  N
  N185     1.0000 0.10182  0.00190  0.79649  Biso   1.000  N
  N186     1.0000 0.10175  0.00190  0.79649  Biso   1.000  N
  C1941    1.0000 0.34808  0.93838  0.67943  Biso   1.000  C
  C1942    1.0000 0.34813  0.93846  0.67943  Biso   1.000  C
  C1943    1.0000 0.38318  0.90887  0.73699  Biso   1.000  C
  H997     1.0000 0.34634  0.85115  0.72097  Biso   1.000  H
  C1944    1.0000 0.38322  0.90896  0.73699  Biso   1.000  C
  H998     1.0000 0.57217  0.18216  0.72317  Biso   1.000  H
  C1945    1.0000 0.51919  0.10601  0.73817  Biso   1.000  C
  H999     1.0000 0.57222  0.18224  0.72317  Biso   1.000  H
  H1000    1.0000 0.57210  0.18216  0.72317  Biso   1.000  H
  C1946    1.0000 0.51911  0.10601  0.73817  Biso   1.000  C
  H1001    1.0000 0.57214  0.18224  0.72317  Biso   1.000  H
  C1947    1.0000 0.49383  0.17568  0.68123  Biso   1.000  C
  C1948    1.0000 0.49388  0.17576  0.68123  Biso   1.000  C
  H1002    1.0000 0.61005  0.42790  0.72317  Biso   1.000  H
  C1949    1.0000 0.58683  0.48085  0.73817  Biso   1.000  C
  C1950    1.0000 0.58687  0.48094  0.73817  Biso   1.000  C
  C1951    1.0000 0.52571  0.61677  0.73699  Biso   1.000  C
  H1003    1.0000 0.50481  0.65369  0.72097  Biso   1.000  H
  C1952    1.0000 0.52575  0.61685  0.73699  Biso   1.000  C
  H1004    1.0000 0.50488  0.65369  0.72097  Biso   1.000  H
  C1953    1.0000 0.68183  0.50618  0.68123  Biso   1.000  C
  C1954    1.0000 0.68187  0.50626  0.68123  Biso   1.000  C
  C1955    1.0000 0.59031  0.65190  0.67943  Biso   1.000  C
  C1956    1.0000 0.59039  0.65190  0.67943  Biso   1.000  C
  C1957    1.0000 0.90336  0.99857  0.79647  Biso   1.000  C
  C1958    1.0000 0.90329  0.99857  0.79647  Biso   1.000  C
  C1959    1.0000 0.09528  0.09663  0.79647  Biso   1.000  C
  C1960    1.0000 0.09532  0.09672  0.79647  Biso   1.000  C
  C1961    1.0000 0.09521  0.09663  0.79647  Biso   1.000  C
  H1005    1.0000 0.29832  0.86027  0.67887  Biso   1.000  H
  H1006    1.0000 0.29837  0.86036  0.67887  Biso   1.000  H
  H1007    1.0000 0.29825  0.86027  0.67887  Biso   1.000  H
  C1962    1.0000 0.37357  0.01077  0.67006  Biso   1.000  C
  C1963    1.0000 0.37361  0.01085  0.67006  Biso   1.000  C
  C1964    1.0000 0.37350  0.01077  0.67006  Biso   1.000  C
  H1008    1.0000 0.33423  0.83904  0.74036  Biso   1.000  H
  C1965    1.0000 0.44768  0.00420  0.74381  Biso   1.000  C
  H1009    1.0000 0.56433  0.17150  0.74237  Biso   1.000  H
  H1010    1.0000 0.56441  0.17150  0.74237  Biso   1.000  H
  C1966    1.0000 0.44656  0.12690  0.67094  Biso   1.000  C
  H1011    1.0000 0.54008  0.25429  0.68197  Biso   1.000  H
  H1012    1.0000 0.54001  0.25429  0.68197  Biso   1.000  H
  H1013    1.0000 0.60714  0.43566  0.74237  Biso   1.000  H
  C1967    1.0000 0.55651  0.55239  0.74381  Biso   1.000  C
  H1014    1.0000 0.60718  0.43574  0.74237  Biso   1.000  H
  C1968    1.0000 0.55658  0.55239  0.74381  Biso   1.000  C
  H1015    1.0000 0.60706  0.43566  0.74237  Biso   1.000  H
  H1016    1.0000 0.50481  0.66580  0.74036  Biso   1.000  H
  H1017    1.0000 0.50488  0.66580  0.74036  Biso   1.000  H
  C1969    1.0000 0.68031  0.55350  0.67094  Biso   1.000  C
  H1018    1.0000 0.71425  0.45996  0.68197  Biso   1.000  H
  C1970    1.0000 0.68038  0.55350  0.67094  Biso   1.000  C
  H1019    1.0000 0.71429  0.46005  0.68197  Biso   1.000  H
  H1020    1.0000 0.71418  0.45996  0.68197  Biso   1.000  H
  H1021    1.0000 0.71422  0.46005  0.68197  Biso   1.000  H
  H1022    1.0000 0.56204  0.70170  0.67887  Biso   1.000  H
  C1971    1.0000 0.63727  0.62649  0.67006  Biso   1.000  C
  C1972    1.0000 0.63720  0.62649  0.67006  Biso   1.000  C
  C1973    1.0000 0.79236  0.99499  0.79625  Biso   1.000  C
  N187     1.0000 0.99821  0.09996  0.79649  Biso   1.000  N
  N188     1.0000 0.99814  0.09996  0.79649  Biso   1.000  N
  C1974    1.0000 0.20270  0.20765  0.79625  Biso   1.000  C
  C1975    1.0000 0.20263  0.20765  0.79625  Biso   1.000  C
  Cl197    1.0000 0.31207  0.94920  0.65721  Biso   1.000  Cl
  C1976    1.0000 0.44346  0.99576  0.75619  Biso   1.000  C
  C1977    1.0000 0.44350  0.99585  0.75619  Biso   1.000  C
  Cl198    1.0000 0.47939  0.21413  0.65916  Biso   1.000  Cl
  Cl199    1.0000 0.47943  0.21422  0.65916  Biso   1.000  Cl
  Cl200    1.0000 0.47932  0.21413  0.65916  Biso   1.000  Cl
  C1978    1.0000 0.55239  0.55657  0.75619  Biso   1.000  C
  C1979    1.0000 0.55232  0.55657  0.75619  Biso   1.000  C
  Cl201    1.0000 0.73479  0.52067  0.65916  Biso   1.000  Cl
  Cl202    1.0000 0.63710  0.68788  0.65721  Biso   1.000  Cl
  Cl203    1.0000 0.63722  0.68797  0.65721  Biso   1.000  Cl
  Cl204    1.0000 0.63715  0.68797  0.65721  Biso   1.000  Cl
  C1980    1.0000 0.69246  0.89207  0.79584  Biso   1.000  C
  C1981    1.0000 0.78556  0.09365  0.79627  Biso   1.000  C
  C1982    1.0000 0.78561  0.09373  0.79627  Biso   1.000  C
  C1983    1.0000 0.30809  0.21447  0.79627  Biso   1.000  C
  C1984    1.0000 0.19972  0.30759  0.79584  Biso   1.000  C
  C1985    1.0000 0.19965  0.30759  0.79584  Biso   1.000  C
  C1986    1.0000 0.41315  0.89395  0.76182  Biso   1.000  C
  C1987    1.0000 0.41320  0.89404  0.76182  Biso   1.000  C
  C1988    1.0000 0.41308  0.89395  0.76182  Biso   1.000  C
  C1989    1.0000 0.47429  0.09109  0.76302  Biso   1.000  C
  C1990    1.0000 0.48084  0.58684  0.76182  Biso   1.000  C
  C1991    1.0000 0.61676  0.52579  0.76302  Biso   1.000  C
  C1992    1.0000 0.48095  0.58692  0.76182  Biso   1.000  C
  C1993    1.0000 0.61683  0.52579  0.76302  Biso   1.000  C
  C1994    1.0000 0.48088  0.58692  0.76182  Biso   1.000  C
  C1995    1.0000 0.59107  0.89045  0.79545  Biso   1.000  C
  H1023    1.0000 0.69396  0.82420  0.79583  Biso   1.000  H
  C1996    1.0000 0.59111  0.89054  0.79545  Biso   1.000  C
  C1997    1.0000 0.59100  0.89045  0.79545  Biso   1.000  C
  C1998    1.0000 0.59104  0.89054  0.79545  Biso   1.000  C
  H1024    1.0000 0.85140  0.16476  0.79654  Biso   1.000  H
  C1999    1.0000 0.68081  0.08529  0.79586  Biso   1.000  C
  H1025    1.0000 0.31336  0.14865  0.79654  Biso   1.000  H
  C2000    1.0000 0.40450  0.31927  0.79586  Biso   1.000  C
  H1026    1.0000 0.31340  0.14873  0.79654  Biso   1.000  H
  C2001    1.0000 0.40443  0.31927  0.79586  Biso   1.000  C
  C2002    1.0000 0.29945  0.40897  0.79545  Biso   1.000  C
  H1027    1.0000 0.13028  0.30605  0.79583  Biso   1.000  H
  C2003    1.0000 0.29952  0.40897  0.79545  Biso   1.000  C
  C2004    1.0000 0.41253  0.88798  0.77341  Biso   1.000  C
  H1028    1.0000 0.39282  0.82846  0.75764  Biso   1.000  H
  H1029    1.0000 0.39293  0.82855  0.75764  Biso   1.000  H
  H1030    1.0000 0.39286  0.82855  0.75764  Biso   1.000  H
  H1031    1.0000 0.49517  0.16093  0.75963  Biso   1.000  H
  C2005    1.0000 0.47427  0.08367  0.77472  Biso   1.000  C
  H1032    1.0000 0.49521  0.16101  0.75963  Biso   1.000  H
  C2006    1.0000 0.47434  0.08367  0.77472  Biso   1.000  C
  C2007    1.0000 0.47545  0.58744  0.77341  Biso   1.000  C
  H1033    1.0000 0.43567  0.60713  0.75764  Biso   1.000  H
  C2008    1.0000 0.47549  0.58752  0.77341  Biso   1.000  C
  H1034    1.0000 0.43572  0.60722  0.75764  Biso   1.000  H
  H1035    1.0000 0.66571  0.50481  0.75963  Biso   1.000  H
  C2009    1.0000 0.60937  0.52579  0.77472  Biso   1.000  C
  H1036    1.0000 0.66583  0.50490  0.75963  Biso   1.000  H
  H1037    1.0000 0.66576  0.50490  0.75963  Biso   1.000  H
  N189     1.0000 0.58381  0.98493  0.79539  Biso   1.000  N
  H1038    1.0000 0.52405  0.82036  0.79523  Biso   1.000  H
  N190     1.0000 0.58385  0.98502  0.79539  Biso   1.000  N
  H1039    1.0000 0.52409  0.82045  0.79523  Biso   1.000  H
  H1040    1.0000 0.67680  0.15172  0.79594  Biso   1.000  H
  H1041    1.0000 0.67685  0.15180  0.79594  Biso   1.000  H
  H1042    1.0000 0.67673  0.15172  0.79594  Biso   1.000  H
  H1043    1.0000 0.67677  0.15180  0.79594  Biso   1.000  H
  H1044    1.0000 0.47496  0.32328  0.79594  Biso   1.000  H
  N191     1.0000 0.40117  0.41613  0.79539  Biso   1.000  N
  N192     1.0000 0.40121  0.41622  0.79539  Biso   1.000  N
  H1045    1.0000 0.29636  0.47591  0.79523  Biso   1.000  H
  H1046    1.0000 0.29641  0.47599  0.79523  Biso   1.000  H
  C2010    1.0000 0.44413  0.98161  0.78031  Biso   1.000  C
  H1047    1.0000 0.39000  0.81781  0.77684  Biso   1.000  H
  C2011    1.0000 0.44421  0.98161  0.78031  Biso   1.000  C
  H1048    1.0000 0.38993  0.81781  0.77684  Biso   1.000  H
  H1049    1.0000 0.49517  0.14882  0.77904  Biso   1.000  H
  H1050    1.0000 0.49522  0.14890  0.77904  Biso   1.000  H
  C2012    1.0000 0.53751  0.55589  0.78031  Biso   1.000  C
  H1051    1.0000 0.42789  0.61003  0.77684  Biso   1.000  H
  H1052    1.0000 0.42794  0.61012  0.77684  Biso   1.000  H
  C2013    1.0000 0.53743  0.55589  0.78031  Biso   1.000  C
  H1053    1.0000 0.42782  0.61003  0.77684  Biso   1.000  H
  H1054    1.0000 0.42786  0.61012  0.77684  Biso   1.000  H
  H1055    1.0000 0.65368  0.50481  0.77904  Biso   1.000  H
  H1056    1.0000 0.65372  0.50490  0.77904  Biso   1.000  H
  H1057    1.0000 0.65360  0.50481  0.77904  Biso   1.000  H
  H1058    1.0000 0.65364  0.50490  0.77904  Biso   1.000  H
  B121     1.0000 0.45624  0.97496  0.79353  Biso   1.000  B
  B122     1.0000 0.45628  0.97504  0.79353  Biso   1.000  B
  B123     1.0000 0.51875  0.54378  0.79353  Biso   1.000  B
  B124     1.0000 0.51882  0.54378  0.79353  Biso   1.000  B
  O205     1.0000 0.37565  0.86590  0.79890  Biso   1.000  O
  O206     1.0000 0.45675  0.06474  0.80046  Biso   1.000  O
  O207     1.0000 0.45687  0.06483  0.80046  Biso   1.000  O
  O208     1.0000 0.45680  0.06483  0.80046  Biso   1.000  O
  O209     1.0000 0.49029  0.62436  0.79890  Biso   1.000  O
  O210     1.0000 0.60799  0.54327  0.80046  Biso   1.000  O
  O211     1.0000 0.49022  0.62436  0.79890  Biso   1.000  O
  O212     1.0000 0.60792  0.54327  0.80046  Biso   1.000  O
  C2014    1.0000 0.36575  0.89514  0.80968  Biso   1.000  C
  C2015    1.0000 0.36580  0.89523  0.80968  Biso   1.000  C
  C2016    1.0000 0.36568  0.89514  0.80968  Biso   1.000  C
  C2017    1.0000 0.41200  0.01290  0.81055  Biso   1.000  C
  C2018    1.0000 0.52950  0.63425  0.80968  Biso   1.000  C
  C2019    1.0000 0.52943  0.63425  0.80968  Biso   1.000  C
  C2020    1.0000 0.60084  0.58803  0.81055  Biso   1.000  C
  C2021    1.0000 0.60088  0.58812  0.81055  Biso   1.000  C
  C2022    1.0000 0.31814  0.82429  0.81877  Biso   1.000  C
  C2023    1.0000 0.40969  0.06159  0.82058  Biso   1.000  C
  C2024    1.0000 0.50618  0.68183  0.81877  Biso   1.000  C
  C2025    1.0000 0.50622  0.68191  0.81877  Biso   1.000  C
  C2026    1.0000 0.50610  0.68183  0.81877  Biso   1.000  C
  C2027    1.0000 0.65184  0.59034  0.82058  Biso   1.000  C
  C2028    1.0000 0.65188  0.59042  0.82058  Biso   1.000  C
  C2029    1.0000 0.31963  0.87306  0.82906  Biso   1.000  C
  H1059    1.0000 0.28577  0.74567  0.81803  Biso   1.000  H
  C2030    1.0000 0.31968  0.87315  0.82906  Biso   1.000  C
  H1060    1.0000 0.28581  0.74575  0.81803  Biso   1.000  H
  H1061    1.0000 0.28570  0.74567  0.81803  Biso   1.000  H
  C2031    1.0000 0.36279  0.98920  0.82993  Biso   1.000  C
  C2032    1.0000 0.36271  0.98920  0.82993  Biso   1.000  C
  H1062    1.0000 0.43803  0.13969  0.82113  Biso   1.000  H
  H1063    1.0000 0.43796  0.13969  0.82113  Biso   1.000  H
  C2033    1.0000 0.55345  0.68038  0.82906  Biso   1.000  C
  H1064    1.0000 0.45998  0.71423  0.81803  Biso   1.000  H
  C2034    1.0000 0.55353  0.68038  0.82906  Biso   1.000  C
  H1065    1.0000 0.46002  0.71432  0.81803  Biso   1.000  H
  H1066    1.0000 0.45991  0.71423  0.81803  Biso   1.000  H
  H1067    1.0000 0.70163  0.56203  0.82113  Biso   1.000  H
  C2035    1.0000 0.62647  0.63723  0.82993  Biso   1.000  C
  H1068    1.0000 0.70167  0.56211  0.82113  Biso   1.000  H
  C2036    1.0000 0.62652  0.63732  0.82993  Biso   1.000  C
  Cl205    1.0000 0.26524  0.78583  0.84084  Biso   1.000  Cl
  Cl206    1.0000 0.26516  0.78583  0.84084  Biso   1.000  Cl
  Cl207    1.0000 0.36285  0.05076  0.84279  Biso   1.000  Cl
  Cl208    1.0000 0.36289  0.05084  0.84279  Biso   1.000  Cl
  Cl209    1.0000 0.52062  0.73478  0.84084  Biso   1.000  Cl
  Cl210    1.0000 0.52066  0.73486  0.84084  Biso   1.000  Cl
  Cl211    1.0000 0.68787  0.63715  0.84279  Biso   1.000  Cl
  Cl212    1.0000 0.68791  0.63723  0.84279  Biso   1.000  Cl
  C2037    1.0000 0.02947  0.32257  0.16327  Biso   1.000  C
  C2038    1.0000 0.07633  0.39488  0.15390  Biso   1.000  C
  Cl213    1.0000 0.02949  0.38405  0.17612  Biso   1.000  Cl
  C2039    1.0000 0.98632  0.20643  0.16240  Biso   1.000  C
  C2040    1.0000 0.07865  0.34619  0.14389  Biso   1.000  C
  H1069    1.0000 0.10468  0.47298  0.15447  Biso   1.000  H
  C2041    1.0000 0.98483  0.15766  0.15211  Biso   1.000  C
  Cl214    1.0000 0.93193  0.11920  0.17418  Biso   1.000  Cl
  C2042    1.0000 0.03248  0.22860  0.14302  Biso   1.000  C
  O213     1.0000 0.12340  0.39803  0.13380  Biso   1.000  O
  H1070    1.0000 0.95246  0.07904  0.15137  Biso   1.000  H
  O214     1.0000 0.04233  0.19927  0.13222  Biso   1.000  O
  B125     1.0000 0.12293  0.30833  0.12685  Biso   1.000  B
  C2043    1.0000 0.11082  0.31498  0.11363  Biso   1.000  C
  N193     1.0000 0.25054  0.31839  0.12871  Biso   1.000  N
  C2044    1.0000 0.07922  0.22136  0.10675  Biso   1.000  C
  C2045    1.0000 0.14091  0.41696  0.10806  Biso   1.000  C
  C2046    1.0000 0.34745  0.41858  0.12920  Biso   1.000  C
  C2047    1.0000 0.25768  0.22383  0.12877  Biso   1.000  C
  H1071    1.0000 0.05661  0.15118  0.11016  Biso   1.000  H
  C2048    1.0000 0.07984  0.22732  0.09516  Biso   1.000  C
  C2049    1.0000 0.14093  0.42438  0.09634  Biso   1.000  C
  H1072    1.0000 0.16186  0.48219  0.11236  Biso   1.000  H
  C2050    1.0000 0.45221  0.42694  0.12960  Biso   1.000  C
  H1073    1.0000 0.34342  0.48509  0.12926  Biso   1.000  H
  H1074    1.0000 0.19074  0.15374  0.12857  Biso   1.000  H
  C2051    1.0000 0.35914  0.22545  0.12918  Biso   1.000  C
  H1075    1.0000 0.05950  0.16184  0.09096  Biso   1.000  H
  C2052    1.0000 0.11014  0.32913  0.08953  Biso   1.000  C
  H1076    1.0000 0.16182  0.49421  0.09297  Biso   1.000  H
  C2053    1.0000 0.45904  0.32837  0.12959  Biso   1.000  C
  H1077    1.0000 0.51804  0.49805  0.12986  Biso   1.000  H
  H1078    1.0000 0.36065  0.15758  0.12916  Biso   1.000  H
  C2054    1.0000 0.11432  0.33749  0.07714  Biso   1.000  C
  C2055    1.0000 0.57005  0.33195  0.12981  Biso   1.000  C
  C2056    1.0000 0.18583  0.43930  0.07151  Biso   1.000  C
  C2057    1.0000 0.04991  0.24233  0.07032  Biso   1.000  C
  N194     1.0000 0.56676  0.23159  0.12981  Biso   1.000  N
  N195     1.0000 0.66478  0.43325  0.12981  Biso   1.000  N
  C2058    1.0000 0.19118  0.44527  0.05992  Biso   1.000  C
  H1079    1.0000 0.23098  0.50479  0.07570  Biso   1.000  H
  H1080    1.0000 0.00092  0.17241  0.07370  Biso   1.000  H
  C2059    1.0000 0.05726  0.24966  0.05861  Biso   1.000  C
  C2060    1.0000 0.66799  0.23807  0.12981  Biso   1.000  C
  C2061    1.0000 0.76193  0.42992  0.12981  Biso   1.000  C
  C2062    1.0000 0.12920  0.35173  0.05303  Biso   1.000  C
  H1081    1.0000 0.23879  0.51553  0.05650  Biso   1.000  H
  H1082    1.0000 0.01303  0.18452  0.05430  Biso   1.000  H
  N196     1.0000 0.76847  0.33519  0.12981  Biso   1.000  N
  C2063    1.0000 0.67158  0.13063  0.12959  Biso   1.000  C
  C2064    1.0000 0.86927  0.54094  0.12959  Biso   1.000  C
  B126     1.0000 0.14791  0.35830  0.03981  Biso   1.000  B
  C2065    1.0000 0.57302  0.02524  0.12960  Biso   1.000  C
  C2066    1.0000 0.77450  0.13370  0.12918  Biso   1.000  C
  C2067    1.0000 0.97474  0.54776  0.12960  Biso   1.000  C
  C2068    1.0000 0.86629  0.64087  0.12918  Biso   1.000  C
  O215     1.0000 0.17637  0.46735  0.03444  Biso   1.000  O
  O216     1.0000 0.05868  0.26859  0.03287  Biso   1.000  O
  N197     1.0000 0.26551  0.34832  0.03795  Biso   1.000  N
  H1083    1.0000 0.50193  0.01995  0.12986  Biso   1.000  H
  C2069    1.0000 0.58137  0.92880  0.12920  Biso   1.000  C
  C2070    1.0000 0.77612  0.03385  0.12877  Biso   1.000  C
  H1084    1.0000 0.84239  0.20302  0.12916  Biso   1.000  H
  H1085    1.0000 0.98000  0.48194  0.12986  Biso   1.000  H
  C2071    1.0000 0.07115  0.65256  0.12920  Biso   1.000  C
  C2072    1.0000 0.96609  0.74226  0.12877  Biso   1.000  C
  H1086    1.0000 0.79693  0.63934  0.12916  Biso   1.000  H
  C2073    1.0000 0.13723  0.43811  0.02365  Biso   1.000  C
  C2074    1.0000 0.06581  0.32052  0.02278  Biso   1.000  C
  C2075    1.0000 0.26223  0.24813  0.03747  Biso   1.000  C
  C2076    1.0000 0.36717  0.44280  0.03789  Biso   1.000  C
  H1087    1.0000 0.51488  0.85828  0.12926  Biso   1.000  H
  N198     1.0000 0.68157  0.93204  0.12871  Biso   1.000  N
  H1088    1.0000 0.84622  0.03701  0.12857  Biso   1.000  H
  H1089    1.0000 0.14160  0.65656  0.12926  Biso   1.000  H
  N199     1.0000 0.06781  0.74942  0.12871  Biso   1.000  N
  H1090    1.0000 0.96305  0.80928  0.12857  Biso   1.000  H
  C2077    1.0000 0.16048  0.50897  0.01456  Biso   1.000  C
  C2078    1.0000 0.01481  0.27183  0.01276  Biso   1.000  C
  C2079    1.0000 0.35858  0.23969  0.03706  Biso   1.000  C
  H1091    1.0000 0.19168  0.18162  0.03740  Biso   1.000  H
  H1092    1.0000 0.37031  0.51289  0.03810  Biso   1.000  H
  C2080    1.0000 0.46701  0.44118  0.03749  Biso   1.000  C
  B127     1.0000 0.69153  0.81446  0.12685  Biso   1.000  B
  B128     1.0000 0.18540  0.87707  0.12685  Biso   1.000  B
  C2081    1.0000 0.11320  0.46019  0.00427  Biso   1.000  C
  H1093    1.0000 0.20673  0.58758  0.01530  Biso   1.000  H
  C2082    1.0000 0.04022  0.34406  0.00340  Biso   1.000  C
  H1094    1.0000 0.96505  0.19373  0.01220  Biso   1.000  H
  C2083    1.0000 0.46399  0.33826  0.03708  Biso   1.000  C
  H1095    1.0000 0.35330  0.16858  0.03680  Biso   1.000  H
  H1096    1.0000 0.53639  0.50905  0.03750  Biso   1.000  H
  C2084    1.0000 0.68500  0.79578  0.11363  Biso   1.000  C
  O217     1.0000 0.80070  0.84302  0.13222  Biso   1.000  O
  O218     1.0000 0.60189  0.72527  0.13380  Biso   1.000  O
  C2085    1.0000 0.20415  0.88918  0.11363  Biso   1.000  C
  O219     1.0000 0.15694  0.95765  0.13222  Biso   1.000  O
  O220     1.0000 0.27464  0.87656  0.13380  Biso   1.000  O
  Cl215    1.0000 0.14608  0.54751  0.99249  Biso   1.000  Cl
  Cl216    1.0000 0.97876  0.28258  0.99054  Biso   1.000  Cl
  C2086    1.0000 0.57141  0.33468  0.03686  Biso   1.000  C
  C2087    1.0000 0.77854  0.85777  0.10675  Biso   1.000  C
  C2088    1.0000 0.58297  0.72390  0.10806  Biso   1.000  C
  C2089    1.0000 0.77142  0.80380  0.14302  Biso   1.000  C
  C2090    1.0000 0.65376  0.73243  0.14389  Biso   1.000  C
  C2091    1.0000 0.14209  0.92072  0.10675  Biso   1.000  C
  C2092    1.0000 0.27602  0.85908  0.10806  Biso   1.000  C
  C2093    1.0000 0.19607  0.96754  0.14302  Biso   1.000  C
  C2094    1.0000 0.26748  0.92132  0.14389  Biso   1.000  C
  N200     1.0000 0.56485  0.23338  0.03685  Biso   1.000  N
  N201     1.0000 0.66853  0.43512  0.03685  Biso   1.000  N
  H1097    1.0000 0.84878  0.90535  0.11016  Biso   1.000  H
  C2095    1.0000 0.77260  0.85240  0.09516  Biso   1.000  C
  C2096    1.0000 0.57557  0.71648  0.09634  Biso   1.000  C
  H1098    1.0000 0.51775  0.67956  0.11236  Biso   1.000  H
  C2097    1.0000 0.84228  0.82708  0.15211  Biso   1.000  C
  C2098    1.0000 0.60504  0.68135  0.15390  Biso   1.000  C
  H1099    1.0000 0.09446  0.94332  0.11016  Biso   1.000  H
  C2099    1.0000 0.14748  0.92013  0.09516  Biso   1.000  C
  C2100    1.0000 0.28340  0.85908  0.09634  Biso   1.000  C
  H1100    1.0000 0.32029  0.83819  0.11236  Biso   1.000  H
  C2101    1.0000 0.17286  0.01520  0.15211  Biso   1.000  C
  C2102    1.0000 0.31848  0.92362  0.15390  Biso   1.000  C
  C2103    1.0000 0.66532  0.23670  0.03686  Biso   1.000  C
  C2104    1.0000 0.76324  0.42856  0.03686  Biso   1.000  C
  H1101    1.0000 0.83810  0.89759  0.09096  Biso   1.000  H
  C2105    1.0000 0.67074  0.78086  0.08953  Biso   1.000  C
  H1102    1.0000 0.50564  0.66745  0.09297  Biso   1.000  H
  C2106    1.0000 0.79344  0.77975  0.16240  Biso   1.000  C
  H1103    1.0000 0.92084  0.87329  0.15137  Biso   1.000  H
  H1104    1.0000 0.52697  0.63156  0.15447  Biso   1.000  H
  C2107    1.0000 0.67734  0.70676  0.16327  Biso   1.000  C
  H1105    1.0000 0.10232  0.94042  0.09096  Biso   1.000  H
  C2108    1.0000 0.21904  0.88986  0.08953  Biso   1.000  C
  H1106    1.0000 0.33240  0.83819  0.09297  Biso   1.000  H
  C2109    1.0000 0.22014  0.01375  0.16240  Biso   1.000  C
  H1107    1.0000 0.12667  0.04760  0.15137  Biso   1.000  H
  H1108    1.0000 0.36827  0.89531  0.15447  Biso   1.000  H
  C2110    1.0000 0.29312  0.97052  0.16327  Biso   1.000  C
  C2111    1.0000 0.66165  0.12569  0.03708  Biso   1.000  C
  N202     1.0000 0.76663  0.33152  0.03685  Biso   1.000  N
  C2112    1.0000 0.87426  0.53600  0.03708  Biso   1.000  C
  C2113    1.0000 0.66245  0.77668  0.07714  Biso   1.000  C
  Cl217    1.0000 0.88074  0.81258  0.17418  Biso   1.000  Cl
  Cl218    1.0000 0.61585  0.64537  0.17612  Biso   1.000  Cl
  C2114    1.0000 0.22315  0.88568  0.07714  Biso   1.000  C
  Cl219    1.0000 0.18730  0.06815  0.17418  Biso   1.000  Cl
  Cl220    1.0000 0.35451  0.97044  0.17612  Biso   1.000  Cl
  C2115    1.0000 0.76029  0.11886  0.03706  Biso   1.000  C
  C2116    1.0000 0.55878  0.02584  0.03749  Biso   1.000  C
  C2117    1.0000 0.88110  0.64139  0.03706  Biso   1.000  C
  C2118    1.0000 0.97416  0.53301  0.03749  Biso   1.000  C
  C2119    1.0000 0.56062  0.74641  0.07151  Biso   1.000  C
  C2120    1.0000 0.75764  0.80755  0.07032  Biso   1.000  C
  C2121    1.0000 0.25347  0.81414  0.07151  Biso   1.000  C
  C2122    1.0000 0.19235  0.95006  0.07032  Biso   1.000  C
  H1109    1.0000 0.83138  0.18469  0.03680  Biso   1.000  H
  C2123    1.0000 0.75190  0.01407  0.03747  Biso   1.000  C
  H1110    1.0000 0.49090  0.02729  0.03750  Biso   1.000  H
  C2124    1.0000 0.55710  0.92428  0.03789  Biso   1.000  C
  H1111    1.0000 0.81529  0.64667  0.03680  Biso   1.000  H
  C2125    1.0000 0.98588  0.73782  0.03747  Biso   1.000  C
  H1112    1.0000 0.97268  0.46360  0.03750  Biso   1.000  H
  C2126    1.0000 0.07558  0.63277  0.03789  Biso   1.000  C
  C2127    1.0000 0.55464  0.74582  0.05992  Biso   1.000  C
  H1113    1.0000 0.49517  0.72612  0.07570  Biso   1.000  H
  H1114    1.0000 0.82753  0.82844  0.07370  Biso   1.000  H
  C2128    1.0000 0.75025  0.80755  0.05861  Biso   1.000  C
  C2129    1.0000 0.25404  0.80877  0.05992  Biso   1.000  C
  H1115    1.0000 0.27378  0.76895  0.07570  Biso   1.000  H
  H1116    1.0000 0.17145  0.99909  0.07370  Biso   1.000  H
  C2130    1.0000 0.19234  0.94264  0.05861  Biso   1.000  C
  H1117    1.0000 0.81835  0.01006  0.03740  Biso   1.000  H
  N203     1.0000 0.65166  0.91712  0.03795  Biso   1.000  N
  H1118    1.0000 0.48708  0.85735  0.03810  Biso   1.000  H
  H1119    1.0000 0.98986  0.80826  0.03740  Biso   1.000  H
  N204     1.0000 0.08280  0.73450  0.03795  Biso   1.000  N
  H1120    1.0000 0.14257  0.62970  0.03810  Biso   1.000  H
  C2131    1.0000 0.64829  0.77745  0.05303  Biso   1.000  C
  H1121    1.0000 0.48441  0.72322  0.05650  Biso   1.000  H
  H1122    1.0000 0.81542  0.82844  0.05430  Biso   1.000  H
  C2132    1.0000 0.22249  0.87076  0.05303  Biso   1.000  C
  H1123    1.0000 0.27670  0.76119  0.05650  Biso   1.000  H
  H1124    1.0000 0.17145  0.98698  0.05430  Biso   1.000  H
  B129     1.0000 0.64164  0.78956  0.03981  Biso   1.000  B
  B130     1.0000 0.21034  0.85208  0.03981  Biso   1.000  B
  O221     1.0000 0.53256  0.70889  0.03444  Biso   1.000  O
  O222     1.0000 0.73135  0.78998  0.03287  Biso   1.000  O
  O223     1.0000 0.29099  0.82360  0.03444  Biso   1.000  O
  O224     1.0000 0.20989  0.94127  0.03287  Biso   1.000  O
  C2133    1.0000 0.56180  0.69900  0.02365  Biso   1.000  C
  C2134    1.0000 0.67943  0.74522  0.02278  Biso   1.000  C
  C2135    1.0000 0.30089  0.86274  0.02365  Biso   1.000  C
  C2136    1.0000 0.25465  0.93420  0.02278  Biso   1.000  C
  C2137    1.0000 0.49098  0.65142  0.01456  Biso   1.000  C
  C2138    1.0000 0.72813  0.74292  0.01276  Biso   1.000  C
  C2139    1.0000 0.34847  0.83946  0.01456  Biso   1.000  C
  C2140    1.0000 0.25696  0.98519  0.01276  Biso   1.000  C
  C2141    1.0000 0.53974  0.65296  0.00427  Biso   1.000  C
  H1125    1.0000 0.41238  0.61902  0.01530  Biso   1.000  H
  H1126    1.0000 0.80623  0.77123  0.01220  Biso   1.000  H
  C2142    1.0000 0.65587  0.69602  0.00340  Biso   1.000  C
  C2143    1.0000 0.34695  0.88679  0.00427  Biso   1.000  C
  H1127    1.0000 0.38082  0.79325  0.01530  Biso   1.000  H
  C2144    1.0000 0.30384  0.95978  0.00340  Biso   1.000  C
  H1128    1.0000 0.22873  0.03507  0.01220  Biso   1.000  H
  Cl221    1.0000 0.45246  0.59847  0.99249  Biso   1.000  Cl
  Cl222    1.0000 0.71735  0.69610  0.99054  Biso   1.000  Cl
  Cl223    1.0000 0.40143  0.85396  0.99249  Biso   1.000  Cl
  Cl224    1.0000 0.30379  0.02126  0.99054  Biso   1.000  Cl
  C2145    1.0000 0.97054  0.67746  0.83673  Biso   1.000  C
  C2146    1.0000 0.92368  0.60515  0.84610  Biso   1.000  C
  Cl225    1.0000 0.97048  0.61589  0.82388  Biso   1.000  Cl
  C2147    1.0000 0.01365  0.79350  0.83760  Biso   1.000  C
  C2148    1.0000 0.92136  0.65384  0.85611  Biso   1.000  C
  H1129    1.0000 0.89533  0.52704  0.84553  Biso   1.000  H
  C2149    1.0000 0.01514  0.84228  0.84789  Biso   1.000  C
  Cl226    1.0000 0.06809  0.88082  0.82582  Biso   1.000  Cl
  C2150    1.0000 0.96753  0.77142  0.85698  Biso   1.000  C
  O225     1.0000 0.87657  0.60191  0.86620  Biso   1.000  O
  H1130    1.0000 0.04751  0.92090  0.84863  Biso   1.000  H
  O226     1.0000 0.95768  0.80075  0.86778  Biso   1.000  O
  B131     1.0000 0.87704  0.69161  0.87315  Biso   1.000  B
  C2151    1.0000 0.88919  0.68504  0.88637  Biso   1.000  C
  N205     1.0000 0.74947  0.68163  0.87129  Biso   1.000  N
  C2152    1.0000 0.92075  0.77858  0.89325  Biso   1.000  C
  C2153    1.0000 0.85906  0.58298  0.89194  Biso   1.000  C
  C2154    1.0000 0.65256  0.58144  0.87080  Biso   1.000  C
  C2155    1.0000 0.74221  0.77611  0.87123  Biso   1.000  C
  H1131    1.0000 0.94333  0.84884  0.88984  Biso   1.000  H
  C2156    1.0000 0.92013  0.77261  0.90484  Biso   1.000  C
  C2157    1.0000 0.85908  0.57564  0.90366  Biso   1.000  C
  H1132    1.0000 0.83815  0.51783  0.88764  Biso   1.000  H
  C2158    1.0000 0.54776  0.57300  0.87040  Biso   1.000  C
  H1133    1.0000 0.65652  0.51493  0.87074  Biso   1.000  H
  H1134    1.0000 0.80923  0.84620  0.87143  Biso   1.000  H
  C2159    1.0000 0.64083  0.77449  0.87082  Biso   1.000  C
  H1135    1.0000 0.94046  0.83810  0.90904  Biso   1.000  H
  C2160    1.0000 0.88983  0.67080  0.91047  Biso   1.000  C
  H1136    1.0000 0.83815  0.50573  0.90703  Biso   1.000  H
  C2161    1.0000 0.54097  0.67166  0.87041  Biso   1.000  C
  H1137    1.0000 0.48193  0.50189  0.87014  Biso   1.000  H
  H1138    1.0000 0.63936  0.84245  0.87084  Biso   1.000  H
  C2162    1.0000 0.88565  0.66245  0.92286  Biso   1.000  C
  C2163    1.0000 0.42992  0.66799  0.87019  Biso   1.000  C
  C2164    1.0000 0.81418  0.56072  0.92849  Biso   1.000  C
  C2165    1.0000 0.95011  0.75769  0.92968  Biso   1.000  C
  N206     1.0000 0.43325  0.76844  0.87019  Biso   1.000  N
  N207     1.0000 0.33511  0.56669  0.87019  Biso   1.000  N
  C2166    1.0000 0.80879  0.55467  0.94008  Biso   1.000  C
  H1139    1.0000 0.76899  0.49515  0.92430  Biso   1.000  H
  H1140    1.0000 0.99910  0.82761  0.92630  Biso   1.000  H
  C2167    1.0000 0.94270  0.75027  0.94139  Biso   1.000  C
  C2168    1.0000 0.33195  0.76196  0.87019  Biso   1.000  C
  C2169    1.0000 0.23804  0.57002  0.87019  Biso   1.000  C
  C2170    1.0000 0.87082  0.64829  0.94697  Biso   1.000  C
  H1141    1.0000 0.76115  0.48449  0.94350  Biso   1.000  H
  H1142    1.0000 0.98699  0.81550  0.94570  Biso   1.000  H
  N208     1.0000 0.23155  0.66484  0.87019  Biso   1.000  N
  C2171    1.0000 0.32839  0.86931  0.87041  Biso   1.000  C
  C2172    1.0000 0.13062  0.45900  0.87041  Biso   1.000  C
  B132     1.0000 0.85210  0.64173  0.96019  Biso   1.000  B
  C2173    1.0000 0.42695  0.97470  0.87040  Biso   1.000  C
  C2174    1.0000 0.22544  0.86632  0.87082  Biso   1.000  C
  C2175    1.0000 0.02527  0.45226  0.87040  Biso   1.000  C
  C2176    1.0000 0.13364  0.35915  0.87082  Biso   1.000  C
  O227     1.0000 0.82360  0.53258  0.96556  Biso   1.000  O
  O228     1.0000 0.94129  0.73134  0.96713  Biso   1.000  O
  N209     1.0000 0.73451  0.65170  0.96205  Biso   1.000  N
  H1143    1.0000 0.49804  0.97999  0.87014  Biso   1.000  H
  C2177    1.0000 0.41864  0.07122  0.87080  Biso   1.000  C
  C2178    1.0000 0.22385  0.96609  0.87123  Biso   1.000  C
  H1144    1.0000 0.15758  0.79692  0.87084  Biso   1.000  H
  H1145    1.0000 0.01997  0.51800  0.87014  Biso   1.000  H
  C2179    1.0000 0.92887  0.34747  0.87080  Biso   1.000  C
  C2180    1.0000 0.03392  0.25777  0.87123  Biso   1.000  C
  H1146    1.0000 0.20304  0.36060  0.87084  Biso   1.000  H
  C2181    1.0000 0.86278  0.56192  0.97635  Biso   1.000  C
  C2182    1.0000 0.93420  0.67950  0.97722  Biso   1.000  C
  C2183    1.0000 0.73778  0.75189  0.96253  Biso   1.000  C
  C2184    1.0000 0.63277  0.55723  0.96211  Biso   1.000  C
  H1147    1.0000 0.48509  0.14165  0.87074  Biso   1.000  H
  N210     1.0000 0.31840  0.06790  0.87129  Biso   1.000  N
  H1148    1.0000 0.15379  0.96302  0.87143  Biso   1.000  H
  H1149    1.0000 0.85841  0.34346  0.87074  Biso   1.000  H
  N211     1.0000 0.93216  0.25052  0.87129  Biso   1.000  N
  H1150    1.0000 0.03696  0.19074  0.87143  Biso   1.000  H
  C2185    1.0000 0.83949  0.49097  0.98544  Biso   1.000  C
  C2186    1.0000 0.98520  0.72819  0.98724  Biso   1.000  C
  C2187    1.0000 0.64139  0.76025  0.96294  Biso   1.000  C
  H1151    1.0000 0.80826  0.81840  0.96260  Biso   1.000  H
  H1152    1.0000 0.62966  0.48705  0.96190  Biso   1.000  H
  C2188    1.0000 0.53296  0.55876  0.96251  Biso   1.000  C
  B133     1.0000 0.30837  0.18548  0.87315  Biso   1.000  B
  B134     1.0000 0.81462  0.12296  0.87315  Biso   1.000  B
  C2189    1.0000 0.88677  0.53975  0.99573  Biso   1.000  C
  H1153    1.0000 0.79324  0.41236  0.98470  Biso   1.000  H
  C2190    1.0000 0.95975  0.65588  0.99660  Biso   1.000  C
  H1154    1.0000 0.03496  0.80630  0.98780  Biso   1.000  H
  C2191    1.0000 0.53598  0.66168  0.96292  Biso   1.000  C
  H1155    1.0000 0.64667  0.83136  0.96320  Biso   1.000  H
  H1156    1.0000 0.46358  0.49089  0.96250  Biso   1.000  H
  C2192    1.0000 0.31497  0.20416  0.88637  Biso   1.000  C
  O229     1.0000 0.19931  0.15700  0.86778  Biso   1.000  O
  O230     1.0000 0.39808  0.27467  0.86620  Biso   1.000  O
  C2193    1.0000 0.79586  0.11085  0.88637  Biso   1.000  C
  O231     1.0000 0.84303  0.04229  0.86778  Biso   1.000  O
  O232     1.0000 0.72537  0.12347  0.86620  Biso   1.000  O
  Cl227    1.0000 0.85394  0.45252  0.00751  Biso   1.000  Cl
  Cl228    1.0000 0.02121  0.71736  0.00946  Biso   1.000  Cl
  C2194    1.0000 0.42855  0.66526  0.96314  Biso   1.000  C
  C2195    1.0000 0.22136  0.14217  0.89325  Biso   1.000  C
  C2196    1.0000 0.41705  0.27612  0.89194  Biso   1.000  C
  C2197    1.0000 0.22860  0.19623  0.85698  Biso   1.000  C
  C2198    1.0000 0.34617  0.26760  0.85611  Biso   1.000  C
  C2199    1.0000 0.85788  0.07921  0.89325  Biso   1.000  C
  C2200    1.0000 0.72400  0.14095  0.89194  Biso   1.000  C
  C2201    1.0000 0.80382  0.03240  0.85698  Biso   1.000  C
  C2202    1.0000 0.73249  0.07862  0.85611  Biso   1.000  C
  N212     1.0000 0.43504  0.76656  0.96315  Biso   1.000  N
  N213     1.0000 0.33148  0.56490  0.96315  Biso   1.000  N
  H1157    1.0000 0.15119  0.09459  0.88984  Biso   1.000  H
  C2203    1.0000 0.22741  0.14762  0.90484  Biso   1.000  C
  C2204    1.0000 0.42440  0.28346  0.90366  Biso   1.000  C
  H1158    1.0000 0.48222  0.32038  0.88764  Biso   1.000  H
  C2205    1.0000 0.15769  0.17286  0.84789  Biso   1.000  C
  C2206    1.0000 0.39493  0.31859  0.84610  Biso   1.000  C
  H1159    1.0000 0.90543  0.05662  0.88984  Biso   1.000  H
  C2207    1.0000 0.85249  0.07981  0.90484  Biso   1.000  C
  C2208    1.0000 0.71661  0.14095  0.90366  Biso   1.000  C
  H1160    1.0000 0.67965  0.16184  0.88764  Biso   1.000  H
  C2209    1.0000 0.82710  0.98474  0.84789  Biso   1.000  C
  C2210    1.0000 0.68149  0.07631  0.84610  Biso   1.000  C
  C2211    1.0000 0.33469  0.76332  0.96314  Biso   1.000  C
  C2212    1.0000 0.23666  0.57138  0.96314  Biso   1.000  C
  H1161    1.0000 0.16191  0.10243  0.90904  Biso   1.000  H
  C2213    1.0000 0.32923  0.21908  0.91047  Biso   1.000  C
  H1162    1.0000 0.49433  0.33248  0.90703  Biso   1.000  H
  C2214    1.0000 0.20653  0.22019  0.83760  Biso   1.000  C
  H1163    1.0000 0.07910  0.12673  0.84863  Biso   1.000  H
  H1164    1.0000 0.47300  0.36838  0.84553  Biso   1.000  H
  C2215    1.0000 0.32256  0.29318  0.83673  Biso   1.000  C
  H1165    1.0000 0.89765  0.05952  0.90904  Biso   1.000  H
  C2216    1.0000 0.78097  0.11017  0.91047  Biso   1.000  C
  H1166    1.0000 0.66761  0.16184  0.90703  Biso   1.000  H
  C2217    1.0000 0.77987  0.98627  0.83760  Biso   1.000  C
  H1167    1.0000 0.87330  0.95234  0.84863  Biso   1.000  H
  H1168    1.0000 0.63169  0.10462  0.84553  Biso   1.000  H
  C2218    1.0000 0.70685  0.02942  0.83673  Biso   1.000  C
  C2219    1.0000 0.33825  0.87425  0.96292  Biso   1.000  C
  N214     1.0000 0.23338  0.66850  0.96315  Biso   1.000  N
  C2220    1.0000 0.12575  0.46403  0.96292  Biso   1.000  C
  C2221    1.0000 0.33752  0.22326  0.92286  Biso   1.000  C
  Cl229    1.0000 0.11923  0.18736  0.82582  Biso   1.000  Cl
  Cl230    1.0000 0.38417  0.35465  0.82388  Biso   1.000  Cl
  C2222    1.0000 0.77682  0.11426  0.92286  Biso   1.000  C
  Cl231    1.0000 0.81267  0.93179  0.82582  Biso   1.000  Cl
  Cl232    1.0000 0.64546  0.02950  0.82388  Biso   1.000  Cl
  C2223    1.0000 0.23968  0.88108  0.96294  Biso   1.000  C
  C2224    1.0000 0.44116  0.97419  0.96251  Biso   1.000  C
  C2225    1.0000 0.11887  0.35855  0.96294  Biso   1.000  C
  C2226    1.0000 0.02578  0.46701  0.96251  Biso   1.000  C
  C2227    1.0000 0.43935  0.25353  0.92849  Biso   1.000  C
  C2228    1.0000 0.24238  0.19247  0.92968  Biso   1.000  C
  C2229    1.0000 0.74650  0.18580  0.92849  Biso   1.000  C
  C2230    1.0000 0.80762  0.04988  0.92968  Biso   1.000  C
  H1169    1.0000 0.16859  0.81525  0.96320  Biso   1.000  H
  C2231    1.0000 0.24807  0.98587  0.96253  Biso   1.000  C
  H1170    1.0000 0.50907  0.97265  0.96250  Biso   1.000  H
  C2232    1.0000 0.44286  0.07566  0.96211  Biso   1.000  C
  H1171    1.0000 0.18468  0.35327  0.96320  Biso   1.000  H
  C2233    1.0000 0.01413  0.26220  0.96253  Biso   1.000  C
  H1172    1.0000 0.02733  0.53642  0.96250  Biso   1.000  H
  C2234    1.0000 0.92439  0.36716  0.96211  Biso   1.000  C
  C2235    1.0000 0.44533  0.25412  0.94008  Biso   1.000  C
  H1173    1.0000 0.50480  0.27382  0.92430  Biso   1.000  H
  H1174    1.0000 0.17249  0.17158  0.92630  Biso   1.000  H
  C2236    1.0000 0.24976  0.19247  0.94139  Biso   1.000  C
  C2237    1.0000 0.74586  0.19117  0.94008  Biso   1.000  C
  H1175    1.0000 0.72619  0.23099  0.92430  Biso   1.000  H
  H1176    1.0000 0.82856  0.00094  0.92630  Biso   1.000  H
  C2238    1.0000 0.80763  0.05730  0.94139  Biso   1.000  C
  H1177    1.0000 0.18162  0.98988  0.96260  Biso   1.000  H
  N215     1.0000 0.34831  0.08282  0.96205  Biso   1.000  N
  H1178    1.0000 0.51293  0.14268  0.96190  Biso   1.000  H
  H1179    1.0000 0.01011  0.19168  0.96260  Biso   1.000  H
  N216     1.0000 0.91721  0.26552  0.96205  Biso   1.000  N
  H1180    1.0000 0.85744  0.37032  0.96190  Biso   1.000  H
  C2239    1.0000 0.35172  0.22257  0.94697  Biso   1.000  C
  H1181    1.0000 0.51548  0.27672  0.94350  Biso   1.000  H
  H1182    1.0000 0.18452  0.17158  0.94570  Biso   1.000  H
  C2240    1.0000 0.77748  0.12918  0.94697  Biso   1.000  C
  H1183    1.0000 0.72332  0.23884  0.94350  Biso   1.000  H
  H1184    1.0000 0.82852  0.01296  0.94570  Biso   1.000  H
  B135     1.0000 0.35837  0.21047  0.96019  Biso   1.000  B
  B136     1.0000 0.78955  0.14785  0.96019  Biso   1.000  B
  O233     1.0000 0.46741  0.29104  0.96556  Biso   1.000  O
  O234     1.0000 0.26862  0.20995  0.96713  Biso   1.000  O
  O235     1.0000 0.70902  0.17642  0.96556  Biso   1.000  O
  O236     1.0000 0.79008  0.05866  0.96713  Biso   1.000  O
  C2241    1.0000 0.43809  0.30094  0.97635  Biso   1.000  C
  C2242    1.0000 0.32054  0.25472  0.97722  Biso   1.000  C
  C2243    1.0000 0.69908  0.13720  0.97635  Biso   1.000  C
  C2244    1.0000 0.74529  0.06583  0.97722  Biso   1.000  C
  C2245    1.0000 0.50899  0.34851  0.98544  Biso   1.000  C
  C2246    1.0000 0.27184  0.25702  0.98724  Biso   1.000  C
  C2247    1.0000 0.65150  0.16047  0.98544  Biso   1.000  C
  C2248    1.0000 0.74306  0.01484  0.98724  Biso   1.000  C
  C2249    1.0000 0.46027  0.34707  0.99573  Biso   1.000  C
  H1185    1.0000 0.58759  0.38092  0.98470  Biso   1.000  H
  H1186    1.0000 0.19378  0.22880  0.98780  Biso   1.000  H
  C2250    1.0000 0.34410  0.30392  0.99660  Biso   1.000  C
  C2251    1.0000 0.65306  0.11324  0.99573  Biso   1.000  C
  H1187    1.0000 0.61907  0.20669  0.98470  Biso   1.000  H
  H1188    1.0000 0.77128  0.96495  0.98780  Biso   1.000  H
  C2252    1.0000 0.69605  0.04016  0.99660  Biso   1.000  C
  Cl233    1.0000 0.54751  0.40147  0.00751  Biso   1.000  Cl
  Cl234    1.0000 0.28262  0.30383  0.00946  Biso   1.000  Cl
  Cl235    1.0000 0.59858  0.14606  0.00751  Biso   1.000  Cl
  Cl236    1.0000 0.69618  0.97868  0.00946  Biso   1.000  Cl
