data_image0
_cell_length_a       13.516
_cell_length_b       13.516
_cell_length_c       93.155
_cell_angle_alpha    90
_cell_angle_beta     90
_cell_angle_gamma    120

_symmetry_space_group_name_H-M    "P 1"
_symmetry_int_tables_number       1

loop_
  _symmetry_equiv_pos_as_xyz
  'x, y, z'

loop_
  _atom_site_label
  _atom_site_occupancy
  _atom_site_fract_x
  _atom_site_fract_y
  _atom_site_fract_z
  _atom_site_thermal_displace_type
  _atom_site_B_iso_or_equiv
  _atom_site_type_symbol
  C1       1.0000 0.53603  0.56155  0.45286  Biso   1.000  C
  C2       1.0000 0.63605  0.56035  0.45169  Biso   1.000  C
  C3       1.0000 0.53691  0.66364  0.45386  Biso   1.000  C
  H1       1.0000 0.46692  0.49303  0.45300  Biso   1.000  H
  N1       1.0000 0.73666  0.65518  0.45159  Biso   1.000  N
  H2       1.0000 0.63337  0.49047  0.45090  Biso   1.000  H
  C4       1.0000 0.64291  0.76334  0.45386  Biso   1.000  C
  C5       1.0000 0.42849  0.66594  0.45456  Biso   1.000  C
  B1       1.0000 0.85635  0.64715  0.44862  Biso   1.000  B
  C6       1.0000 0.73959  0.75531  0.45261  Biso   1.000  C
  H3       1.0000 0.64796  0.83424  0.45470  Biso   1.000  H
  N2       1.0000 0.43492  0.76744  0.45458  Biso   1.000  N
  N3       1.0000 0.33251  0.56513  0.45458  Biso   1.000  N
  C7       1.0000 0.87520  0.65689  0.43194  Biso   1.000  C
  O1       1.0000 0.94410  0.73608  0.45774  Biso   1.000  O
  O2       1.0000 0.82874  0.53762  0.45533  Biso   1.000  O
  H4       1.0000 0.81011  0.82220  0.45250  Biso   1.000  H
  C8       1.0000 0.33412  0.76265  0.45456  Biso   1.000  C
  C9       1.0000 0.23738  0.57154  0.45456  Biso   1.000  C
  C10      1.0000 0.82891  0.56163  0.42321  Biso   1.000  C
  C11      1.0000 0.92983  0.76214  0.42495  Biso   1.000  C
  C12      1.0000 0.93659  0.68303  0.47059  Biso   1.000  C
  C13      1.0000 0.86489  0.56419  0.46925  Biso   1.000  C
  N4       1.0000 0.23260  0.66748  0.45458  Biso   1.000  N
  C14      1.0000 0.33639  0.87329  0.45386  Biso   1.000  C
  C15      1.0000 0.12673  0.46313  0.45386  Biso   1.000  C
  C16      1.0000 0.83436  0.57120  0.40838  Biso   1.000  C
  H5       1.0000 0.79326  0.48944  0.42740  Biso   1.000  H
  C17      1.0000 0.93395  0.77171  0.41012  Biso   1.000  C
  H6       1.0000 0.96482  0.82844  0.43040  Biso   1.000  H
  C18      1.0000 0.98655  0.72925  0.48345  Biso   1.000  C
  C19      1.0000 0.84050  0.49175  0.48064  Biso   1.000  C
  C20      1.0000 0.23671  0.87961  0.45386  Biso   1.000  C
  C21      1.0000 0.43851  0.97452  0.45286  Biso   1.000  C
  C22      1.0000 0.12040  0.35711  0.45386  Biso   1.000  C
  C23      1.0000 0.02549  0.46398  0.45286  Biso   1.000  C
  C24      1.0000 0.88499  0.67645  0.40140  Biso   1.000  C
  H7       1.0000 0.80306  0.50490  0.40293  Biso   1.000  H
  H8       1.0000 0.97053  0.84398  0.40594  Biso   1.000  H
  C25      1.0000 0.96146  0.65894  0.49522  Biso   1.000  C
  H9       1.0000 0.03684  0.80733  0.48430  Biso   1.000  H
  H10      1.0000 0.79439  0.41298  0.47960  Biso   1.000  H
  C26      1.0000 0.88774  0.54079  0.49387  Biso   1.000  C
  H11      1.0000 0.16582  0.81374  0.45470  Biso   1.000  H
  C27      1.0000 0.24469  0.98435  0.45261  Biso   1.000  C
  H12      1.0000 0.50701  0.97393  0.45300  Biso   1.000  H
  C28      1.0000 0.43966  0.07568  0.45169  Biso   1.000  C
  H13      1.0000 0.18632  0.35207  0.45470  Biso   1.000  H
  C29      1.0000 0.01567  0.26040  0.45261  Biso   1.000  C
  H14      1.0000 0.02609  0.53310  0.45300  Biso   1.000  H
  C30      1.0000 0.92432  0.36403  0.45169  Biso   1.000  C
  B2       1.0000 0.87591  0.68628  0.38471  Biso   1.000  B
  Cl1      1.0000 0.01993  0.71729  0.51151  Biso   1.000  Cl
  Cl2      1.0000 0.85311  0.45185  0.50861  Biso   1.000  Cl
  H15      1.0000 0.17782  0.98794  0.45250  Biso   1.000  H
  N5       1.0000 0.34483  0.08149  0.45159  Biso   1.000  N
  H16      1.0000 0.50953  0.14291  0.45090  Biso   1.000  H
  H17      1.0000 0.01209  0.18992  0.45250  Biso   1.000  H
  N6       1.0000 0.91850  0.26330  0.45159  Biso   1.000  N
  H18      1.0000 0.85709  0.36659  0.45090  Biso   1.000  H
  O3       1.0000 0.87469  0.59726  0.37559  Biso   1.000  O
  O4       1.0000 0.95779  0.79571  0.37800  Biso   1.000  O
  N7       1.0000 0.74815  0.67816  0.38174  Biso   1.000  N
  B3       1.0000 0.35290  0.20921  0.44862  Biso   1.000  B
  B4       1.0000 0.79077  0.14370  0.44862  Biso   1.000  B
  C31      1.0000 0.92023  0.65031  0.36274  Biso   1.000  C
  C32      1.0000 0.96736  0.76915  0.36408  Biso   1.000  C
  C33      1.0000 0.65096  0.57803  0.38072  Biso   1.000  C
  C34      1.0000 0.74241  0.77308  0.38164  Biso   1.000  C
  C35      1.0000 0.34312  0.21835  0.43194  Biso   1.000  C
  O5       1.0000 0.26389  0.20801  0.45774  Biso   1.000  O
  O6       1.0000 0.46245  0.29114  0.45533  Biso   1.000  O
  C36      1.0000 0.78170  0.12482  0.43194  Biso   1.000  C
  O7       1.0000 0.79199  0.05587  0.45774  Biso   1.000  O
  O8       1.0000 0.70891  0.17129  0.45533  Biso   1.000  O
  C37      1.0000 0.92402  0.60418  0.34988  Biso   1.000  C
  C38      1.0000 0.01547  0.84168  0.35269  Biso   1.000  C
  C39      1.0000 0.54625  0.57000  0.37948  Biso   1.000  C
  H19      1.0000 0.65458  0.51114  0.38084  Biso   1.000  H
  H20      1.0000 0.80957  0.84287  0.38244  Biso   1.000  H
  C40      1.0000 0.64119  0.77188  0.38047  Biso   1.000  C
  C41      1.0000 0.43840  0.26730  0.42321  Biso   1.000  C
  C42      1.0000 0.23788  0.16769  0.42495  Biso   1.000  C
  C43      1.0000 0.31703  0.25363  0.47059  Biso   1.000  C
  C44      1.0000 0.43579  0.30070  0.46925  Biso   1.000  C
  C45      1.0000 0.73272  0.17112  0.42321  Biso   1.000  C
  C46      1.0000 0.83232  0.07023  0.42495  Biso   1.000  C
  C47      1.0000 0.74640  0.06339  0.47059  Biso   1.000  C
  C48      1.0000 0.69930  0.13507  0.46925  Biso   1.000  C
  C49      1.0000 0.96919  0.67440  0.33811  Biso   1.000  C
  H21      1.0000 0.89618  0.52601  0.34903  Biso   1.000  H
  C50      1.0000 0.01362  0.79255  0.33947  Biso   1.000  C
  H22      1.0000 0.04808  0.92036  0.35373  Biso   1.000  H
  C51      1.0000 0.53994  0.66970  0.37948  Biso   1.000  C
  H23      1.0000 0.48043  0.49918  0.37864  Biso   1.000  H
  H24      1.0000 0.64056  0.84031  0.38033  Biso   1.000  H
  C52      1.0000 0.42876  0.26311  0.40838  Biso   1.000  C
  H25      1.0000 0.51058  0.30378  0.42740  Biso   1.000  H
  C53      1.0000 0.22827  0.16222  0.41012  Biso   1.000  C
  H26      1.0000 0.17157  0.13642  0.43040  Biso   1.000  H
  C54      1.0000 0.27078  0.25730  0.48345  Biso   1.000  C
  C55      1.0000 0.50830  0.34880  0.48064  Biso   1.000  C
  C56      1.0000 0.73687  0.16565  0.40838  Biso   1.000  C
  H27      1.0000 0.69619  0.20683  0.42740  Biso   1.000  H
  C57      1.0000 0.83777  0.06604  0.41012  Biso   1.000  C
  H28      1.0000 0.86363  0.03520  0.43040  Biso   1.000  H
  C58      1.0000 0.74269  0.01350  0.48345  Biso   1.000  C
  C59      1.0000 0.65122  0.15950  0.48064  Biso   1.000  C
  Cl3      1.0000 0.96936  0.61614  0.32182  Biso   1.000  Cl
  Cl4      1.0000 0.06793  0.88149  0.32473  Biso   1.000  Cl
  C60      1.0000 0.42926  0.66748  0.37878  Biso   1.000  C
  C61      1.0000 0.32356  0.20852  0.40140  Biso   1.000  C
  H29      1.0000 0.49510  0.29814  0.40293  Biso   1.000  H
  H30      1.0000 0.15603  0.12651  0.40594  Biso   1.000  H
  C62      1.0000 0.34110  0.30250  0.49522  Biso   1.000  C
  H31      1.0000 0.19268  0.22954  0.48430  Biso   1.000  H
  H32      1.0000 0.58699  0.38144  0.47960  Biso   1.000  H
  C63      1.0000 0.45920  0.34692  0.49387  Biso   1.000  C
  C64      1.0000 0.79148  0.11508  0.40140  Biso   1.000  C
  H33      1.0000 0.70182  0.19692  0.40293  Biso   1.000  H
  H34      1.0000 0.87347  0.02956  0.40594  Biso   1.000  H
  H35      1.0000 0.77051  0.96318  0.48430  Biso   1.000  H
  C65      1.0000 0.69747  0.03862  0.49522  Biso   1.000  C
  H36      1.0000 0.61858  0.20564  0.47960  Biso   1.000  H
  C66      1.0000 0.65309  0.11234  0.49387  Biso   1.000  C
  N8       1.0000 0.33415  0.56590  0.37876  Biso   1.000  N
  N9       1.0000 0.43404  0.76821  0.37876  Biso   1.000  N
  B5       1.0000 0.31375  0.18964  0.38471  Biso   1.000  B
  Cl5      1.0000 0.28273  0.30267  0.51151  Biso   1.000  Cl
  Cl6      1.0000 0.54822  0.40126  0.50861  Biso   1.000  Cl
  B6       1.0000 0.81036  0.12413  0.38471  Biso   1.000  B
  Cl7      1.0000 0.69736  0.98009  0.51151  Biso   1.000  Cl
  Cl8      1.0000 0.59877  0.14694  0.50861  Biso   1.000  Cl
  C67      1.0000 0.23818  0.57077  0.37878  Biso   1.000  C
  C68      1.0000 0.33255  0.76188  0.37878  Biso   1.000  C
  N10      1.0000 0.32186  0.07004  0.38174  Biso   1.000  N
  O9       1.0000 0.40279  0.27747  0.37559  Biso   1.000  O
  O10      1.0000 0.20429  0.16205  0.37800  Biso   1.000  O
  N11      1.0000 0.93001  0.25185  0.38174  Biso   1.000  N
  O11      1.0000 0.72255  0.12533  0.37559  Biso   1.000  O
  O12      1.0000 0.83799  0.04220  0.37800  Biso   1.000  O
  N12      1.0000 0.23179  0.66586  0.37876  Biso   1.000  N
  C69      1.0000 0.12977  0.46005  0.37948  Biso   1.000  C
  C70      1.0000 0.33027  0.87021  0.37948  Biso   1.000  C
  C71      1.0000 0.42194  0.07294  0.38072  Biso   1.000  C
  C72      1.0000 0.22696  0.96931  0.38164  Biso   1.000  C
  C73      1.0000 0.34968  0.26995  0.36274  Biso   1.000  C
  C74      1.0000 0.23091  0.19827  0.36408  Biso   1.000  C
  C75      1.0000 0.92705  0.34908  0.38072  Biso   1.000  C
  C76      1.0000 0.03065  0.25766  0.38164  Biso   1.000  C
  C77      1.0000 0.73007  0.07971  0.36274  Biso   1.000  C
  C78      1.0000 0.80176  0.03264  0.36408  Biso   1.000  C
  C79      1.0000 0.02377  0.45373  0.37948  Biso   1.000  C
  C80      1.0000 0.13065  0.35881  0.38047  Biso   1.000  C
  C81      1.0000 0.42996  0.97623  0.37948  Biso   1.000  C
  C82      1.0000 0.22818  0.86936  0.38047  Biso   1.000  C
  H37      1.0000 0.48885  0.14342  0.38084  Biso   1.000  H
  H38      1.0000 0.15717  0.96675  0.38244  Biso   1.000  H
  C83      1.0000 0.39586  0.31984  0.34988  Biso   1.000  C
  C84      1.0000 0.15839  0.17384  0.35269  Biso   1.000  C
  H39      1.0000 0.85656  0.34540  0.38084  Biso   1.000  H
  H40      1.0000 0.03329  0.19043  0.38244  Biso   1.000  H
  C85      1.0000 0.68015  0.07603  0.34988  Biso   1.000  C
  C86      1.0000 0.82617  0.98454  0.35269  Biso   1.000  C
  H41      1.0000 0.01879  0.51968  0.37864  Biso   1.000  H
  H42      1.0000 0.19976  0.35941  0.38033  Biso   1.000  H
  H43      1.0000 0.50092  0.98127  0.37864  Biso   1.000  H
  H44      1.0000 0.15967  0.80024  0.38033  Biso   1.000  H
  C87      1.0000 0.32552  0.29472  0.33811  Biso   1.000  C
  H45      1.0000 0.47400  0.37016  0.34903  Biso   1.000  H
  H46      1.0000 0.07965  0.12779  0.35373  Biso   1.000  H
  C88      1.0000 0.20746  0.22108  0.33947  Biso   1.000  C
  C89      1.0000 0.70527  0.03084  0.33811  Biso   1.000  C
  H47      1.0000 0.62981  0.10380  0.34903  Biso   1.000  H
  H48      1.0000 0.87222  0.95190  0.35373  Biso   1.000  H
  C90      1.0000 0.77894  0.98642  0.33947  Biso   1.000  C
  Cl9      1.0000 0.38393  0.35324  0.32182  Biso   1.000  Cl
  Cl10     1.0000 0.11850  0.18640  0.32473  Biso   1.000  Cl
  Cl11     1.0000 0.64673  0.03067  0.32182  Biso   1.000  Cl
  Cl12     1.0000 0.81363  0.93208  0.32473  Biso   1.000  Cl
  C91      1.0000 0.46401  0.43852  0.54714  Biso   1.000  C
  C92      1.0000 0.36399  0.43972  0.54831  Biso   1.000  C
  C93      1.0000 0.46313  0.33643  0.54614  Biso   1.000  C
  H49      1.0000 0.53311  0.50704  0.54700  Biso   1.000  H
  N13      1.0000 0.26333  0.34480  0.54841  Biso   1.000  N
  H50      1.0000 0.36663  0.50952  0.54910  Biso   1.000  H
  C94      1.0000 0.35712  0.23673  0.54614  Biso   1.000  C
  C95      1.0000 0.57155  0.33413  0.54544  Biso   1.000  C
  B7       1.0000 0.14368  0.35292  0.55138  Biso   1.000  B
  C96      1.0000 0.26040  0.24468  0.54739  Biso   1.000  C
  H51      1.0000 0.35215  0.16582  0.54530  Biso   1.000  H
  N14      1.0000 0.56512  0.23263  0.54542  Biso   1.000  N
  N15      1.0000 0.66753  0.43493  0.54542  Biso   1.000  N
  O13      1.0000 0.05589  0.26390  0.54226  Biso   1.000  O
  O14      1.0000 0.17129  0.46244  0.54467  Biso   1.000  O
  C97      1.0000 0.12479  0.34310  0.56806  Biso   1.000  C
  H52      1.0000 0.18988  0.17778  0.54750  Biso   1.000  H
  C98      1.0000 0.66591  0.23742  0.54544  Biso   1.000  C
  C99      1.0000 0.76265  0.42853  0.54544  Biso   1.000  C
  C100     1.0000 0.06345  0.31704  0.52941  Biso   1.000  C
  C101     1.0000 0.13510  0.43579  0.53075  Biso   1.000  C
  C102     1.0000 0.07021  0.23793  0.57505  Biso   1.000  C
  C103     1.0000 0.17113  0.43844  0.57679  Biso   1.000  C
  N16      1.0000 0.76739  0.33250  0.54542  Biso   1.000  N
  C104     1.0000 0.66360  0.12670  0.54614  Biso   1.000  C
  C105     1.0000 0.87331  0.53694  0.54614  Biso   1.000  C
  C106     1.0000 0.01348  0.27082  0.51655  Biso   1.000  C
  C107     1.0000 0.15953  0.50832  0.51936  Biso   1.000  C
  H53      1.0000 0.03521  0.17163  0.56960  Biso   1.000  H
  C108     1.0000 0.06605  0.22827  0.58988  Biso   1.000  C
  C109     1.0000 0.16563  0.42878  0.59162  Biso   1.000  C
  H54      1.0000 0.20678  0.51063  0.57260  Biso   1.000  H
  C110     1.0000 0.76328  0.12037  0.54614  Biso   1.000  C
  C111     1.0000 0.56149  0.02546  0.54714  Biso   1.000  C
  C112     1.0000 0.87959  0.64288  0.54614  Biso   1.000  C
  C113     1.0000 0.97450  0.53600  0.54714  Biso   1.000  C
  C114     1.0000 0.03865  0.34113  0.50478  Biso   1.000  C
  H55      1.0000 0.96319  0.19273  0.51570  Biso   1.000  H
  C115     1.0000 0.11233  0.45920  0.50613  Biso   1.000  C
  H56      1.0000 0.20561  0.58700  0.52040  Biso   1.000  H
  C116     1.0000 0.11501  0.32353  0.59860  Biso   1.000  C
  H57      1.0000 0.02951  0.15608  0.59406  Biso   1.000  H
  H58      1.0000 0.19693  0.49508  0.59707  Biso   1.000  H
  H59      1.0000 0.83421  0.18633  0.54530  Biso   1.000  H
  C117     1.0000 0.75534  0.01572  0.54739  Biso   1.000  C
  H60      1.0000 0.49302  0.02614  0.54700  Biso   1.000  H
  C118     1.0000 0.56033  0.92431  0.54831  Biso   1.000  C
  H61      1.0000 0.81375  0.64792  0.54530  Biso   1.000  H
  C119     1.0000 0.98432  0.73959  0.54739  Biso   1.000  C
  H62      1.0000 0.97390  0.46689  0.54700  Biso   1.000  H
  C120     1.0000 0.07572  0.63604  0.54831  Biso   1.000  C
  Cl13     1.0000 0.98010  0.28278  0.48849  Biso   1.000  Cl
  Cl14     1.0000 0.14693  0.54822  0.49139  Biso   1.000  Cl
  B8       1.0000 0.12412  0.31379  0.61529  Biso   1.000  B
  H63      1.0000 0.82221  0.01213  0.54750  Biso   1.000  H
  N17      1.0000 0.65524  0.91850  0.54841  Biso   1.000  N
  H64      1.0000 0.49046  0.85707  0.54910  Biso   1.000  H
  H65      1.0000 0.98794  0.81015  0.54750  Biso   1.000  H
  N18      1.0000 0.08150  0.73668  0.54841  Biso   1.000  N
  H66      1.0000 0.14290  0.63339  0.54910  Biso   1.000  H
  O15      1.0000 0.12535  0.40281  0.62441  Biso   1.000  O
  O16      1.0000 0.04221  0.20427  0.62200  Biso   1.000  O
  N19      1.0000 0.25188  0.32191  0.61826  Biso   1.000  N
  B9       1.0000 0.64709  0.79078  0.55138  Biso   1.000  B
  B10      1.0000 0.20922  0.85629  0.55138  Biso   1.000  B
  C121     1.0000 0.07976  0.34967  0.63726  Biso   1.000  C
  C122     1.0000 0.03263  0.23084  0.63592  Biso   1.000  C
  C123     1.0000 0.34903  0.42195  0.61928  Biso   1.000  C
  C124     1.0000 0.25762  0.22699  0.61836  Biso   1.000  C
  C125     1.0000 0.65692  0.78172  0.56806  Biso   1.000  C
  O17      1.0000 0.73610  0.79197  0.54226  Biso   1.000  O
  O18      1.0000 0.53766  0.70893  0.54467  Biso   1.000  O
  C126     1.0000 0.21833  0.87525  0.56806  Biso   1.000  C
  O19      1.0000 0.20800  0.94411  0.54226  Biso   1.000  O
  O20      1.0000 0.29108  0.82869  0.54467  Biso   1.000  O
  C127     1.0000 0.07602  0.39589  0.65012  Biso   1.000  C
  C128     1.0000 0.98457  0.15839  0.64731  Biso   1.000  C
  C129     1.0000 0.45374  0.42998  0.62052  Biso   1.000  C
  H67      1.0000 0.34541  0.48884  0.61916  Biso   1.000  H
  H68      1.0000 0.19046  0.15720  0.61756  Biso   1.000  H
  C130     1.0000 0.35884  0.22819  0.61953  Biso   1.000  C
  C131     1.0000 0.76211  0.83230  0.57505  Biso   1.000  C
  C132     1.0000 0.56159  0.73268  0.57679  Biso   1.000  C
  C133     1.0000 0.68300  0.74644  0.52941  Biso   1.000  C
  C134     1.0000 0.56420  0.69928  0.53075  Biso   1.000  C
  C135     1.0000 0.16772  0.92984  0.57505  Biso   1.000  C
  C136     1.0000 0.26732  0.82895  0.57679  Biso   1.000  C
  C137     1.0000 0.25359  0.93659  0.52941  Biso   1.000  C
  C138     1.0000 0.30069  0.86491  0.53075  Biso   1.000  C
  C139     1.0000 0.03087  0.32558  0.66189  Biso   1.000  C
  H69      1.0000 0.10381  0.47398  0.65097  Biso   1.000  H
  H70      1.0000 0.95196  0.07971  0.64627  Biso   1.000  H
  C140     1.0000 0.98645  0.20743  0.66053  Biso   1.000  C
  C141     1.0000 0.46005  0.33028  0.62052  Biso   1.000  C
  H71      1.0000 0.51968  0.50089  0.62136  Biso   1.000  H
  H72      1.0000 0.35943  0.15967  0.61967  Biso   1.000  H
  H73      1.0000 0.82842  0.86356  0.56960  Biso   1.000  H
  C142     1.0000 0.77172  0.83776  0.58988  Biso   1.000  C
  C143     1.0000 0.57123  0.73687  0.59162  Biso   1.000  C
  H74      1.0000 0.48942  0.69620  0.57260  Biso   1.000  H
  C144     1.0000 0.72921  0.74268  0.51655  Biso   1.000  C
  C145     1.0000 0.49169  0.65118  0.51936  Biso   1.000  C
  H75      1.0000 0.13643  0.96478  0.56960  Biso   1.000  H
  C146     1.0000 0.16222  0.93394  0.58988  Biso   1.000  C
  H76      1.0000 0.30384  0.79324  0.57260  Biso   1.000  H
  C147     1.0000 0.26317  0.83442  0.59162  Biso   1.000  C
  C148     1.0000 0.25730  0.98648  0.51655  Biso   1.000  C
  C149     1.0000 0.34877  0.84048  0.51936  Biso   1.000  C
  Cl15     1.0000 0.03068  0.38393  0.67818  Biso   1.000  Cl
  Cl16     1.0000 0.93206  0.11849  0.67527  Biso   1.000  Cl
  C150     1.0000 0.57078  0.33259  0.62122  Biso   1.000  C
  C151     1.0000 0.67643  0.79146  0.59860  Biso   1.000  C
  H77      1.0000 0.84396  0.87348  0.59406  Biso   1.000  H
  H78      1.0000 0.50496  0.70184  0.59707  Biso   1.000  H
  C152     1.0000 0.65889  0.69748  0.50478  Biso   1.000  C
  H79      1.0000 0.80736  0.77053  0.51570  Biso   1.000  H
  H80      1.0000 0.41304  0.61863  0.52040  Biso   1.000  H
  C153     1.0000 0.54079  0.65306  0.50613  Biso   1.000  C
  C154     1.0000 0.20855  0.88499  0.59860  Biso   1.000  C
  H81      1.0000 0.12657  0.97051  0.59406  Biso   1.000  H
  H82      1.0000 0.29817  0.80306  0.59707  Biso   1.000  H
  C155     1.0000 0.30257  0.96145  0.50478  Biso   1.000  C
  H83      1.0000 0.22949  0.03680  0.51570  Biso   1.000  H
  H84      1.0000 0.38146  0.79443  0.52040  Biso   1.000  H
  C156     1.0000 0.34694  0.88773  0.50613  Biso   1.000  C
  N20      1.0000 0.66584  0.43408  0.62124  Biso   1.000  N
  N21      1.0000 0.56595  0.23178  0.62124  Biso   1.000  N
  B11      1.0000 0.68624  0.81034  0.61529  Biso   1.000  B
  Cl17     1.0000 0.71726  0.69731  0.48849  Biso   1.000  Cl
  Cl18     1.0000 0.45185  0.59873  0.49139  Biso   1.000  Cl
  B12      1.0000 0.18963  0.87585  0.61529  Biso   1.000  B
  Cl19     1.0000 0.30263  0.01989  0.48849  Biso   1.000  Cl
  Cl20     1.0000 0.40122  0.85304  0.49139  Biso   1.000  Cl
  C157     1.0000 0.76185  0.42930  0.62122  Biso   1.000  C
  C158     1.0000 0.66748  0.23818  0.62122  Biso   1.000  C
  N22      1.0000 0.67813  0.92995  0.61826  Biso   1.000  N
  O21      1.0000 0.59724  0.72260  0.62441  Biso   1.000  O
  O22      1.0000 0.79571  0.83794  0.62200  Biso   1.000  O
  N23      1.0000 0.07010  0.74821  0.61826  Biso   1.000  N
  O23      1.0000 0.27744  0.87465  0.62441  Biso   1.000  O
  O24      1.0000 0.16208  0.95778  0.62200  Biso   1.000  O
  N24      1.0000 0.76824  0.33421  0.62124  Biso   1.000  N
  C159     1.0000 0.87026  0.54002  0.62052  Biso   1.000  C
  C160     1.0000 0.66972  0.12977  0.62052  Biso   1.000  C
  C161     1.0000 0.57805  0.92704  0.61928  Biso   1.000  C
  C162     1.0000 0.77303  0.03067  0.61836  Biso   1.000  C
  C163     1.0000 0.65031  0.73003  0.63726  Biso   1.000  C
  C164     1.0000 0.76913  0.80180  0.63592  Biso   1.000  C
  C165     1.0000 0.07298  0.65099  0.61928  Biso   1.000  C
  C166     1.0000 0.96938  0.74241  0.61836  Biso   1.000  C
  C167     1.0000 0.26992  0.92027  0.63726  Biso   1.000  C
  C168     1.0000 0.19823  0.96735  0.63592  Biso   1.000  C
  C169     1.0000 0.97622  0.54625  0.62052  Biso   1.000  C
  C170     1.0000 0.86934  0.64117  0.61953  Biso   1.000  C
  C171     1.0000 0.57003  0.02375  0.62052  Biso   1.000  C
  C172     1.0000 0.77185  0.13071  0.61953  Biso   1.000  C
  H85      1.0000 0.51114  0.85656  0.61916  Biso   1.000  H
  H86      1.0000 0.84282  0.03323  0.61756  Biso   1.000  H
  C173     1.0000 0.60413  0.68014  0.65012  Biso   1.000  C
  C174     1.0000 0.84160  0.82615  0.64731  Biso   1.000  C
  H87      1.0000 0.14343  0.65458  0.61916  Biso   1.000  H
  H88      1.0000 0.96670  0.80955  0.61756  Biso   1.000  H
  C175     1.0000 0.31985  0.92395  0.65012  Biso   1.000  C
  C176     1.0000 0.17382  0.01545  0.64731  Biso   1.000  C
  H89      1.0000 0.98124  0.48038  0.62136  Biso   1.000  H
  H90      1.0000 0.80023  0.64057  0.61967  Biso   1.000  H
  H91      1.0000 0.49919  0.01880  0.62136  Biso   1.000  H
  H92      1.0000 0.84033  0.19974  0.61967  Biso   1.000  H
  C177     1.0000 0.67447  0.70526  0.66189  Biso   1.000  C
  H93      1.0000 0.52599  0.62982  0.65097  Biso   1.000  H
  H94      1.0000 0.92038  0.87228  0.64627  Biso   1.000  H
  C178     1.0000 0.79257  0.77899  0.66053  Biso   1.000  C
  C179     1.0000 0.29472  0.96914  0.66189  Biso   1.000  C
  H95      1.0000 0.37018  0.89618  0.65097  Biso   1.000  H
  H96      1.0000 0.12777  0.04808  0.64627  Biso   1.000  H
  C180     1.0000 0.22105  0.01357  0.66053  Biso   1.000  C
  Cl21     1.0000 0.61606  0.64674  0.67818  Biso   1.000  Cl
  Cl22     1.0000 0.88149  0.81359  0.67527  Biso   1.000  Cl
  Cl23     1.0000 0.35326  0.96931  0.67818  Biso   1.000  Cl
  Cl24     1.0000 0.18644  0.06790  0.67527  Biso   1.000  Cl
  C181     1.0000 0.62809  0.63587  0.32855  Biso   1.000  C
  C182     1.0000 0.65321  0.59068  0.31678  Biso   1.000  C
  C183     1.0000 0.55437  0.68021  0.32721  Biso   1.000  C
  C184     1.0000 0.55441  0.68030  0.32721  Biso   1.000  C
  Cl25     1.0000 0.68658  0.63596  0.34484  Biso   1.000  Cl
  Cl26     1.0000 0.68655  0.63604  0.34484  Biso   1.000  Cl
  Cl27     1.0000 0.68662  0.63604  0.34484  Biso   1.000  Cl
  C185     1.0000 0.60324  0.58692  0.30392  Biso   1.000  C
  C186     1.0000 0.60328  0.58700  0.30392  Biso   1.000  C
  C187     1.0000 0.60331  0.58692  0.30392  Biso   1.000  C
  H97      1.0000 0.70351  0.56283  0.31763  Biso   1.000  H
  H98      1.0000 0.70347  0.56291  0.31763  Biso   1.000  H
  H99      1.0000 0.70355  0.56291  0.31763  Biso   1.000  H
  C188     1.0000 0.50719  0.68218  0.31397  Biso   1.000  C
  Cl28     1.0000 0.51968  0.73455  0.34195  Biso   1.000  Cl
  Cl29     1.0000 0.51973  0.73463  0.34195  Biso   1.000  Cl
  Cl30     1.0000 0.51976  0.73455  0.34195  Biso   1.000  Cl
  Cl31     1.0000 0.51980  0.73463  0.34195  Biso   1.000  Cl
  O25      1.0000 0.61081  0.54138  0.29107  Biso   1.000  O
  C189     1.0000 0.53160  0.63408  0.30258  Biso   1.000  C
  H100     1.0000 0.46109  0.71473  0.31293  Biso   1.000  H
  H101     1.0000 0.46113  0.71481  0.31293  Biso   1.000  H
  B13      1.0000 0.52299  0.54258  0.28195  Biso   1.000  B
  O26      1.0000 0.49533  0.62442  0.28866  Biso   1.000  O
  O27      1.0000 0.49537  0.62451  0.28866  Biso   1.000  O
  O28      1.0000 0.49540  0.62442  0.28866  Biso   1.000  O
  O29      1.0000 0.49544  0.62451  0.28866  Biso   1.000  O
  C190     1.0000 0.54187  0.55164  0.26528  Biso   1.000  C
  N25      1.0000 0.40335  0.41486  0.28492  Biso   1.000  N
  N26      1.0000 0.40342  0.41486  0.28492  Biso   1.000  N
  C191     1.0000 0.49559  0.60067  0.25654  Biso   1.000  C
  C192     1.0000 0.59649  0.50106  0.25828  Biso   1.000  C
  C193     1.0000 0.40630  0.31764  0.28594  Biso   1.000  C
  C194     1.0000 0.30270  0.40905  0.28502  Biso   1.000  C
  C195     1.0000 0.40623  0.31764  0.28594  Biso   1.000  C
  C196     1.0000 0.50104  0.59649  0.24172  Biso   1.000  C
  H102     1.0000 0.45989  0.63715  0.26074  Biso   1.000  H
  C197     1.0000 0.60064  0.49559  0.24345  Biso   1.000  C
  H103     1.0000 0.63149  0.46971  0.26373  Biso   1.000  H
  H104     1.0000 0.63146  0.46979  0.26373  Biso   1.000  H
  H105     1.0000 0.63154  0.46979  0.26373  Biso   1.000  H
  C198     1.0000 0.30954  0.21290  0.28719  Biso   1.000  C
  H106     1.0000 0.47676  0.32122  0.28584  Biso   1.000  H
  C199     1.0000 0.30958  0.21298  0.28719  Biso   1.000  C
  H107     1.0000 0.47680  0.32131  0.28584  Biso   1.000  H
  H108     1.0000 0.30003  0.47620  0.28424  Biso   1.000  H
  C200     1.0000 0.20266  0.30781  0.28619  Biso   1.000  C
  H109     1.0000 0.30007  0.47628  0.28424  Biso   1.000  H
  C201     1.0000 0.20271  0.30790  0.28619  Biso   1.000  C
  H110     1.0000 0.30010  0.47620  0.28424  Biso   1.000  H
  C202     1.0000 0.55165  0.54190  0.23473  Biso   1.000  C
  H111     1.0000 0.46972  0.63151  0.23626  Biso   1.000  H
  H112     1.0000 0.46980  0.63151  0.23626  Biso   1.000  H
  H113     1.0000 0.63716  0.45988  0.23927  Biso   1.000  H
  C203     1.0000 0.20358  0.20666  0.28719  Biso   1.000  C
  H114     1.0000 0.31456  0.14703  0.28804  Biso   1.000  H
  H115     1.0000 0.13356  0.30721  0.28633  Biso   1.000  H
  H116     1.0000 0.13360  0.30730  0.28633  Biso   1.000  H
  B14      1.0000 0.54258  0.52302  0.21805  Biso   1.000  B
  C204     1.0000 0.09517  0.09594  0.28790  Biso   1.000  C
  N27      1.0000 0.41486  0.40341  0.21507  Biso   1.000  N
  O30      1.0000 0.54132  0.61075  0.20893  Biso   1.000  O
  O31      1.0000 0.62441  0.49534  0.21134  Biso   1.000  O
  O32      1.0000 0.54136  0.61084  0.20893  Biso   1.000  O
  O33      1.0000 0.62445  0.49542  0.21134  Biso   1.000  O
  N28      1.0000 0.10157  0.00085  0.28792  Biso   1.000  N
  N29      1.0000 0.99916  0.10072  0.28792  Biso   1.000  N
  C205     1.0000 0.31769  0.40632  0.21405  Biso   1.000  C
  C206     1.0000 0.40904  0.30269  0.21498  Biso   1.000  C
  C207     1.0000 0.58691  0.60324  0.19608  Biso   1.000  C
  C208     1.0000 0.58695  0.60332  0.19608  Biso   1.000  C
  C209     1.0000 0.63401  0.53156  0.19741  Biso   1.000  C
  C210     1.0000 0.63405  0.53164  0.19741  Biso   1.000  C
  C211     1.0000 0.63408  0.53156  0.19741  Biso   1.000  C
  C212     1.0000 0.00080  0.90483  0.28790  Biso   1.000  C
  C213     1.0000 0.00073  0.90483  0.28790  Biso   1.000  C
  C214     1.0000 0.90410  0.99923  0.28790  Biso   1.000  C
  C215     1.0000 0.90403  0.99923  0.28790  Biso   1.000  C
  C216     1.0000 0.21296  0.30961  0.21281  Biso   1.000  C
  H117     1.0000 0.32126  0.47680  0.21417  Biso   1.000  H
  C217     1.0000 0.30782  0.20264  0.21380  Biso   1.000  C
  C218     1.0000 0.30786  0.20273  0.21380  Biso   1.000  C
  H118     1.0000 0.47622  0.30004  0.21577  Biso   1.000  H
  H119     1.0000 0.47627  0.30012  0.21577  Biso   1.000  H
  C219     1.0000 0.59066  0.65321  0.18322  Biso   1.000  C
  C220     1.0000 0.68213  0.50721  0.18602  Biso   1.000  C
  C221     1.0000 0.68221  0.50721  0.18602  Biso   1.000  C
  C222     1.0000 0.00305  0.79642  0.28719  Biso   1.000  C
  C223     1.0000 0.00309  0.79650  0.28719  Biso   1.000  C
  N30      1.0000 0.89927  0.89842  0.28792  Biso   1.000  N
  C224     1.0000 0.79337  0.99692  0.28719  Biso   1.000  C
  C225     1.0000 0.20663  0.20358  0.21281  Biso   1.000  C
  H120     1.0000 0.14700  0.31456  0.21197  Biso   1.000  H
  H121     1.0000 0.14707  0.31456  0.21197  Biso   1.000  H
  H122     1.0000 0.30722  0.13353  0.21367  Biso   1.000  H
  H123     1.0000 0.30726  0.13362  0.21367  Biso   1.000  H
  C226     1.0000 0.63589  0.62810  0.17145  Biso   1.000  C
  H124     1.0000 0.56281  0.70345  0.18236  Biso   1.000  H
  C227     1.0000 0.63582  0.62810  0.17145  Biso   1.000  C
  H125     1.0000 0.56285  0.70353  0.18236  Biso   1.000  H
  H126     1.0000 0.71478  0.46108  0.18706  Biso   1.000  H
  C228     1.0000 0.68026  0.55437  0.17280  Biso   1.000  C
  H127     1.0000 0.71471  0.46108  0.18706  Biso   1.000  H
  C229     1.0000 0.90335  0.69039  0.28719  Biso   1.000  C
  C230     1.0000 0.90339  0.69048  0.28719  Biso   1.000  C
  C231     1.0000 0.10517  0.79736  0.28619  Biso   1.000  C
  C232     1.0000 0.69216  0.89483  0.28619  Biso   1.000  C
  C233     1.0000 0.78707  0.09662  0.28719  Biso   1.000  C
  C234     1.0000 0.78711  0.09671  0.28719  Biso   1.000  C
  C235     1.0000 0.09597  0.09517  0.21211  Biso   1.000  C
  C236     1.0000 0.09590  0.09517  0.21211  Biso   1.000  C
  Cl32     1.0000 0.63596  0.68653  0.15515  Biso   1.000  Cl
  Cl33     1.0000 0.63600  0.68662  0.15515  Biso   1.000  Cl
  Cl34     1.0000 0.73458  0.51977  0.15806  Biso   1.000  Cl
  C237     1.0000 0.91137  0.59368  0.28594  Biso   1.000  C
  C238     1.0000 0.91142  0.59377  0.28594  Biso   1.000  C
  H128     1.0000 0.83244  0.68544  0.28804  Biso   1.000  H
  H129     1.0000 0.83251  0.68544  0.28804  Biso   1.000  H
  C239     1.0000 0.10635  0.69731  0.28502  Biso   1.000  C
  C240     1.0000 0.10639  0.69740  0.28502  Biso   1.000  C
  H130     1.0000 0.17369  0.86647  0.28633  Biso   1.000  H
  C241     1.0000 0.59094  0.89364  0.28502  Biso   1.000  C
  H131     1.0000 0.69275  0.82632  0.28633  Biso   1.000  H
  H132     1.0000 0.69280  0.82640  0.28633  Biso   1.000  H
  C242     1.0000 0.68236  0.08859  0.28594  Biso   1.000  C
  C243     1.0000 0.68240  0.08868  0.28594  Biso   1.000  C
  H133     1.0000 0.85293  0.16753  0.28804  Biso   1.000  H
  H134     1.0000 0.85300  0.16753  0.28804  Biso   1.000  H
  N31      1.0000 0.00085  0.10158  0.21209  Biso   1.000  N
  N32      1.0000 0.10071  0.99915  0.21209  Biso   1.000  N
  N33      1.0000 0.10075  0.99923  0.21209  Biso   1.000  N
  N34      1.0000 0.01145  0.59659  0.28492  Biso   1.000  N
  N35      1.0000 0.01149  0.59667  0.28492  Biso   1.000  N
  H135     1.0000 0.84447  0.52320  0.28584  Biso   1.000  H
  H136     1.0000 0.84451  0.52329  0.28584  Biso   1.000  H
  H137     1.0000 0.17619  0.69996  0.28424  Biso   1.000  H
  N36      1.0000 0.58521  0.98855  0.28492  Biso   1.000  N
  N37      1.0000 0.58513  0.98855  0.28492  Biso   1.000  N
  H138     1.0000 0.52379  0.82384  0.28424  Biso   1.000  H
  H139     1.0000 0.67878  0.15557  0.28584  Biso   1.000  H
  C244     1.0000 0.90487  0.00077  0.21211  Biso   1.000  C
  C245     1.0000 0.90479  0.00077  0.21211  Biso   1.000  C
  C246     1.0000 0.99923  0.90406  0.21211  Biso   1.000  C
  B15      1.0000 0.01957  0.47698  0.28195  Biso   1.000  B
  B16      1.0000 0.01961  0.47707  0.28195  Biso   1.000  B
  B17      1.0000 0.45744  0.98044  0.28195  Biso   1.000  B
  N38      1.0000 0.89844  0.89928  0.21209  Biso   1.000  N
  C247     1.0000 0.79645  0.00308  0.21281  Biso   1.000  C
  C248     1.0000 0.99692  0.79334  0.21281  Biso   1.000  C
  C249     1.0000 0.99696  0.79343  0.21281  Biso   1.000  C
  C250     1.0000 0.00976  0.45810  0.26528  Biso   1.000  C
  C251     1.0000 0.00980  0.45819  0.26528  Biso   1.000  C
  O34      1.0000 0.93057  0.38925  0.29107  Biso   1.000  O
  O35      1.0000 0.12907  0.50466  0.28866  Biso   1.000  O
  C252     1.0000 0.44837  0.99026  0.26528  Biso   1.000  C
  O36      1.0000 0.37553  0.87091  0.28866  Biso   1.000  O
  O37      1.0000 0.37557  0.87100  0.28866  Biso   1.000  O
  O38      1.0000 0.45867  0.06946  0.29107  Biso   1.000  O
  C253     1.0000 0.69044  0.90338  0.21281  Biso   1.000  C
  C254     1.0000 0.79733  0.10517  0.21380  Biso   1.000  C
  C255     1.0000 0.89485  0.69219  0.21380  Biso   1.000  C
  C256     1.0000 0.09664  0.78710  0.21281  Biso   1.000  C
  C257     1.0000 0.90455  0.40351  0.25828  Biso   1.000  C
  C258     1.0000 0.90460  0.40360  0.25828  Biso   1.000  C
  C259     1.0000 0.10505  0.50441  0.25654  Biso   1.000  C
  C260     1.0000 0.10509  0.50449  0.25654  Biso   1.000  C
  C261     1.0000 0.98367  0.39676  0.30392  Biso   1.000  C
  C262     1.0000 0.10245  0.46844  0.30258  Biso   1.000  C
  C263     1.0000 0.10252  0.46844  0.30258  Biso   1.000  C
  C264     1.0000 0.39937  0.89492  0.25654  Biso   1.000  C
  C265     1.0000 0.39941  0.89500  0.25654  Biso   1.000  C
  C266     1.0000 0.49896  0.09543  0.25828  Biso   1.000  C
  C267     1.0000 0.36599  0.89757  0.30258  Biso   1.000  C
  C268     1.0000 0.41309  0.01632  0.30392  Biso   1.000  C
  C269     1.0000 0.41305  0.01640  0.30392  Biso   1.000  C
  C270     1.0000 0.41313  0.01640  0.30392  Biso   1.000  C
  H140     1.0000 0.68540  0.83247  0.21197  Biso   1.000  H
  C271     1.0000 0.59376  0.91141  0.21405  Biso   1.000  C
  H141     1.0000 0.68547  0.83247  0.21197  Biso   1.000  H
  C272     1.0000 0.69731  0.10636  0.21498  Biso   1.000  C
  H142     1.0000 0.86644  0.17368  0.21367  Biso   1.000  H
  C273     1.0000 0.89366  0.59095  0.21498  Biso   1.000  C
  H143     1.0000 0.82634  0.69279  0.21367  Biso   1.000  H
  H144     1.0000 0.16753  0.85297  0.21197  Biso   1.000  H
  C274     1.0000 0.08867  0.68236  0.21405  Biso   1.000  C
  C275     1.0000 0.08859  0.68236  0.21405  Biso   1.000  C
  C276     1.0000 0.89491  0.39933  0.24345  Biso   1.000  C
  C277     1.0000 0.89496  0.39941  0.24345  Biso   1.000  C
  H145     1.0000 0.83821  0.36849  0.26373  Biso   1.000  H
  H146     1.0000 0.83825  0.36857  0.26373  Biso   1.000  H
  H147     1.0000 0.83828  0.36849  0.26373  Biso   1.000  H
  H148     1.0000 0.83833  0.36857  0.26373  Biso   1.000  H
  C278     1.0000 0.09543  0.49894  0.24172  Biso   1.000  C
  C279     1.0000 0.09547  0.49903  0.24172  Biso   1.000  C
  H149     1.0000 0.17728  0.54012  0.26074  Biso   1.000  H
  C280     1.0000 0.93745  0.34679  0.31678  Biso   1.000  C
  C281     1.0000 0.93749  0.34687  0.31678  Biso   1.000  C
  C282     1.0000 0.17492  0.49279  0.31397  Biso   1.000  C
  C283     1.0000 0.17497  0.49287  0.31397  Biso   1.000  C
  C284     1.0000 0.17500  0.49279  0.31397  Biso   1.000  C
  C285     1.0000 0.40353  0.90457  0.24172  Biso   1.000  C
  H150     1.0000 0.36283  0.82273  0.26074  Biso   1.000  H
  H151     1.0000 0.36290  0.82273  0.26074  Biso   1.000  H
  C286     1.0000 0.50445  0.10508  0.24345  Biso   1.000  C
  H152     1.0000 0.53025  0.16172  0.26373  Biso   1.000  H
  H153     1.0000 0.53030  0.16181  0.26373  Biso   1.000  H
  C287     1.0000 0.31789  0.82504  0.31397  Biso   1.000  C
  C288     1.0000 0.31781  0.82504  0.31397  Biso   1.000  C
  C289     1.0000 0.40934  0.06254  0.31678  Biso   1.000  C
  H154     1.0000 0.52321  0.84443  0.21417  Biso   1.000  H
  H155     1.0000 0.52325  0.84451  0.21417  Biso   1.000  H
  N39      1.0000 0.59665  0.01145  0.21507  Biso   1.000  N
  N40      1.0000 0.59662  0.01153  0.21507  Biso   1.000  N
  N41      1.0000 0.59670  0.01153  0.21507  Biso   1.000  N
  H156     1.0000 0.69995  0.17616  0.21577  Biso   1.000  H
  N42      1.0000 0.98849  0.58514  0.21507  Biso   1.000  N
  H157     1.0000 0.82383  0.52380  0.21577  Biso   1.000  H
  N43      1.0000 0.98853  0.58523  0.21507  Biso   1.000  N
  N44      1.0000 0.98856  0.58514  0.21507  Biso   1.000  N
  H158     1.0000 0.82390  0.52380  0.21577  Biso   1.000  H
  N45      1.0000 0.98860  0.58523  0.21507  Biso   1.000  N
  H159     1.0000 0.15553  0.67878  0.21417  Biso   1.000  H
  C290     1.0000 0.99024  0.44836  0.23473  Biso   1.000  C
  H160     1.0000 0.82274  0.36285  0.23927  Biso   1.000  H
  H161     1.0000 0.16179  0.53029  0.23626  Biso   1.000  H
  H162     1.0000 0.16171  0.53029  0.23626  Biso   1.000  H
  H163     1.0000 0.85936  0.29655  0.31763  Biso   1.000  H
  C291     1.0000 0.00779  0.37190  0.32855  Biso   1.000  C
  C292     1.0000 0.00776  0.37199  0.32855  Biso   1.000  C
  C293     1.0000 0.00784  0.37199  0.32855  Biso   1.000  C
  H164     1.0000 0.25370  0.53892  0.31293  Biso   1.000  H
  C294     1.0000 0.12589  0.44563  0.32721  Biso   1.000  C
  H165     1.0000 0.25363  0.53892  0.31293  Biso   1.000  H
  C295     1.0000 0.45811  0.00974  0.23473  Biso   1.000  C
  C296     1.0000 0.45815  0.00982  0.23473  Biso   1.000  C
  H166     1.0000 0.36853  0.83828  0.23626  Biso   1.000  H
  H167     1.0000 0.54010  0.17727  0.23927  Biso   1.000  H
  H168     1.0000 0.54017  0.17727  0.23927  Biso   1.000  H
  H169     1.0000 0.28528  0.74635  0.31293  Biso   1.000  H
  C297     1.0000 0.31974  0.87416  0.32721  Biso   1.000  C
  C298     1.0000 0.31981  0.87416  0.32721  Biso   1.000  C
  C299     1.0000 0.36412  0.99223  0.32855  Biso   1.000  C
  C300     1.0000 0.36420  0.99223  0.32855  Biso   1.000  C
  H170     1.0000 0.43714  0.14062  0.31763  Biso   1.000  H
  H171     1.0000 0.43718  0.14071  0.31763  Biso   1.000  H
  B18      1.0000 0.47701  0.01956  0.21805  Biso   1.000  B
  B19      1.0000 0.98041  0.45742  0.21805  Biso   1.000  B
  B20      1.0000 0.98045  0.45751  0.21805  Biso   1.000  B
  Cl35     1.0000 0.94942  0.31347  0.34484  Biso   1.000  Cl
  Cl36     1.0000 0.21481  0.48023  0.34195  Biso   1.000  Cl
  Cl37     1.0000 0.21485  0.48032  0.34195  Biso   1.000  Cl
  Cl38     1.0000 0.26539  0.78514  0.34195  Biso   1.000  Cl
  Cl39     1.0000 0.26543  0.78522  0.34195  Biso   1.000  Cl
  Cl40     1.0000 0.26546  0.78514  0.34195  Biso   1.000  Cl
  Cl41     1.0000 0.36400  0.05058  0.34484  Biso   1.000  Cl
  O39      1.0000 0.38921  0.93054  0.20893  Biso   1.000  O
  O40      1.0000 0.38926  0.93063  0.20893  Biso   1.000  O
  O41      1.0000 0.50461  0.12909  0.21134  Biso   1.000  O
  O42      1.0000 0.87090  0.37558  0.21134  Biso   1.000  O
  O43      1.0000 0.87098  0.37558  0.21134  Biso   1.000  O
  O44      1.0000 0.06942  0.45862  0.20893  Biso   1.000  O
  O45      1.0000 0.06947  0.45870  0.20893  Biso   1.000  O
  C301     1.0000 0.39677  0.98368  0.19608  Biso   1.000  C
  C302     1.0000 0.39669  0.98368  0.19608  Biso   1.000  C
  C303     1.0000 0.46843  0.10243  0.19741  Biso   1.000  C
  C304     1.0000 0.46847  0.10252  0.19741  Biso   1.000  C
  C305     1.0000 0.89752  0.36592  0.19741  Biso   1.000  C
  C306     1.0000 0.89756  0.36601  0.19741  Biso   1.000  C
  C307     1.0000 0.01632  0.41308  0.19608  Biso   1.000  C
  C308     1.0000 0.01640  0.41308  0.19608  Biso   1.000  C
  C309     1.0000 0.34680  0.93746  0.18322  Biso   1.000  C
  C310     1.0000 0.49285  0.17496  0.18602  Biso   1.000  C
  C311     1.0000 0.49278  0.17496  0.18602  Biso   1.000  C
  C312     1.0000 0.82501  0.31782  0.18602  Biso   1.000  C
  C313     1.0000 0.82505  0.31791  0.18602  Biso   1.000  C
  C314     1.0000 0.06253  0.40932  0.18322  Biso   1.000  C
  C315     1.0000 0.06258  0.40941  0.18322  Biso   1.000  C
  H172     1.0000 0.29651  0.85938  0.18236  Biso   1.000  H
  C316     1.0000 0.37190  0.00777  0.17145  Biso   1.000  C
  C317     1.0000 0.37197  0.00777  0.17145  Biso   1.000  C
  H173     1.0000 0.53893  0.25365  0.18706  Biso   1.000  H
  C318     1.0000 0.44558  0.12584  0.17280  Biso   1.000  C
  H174     1.0000 0.53897  0.25373  0.18706  Biso   1.000  H
  C319     1.0000 0.44562  0.12593  0.17280  Biso   1.000  C
  C320     1.0000 0.44565  0.12584  0.17280  Biso   1.000  C
  C321     1.0000 0.44570  0.12593  0.17280  Biso   1.000  C
  H175     1.0000 0.74637  0.28527  0.18706  Biso   1.000  H
  C322     1.0000 0.87416  0.31979  0.17280  Biso   1.000  C
  C323     1.0000 0.99222  0.36413  0.17145  Biso   1.000  C
  C324     1.0000 0.99226  0.36421  0.17145  Biso   1.000  C
  H176     1.0000 0.14068  0.43717  0.18236  Biso   1.000  H
  H177     1.0000 0.14060  0.43717  0.18236  Biso   1.000  H
  Cl42     1.0000 0.31342  0.94942  0.15515  Biso   1.000  Cl
  Cl43     1.0000 0.48025  0.21486  0.15806  Biso   1.000  Cl
  Cl44     1.0000 0.48032  0.21486  0.15806  Biso   1.000  Cl
  Cl45     1.0000 0.78514  0.26545  0.15806  Biso   1.000  Cl
  Cl46     1.0000 0.78521  0.26545  0.15806  Biso   1.000  Cl
  Cl47     1.0000 0.05062  0.36404  0.15515  Biso   1.000  Cl
  Cl48     1.0000 0.05055  0.36404  0.15515  Biso   1.000  Cl
  C325     1.0000 0.62809  0.63587  0.32855  Biso   1.000  C
  C326     1.0000 0.65321  0.59068  0.31678  Biso   1.000  C
  C327     1.0000 0.55437  0.68021  0.32721  Biso   1.000  C
  C328     1.0000 0.55441  0.68030  0.32721  Biso   1.000  C
  Cl49     1.0000 0.68658  0.63596  0.34484  Biso   1.000  Cl
  Cl50     1.0000 0.68655  0.63604  0.34484  Biso   1.000  Cl
  Cl51     1.0000 0.68662  0.63604  0.34484  Biso   1.000  Cl
  C329     1.0000 0.60328  0.58700  0.30392  Biso   1.000  C
  C330     1.0000 0.60324  0.58692  0.30392  Biso   1.000  C
  C331     1.0000 0.60331  0.58692  0.30392  Biso   1.000  C
  H178     1.0000 0.70351  0.56283  0.31763  Biso   1.000  H
  H179     1.0000 0.70347  0.56291  0.31763  Biso   1.000  H
  H180     1.0000 0.70355  0.56291  0.31763  Biso   1.000  H
  C332     1.0000 0.50719  0.68218  0.31397  Biso   1.000  C
  Cl52     1.0000 0.51968  0.73455  0.34195  Biso   1.000  Cl
  Cl53     1.0000 0.51973  0.73463  0.34195  Biso   1.000  Cl
  Cl54     1.0000 0.51976  0.73455  0.34195  Biso   1.000  Cl
  Cl55     1.0000 0.51980  0.73463  0.34195  Biso   1.000  Cl
  O46      1.0000 0.61081  0.54138  0.29107  Biso   1.000  O
  C333     1.0000 0.53160  0.63408  0.30258  Biso   1.000  C
  H181     1.0000 0.46109  0.71473  0.31293  Biso   1.000  H
  H182     1.0000 0.46113  0.71481  0.31293  Biso   1.000  H
  B21      1.0000 0.52299  0.54258  0.28195  Biso   1.000  B
  O47      1.0000 0.49533  0.62442  0.28866  Biso   1.000  O
  O48      1.0000 0.49537  0.62451  0.28866  Biso   1.000  O
  O49      1.0000 0.49540  0.62442  0.28866  Biso   1.000  O
  O50      1.0000 0.49544  0.62451  0.28866  Biso   1.000  O
  C334     1.0000 0.54187  0.55164  0.26528  Biso   1.000  C
  N46      1.0000 0.40335  0.41486  0.28492  Biso   1.000  N
  N47      1.0000 0.40342  0.41486  0.28492  Biso   1.000  N
  C335     1.0000 0.49559  0.60067  0.25654  Biso   1.000  C
  C336     1.0000 0.59649  0.50106  0.25828  Biso   1.000  C
  C337     1.0000 0.30270  0.40905  0.28502  Biso   1.000  C
  C338     1.0000 0.40630  0.31764  0.28594  Biso   1.000  C
  C339     1.0000 0.40623  0.31764  0.28594  Biso   1.000  C
  C340     1.0000 0.50104  0.59649  0.24172  Biso   1.000  C
  H183     1.0000 0.45989  0.63715  0.26074  Biso   1.000  H
  C341     1.0000 0.60064  0.49559  0.24345  Biso   1.000  C
  H184     1.0000 0.63149  0.46971  0.26373  Biso   1.000  H
  H185     1.0000 0.63146  0.46979  0.26373  Biso   1.000  H
  H186     1.0000 0.63154  0.46979  0.26373  Biso   1.000  H
  C342     1.0000 0.20266  0.30781  0.28619  Biso   1.000  C
  H187     1.0000 0.30007  0.47628  0.28424  Biso   1.000  H
  C343     1.0000 0.20271  0.30790  0.28619  Biso   1.000  C
  H188     1.0000 0.30003  0.47620  0.28424  Biso   1.000  H
  H189     1.0000 0.30010  0.47620  0.28424  Biso   1.000  H
  C344     1.0000 0.30954  0.21290  0.28719  Biso   1.000  C
  H190     1.0000 0.47676  0.32122  0.28584  Biso   1.000  H
  C345     1.0000 0.30958  0.21298  0.28719  Biso   1.000  C
  H191     1.0000 0.47680  0.32131  0.28584  Biso   1.000  H
  C346     1.0000 0.55165  0.54190  0.23473  Biso   1.000  C
  H192     1.0000 0.46972  0.63151  0.23626  Biso   1.000  H
  H193     1.0000 0.46980  0.63151  0.23626  Biso   1.000  H
  H194     1.0000 0.63716  0.45988  0.23927  Biso   1.000  H
  C347     1.0000 0.20358  0.20666  0.28719  Biso   1.000  C
  H195     1.0000 0.13356  0.30721  0.28633  Biso   1.000  H
  H196     1.0000 0.13360  0.30730  0.28633  Biso   1.000  H
  H197     1.0000 0.31456  0.14703  0.28804  Biso   1.000  H
  B22      1.0000 0.54258  0.52302  0.21805  Biso   1.000  B
  C348     1.0000 0.09517  0.09594  0.28790  Biso   1.000  C
  N48      1.0000 0.41486  0.40341  0.21507  Biso   1.000  N
  O51      1.0000 0.54132  0.61075  0.20893  Biso   1.000  O
  O52      1.0000 0.62441  0.49534  0.21134  Biso   1.000  O
  O53      1.0000 0.54136  0.61084  0.20893  Biso   1.000  O
  O54      1.0000 0.62445  0.49542  0.21134  Biso   1.000  O
  N49      1.0000 0.10157  0.00085  0.28792  Biso   1.000  N
  N50      1.0000 0.99916  0.10072  0.28792  Biso   1.000  N
  C349     1.0000 0.31769  0.40632  0.21405  Biso   1.000  C
  C350     1.0000 0.40904  0.30269  0.21498  Biso   1.000  C
  C351     1.0000 0.58691  0.60324  0.19608  Biso   1.000  C
  C352     1.0000 0.58695  0.60332  0.19608  Biso   1.000  C
  C353     1.0000 0.63405  0.53164  0.19741  Biso   1.000  C
  C354     1.0000 0.63401  0.53156  0.19741  Biso   1.000  C
  C355     1.0000 0.63408  0.53156  0.19741  Biso   1.000  C
  C356     1.0000 0.00080  0.90483  0.28790  Biso   1.000  C
  C357     1.0000 0.00073  0.90483  0.28790  Biso   1.000  C
  C358     1.0000 0.90410  0.99923  0.28790  Biso   1.000  C
  C359     1.0000 0.90403  0.99923  0.28790  Biso   1.000  C
  C360     1.0000 0.21296  0.30961  0.21281  Biso   1.000  C
  H198     1.0000 0.32126  0.47680  0.21417  Biso   1.000  H
  C361     1.0000 0.30782  0.20264  0.21380  Biso   1.000  C
  C362     1.0000 0.30786  0.20273  0.21380  Biso   1.000  C
  H199     1.0000 0.47622  0.30004  0.21577  Biso   1.000  H
  H200     1.0000 0.47627  0.30012  0.21577  Biso   1.000  H
  C363     1.0000 0.59066  0.65321  0.18322  Biso   1.000  C
  C364     1.0000 0.68213  0.50721  0.18602  Biso   1.000  C
  C365     1.0000 0.68221  0.50721  0.18602  Biso   1.000  C
  N51      1.0000 0.89927  0.89842  0.28792  Biso   1.000  N
  C366     1.0000 0.00305  0.79642  0.28719  Biso   1.000  C
  C367     1.0000 0.00309  0.79650  0.28719  Biso   1.000  C
  C368     1.0000 0.79337  0.99692  0.28719  Biso   1.000  C
  C369     1.0000 0.20663  0.20358  0.21281  Biso   1.000  C
  H201     1.0000 0.14700  0.31456  0.21197  Biso   1.000  H
  H202     1.0000 0.14707  0.31456  0.21197  Biso   1.000  H
  H203     1.0000 0.30722  0.13353  0.21367  Biso   1.000  H
  H204     1.0000 0.30726  0.13362  0.21367  Biso   1.000  H
  C370     1.0000 0.63589  0.62810  0.17145  Biso   1.000  C
  H205     1.0000 0.56281  0.70345  0.18236  Biso   1.000  H
  H206     1.0000 0.56285  0.70353  0.18236  Biso   1.000  H
  C371     1.0000 0.63582  0.62810  0.17145  Biso   1.000  C
  C372     1.0000 0.68026  0.55437  0.17280  Biso   1.000  C
  H207     1.0000 0.71478  0.46108  0.18706  Biso   1.000  H
  H208     1.0000 0.71471  0.46108  0.18706  Biso   1.000  H
  C373     1.0000 0.90335  0.69039  0.28719  Biso   1.000  C
  C374     1.0000 0.90339  0.69048  0.28719  Biso   1.000  C
  C375     1.0000 0.10517  0.79736  0.28619  Biso   1.000  C
  C376     1.0000 0.69216  0.89483  0.28619  Biso   1.000  C
  C377     1.0000 0.78707  0.09662  0.28719  Biso   1.000  C
  C378     1.0000 0.78711  0.09671  0.28719  Biso   1.000  C
  C379     1.0000 0.09597  0.09517  0.21211  Biso   1.000  C
  C380     1.0000 0.09590  0.09517  0.21211  Biso   1.000  C
  Cl56     1.0000 0.63596  0.68653  0.15515  Biso   1.000  Cl
  Cl57     1.0000 0.63600  0.68662  0.15515  Biso   1.000  Cl
  Cl58     1.0000 0.73458  0.51977  0.15806  Biso   1.000  Cl
  C381     1.0000 0.91137  0.59368  0.28594  Biso   1.000  C
  C382     1.0000 0.91142  0.59377  0.28594  Biso   1.000  C
  H209     1.0000 0.83244  0.68544  0.28804  Biso   1.000  H
  H210     1.0000 0.83251  0.68544  0.28804  Biso   1.000  H
  C383     1.0000 0.10635  0.69731  0.28502  Biso   1.000  C
  C384     1.0000 0.10639  0.69740  0.28502  Biso   1.000  C
  H211     1.0000 0.17369  0.86647  0.28633  Biso   1.000  H
  C385     1.0000 0.59094  0.89364  0.28502  Biso   1.000  C
  H212     1.0000 0.69275  0.82632  0.28633  Biso   1.000  H
  H213     1.0000 0.69280  0.82640  0.28633  Biso   1.000  H
  C386     1.0000 0.68236  0.08859  0.28594  Biso   1.000  C
  C387     1.0000 0.68240  0.08868  0.28594  Biso   1.000  C
  H214     1.0000 0.85293  0.16753  0.28804  Biso   1.000  H
  H215     1.0000 0.85300  0.16753  0.28804  Biso   1.000  H
  N52      1.0000 0.00085  0.10158  0.21209  Biso   1.000  N
  N53      1.0000 0.10071  0.99915  0.21209  Biso   1.000  N
  N54      1.0000 0.10075  0.99923  0.21209  Biso   1.000  N
  N55      1.0000 0.01145  0.59659  0.28492  Biso   1.000  N
  N56      1.0000 0.01149  0.59667  0.28492  Biso   1.000  N
  H216     1.0000 0.84447  0.52320  0.28584  Biso   1.000  H
  H217     1.0000 0.84451  0.52329  0.28584  Biso   1.000  H
  H218     1.0000 0.17619  0.69996  0.28424  Biso   1.000  H
  N57      1.0000 0.58521  0.98855  0.28492  Biso   1.000  N
  N58      1.0000 0.58513  0.98855  0.28492  Biso   1.000  N
  H219     1.0000 0.52379  0.82384  0.28424  Biso   1.000  H
  H220     1.0000 0.67878  0.15557  0.28584  Biso   1.000  H
  C388     1.0000 0.90487  0.00077  0.21211  Biso   1.000  C
  C389     1.0000 0.90479  0.00077  0.21211  Biso   1.000  C
  C390     1.0000 0.99923  0.90406  0.21211  Biso   1.000  C
  B23      1.0000 0.01957  0.47698  0.28195  Biso   1.000  B
  B24      1.0000 0.01961  0.47707  0.28195  Biso   1.000  B
  B25      1.0000 0.45744  0.98044  0.28195  Biso   1.000  B
  N59      1.0000 0.89844  0.89928  0.21209  Biso   1.000  N
  C391     1.0000 0.79645  0.00308  0.21281  Biso   1.000  C
  C392     1.0000 0.99692  0.79334  0.21281  Biso   1.000  C
  C393     1.0000 0.99696  0.79343  0.21281  Biso   1.000  C
  C394     1.0000 0.00976  0.45810  0.26528  Biso   1.000  C
  C395     1.0000 0.00980  0.45819  0.26528  Biso   1.000  C
  O55      1.0000 0.93057  0.38925  0.29107  Biso   1.000  O
  O56      1.0000 0.12907  0.50466  0.28866  Biso   1.000  O
  C396     1.0000 0.44837  0.99026  0.26528  Biso   1.000  C
  O57      1.0000 0.37553  0.87091  0.28866  Biso   1.000  O
  O58      1.0000 0.37557  0.87100  0.28866  Biso   1.000  O
  O59      1.0000 0.45867  0.06946  0.29107  Biso   1.000  O
  C397     1.0000 0.69044  0.90338  0.21281  Biso   1.000  C
  C398     1.0000 0.79733  0.10517  0.21380  Biso   1.000  C
  C399     1.0000 0.89485  0.69219  0.21380  Biso   1.000  C
  C400     1.0000 0.09664  0.78710  0.21281  Biso   1.000  C
  C401     1.0000 0.90455  0.40351  0.25828  Biso   1.000  C
  C402     1.0000 0.90460  0.40360  0.25828  Biso   1.000  C
  C403     1.0000 0.10505  0.50441  0.25654  Biso   1.000  C
  C404     1.0000 0.10509  0.50449  0.25654  Biso   1.000  C
  C405     1.0000 0.98367  0.39676  0.30392  Biso   1.000  C
  C406     1.0000 0.10245  0.46844  0.30258  Biso   1.000  C
  C407     1.0000 0.10252  0.46844  0.30258  Biso   1.000  C
  C408     1.0000 0.39937  0.89492  0.25654  Biso   1.000  C
  C409     1.0000 0.39941  0.89500  0.25654  Biso   1.000  C
  C410     1.0000 0.49896  0.09543  0.25828  Biso   1.000  C
  C411     1.0000 0.36599  0.89757  0.30258  Biso   1.000  C
  C412     1.0000 0.41309  0.01632  0.30392  Biso   1.000  C
  C413     1.0000 0.41305  0.01640  0.30392  Biso   1.000  C
  C414     1.0000 0.41313  0.01640  0.30392  Biso   1.000  C
  H221     1.0000 0.68540  0.83247  0.21197  Biso   1.000  H
  C415     1.0000 0.59376  0.91141  0.21405  Biso   1.000  C
  H222     1.0000 0.68547  0.83247  0.21197  Biso   1.000  H
  C416     1.0000 0.69731  0.10636  0.21498  Biso   1.000  C
  H223     1.0000 0.86644  0.17368  0.21367  Biso   1.000  H
  C417     1.0000 0.89366  0.59095  0.21498  Biso   1.000  C
  H224     1.0000 0.82634  0.69279  0.21367  Biso   1.000  H
  H225     1.0000 0.16753  0.85297  0.21197  Biso   1.000  H
  C418     1.0000 0.08867  0.68236  0.21405  Biso   1.000  C
  C419     1.0000 0.08859  0.68236  0.21405  Biso   1.000  C
  C420     1.0000 0.89491  0.39933  0.24345  Biso   1.000  C
  C421     1.0000 0.89496  0.39941  0.24345  Biso   1.000  C
  H226     1.0000 0.83821  0.36849  0.26373  Biso   1.000  H
  H227     1.0000 0.83825  0.36857  0.26373  Biso   1.000  H
  H228     1.0000 0.83828  0.36849  0.26373  Biso   1.000  H
  H229     1.0000 0.83833  0.36857  0.26373  Biso   1.000  H
  C422     1.0000 0.09543  0.49894  0.24172  Biso   1.000  C
  C423     1.0000 0.09547  0.49903  0.24172  Biso   1.000  C
  H230     1.0000 0.17728  0.54012  0.26074  Biso   1.000  H
  C424     1.0000 0.93745  0.34679  0.31678  Biso   1.000  C
  C425     1.0000 0.93749  0.34687  0.31678  Biso   1.000  C
  C426     1.0000 0.17492  0.49279  0.31397  Biso   1.000  C
  C427     1.0000 0.17497  0.49287  0.31397  Biso   1.000  C
  C428     1.0000 0.17500  0.49279  0.31397  Biso   1.000  C
  C429     1.0000 0.40353  0.90457  0.24172  Biso   1.000  C
  H231     1.0000 0.36283  0.82273  0.26074  Biso   1.000  H
  H232     1.0000 0.36290  0.82273  0.26074  Biso   1.000  H
  C430     1.0000 0.50445  0.10508  0.24345  Biso   1.000  C
  H233     1.0000 0.53025  0.16172  0.26373  Biso   1.000  H
  H234     1.0000 0.53030  0.16181  0.26373  Biso   1.000  H
  C431     1.0000 0.31789  0.82504  0.31397  Biso   1.000  C
  C432     1.0000 0.31781  0.82504  0.31397  Biso   1.000  C
  C433     1.0000 0.40934  0.06254  0.31678  Biso   1.000  C
  H235     1.0000 0.52321  0.84443  0.21417  Biso   1.000  H
  H236     1.0000 0.52325  0.84451  0.21417  Biso   1.000  H
  N60      1.0000 0.59665  0.01145  0.21507  Biso   1.000  N
  N61      1.0000 0.59662  0.01153  0.21507  Biso   1.000  N
  N62      1.0000 0.59670  0.01153  0.21507  Biso   1.000  N
  H237     1.0000 0.69995  0.17616  0.21577  Biso   1.000  H
  N63      1.0000 0.98849  0.58514  0.21507  Biso   1.000  N
  H238     1.0000 0.82383  0.52380  0.21577  Biso   1.000  H
  N64      1.0000 0.98853  0.58523  0.21507  Biso   1.000  N
  N65      1.0000 0.98856  0.58514  0.21507  Biso   1.000  N
  H239     1.0000 0.82390  0.52380  0.21577  Biso   1.000  H
  N66      1.0000 0.98860  0.58523  0.21507  Biso   1.000  N
  H240     1.0000 0.15553  0.67878  0.21417  Biso   1.000  H
  C434     1.0000 0.99024  0.44836  0.23473  Biso   1.000  C
  H241     1.0000 0.82274  0.36285  0.23927  Biso   1.000  H
  H242     1.0000 0.16179  0.53029  0.23626  Biso   1.000  H
  H243     1.0000 0.16171  0.53029  0.23626  Biso   1.000  H
  H244     1.0000 0.85936  0.29655  0.31763  Biso   1.000  H
  C435     1.0000 0.00779  0.37190  0.32855  Biso   1.000  C
  C436     1.0000 0.00776  0.37199  0.32855  Biso   1.000  C
  C437     1.0000 0.00784  0.37199  0.32855  Biso   1.000  C
  H245     1.0000 0.25370  0.53892  0.31293  Biso   1.000  H
  C438     1.0000 0.12589  0.44563  0.32721  Biso   1.000  C
  H246     1.0000 0.25363  0.53892  0.31293  Biso   1.000  H
  C439     1.0000 0.45811  0.00974  0.23473  Biso   1.000  C
  C440     1.0000 0.45815  0.00982  0.23473  Biso   1.000  C
  H247     1.0000 0.36853  0.83828  0.23626  Biso   1.000  H
  H248     1.0000 0.54010  0.17727  0.23927  Biso   1.000  H
  H249     1.0000 0.54017  0.17727  0.23927  Biso   1.000  H
  H250     1.0000 0.28528  0.74635  0.31293  Biso   1.000  H
  C441     1.0000 0.31974  0.87416  0.32721  Biso   1.000  C
  C442     1.0000 0.31981  0.87416  0.32721  Biso   1.000  C
  C443     1.0000 0.36412  0.99223  0.32855  Biso   1.000  C
  C444     1.0000 0.36420  0.99223  0.32855  Biso   1.000  C
  H251     1.0000 0.43714  0.14062  0.31763  Biso   1.000  H
  H252     1.0000 0.43718  0.14071  0.31763  Biso   1.000  H
  B26      1.0000 0.47701  0.01956  0.21805  Biso   1.000  B
  B27      1.0000 0.98041  0.45742  0.21805  Biso   1.000  B
  B28      1.0000 0.98045  0.45751  0.21805  Biso   1.000  B
  Cl59     1.0000 0.94942  0.31347  0.34484  Biso   1.000  Cl
  Cl60     1.0000 0.21481  0.48023  0.34195  Biso   1.000  Cl
  Cl61     1.0000 0.21485  0.48032  0.34195  Biso   1.000  Cl
  Cl62     1.0000 0.26539  0.78514  0.34195  Biso   1.000  Cl
  Cl63     1.0000 0.26543  0.78522  0.34195  Biso   1.000  Cl
  Cl64     1.0000 0.26546  0.78514  0.34195  Biso   1.000  Cl
  Cl65     1.0000 0.36400  0.05058  0.34484  Biso   1.000  Cl
  O60      1.0000 0.38921  0.93054  0.20893  Biso   1.000  O
  O61      1.0000 0.38926  0.93063  0.20893  Biso   1.000  O
  O62      1.0000 0.50461  0.12909  0.21134  Biso   1.000  O
  O63      1.0000 0.87090  0.37558  0.21134  Biso   1.000  O
  O64      1.0000 0.87098  0.37558  0.21134  Biso   1.000  O
  O65      1.0000 0.06942  0.45862  0.20893  Biso   1.000  O
  O66      1.0000 0.06947  0.45870  0.20893  Biso   1.000  O
  C445     1.0000 0.39677  0.98368  0.19608  Biso   1.000  C
  C446     1.0000 0.39669  0.98368  0.19608  Biso   1.000  C
  C447     1.0000 0.46843  0.10243  0.19741  Biso   1.000  C
  C448     1.0000 0.46847  0.10252  0.19741  Biso   1.000  C
  C449     1.0000 0.89752  0.36592  0.19741  Biso   1.000  C
  C450     1.0000 0.89756  0.36601  0.19741  Biso   1.000  C
  C451     1.0000 0.01632  0.41308  0.19608  Biso   1.000  C
  C452     1.0000 0.01640  0.41308  0.19608  Biso   1.000  C
  C453     1.0000 0.34680  0.93746  0.18322  Biso   1.000  C
  C454     1.0000 0.49285  0.17496  0.18602  Biso   1.000  C
  C455     1.0000 0.49278  0.17496  0.18602  Biso   1.000  C
  C456     1.0000 0.82501  0.31782  0.18602  Biso   1.000  C
  C457     1.0000 0.82505  0.31791  0.18602  Biso   1.000  C
  C458     1.0000 0.06253  0.40932  0.18322  Biso   1.000  C
  C459     1.0000 0.06258  0.40941  0.18322  Biso   1.000  C
  H253     1.0000 0.29651  0.85938  0.18236  Biso   1.000  H
  C460     1.0000 0.37190  0.00777  0.17145  Biso   1.000  C
  C461     1.0000 0.37197  0.00777  0.17145  Biso   1.000  C
  H254     1.0000 0.53893  0.25365  0.18706  Biso   1.000  H
  C462     1.0000 0.44558  0.12584  0.17280  Biso   1.000  C
  H255     1.0000 0.53897  0.25373  0.18706  Biso   1.000  H
  C463     1.0000 0.44562  0.12593  0.17280  Biso   1.000  C
  C464     1.0000 0.44565  0.12584  0.17280  Biso   1.000  C
  C465     1.0000 0.44570  0.12593  0.17280  Biso   1.000  C
  H256     1.0000 0.74637  0.28527  0.18706  Biso   1.000  H
  C466     1.0000 0.87416  0.31979  0.17280  Biso   1.000  C
  C467     1.0000 0.99222  0.36413  0.17145  Biso   1.000  C
  C468     1.0000 0.99226  0.36421  0.17145  Biso   1.000  C
  H257     1.0000 0.14068  0.43717  0.18236  Biso   1.000  H
  H258     1.0000 0.14060  0.43717  0.18236  Biso   1.000  H
  Cl66     1.0000 0.31342  0.94942  0.15515  Biso   1.000  Cl
  Cl67     1.0000 0.48025  0.21486  0.15806  Biso   1.000  Cl
  Cl68     1.0000 0.48032  0.21486  0.15806  Biso   1.000  Cl
  Cl69     1.0000 0.78514  0.26545  0.15806  Biso   1.000  Cl
  Cl70     1.0000 0.78521  0.26545  0.15806  Biso   1.000  Cl
  Cl71     1.0000 0.05062  0.36404  0.15515  Biso   1.000  Cl
  Cl72     1.0000 0.05055  0.36404  0.15515  Biso   1.000  Cl
  C469     1.0000 0.62809  0.63587  0.32855  Biso   1.000  C
  C470     1.0000 0.65321  0.59068  0.31678  Biso   1.000  C
  C471     1.0000 0.55437  0.68021  0.32721  Biso   1.000  C
  C472     1.0000 0.55441  0.68030  0.32721  Biso   1.000  C
  Cl73     1.0000 0.68658  0.63596  0.34484  Biso   1.000  Cl
  Cl74     1.0000 0.68655  0.63604  0.34484  Biso   1.000  Cl
  Cl75     1.0000 0.68662  0.63604  0.34484  Biso   1.000  Cl
  C473     1.0000 0.60324  0.58692  0.30392  Biso   1.000  C
  C474     1.0000 0.60328  0.58700  0.30392  Biso   1.000  C
  C475     1.0000 0.60331  0.58692  0.30392  Biso   1.000  C
  H259     1.0000 0.70351  0.56283  0.31763  Biso   1.000  H
  H260     1.0000 0.70347  0.56291  0.31763  Biso   1.000  H
  H261     1.0000 0.70355  0.56291  0.31763  Biso   1.000  H
  C476     1.0000 0.50719  0.68218  0.31397  Biso   1.000  C
  Cl76     1.0000 0.51968  0.73455  0.34195  Biso   1.000  Cl
  Cl77     1.0000 0.51973  0.73463  0.34195  Biso   1.000  Cl
  Cl78     1.0000 0.51976  0.73455  0.34195  Biso   1.000  Cl
  Cl79     1.0000 0.51980  0.73463  0.34195  Biso   1.000  Cl
  O67      1.0000 0.61081  0.54138  0.29107  Biso   1.000  O
  C477     1.0000 0.53160  0.63408  0.30258  Biso   1.000  C
  H262     1.0000 0.46109  0.71473  0.31293  Biso   1.000  H
  H263     1.0000 0.46113  0.71481  0.31293  Biso   1.000  H
  B29      1.0000 0.52299  0.54258  0.28195  Biso   1.000  B
  O68      1.0000 0.49533  0.62442  0.28866  Biso   1.000  O
  O69      1.0000 0.49537  0.62451  0.28866  Biso   1.000  O
  O70      1.0000 0.49540  0.62442  0.28866  Biso   1.000  O
  O71      1.0000 0.49544  0.62451  0.28866  Biso   1.000  O
  C478     1.0000 0.54187  0.55164  0.26528  Biso   1.000  C
  N67      1.0000 0.40335  0.41486  0.28492  Biso   1.000  N
  N68      1.0000 0.40342  0.41486  0.28492  Biso   1.000  N
  C479     1.0000 0.49559  0.60067  0.25654  Biso   1.000  C
  C480     1.0000 0.59649  0.50106  0.25828  Biso   1.000  C
  C481     1.0000 0.30270  0.40905  0.28502  Biso   1.000  C
  C482     1.0000 0.40630  0.31764  0.28594  Biso   1.000  C
  C483     1.0000 0.40623  0.31764  0.28594  Biso   1.000  C
  C484     1.0000 0.50104  0.59649  0.24172  Biso   1.000  C
  H264     1.0000 0.45989  0.63715  0.26074  Biso   1.000  H
  C485     1.0000 0.60064  0.49559  0.24345  Biso   1.000  C
  H265     1.0000 0.63149  0.46971  0.26373  Biso   1.000  H
  H266     1.0000 0.63146  0.46979  0.26373  Biso   1.000  H
  H267     1.0000 0.63154  0.46979  0.26373  Biso   1.000  H
  H268     1.0000 0.30003  0.47620  0.28424  Biso   1.000  H
  C486     1.0000 0.20266  0.30781  0.28619  Biso   1.000  C
  H269     1.0000 0.30007  0.47628  0.28424  Biso   1.000  H
  C487     1.0000 0.20271  0.30790  0.28619  Biso   1.000  C
  H270     1.0000 0.30010  0.47620  0.28424  Biso   1.000  H
  C488     1.0000 0.30954  0.21290  0.28719  Biso   1.000  C
  H271     1.0000 0.47676  0.32122  0.28584  Biso   1.000  H
  C489     1.0000 0.30958  0.21298  0.28719  Biso   1.000  C
  H272     1.0000 0.47680  0.32131  0.28584  Biso   1.000  H
  C490     1.0000 0.55165  0.54190  0.23473  Biso   1.000  C
  H273     1.0000 0.46972  0.63151  0.23626  Biso   1.000  H
  H274     1.0000 0.46980  0.63151  0.23626  Biso   1.000  H
  H275     1.0000 0.63716  0.45988  0.23927  Biso   1.000  H
  C491     1.0000 0.20358  0.20666  0.28719  Biso   1.000  C
  H276     1.0000 0.13356  0.30721  0.28633  Biso   1.000  H
  H277     1.0000 0.13360  0.30730  0.28633  Biso   1.000  H
  H278     1.0000 0.31456  0.14703  0.28804  Biso   1.000  H
  B30      1.0000 0.54258  0.52302  0.21805  Biso   1.000  B
  C492     1.0000 0.09517  0.09594  0.28790  Biso   1.000  C
  N69      1.0000 0.41486  0.40341  0.21507  Biso   1.000  N
  O72      1.0000 0.54132  0.61075  0.20893  Biso   1.000  O
  O73      1.0000 0.62441  0.49534  0.21134  Biso   1.000  O
  O74      1.0000 0.54136  0.61084  0.20893  Biso   1.000  O
  O75      1.0000 0.62445  0.49542  0.21134  Biso   1.000  O
  N70      1.0000 0.10157  0.00085  0.28792  Biso   1.000  N
  N71      1.0000 0.99916  0.10072  0.28792  Biso   1.000  N
  C493     1.0000 0.31769  0.40632  0.21405  Biso   1.000  C
  C494     1.0000 0.40904  0.30269  0.21498  Biso   1.000  C
  C495     1.0000 0.58691  0.60324  0.19608  Biso   1.000  C
  C496     1.0000 0.58695  0.60332  0.19608  Biso   1.000  C
  C497     1.0000 0.63401  0.53156  0.19741  Biso   1.000  C
  C498     1.0000 0.63405  0.53164  0.19741  Biso   1.000  C
  C499     1.0000 0.63408  0.53156  0.19741  Biso   1.000  C
  C500     1.0000 0.00080  0.90483  0.28790  Biso   1.000  C
  C501     1.0000 0.00073  0.90483  0.28790  Biso   1.000  C
  C502     1.0000 0.90410  0.99923  0.28790  Biso   1.000  C
  C503     1.0000 0.90403  0.99923  0.28790  Biso   1.000  C
  C504     1.0000 0.21296  0.30961  0.21281  Biso   1.000  C
  H279     1.0000 0.32126  0.47680  0.21417  Biso   1.000  H
  C505     1.0000 0.30782  0.20264  0.21380  Biso   1.000  C
  C506     1.0000 0.30786  0.20273  0.21380  Biso   1.000  C
  H280     1.0000 0.47622  0.30004  0.21577  Biso   1.000  H
  H281     1.0000 0.47627  0.30012  0.21577  Biso   1.000  H
  C507     1.0000 0.59066  0.65321  0.18322  Biso   1.000  C
  C508     1.0000 0.68213  0.50721  0.18602  Biso   1.000  C
  C509     1.0000 0.68221  0.50721  0.18602  Biso   1.000  C
  N72      1.0000 0.89927  0.89842  0.28792  Biso   1.000  N
  C510     1.0000 0.00305  0.79642  0.28719  Biso   1.000  C
  C511     1.0000 0.00309  0.79650  0.28719  Biso   1.000  C
  C512     1.0000 0.79337  0.99692  0.28719  Biso   1.000  C
  C513     1.0000 0.20663  0.20358  0.21281  Biso   1.000  C
  H282     1.0000 0.14700  0.31456  0.21197  Biso   1.000  H
  H283     1.0000 0.14707  0.31456  0.21197  Biso   1.000  H
  H284     1.0000 0.30722  0.13353  0.21367  Biso   1.000  H
  H285     1.0000 0.30726  0.13362  0.21367  Biso   1.000  H
  C514     1.0000 0.63589  0.62810  0.17145  Biso   1.000  C
  H286     1.0000 0.56281  0.70345  0.18236  Biso   1.000  H
  C515     1.0000 0.63582  0.62810  0.17145  Biso   1.000  C
  H287     1.0000 0.56285  0.70353  0.18236  Biso   1.000  H
  C516     1.0000 0.68026  0.55437  0.17280  Biso   1.000  C
  H288     1.0000 0.71478  0.46108  0.18706  Biso   1.000  H
  H289     1.0000 0.71471  0.46108  0.18706  Biso   1.000  H
  C517     1.0000 0.90335  0.69039  0.28719  Biso   1.000  C
  C518     1.0000 0.90339  0.69048  0.28719  Biso   1.000  C
  C519     1.0000 0.10517  0.79736  0.28619  Biso   1.000  C
  C520     1.0000 0.69216  0.89483  0.28619  Biso   1.000  C
  C521     1.0000 0.78707  0.09662  0.28719  Biso   1.000  C
  C522     1.0000 0.78711  0.09671  0.28719  Biso   1.000  C
  C523     1.0000 0.09597  0.09517  0.21211  Biso   1.000  C
  C524     1.0000 0.09590  0.09517  0.21211  Biso   1.000  C
  Cl80     1.0000 0.63596  0.68653  0.15515  Biso   1.000  Cl
  Cl81     1.0000 0.63600  0.68662  0.15515  Biso   1.000  Cl
  Cl82     1.0000 0.73458  0.51977  0.15806  Biso   1.000  Cl
  C525     1.0000 0.91137  0.59368  0.28594  Biso   1.000  C
  C526     1.0000 0.91142  0.59377  0.28594  Biso   1.000  C
  H290     1.0000 0.83244  0.68544  0.28804  Biso   1.000  H
  H291     1.0000 0.83251  0.68544  0.28804  Biso   1.000  H
  C527     1.0000 0.10635  0.69731  0.28502  Biso   1.000  C
  C528     1.0000 0.10639  0.69740  0.28502  Biso   1.000  C
  H292     1.0000 0.17369  0.86647  0.28633  Biso   1.000  H
  C529     1.0000 0.59094  0.89364  0.28502  Biso   1.000  C
  H293     1.0000 0.69275  0.82632  0.28633  Biso   1.000  H
  H294     1.0000 0.69280  0.82640  0.28633  Biso   1.000  H
  C530     1.0000 0.68236  0.08859  0.28594  Biso   1.000  C
  C531     1.0000 0.68240  0.08868  0.28594  Biso   1.000  C
  H295     1.0000 0.85293  0.16753  0.28804  Biso   1.000  H
  H296     1.0000 0.85300  0.16753  0.28804  Biso   1.000  H
  N73      1.0000 0.00085  0.10158  0.21209  Biso   1.000  N
  N74      1.0000 0.10071  0.99915  0.21209  Biso   1.000  N
  N75      1.0000 0.10075  0.99923  0.21209  Biso   1.000  N
  N76      1.0000 0.01145  0.59659  0.28492  Biso   1.000  N
  N77      1.0000 0.01149  0.59667  0.28492  Biso   1.000  N
  H297     1.0000 0.84447  0.52320  0.28584  Biso   1.000  H
  H298     1.0000 0.84451  0.52329  0.28584  Biso   1.000  H
  H299     1.0000 0.17619  0.69996  0.28424  Biso   1.000  H
  N78      1.0000 0.58521  0.98855  0.28492  Biso   1.000  N
  N79      1.0000 0.58513  0.98855  0.28492  Biso   1.000  N
  H300     1.0000 0.52379  0.82384  0.28424  Biso   1.000  H
  H301     1.0000 0.67878  0.15557  0.28584  Biso   1.000  H
  C532     1.0000 0.90487  0.00077  0.21211  Biso   1.000  C
  C533     1.0000 0.90479  0.00077  0.21211  Biso   1.000  C
  C534     1.0000 0.99923  0.90406  0.21211  Biso   1.000  C
  B31      1.0000 0.01957  0.47698  0.28195  Biso   1.000  B
  B32      1.0000 0.01961  0.47707  0.28195  Biso   1.000  B
  B33      1.0000 0.45744  0.98044  0.28195  Biso   1.000  B
  N80      1.0000 0.89844  0.89928  0.21209  Biso   1.000  N
  C535     1.0000 0.79645  0.00308  0.21281  Biso   1.000  C
  C536     1.0000 0.99692  0.79334  0.21281  Biso   1.000  C
  C537     1.0000 0.99696  0.79343  0.21281  Biso   1.000  C
  C538     1.0000 0.00976  0.45810  0.26528  Biso   1.000  C
  C539     1.0000 0.00980  0.45819  0.26528  Biso   1.000  C
  O76      1.0000 0.93057  0.38925  0.29107  Biso   1.000  O
  O77      1.0000 0.12907  0.50466  0.28866  Biso   1.000  O
  C540     1.0000 0.44837  0.99026  0.26528  Biso   1.000  C
  O78      1.0000 0.37553  0.87091  0.28866  Biso   1.000  O
  O79      1.0000 0.37557  0.87100  0.28866  Biso   1.000  O
  O80      1.0000 0.45867  0.06946  0.29107  Biso   1.000  O
  C541     1.0000 0.69044  0.90338  0.21281  Biso   1.000  C
  C542     1.0000 0.79733  0.10517  0.21380  Biso   1.000  C
  C543     1.0000 0.89485  0.69219  0.21380  Biso   1.000  C
  C544     1.0000 0.09664  0.78710  0.21281  Biso   1.000  C
  C545     1.0000 0.90455  0.40351  0.25828  Biso   1.000  C
  C546     1.0000 0.90460  0.40360  0.25828  Biso   1.000  C
  C547     1.0000 0.10505  0.50441  0.25654  Biso   1.000  C
  C548     1.0000 0.10509  0.50449  0.25654  Biso   1.000  C
  C549     1.0000 0.98367  0.39676  0.30392  Biso   1.000  C
  C550     1.0000 0.10245  0.46844  0.30258  Biso   1.000  C
  C551     1.0000 0.10252  0.46844  0.30258  Biso   1.000  C
  C552     1.0000 0.39937  0.89492  0.25654  Biso   1.000  C
  C553     1.0000 0.39941  0.89500  0.25654  Biso   1.000  C
  C554     1.0000 0.49896  0.09543  0.25828  Biso   1.000  C
  C555     1.0000 0.36599  0.89757  0.30258  Biso   1.000  C
  C556     1.0000 0.41309  0.01632  0.30392  Biso   1.000  C
  C557     1.0000 0.41305  0.01640  0.30392  Biso   1.000  C
  C558     1.0000 0.41313  0.01640  0.30392  Biso   1.000  C
  H302     1.0000 0.68540  0.83247  0.21197  Biso   1.000  H
  C559     1.0000 0.59376  0.91141  0.21405  Biso   1.000  C
  H303     1.0000 0.68547  0.83247  0.21197  Biso   1.000  H
  C560     1.0000 0.69731  0.10636  0.21498  Biso   1.000  C
  H304     1.0000 0.86644  0.17368  0.21367  Biso   1.000  H
  C561     1.0000 0.89366  0.59095  0.21498  Biso   1.000  C
  H305     1.0000 0.82634  0.69279  0.21367  Biso   1.000  H
  H306     1.0000 0.16753  0.85297  0.21197  Biso   1.000  H
  C562     1.0000 0.08867  0.68236  0.21405  Biso   1.000  C
  C563     1.0000 0.08859  0.68236  0.21405  Biso   1.000  C
  C564     1.0000 0.89491  0.39933  0.24345  Biso   1.000  C
  C565     1.0000 0.89496  0.39941  0.24345  Biso   1.000  C
  H307     1.0000 0.83821  0.36849  0.26373  Biso   1.000  H
  H308     1.0000 0.83825  0.36857  0.26373  Biso   1.000  H
  H309     1.0000 0.83828  0.36849  0.26373  Biso   1.000  H
  H310     1.0000 0.83833  0.36857  0.26373  Biso   1.000  H
  C566     1.0000 0.09543  0.49894  0.24172  Biso   1.000  C
  C567     1.0000 0.09547  0.49903  0.24172  Biso   1.000  C
  H311     1.0000 0.17728  0.54012  0.26074  Biso   1.000  H
  C568     1.0000 0.93745  0.34679  0.31678  Biso   1.000  C
  C569     1.0000 0.93749  0.34687  0.31678  Biso   1.000  C
  C570     1.0000 0.17492  0.49279  0.31397  Biso   1.000  C
  C571     1.0000 0.17497  0.49287  0.31397  Biso   1.000  C
  C572     1.0000 0.17500  0.49279  0.31397  Biso   1.000  C
  C573     1.0000 0.40353  0.90457  0.24172  Biso   1.000  C
  H312     1.0000 0.36283  0.82273  0.26074  Biso   1.000  H
  H313     1.0000 0.36290  0.82273  0.26074  Biso   1.000  H
  C574     1.0000 0.50445  0.10508  0.24345  Biso   1.000  C
  H314     1.0000 0.53025  0.16172  0.26373  Biso   1.000  H
  H315     1.0000 0.53030  0.16181  0.26373  Biso   1.000  H
  C575     1.0000 0.31789  0.82504  0.31397  Biso   1.000  C
  C576     1.0000 0.31781  0.82504  0.31397  Biso   1.000  C
  C577     1.0000 0.40934  0.06254  0.31678  Biso   1.000  C
  H316     1.0000 0.52321  0.84443  0.21417  Biso   1.000  H
  H317     1.0000 0.52325  0.84451  0.21417  Biso   1.000  H
  N81      1.0000 0.59665  0.01145  0.21507  Biso   1.000  N
  N82      1.0000 0.59662  0.01153  0.21507  Biso   1.000  N
  N83      1.0000 0.59670  0.01153  0.21507  Biso   1.000  N
  H318     1.0000 0.69995  0.17616  0.21577  Biso   1.000  H
  N84      1.0000 0.98849  0.58514  0.21507  Biso   1.000  N
  H319     1.0000 0.82383  0.52380  0.21577  Biso   1.000  H
  N85      1.0000 0.98853  0.58523  0.21507  Biso   1.000  N
  N86      1.0000 0.98856  0.58514  0.21507  Biso   1.000  N
  H320     1.0000 0.82390  0.52380  0.21577  Biso   1.000  H
  N87      1.0000 0.98860  0.58523  0.21507  Biso   1.000  N
  H321     1.0000 0.15553  0.67878  0.21417  Biso   1.000  H
  C578     1.0000 0.99024  0.44836  0.23473  Biso   1.000  C
  H322     1.0000 0.82274  0.36285  0.23927  Biso   1.000  H
  H323     1.0000 0.16179  0.53029  0.23626  Biso   1.000  H
  H324     1.0000 0.16171  0.53029  0.23626  Biso   1.000  H
  H325     1.0000 0.85936  0.29655  0.31763  Biso   1.000  H
  C579     1.0000 0.00779  0.37190  0.32855  Biso   1.000  C
  C580     1.0000 0.00776  0.37199  0.32855  Biso   1.000  C
  C581     1.0000 0.00784  0.37199  0.32855  Biso   1.000  C
  H326     1.0000 0.25370  0.53892  0.31293  Biso   1.000  H
  C582     1.0000 0.12589  0.44563  0.32721  Biso   1.000  C
  H327     1.0000 0.25363  0.53892  0.31293  Biso   1.000  H
  C583     1.0000 0.45811  0.00974  0.23473  Biso   1.000  C
  C584     1.0000 0.45815  0.00982  0.23473  Biso   1.000  C
  H328     1.0000 0.36853  0.83828  0.23626  Biso   1.000  H
  H329     1.0000 0.54010  0.17727  0.23927  Biso   1.000  H
  H330     1.0000 0.54017  0.17727  0.23927  Biso   1.000  H
  H331     1.0000 0.28528  0.74635  0.31293  Biso   1.000  H
  C585     1.0000 0.31974  0.87416  0.32721  Biso   1.000  C
  C586     1.0000 0.31981  0.87416  0.32721  Biso   1.000  C
  C587     1.0000 0.36412  0.99223  0.32855  Biso   1.000  C
  C588     1.0000 0.36420  0.99223  0.32855  Biso   1.000  C
  H332     1.0000 0.43714  0.14062  0.31763  Biso   1.000  H
  H333     1.0000 0.43718  0.14071  0.31763  Biso   1.000  H
  B34      1.0000 0.47701  0.01956  0.21805  Biso   1.000  B
  B35      1.0000 0.98041  0.45742  0.21805  Biso   1.000  B
  B36      1.0000 0.98045  0.45751  0.21805  Biso   1.000  B
  Cl83     1.0000 0.94942  0.31347  0.34484  Biso   1.000  Cl
  Cl84     1.0000 0.21481  0.48023  0.34195  Biso   1.000  Cl
  Cl85     1.0000 0.21485  0.48032  0.34195  Biso   1.000  Cl
  Cl86     1.0000 0.26539  0.78514  0.34195  Biso   1.000  Cl
  Cl87     1.0000 0.26543  0.78522  0.34195  Biso   1.000  Cl
  Cl88     1.0000 0.26546  0.78514  0.34195  Biso   1.000  Cl
  Cl89     1.0000 0.36400  0.05058  0.34484  Biso   1.000  Cl
  O81      1.0000 0.38921  0.93054  0.20893  Biso   1.000  O
  O82      1.0000 0.38926  0.93063  0.20893  Biso   1.000  O
  O83      1.0000 0.50461  0.12909  0.21134  Biso   1.000  O
  O84      1.0000 0.87090  0.37558  0.21134  Biso   1.000  O
  O85      1.0000 0.87098  0.37558  0.21134  Biso   1.000  O
  O86      1.0000 0.06942  0.45862  0.20893  Biso   1.000  O
  O87      1.0000 0.06947  0.45870  0.20893  Biso   1.000  O
  C589     1.0000 0.39677  0.98368  0.19608  Biso   1.000  C
  C590     1.0000 0.39669  0.98368  0.19608  Biso   1.000  C
  C591     1.0000 0.46843  0.10243  0.19741  Biso   1.000  C
  C592     1.0000 0.46847  0.10252  0.19741  Biso   1.000  C
  C593     1.0000 0.89752  0.36592  0.19741  Biso   1.000  C
  C594     1.0000 0.89756  0.36601  0.19741  Biso   1.000  C
  C595     1.0000 0.01632  0.41308  0.19608  Biso   1.000  C
  C596     1.0000 0.01640  0.41308  0.19608  Biso   1.000  C
  C597     1.0000 0.34680  0.93746  0.18322  Biso   1.000  C
  C598     1.0000 0.49285  0.17496  0.18602  Biso   1.000  C
  C599     1.0000 0.49278  0.17496  0.18602  Biso   1.000  C
  C600     1.0000 0.82501  0.31782  0.18602  Biso   1.000  C
  C601     1.0000 0.82505  0.31791  0.18602  Biso   1.000  C
  C602     1.0000 0.06253  0.40932  0.18322  Biso   1.000  C
  C603     1.0000 0.06258  0.40941  0.18322  Biso   1.000  C
  H334     1.0000 0.29651  0.85938  0.18236  Biso   1.000  H
  C604     1.0000 0.37190  0.00777  0.17145  Biso   1.000  C
  C605     1.0000 0.37197  0.00777  0.17145  Biso   1.000  C
  H335     1.0000 0.53893  0.25365  0.18706  Biso   1.000  H
  C606     1.0000 0.44558  0.12584  0.17280  Biso   1.000  C
  H336     1.0000 0.53897  0.25373  0.18706  Biso   1.000  H
  C607     1.0000 0.44562  0.12593  0.17280  Biso   1.000  C
  C608     1.0000 0.44565  0.12584  0.17280  Biso   1.000  C
  C609     1.0000 0.44570  0.12593  0.17280  Biso   1.000  C
  H337     1.0000 0.74637  0.28527  0.18706  Biso   1.000  H
  C610     1.0000 0.87416  0.31979  0.17280  Biso   1.000  C
  C611     1.0000 0.99222  0.36413  0.17145  Biso   1.000  C
  C612     1.0000 0.99226  0.36421  0.17145  Biso   1.000  C
  H338     1.0000 0.14068  0.43717  0.18236  Biso   1.000  H
  H339     1.0000 0.14060  0.43717  0.18236  Biso   1.000  H
  Cl90     1.0000 0.31342  0.94942  0.15515  Biso   1.000  Cl
  Cl91     1.0000 0.48025  0.21486  0.15806  Biso   1.000  Cl
  Cl92     1.0000 0.48032  0.21486  0.15806  Biso   1.000  Cl
  Cl93     1.0000 0.78514  0.26545  0.15806  Biso   1.000  Cl
  Cl94     1.0000 0.78521  0.26545  0.15806  Biso   1.000  Cl
  Cl95     1.0000 0.05062  0.36404  0.15515  Biso   1.000  Cl
  Cl96     1.0000 0.05055  0.36404  0.15515  Biso   1.000  Cl
  C613     1.0000 0.62809  0.63587  0.32855  Biso   1.000  C
  C614     1.0000 0.65321  0.59068  0.31678  Biso   1.000  C
  C615     1.0000 0.55437  0.68021  0.32721  Biso   1.000  C
  C616     1.0000 0.55441  0.68030  0.32721  Biso   1.000  C
  Cl97     1.0000 0.68658  0.63596  0.34484  Biso   1.000  Cl
  Cl98     1.0000 0.68655  0.63604  0.34484  Biso   1.000  Cl
  Cl99     1.0000 0.68662  0.63604  0.34484  Biso   1.000  Cl
  C617     1.0000 0.60324  0.58692  0.30392  Biso   1.000  C
  C618     1.0000 0.60328  0.58700  0.30392  Biso   1.000  C
  C619     1.0000 0.60331  0.58692  0.30392  Biso   1.000  C
  H340     1.0000 0.70351  0.56283  0.31763  Biso   1.000  H
  H341     1.0000 0.70347  0.56291  0.31763  Biso   1.000  H
  H342     1.0000 0.70355  0.56291  0.31763  Biso   1.000  H
  C620     1.0000 0.50719  0.68218  0.31397  Biso   1.000  C
  Cl100    1.0000 0.51968  0.73455  0.34195  Biso   1.000  Cl
  Cl101    1.0000 0.51973  0.73463  0.34195  Biso   1.000  Cl
  Cl102    1.0000 0.51976  0.73455  0.34195  Biso   1.000  Cl
  Cl103    1.0000 0.51980  0.73463  0.34195  Biso   1.000  Cl
  O88      1.0000 0.61081  0.54138  0.29107  Biso   1.000  O
  C621     1.0000 0.53160  0.63408  0.30258  Biso   1.000  C
  H343     1.0000 0.46109  0.71473  0.31293  Biso   1.000  H
  H344     1.0000 0.46113  0.71481  0.31293  Biso   1.000  H
  B37      1.0000 0.52299  0.54258  0.28195  Biso   1.000  B
  O89      1.0000 0.49533  0.62442  0.28866  Biso   1.000  O
  O90      1.0000 0.49537  0.62451  0.28866  Biso   1.000  O
  O91      1.0000 0.49540  0.62442  0.28866  Biso   1.000  O
  O92      1.0000 0.49544  0.62451  0.28866  Biso   1.000  O
  C622     1.0000 0.54187  0.55164  0.26528  Biso   1.000  C
  N88      1.0000 0.40335  0.41486  0.28492  Biso   1.000  N
  N89      1.0000 0.40342  0.41486  0.28492  Biso   1.000  N
  C623     1.0000 0.49559  0.60067  0.25654  Biso   1.000  C
  C624     1.0000 0.59649  0.50106  0.25828  Biso   1.000  C
  C625     1.0000 0.30270  0.40905  0.28502  Biso   1.000  C
  C626     1.0000 0.40630  0.31764  0.28594  Biso   1.000  C
  C627     1.0000 0.40623  0.31764  0.28594  Biso   1.000  C
  C628     1.0000 0.50104  0.59649  0.24172  Biso   1.000  C
  H345     1.0000 0.45989  0.63715  0.26074  Biso   1.000  H
  C629     1.0000 0.60064  0.49559  0.24345  Biso   1.000  C
  H346     1.0000 0.63149  0.46971  0.26373  Biso   1.000  H
  H347     1.0000 0.63146  0.46979  0.26373  Biso   1.000  H
  H348     1.0000 0.63154  0.46979  0.26373  Biso   1.000  H
  H349     1.0000 0.30003  0.47620  0.28424  Biso   1.000  H
  C630     1.0000 0.20266  0.30781  0.28619  Biso   1.000  C
  H350     1.0000 0.30007  0.47628  0.28424  Biso   1.000  H
  C631     1.0000 0.20271  0.30790  0.28619  Biso   1.000  C
  H351     1.0000 0.30010  0.47620  0.28424  Biso   1.000  H
  C632     1.0000 0.30954  0.21290  0.28719  Biso   1.000  C
  H352     1.0000 0.47676  0.32122  0.28584  Biso   1.000  H
  C633     1.0000 0.30958  0.21298  0.28719  Biso   1.000  C
  H353     1.0000 0.47680  0.32131  0.28584  Biso   1.000  H
  C634     1.0000 0.55165  0.54190  0.23473  Biso   1.000  C
  H354     1.0000 0.46972  0.63151  0.23626  Biso   1.000  H
  H355     1.0000 0.46980  0.63151  0.23626  Biso   1.000  H
  H356     1.0000 0.63716  0.45988  0.23927  Biso   1.000  H
  C635     1.0000 0.20358  0.20666  0.28719  Biso   1.000  C
  H357     1.0000 0.13356  0.30721  0.28633  Biso   1.000  H
  H358     1.0000 0.13360  0.30730  0.28633  Biso   1.000  H
  H359     1.0000 0.31456  0.14703  0.28804  Biso   1.000  H
  B38      1.0000 0.54258  0.52302  0.21805  Biso   1.000  B
  C636     1.0000 0.09517  0.09594  0.28790  Biso   1.000  C
  N90      1.0000 0.41486  0.40341  0.21507  Biso   1.000  N
  O93      1.0000 0.54132  0.61075  0.20893  Biso   1.000  O
  O94      1.0000 0.62441  0.49534  0.21134  Biso   1.000  O
  O95      1.0000 0.54136  0.61084  0.20893  Biso   1.000  O
  O96      1.0000 0.62445  0.49542  0.21134  Biso   1.000  O
  N91      1.0000 0.10157  0.00085  0.28792  Biso   1.000  N
  N92      1.0000 0.99916  0.10072  0.28792  Biso   1.000  N
  C637     1.0000 0.31769  0.40632  0.21405  Biso   1.000  C
  C638     1.0000 0.40904  0.30269  0.21498  Biso   1.000  C
  C639     1.0000 0.58691  0.60324  0.19608  Biso   1.000  C
  C640     1.0000 0.58695  0.60332  0.19608  Biso   1.000  C
  C641     1.0000 0.63401  0.53156  0.19741  Biso   1.000  C
  C642     1.0000 0.63405  0.53164  0.19741  Biso   1.000  C
  C643     1.0000 0.63408  0.53156  0.19741  Biso   1.000  C
  C644     1.0000 0.00080  0.90483  0.28790  Biso   1.000  C
  C645     1.0000 0.00073  0.90483  0.28790  Biso   1.000  C
  C646     1.0000 0.90410  0.99923  0.28790  Biso   1.000  C
  C647     1.0000 0.90403  0.99923  0.28790  Biso   1.000  C
  C648     1.0000 0.21296  0.30961  0.21281  Biso   1.000  C
  H360     1.0000 0.32126  0.47680  0.21417  Biso   1.000  H
  C649     1.0000 0.30782  0.20264  0.21380  Biso   1.000  C
  C650     1.0000 0.30786  0.20273  0.21380  Biso   1.000  C
  H361     1.0000 0.47622  0.30004  0.21577  Biso   1.000  H
  H362     1.0000 0.47627  0.30012  0.21577  Biso   1.000  H
  C651     1.0000 0.59066  0.65321  0.18322  Biso   1.000  C
  C652     1.0000 0.68213  0.50721  0.18602  Biso   1.000  C
  C653     1.0000 0.68221  0.50721  0.18602  Biso   1.000  C
  N93      1.0000 0.89927  0.89842  0.28792  Biso   1.000  N
  C654     1.0000 0.00305  0.79642  0.28719  Biso   1.000  C
  C655     1.0000 0.00309  0.79650  0.28719  Biso   1.000  C
  C656     1.0000 0.79337  0.99692  0.28719  Biso   1.000  C
  C657     1.0000 0.20663  0.20358  0.21281  Biso   1.000  C
  H363     1.0000 0.14700  0.31456  0.21197  Biso   1.000  H
  H364     1.0000 0.14707  0.31456  0.21197  Biso   1.000  H
  H365     1.0000 0.30722  0.13353  0.21367  Biso   1.000  H
  H366     1.0000 0.30726  0.13362  0.21367  Biso   1.000  H
  C658     1.0000 0.63589  0.62810  0.17145  Biso   1.000  C
  H367     1.0000 0.56281  0.70345  0.18236  Biso   1.000  H
  C659     1.0000 0.63582  0.62810  0.17145  Biso   1.000  C
  H368     1.0000 0.56285  0.70353  0.18236  Biso   1.000  H
  C660     1.0000 0.68026  0.55437  0.17280  Biso   1.000  C
  H369     1.0000 0.71478  0.46108  0.18706  Biso   1.000  H
  H370     1.0000 0.71471  0.46108  0.18706  Biso   1.000  H
  C661     1.0000 0.90335  0.69039  0.28719  Biso   1.000  C
  C662     1.0000 0.90339  0.69048  0.28719  Biso   1.000  C
  C663     1.0000 0.10517  0.79736  0.28619  Biso   1.000  C
  C664     1.0000 0.69216  0.89483  0.28619  Biso   1.000  C
  C665     1.0000 0.78707  0.09662  0.28719  Biso   1.000  C
  C666     1.0000 0.78711  0.09671  0.28719  Biso   1.000  C
  C667     1.0000 0.09597  0.09517  0.21211  Biso   1.000  C
  C668     1.0000 0.09590  0.09517  0.21211  Biso   1.000  C
  Cl104    1.0000 0.63596  0.68653  0.15515  Biso   1.000  Cl
  Cl105    1.0000 0.63600  0.68662  0.15515  Biso   1.000  Cl
  Cl106    1.0000 0.73458  0.51977  0.15806  Biso   1.000  Cl
  C669     1.0000 0.91137  0.59368  0.28594  Biso   1.000  C
  C670     1.0000 0.91142  0.59377  0.28594  Biso   1.000  C
  H371     1.0000 0.83244  0.68544  0.28804  Biso   1.000  H
  H372     1.0000 0.83251  0.68544  0.28804  Biso   1.000  H
  C671     1.0000 0.10635  0.69731  0.28502  Biso   1.000  C
  C672     1.0000 0.10639  0.69740  0.28502  Biso   1.000  C
  H373     1.0000 0.17369  0.86647  0.28633  Biso   1.000  H
  C673     1.0000 0.59094  0.89364  0.28502  Biso   1.000  C
  H374     1.0000 0.69275  0.82632  0.28633  Biso   1.000  H
  H375     1.0000 0.69280  0.82640  0.28633  Biso   1.000  H
  C674     1.0000 0.68236  0.08859  0.28594  Biso   1.000  C
  C675     1.0000 0.68240  0.08868  0.28594  Biso   1.000  C
  H376     1.0000 0.85293  0.16753  0.28804  Biso   1.000  H
  H377     1.0000 0.85300  0.16753  0.28804  Biso   1.000  H
  N94      1.0000 0.00085  0.10158  0.21209  Biso   1.000  N
  N95      1.0000 0.10071  0.99915  0.21209  Biso   1.000  N
  N96      1.0000 0.10075  0.99923  0.21209  Biso   1.000  N
  N97      1.0000 0.01145  0.59659  0.28492  Biso   1.000  N
  N98      1.0000 0.01149  0.59667  0.28492  Biso   1.000  N
  H378     1.0000 0.84447  0.52320  0.28584  Biso   1.000  H
  H379     1.0000 0.84451  0.52329  0.28584  Biso   1.000  H
  H380     1.0000 0.17619  0.69996  0.28424  Biso   1.000  H
  N99      1.0000 0.58521  0.98855  0.28492  Biso   1.000  N
  N100     1.0000 0.58513  0.98855  0.28492  Biso   1.000  N
  H381     1.0000 0.52379  0.82384  0.28424  Biso   1.000  H
  H382     1.0000 0.67878  0.15557  0.28584  Biso   1.000  H
  C676     1.0000 0.90487  0.00077  0.21211  Biso   1.000  C
  C677     1.0000 0.90479  0.00077  0.21211  Biso   1.000  C
  C678     1.0000 0.99923  0.90406  0.21211  Biso   1.000  C
  B39      1.0000 0.01957  0.47698  0.28195  Biso   1.000  B
  B40      1.0000 0.01961  0.47707  0.28195  Biso   1.000  B
  B41      1.0000 0.45744  0.98044  0.28195  Biso   1.000  B
  N101     1.0000 0.89844  0.89928  0.21209  Biso   1.000  N
  C679     1.0000 0.79645  0.00308  0.21281  Biso   1.000  C
  C680     1.0000 0.99692  0.79334  0.21281  Biso   1.000  C
  C681     1.0000 0.99696  0.79343  0.21281  Biso   1.000  C
  C682     1.0000 0.00976  0.45810  0.26528  Biso   1.000  C
  C683     1.0000 0.00980  0.45819  0.26528  Biso   1.000  C
  O97      1.0000 0.93057  0.38925  0.29107  Biso   1.000  O
  O98      1.0000 0.12907  0.50466  0.28866  Biso   1.000  O
  C684     1.0000 0.44837  0.99026  0.26528  Biso   1.000  C
  O99      1.0000 0.37553  0.87091  0.28866  Biso   1.000  O
  O100     1.0000 0.37557  0.87100  0.28866  Biso   1.000  O
  O101     1.0000 0.45867  0.06946  0.29107  Biso   1.000  O
  C685     1.0000 0.69044  0.90338  0.21281  Biso   1.000  C
  C686     1.0000 0.79733  0.10517  0.21380  Biso   1.000  C
  C687     1.0000 0.89485  0.69219  0.21380  Biso   1.000  C
  C688     1.0000 0.09664  0.78710  0.21281  Biso   1.000  C
  C689     1.0000 0.90455  0.40351  0.25828  Biso   1.000  C
  C690     1.0000 0.90460  0.40360  0.25828  Biso   1.000  C
  C691     1.0000 0.10505  0.50441  0.25654  Biso   1.000  C
  C692     1.0000 0.10509  0.50449  0.25654  Biso   1.000  C
  C693     1.0000 0.98367  0.39676  0.30392  Biso   1.000  C
  C694     1.0000 0.10245  0.46844  0.30258  Biso   1.000  C
  C695     1.0000 0.10252  0.46844  0.30258  Biso   1.000  C
  C696     1.0000 0.39937  0.89492  0.25654  Biso   1.000  C
  C697     1.0000 0.39941  0.89500  0.25654  Biso   1.000  C
  C698     1.0000 0.49896  0.09543  0.25828  Biso   1.000  C
  C699     1.0000 0.36599  0.89757  0.30258  Biso   1.000  C
  C700     1.0000 0.41309  0.01632  0.30392  Biso   1.000  C
  C701     1.0000 0.41305  0.01640  0.30392  Biso   1.000  C
  C702     1.0000 0.41313  0.01640  0.30392  Biso   1.000  C
  H383     1.0000 0.68540  0.83247  0.21197  Biso   1.000  H
  C703     1.0000 0.59376  0.91141  0.21405  Biso   1.000  C
  H384     1.0000 0.68547  0.83247  0.21197  Biso   1.000  H
  C704     1.0000 0.69731  0.10636  0.21498  Biso   1.000  C
  H385     1.0000 0.86644  0.17368  0.21367  Biso   1.000  H
  C705     1.0000 0.89366  0.59095  0.21498  Biso   1.000  C
  H386     1.0000 0.82634  0.69279  0.21367  Biso   1.000  H
  H387     1.0000 0.16753  0.85297  0.21197  Biso   1.000  H
  C706     1.0000 0.08867  0.68236  0.21405  Biso   1.000  C
  C707     1.0000 0.08859  0.68236  0.21405  Biso   1.000  C
  C708     1.0000 0.89491  0.39933  0.24345  Biso   1.000  C
  C709     1.0000 0.89496  0.39941  0.24345  Biso   1.000  C
  H388     1.0000 0.83821  0.36849  0.26373  Biso   1.000  H
  H389     1.0000 0.83825  0.36857  0.26373  Biso   1.000  H
  H390     1.0000 0.83828  0.36849  0.26373  Biso   1.000  H
  H391     1.0000 0.83833  0.36857  0.26373  Biso   1.000  H
  C710     1.0000 0.09543  0.49894  0.24172  Biso   1.000  C
  C711     1.0000 0.09547  0.49903  0.24172  Biso   1.000  C
  H392     1.0000 0.17728  0.54012  0.26074  Biso   1.000  H
  C712     1.0000 0.93745  0.34679  0.31678  Biso   1.000  C
  C713     1.0000 0.93749  0.34687  0.31678  Biso   1.000  C
  C714     1.0000 0.17492  0.49279  0.31397  Biso   1.000  C
  C715     1.0000 0.17497  0.49287  0.31397  Biso   1.000  C
  C716     1.0000 0.17500  0.49279  0.31397  Biso   1.000  C
  C717     1.0000 0.40353  0.90457  0.24172  Biso   1.000  C
  H393     1.0000 0.36283  0.82273  0.26074  Biso   1.000  H
  H394     1.0000 0.36290  0.82273  0.26074  Biso   1.000  H
  C718     1.0000 0.50445  0.10508  0.24345  Biso   1.000  C
  H395     1.0000 0.53025  0.16172  0.26373  Biso   1.000  H
  H396     1.0000 0.53030  0.16181  0.26373  Biso   1.000  H
  C719     1.0000 0.31789  0.82504  0.31397  Biso   1.000  C
  C720     1.0000 0.31781  0.82504  0.31397  Biso   1.000  C
  C721     1.0000 0.40934  0.06254  0.31678  Biso   1.000  C
  H397     1.0000 0.52321  0.84443  0.21417  Biso   1.000  H
  H398     1.0000 0.52325  0.84451  0.21417  Biso   1.000  H
  N102     1.0000 0.59665  0.01145  0.21507  Biso   1.000  N
  N103     1.0000 0.59662  0.01153  0.21507  Biso   1.000  N
  N104     1.0000 0.59670  0.01153  0.21507  Biso   1.000  N
  H399     1.0000 0.69995  0.17616  0.21577  Biso   1.000  H
  N105     1.0000 0.98849  0.58514  0.21507  Biso   1.000  N
  H400     1.0000 0.82383  0.52380  0.21577  Biso   1.000  H
  N106     1.0000 0.98853  0.58523  0.21507  Biso   1.000  N
  N107     1.0000 0.98856  0.58514  0.21507  Biso   1.000  N
  H401     1.0000 0.82390  0.52380  0.21577  Biso   1.000  H
  N108     1.0000 0.98860  0.58523  0.21507  Biso   1.000  N
  H402     1.0000 0.15553  0.67878  0.21417  Biso   1.000  H
  C722     1.0000 0.99024  0.44836  0.23473  Biso   1.000  C
  H403     1.0000 0.82274  0.36285  0.23927  Biso   1.000  H
  H404     1.0000 0.16179  0.53029  0.23626  Biso   1.000  H
  H405     1.0000 0.16171  0.53029  0.23626  Biso   1.000  H
  H406     1.0000 0.85936  0.29655  0.31763  Biso   1.000  H
  C723     1.0000 0.00779  0.37190  0.32855  Biso   1.000  C
  C724     1.0000 0.00776  0.37199  0.32855  Biso   1.000  C
  C725     1.0000 0.00784  0.37199  0.32855  Biso   1.000  C
  H407     1.0000 0.25370  0.53892  0.31293  Biso   1.000  H
  C726     1.0000 0.12589  0.44563  0.32721  Biso   1.000  C
  H408     1.0000 0.25363  0.53892  0.31293  Biso   1.000  H
  C727     1.0000 0.45811  0.00974  0.23473  Biso   1.000  C
  C728     1.0000 0.45815  0.00982  0.23473  Biso   1.000  C
  H409     1.0000 0.36853  0.83828  0.23626  Biso   1.000  H
  H410     1.0000 0.54010  0.17727  0.23927  Biso   1.000  H
  H411     1.0000 0.54017  0.17727  0.23927  Biso   1.000  H
  H412     1.0000 0.28528  0.74635  0.31293  Biso   1.000  H
  C729     1.0000 0.31974  0.87416  0.32721  Biso   1.000  C
  C730     1.0000 0.31981  0.87416  0.32721  Biso   1.000  C
  C731     1.0000 0.36412  0.99223  0.32855  Biso   1.000  C
  C732     1.0000 0.36420  0.99223  0.32855  Biso   1.000  C
  H413     1.0000 0.43714  0.14062  0.31763  Biso   1.000  H
  H414     1.0000 0.43718  0.14071  0.31763  Biso   1.000  H
  B42      1.0000 0.47701  0.01956  0.21805  Biso   1.000  B
  B43      1.0000 0.98041  0.45742  0.21805  Biso   1.000  B
  B44      1.0000 0.98045  0.45751  0.21805  Biso   1.000  B
  Cl107    1.0000 0.94942  0.31347  0.34484  Biso   1.000  Cl
  Cl108    1.0000 0.21481  0.48023  0.34195  Biso   1.000  Cl
  Cl109    1.0000 0.21485  0.48032  0.34195  Biso   1.000  Cl
  Cl110    1.0000 0.26539  0.78514  0.34195  Biso   1.000  Cl
  Cl111    1.0000 0.26543  0.78522  0.34195  Biso   1.000  Cl
  Cl112    1.0000 0.26546  0.78514  0.34195  Biso   1.000  Cl
  Cl113    1.0000 0.36400  0.05058  0.34484  Biso   1.000  Cl
  O102     1.0000 0.38921  0.93054  0.20893  Biso   1.000  O
  O103     1.0000 0.38926  0.93063  0.20893  Biso   1.000  O
  O104     1.0000 0.50461  0.12909  0.21134  Biso   1.000  O
  O105     1.0000 0.87090  0.37558  0.21134  Biso   1.000  O
  O106     1.0000 0.87098  0.37558  0.21134  Biso   1.000  O
  O107     1.0000 0.06942  0.45862  0.20893  Biso   1.000  O
  O108     1.0000 0.06947  0.45870  0.20893  Biso   1.000  O
  C733     1.0000 0.39677  0.98368  0.19608  Biso   1.000  C
  C734     1.0000 0.39669  0.98368  0.19608  Biso   1.000  C
  C735     1.0000 0.46843  0.10243  0.19741  Biso   1.000  C
  C736     1.0000 0.46847  0.10252  0.19741  Biso   1.000  C
  C737     1.0000 0.89752  0.36592  0.19741  Biso   1.000  C
  C738     1.0000 0.89756  0.36601  0.19741  Biso   1.000  C
  C739     1.0000 0.01632  0.41308  0.19608  Biso   1.000  C
  C740     1.0000 0.01640  0.41308  0.19608  Biso   1.000  C
  C741     1.0000 0.34680  0.93746  0.18322  Biso   1.000  C
  C742     1.0000 0.49285  0.17496  0.18602  Biso   1.000  C
  C743     1.0000 0.49278  0.17496  0.18602  Biso   1.000  C
  C744     1.0000 0.82501  0.31782  0.18602  Biso   1.000  C
  C745     1.0000 0.82505  0.31791  0.18602  Biso   1.000  C
  C746     1.0000 0.06253  0.40932  0.18322  Biso   1.000  C
  C747     1.0000 0.06258  0.40941  0.18322  Biso   1.000  C
  H415     1.0000 0.29651  0.85938  0.18236  Biso   1.000  H
  C748     1.0000 0.37190  0.00777  0.17145  Biso   1.000  C
  C749     1.0000 0.37197  0.00777  0.17145  Biso   1.000  C
  H416     1.0000 0.53893  0.25365  0.18706  Biso   1.000  H
  C750     1.0000 0.44558  0.12584  0.17280  Biso   1.000  C
  H417     1.0000 0.53897  0.25373  0.18706  Biso   1.000  H
  C751     1.0000 0.44562  0.12593  0.17280  Biso   1.000  C
  C752     1.0000 0.44565  0.12584  0.17280  Biso   1.000  C
  C753     1.0000 0.44570  0.12593  0.17280  Biso   1.000  C
  H418     1.0000 0.74637  0.28527  0.18706  Biso   1.000  H
  C754     1.0000 0.87416  0.31979  0.17280  Biso   1.000  C
  C755     1.0000 0.99222  0.36413  0.17145  Biso   1.000  C
  C756     1.0000 0.99226  0.36421  0.17145  Biso   1.000  C
  H419     1.0000 0.14068  0.43717  0.18236  Biso   1.000  H
  H420     1.0000 0.14060  0.43717  0.18236  Biso   1.000  H
  Cl114    1.0000 0.31342  0.94942  0.15515  Biso   1.000  Cl
  Cl115    1.0000 0.48025  0.21486  0.15806  Biso   1.000  Cl
  Cl116    1.0000 0.48032  0.21486  0.15806  Biso   1.000  Cl
  Cl117    1.0000 0.78514  0.26545  0.15806  Biso   1.000  Cl
  Cl118    1.0000 0.78521  0.26545  0.15806  Biso   1.000  Cl
  Cl119    1.0000 0.05062  0.36404  0.15515  Biso   1.000  Cl
  Cl120    1.0000 0.05055  0.36404  0.15515  Biso   1.000  Cl
  C757     1.0000 0.37195  0.36420  0.67145  Biso   1.000  C
  C758     1.0000 0.44562  0.31977  0.67279  Biso   1.000  C
  C759     1.0000 0.34678  0.40931  0.68322  Biso   1.000  C
  Cl121    1.0000 0.31341  0.36403  0.65516  Biso   1.000  Cl
  C760     1.0000 0.34682  0.40939  0.68322  Biso   1.000  C
  Cl122    1.0000 0.31349  0.36403  0.65516  Biso   1.000  Cl
  C761     1.0000 0.37190  0.36411  0.67145  Biso   1.000  C
  C762     1.0000 0.49280  0.31781  0.68603  Biso   1.000  C
  Cl123    1.0000 0.48031  0.26544  0.65805  Biso   1.000  Cl
  C763     1.0000 0.49285  0.31789  0.68603  Biso   1.000  C
  Cl124    1.0000 0.48023  0.26544  0.65805  Biso   1.000  Cl
  C764     1.0000 0.39675  0.41306  0.69608  Biso   1.000  C
  H421     1.0000 0.29649  0.43716  0.68237  Biso   1.000  H
  H422     1.0000 0.29656  0.43716  0.68237  Biso   1.000  H
  C765     1.0000 0.46839  0.36591  0.69742  Biso   1.000  C
  H423     1.0000 0.53890  0.28526  0.68707  Biso   1.000  H
  C766     1.0000 0.46844  0.36599  0.69742  Biso   1.000  C
  H424     1.0000 0.53897  0.28526  0.68707  Biso   1.000  H
  O109     1.0000 0.38918  0.45860  0.70893  Biso   1.000  O
  O110     1.0000 0.38923  0.45869  0.70893  Biso   1.000  O
  O111     1.0000 0.50466  0.37556  0.71134  Biso   1.000  O
  O112     1.0000 0.50459  0.37556  0.71134  Biso   1.000  O
  B45      1.0000 0.47700  0.45740  0.71805  Biso   1.000  B
  B46      1.0000 0.47704  0.45749  0.71805  Biso   1.000  B
  C767     1.0000 0.45812  0.44835  0.73472  Biso   1.000  C
  N109     1.0000 0.59665  0.58512  0.71508  Biso   1.000  N
  N110     1.0000 0.59662  0.58521  0.71508  Biso   1.000  N
  N111     1.0000 0.59669  0.58521  0.71508  Biso   1.000  N
  C768     1.0000 0.40350  0.49892  0.74172  Biso   1.000  C
  C769     1.0000 0.50440  0.39931  0.74346  Biso   1.000  C
  C770     1.0000 0.40354  0.49901  0.74172  Biso   1.000  C
  C771     1.0000 0.50445  0.39940  0.74346  Biso   1.000  C
  C772     1.0000 0.59369  0.68235  0.71406  Biso   1.000  C
  C773     1.0000 0.69729  0.59093  0.71498  Biso   1.000  C
  C774     1.0000 0.59376  0.68235  0.71406  Biso   1.000  C
  C775     1.0000 0.69736  0.59093  0.71498  Biso   1.000  C
  H425     1.0000 0.36850  0.53028  0.73627  Biso   1.000  H
  C776     1.0000 0.39935  0.50439  0.75655  Biso   1.000  C
  C777     1.0000 0.39940  0.50448  0.75655  Biso   1.000  C
  H426     1.0000 0.36857  0.53028  0.73627  Biso   1.000  H
  H427     1.0000 0.54010  0.36283  0.73926  Biso   1.000  H
  C778     1.0000 0.49895  0.40350  0.75828  Biso   1.000  C
  C779     1.0000 0.49899  0.40358  0.75828  Biso   1.000  C
  C780     1.0000 0.69045  0.78709  0.71281  Biso   1.000  C
  H428     1.0000 0.52324  0.67876  0.71416  Biso   1.000  H
  H429     1.0000 0.69997  0.52378  0.71576  Biso   1.000  H
  C781     1.0000 0.79733  0.69217  0.71381  Biso   1.000  C
  C782     1.0000 0.44834  0.45809  0.76527  Biso   1.000  C
  H430     1.0000 0.36283  0.54010  0.76073  Biso   1.000  H
  C783     1.0000 0.44838  0.45817  0.76527  Biso   1.000  C
  H431     1.0000 0.53027  0.36847  0.76374  Biso   1.000  H
  H432     1.0000 0.53024  0.36855  0.76374  Biso   1.000  H
  H433     1.0000 0.53031  0.36855  0.76374  Biso   1.000  H
  C784     1.0000 0.79641  0.79332  0.71281  Biso   1.000  C
  H434     1.0000 0.68543  0.85295  0.71196  Biso   1.000  H
  C785     1.0000 0.79645  0.79341  0.71281  Biso   1.000  C
  H435     1.0000 0.86643  0.69277  0.71367  Biso   1.000  H
  B47      1.0000 0.45741  0.47697  0.78195  Biso   1.000  B
  B48      1.0000 0.45745  0.47705  0.78195  Biso   1.000  B
  C786     1.0000 0.90482  0.90404  0.71210  Biso   1.000  C
  O113     1.0000 0.45867  0.38923  0.79107  Biso   1.000  O
  O114     1.0000 0.37559  0.50465  0.78866  Biso   1.000  O
  N112     1.0000 0.58513  0.59657  0.78493  Biso   1.000  N
  N113     1.0000 0.58517  0.59666  0.78493  Biso   1.000  N
  N114     1.0000 0.89842  0.99913  0.71208  Biso   1.000  N
  N115     1.0000 0.89847  0.99921  0.71208  Biso   1.000  N
  N116     1.0000 0.00083  0.89926  0.71208  Biso   1.000  N
  C787     1.0000 0.41308  0.39675  0.80392  Biso   1.000  C
  C788     1.0000 0.36598  0.46842  0.80259  Biso   1.000  C
  C789     1.0000 0.68230  0.59367  0.78595  Biso   1.000  C
  C790     1.0000 0.59095  0.69730  0.78502  Biso   1.000  C
  C791     1.0000 0.68235  0.59375  0.78595  Biso   1.000  C
  C792     1.0000 0.59100  0.69738  0.78502  Biso   1.000  C
  C793     1.0000 0.68238  0.59367  0.78595  Biso   1.000  C
  C794     1.0000 0.99919  0.09515  0.71210  Biso   1.000  C
  C795     1.0000 0.99926  0.09515  0.71210  Biso   1.000  C
  C796     1.0000 0.09589  0.00075  0.71210  Biso   1.000  C
  C797     1.0000 0.09597  0.00075  0.71210  Biso   1.000  C
  C798     1.0000 0.40933  0.34677  0.81678  Biso   1.000  C
  C799     1.0000 0.40937  0.34685  0.81678  Biso   1.000  C
  C800     1.0000 0.31786  0.49277  0.81398  Biso   1.000  C
  C801     1.0000 0.31790  0.49286  0.81398  Biso   1.000  C
  C802     1.0000 0.78704  0.69038  0.78719  Biso   1.000  C
  H436     1.0000 0.67873  0.52319  0.78583  Biso   1.000  H
  C803     1.0000 0.78708  0.69046  0.78719  Biso   1.000  C
  H437     1.0000 0.67877  0.52327  0.78583  Biso   1.000  H
  H438     1.0000 0.52377  0.69995  0.78423  Biso   1.000  H
  C804     1.0000 0.69217  0.79734  0.78620  Biso   1.000  C
  C805     1.0000 0.99695  0.20357  0.71281  Biso   1.000  C
  N117     1.0000 0.10072  0.10156  0.71208  Biso   1.000  N
  C806     1.0000 0.20662  0.00306  0.71281  Biso   1.000  C
  C807     1.0000 0.36410  0.37189  0.82855  Biso   1.000  C
  H439     1.0000 0.43718  0.29653  0.81764  Biso   1.000  H
  C808     1.0000 0.36414  0.37197  0.82855  Biso   1.000  C
  C809     1.0000 0.36418  0.37189  0.82855  Biso   1.000  C
  C810     1.0000 0.36422  0.37197  0.82855  Biso   1.000  C
  H440     1.0000 0.28521  0.53891  0.81294  Biso   1.000  H
  C811     1.0000 0.31973  0.44561  0.82720  Biso   1.000  C
  H441     1.0000 0.28529  0.53891  0.81294  Biso   1.000  H
  C812     1.0000 0.79336  0.79640  0.78719  Biso   1.000  C
  H442     1.0000 0.85300  0.68542  0.78803  Biso   1.000  H
  C813     1.0000 0.79340  0.79648  0.78719  Biso   1.000  C
  H443     1.0000 0.85292  0.68542  0.78803  Biso   1.000  H
  H444     1.0000 0.69277  0.86645  0.78633  Biso   1.000  H
  C814     1.0000 0.89482  0.20263  0.71381  Biso   1.000  C
  C815     1.0000 0.89486  0.20271  0.71381  Biso   1.000  C
  C816     1.0000 0.09664  0.30959  0.71281  Biso   1.000  C
  C817     1.0000 0.21293  0.90336  0.71281  Biso   1.000  C
  C818     1.0000 0.30783  0.10515  0.71381  Biso   1.000  C
  Cl125    1.0000 0.36404  0.31345  0.84485  Biso   1.000  Cl
  Cl126    1.0000 0.26541  0.48021  0.84194  Biso   1.000  Cl
  Cl127    1.0000 0.26545  0.48030  0.84194  Biso   1.000  Cl
  C819     1.0000 0.90402  0.90481  0.78789  Biso   1.000  C
  C820     1.0000 0.90409  0.90481  0.78789  Biso   1.000  C
  C821     1.0000 0.89364  0.30267  0.71498  Biso   1.000  C
  H445     1.0000 0.82630  0.13351  0.71367  Biso   1.000  H
  H446     1.0000 0.82634  0.13360  0.71367  Biso   1.000  H
  H447     1.0000 0.16756  0.31454  0.71196  Biso   1.000  H
  C822     1.0000 0.08862  0.40630  0.71406  Biso   1.000  C
  H448     1.0000 0.16748  0.31454  0.71196  Biso   1.000  H
  C823     1.0000 0.08869  0.40630  0.71406  Biso   1.000  C
  H449     1.0000 0.14706  0.83245  0.71196  Biso   1.000  H
  C824     1.0000 0.31764  0.91139  0.71406  Biso   1.000  C
  H450     1.0000 0.14699  0.83245  0.71196  Biso   1.000  H
  C825     1.0000 0.40905  0.10635  0.71498  Biso   1.000  C
  H451     1.0000 0.30724  0.17367  0.71367  Biso   1.000  H
  N118     1.0000 0.99914  0.89840  0.78791  Biso   1.000  N
  N119     1.0000 0.89928  0.00084  0.78791  Biso   1.000  N
  N120     1.0000 0.98854  0.40339  0.71508  Biso   1.000  N
  H452     1.0000 0.82380  0.30002  0.71576  Biso   1.000  H
  H453     1.0000 0.82385  0.30011  0.71576  Biso   1.000  H
  H454     1.0000 0.15553  0.47678  0.71416  Biso   1.000  H
  H455     1.0000 0.32121  0.84441  0.71416  Biso   1.000  H
  H456     1.0000 0.32126  0.84450  0.71416  Biso   1.000  H
  N121     1.0000 0.41479  0.01143  0.71508  Biso   1.000  N
  N122     1.0000 0.41483  0.01152  0.71508  Biso   1.000  N
  N123     1.0000 0.41486  0.01143  0.71508  Biso   1.000  N
  N124     1.0000 0.41490  0.01152  0.71508  Biso   1.000  N
  H457     1.0000 0.47620  0.17614  0.71576  Biso   1.000  H
  H458     1.0000 0.47628  0.17614  0.71576  Biso   1.000  H
  C826     1.0000 0.09512  0.99921  0.78789  Biso   1.000  C
  C827     1.0000 0.09520  0.99921  0.78789  Biso   1.000  C
  C828     1.0000 0.00076  0.09592  0.78789  Biso   1.000  C
  B49      1.0000 0.98042  0.52300  0.71805  Biso   1.000  B
  B50      1.0000 0.54255  0.01955  0.71805  Biso   1.000  B
  C829     1.0000 0.20354  0.99691  0.78719  Biso   1.000  C
  N125     1.0000 0.10155  0.10071  0.78791  Biso   1.000  N
  C830     1.0000 0.00307  0.20664  0.78719  Biso   1.000  C
  C831     1.0000 0.99024  0.54188  0.73472  Biso   1.000  C
  O115     1.0000 0.87092  0.49532  0.71134  Biso   1.000  O
  O116     1.0000 0.87096  0.49540  0.71134  Biso   1.000  O
  O117     1.0000 0.06943  0.61074  0.70893  Biso   1.000  O
  O118     1.0000 0.06947  0.61082  0.70893  Biso   1.000  O
  O119     1.0000 0.54132  0.93053  0.70893  Biso   1.000  O
  O120     1.0000 0.54136  0.93061  0.70893  Biso   1.000  O
  C832     1.0000 0.55162  0.00972  0.73472  Biso   1.000  C
  O121     1.0000 0.62446  0.12907  0.71134  Biso   1.000  O
  C833     1.0000 0.55166  0.00981  0.73472  Biso   1.000  C
  C834     1.0000 0.20266  0.89482  0.78620  Biso   1.000  C
  C835     1.0000 0.30955  0.09661  0.78719  Biso   1.000  C
  C836     1.0000 0.30959  0.09669  0.78719  Biso   1.000  C
  C837     1.0000 0.90335  0.21288  0.78719  Biso   1.000  C
  C838     1.0000 0.90339  0.21297  0.78719  Biso   1.000  C
  C839     1.0000 0.10514  0.30779  0.78620  Biso   1.000  C
  C840     1.0000 0.10518  0.30788  0.78620  Biso   1.000  C
  C841     1.0000 0.89495  0.49557  0.74346  Biso   1.000  C
  C842     1.0000 0.09544  0.59647  0.74172  Biso   1.000  C
  C843     1.0000 0.89754  0.53154  0.69742  Biso   1.000  C
  C844     1.0000 0.89758  0.53163  0.69742  Biso   1.000  C
  C845     1.0000 0.01632  0.60322  0.69608  Biso   1.000  C
  C846     1.0000 0.01636  0.60330  0.69608  Biso   1.000  C
  C847     1.0000 0.58691  0.98367  0.69608  Biso   1.000  C
  C848     1.0000 0.58698  0.98367  0.69608  Biso   1.000  C
  C849     1.0000 0.50103  0.90456  0.74172  Biso   1.000  C
  C850     1.0000 0.60062  0.10506  0.74346  Biso   1.000  C
  C851     1.0000 0.63400  0.10242  0.69742  Biso   1.000  C
  C852     1.0000 0.63404  0.10250  0.69742  Biso   1.000  C
  C853     1.0000 0.30268  0.89362  0.78502  Biso   1.000  C
  H459     1.0000 0.13356  0.82630  0.78633  Biso   1.000  H
  H460     1.0000 0.13360  0.82638  0.78633  Biso   1.000  H
  H461     1.0000 0.31460  0.16752  0.78803  Biso   1.000  H
  C854     1.0000 0.40623  0.08858  0.78595  Biso   1.000  C
  H462     1.0000 0.31452  0.16752  0.78803  Biso   1.000  H
  C855     1.0000 0.40627  0.08866  0.78595  Biso   1.000  C
  H463     1.0000 0.83246  0.14701  0.78803  Biso   1.000  H
  C856     1.0000 0.91133  0.31762  0.78595  Biso   1.000  C
  C857     1.0000 0.91140  0.31762  0.78595  Biso   1.000  C
  C858     1.0000 0.10634  0.40903  0.78502  Biso   1.000  C
  H464     1.0000 0.17365  0.30720  0.78633  Biso   1.000  H
  H465     1.0000 0.17369  0.30728  0.78633  Biso   1.000  H
  C859     1.0000 0.10641  0.40903  0.78502  Biso   1.000  C
  C860     1.0000 0.90456  0.50104  0.75828  Biso   1.000  C
  H466     1.0000 0.82271  0.45986  0.73926  Biso   1.000  H
  H467     1.0000 0.16178  0.63150  0.73627  Biso   1.000  H
  C861     1.0000 0.10508  0.60066  0.75655  Biso   1.000  C
  H468     1.0000 0.16171  0.63150  0.73627  Biso   1.000  H
  C862     1.0000 0.82507  0.50719  0.68603  Biso   1.000  C
  C863     1.0000 0.06254  0.65320  0.68322  Biso   1.000  C
  C864     1.0000 0.59065  0.93745  0.68322  Biso   1.000  C
  H469     1.0000 0.46974  0.83826  0.73627  Biso   1.000  H
  C865     1.0000 0.49554  0.89490  0.75655  Biso   1.000  C
  C866     1.0000 0.49558  0.89499  0.75655  Biso   1.000  C
  C867     1.0000 0.59646  0.09541  0.75828  Biso   1.000  C
  H470     1.0000 0.63716  0.17725  0.73926  Biso   1.000  H
  C868     1.0000 0.68210  0.17495  0.68603  Biso   1.000  C
  C869     1.0000 0.68218  0.17495  0.68603  Biso   1.000  C
  N126     1.0000 0.40334  0.98854  0.78493  Biso   1.000  N
  H471     1.0000 0.30004  0.82382  0.78423  Biso   1.000  H
  N127     1.0000 0.40341  0.98854  0.78493  Biso   1.000  N
  H472     1.0000 0.30012  0.82382  0.78423  Biso   1.000  H
  H473     1.0000 0.47679  0.15555  0.78583  Biso   1.000  H
  H474     1.0000 0.84446  0.32121  0.78583  Biso   1.000  H
  H475     1.0000 0.84450  0.32129  0.78583  Biso   1.000  H
  N128     1.0000 0.01150  0.41484  0.78493  Biso   1.000  N
  N129     1.0000 0.01143  0.41484  0.78493  Biso   1.000  N
  H476     1.0000 0.17616  0.47618  0.78423  Biso   1.000  H
  H477     1.0000 0.17621  0.47627  0.78423  Biso   1.000  H
  H478     1.0000 0.83820  0.46969  0.76374  Biso   1.000  H
  H479     1.0000 0.83825  0.46977  0.76374  Biso   1.000  H
  H480     1.0000 0.83828  0.46969  0.76374  Biso   1.000  H
  H481     1.0000 0.83832  0.46977  0.76374  Biso   1.000  H
  C870     1.0000 0.00975  0.55162  0.76527  Biso   1.000  C
  H482     1.0000 0.17725  0.63714  0.76073  Biso   1.000  H
  H483     1.0000 0.74629  0.46106  0.68707  Biso   1.000  H
  C871     1.0000 0.87410  0.55435  0.67279  Biso   1.000  C
  H484     1.0000 0.74636  0.46106  0.68707  Biso   1.000  H
  C872     1.0000 0.99220  0.62808  0.67145  Biso   1.000  C
  C873     1.0000 0.99227  0.62808  0.67145  Biso   1.000  C
  H485     1.0000 0.14063  0.70343  0.68237  Biso   1.000  H
  H486     1.0000 0.14068  0.70352  0.68237  Biso   1.000  H
  H487     1.0000 0.56286  0.85936  0.68237  Biso   1.000  H
  C874     1.0000 0.63587  0.00776  0.67145  Biso   1.000  C
  C875     1.0000 0.63580  0.00776  0.67145  Biso   1.000  C
  C876     1.0000 0.54188  0.99024  0.76527  Biso   1.000  C
  H488     1.0000 0.45989  0.82271  0.76073  Biso   1.000  H
  H489     1.0000 0.63146  0.16171  0.76374  Biso   1.000  H
  H490     1.0000 0.63150  0.16179  0.76374  Biso   1.000  H
  H491     1.0000 0.71471  0.25363  0.68707  Biso   1.000  H
  C877     1.0000 0.68025  0.12582  0.67279  Biso   1.000  C
  H492     1.0000 0.71475  0.25372  0.68707  Biso   1.000  H
  C878     1.0000 0.68022  0.12591  0.67279  Biso   1.000  C
  C879     1.0000 0.68030  0.12591  0.67279  Biso   1.000  C
  B51      1.0000 0.52299  0.98042  0.78195  Biso   1.000  B
  B52      1.0000 0.01958  0.54256  0.78195  Biso   1.000  B
  Cl128    1.0000 0.78518  0.51975  0.65805  Biso   1.000  Cl
  Cl129    1.0000 0.05057  0.68652  0.65516  Biso   1.000  Cl
  Cl130    1.0000 0.05061  0.68660  0.65516  Biso   1.000  Cl
  Cl131    1.0000 0.63599  0.94941  0.65516  Biso   1.000  Cl
  Cl132    1.0000 0.73460  0.21484  0.65805  Biso   1.000  Cl
  O122     1.0000 0.49538  0.87090  0.78866  Biso   1.000  O
  O123     1.0000 0.49542  0.87098  0.78866  Biso   1.000  O
  O124     1.0000 0.61078  0.06944  0.79107  Biso   1.000  O
  O125     1.0000 0.93057  0.54137  0.79107  Biso   1.000  O
  O126     1.0000 0.12909  0.62441  0.78866  Biso   1.000  O
  O127     1.0000 0.12906  0.62449  0.78866  Biso   1.000  O
  O128     1.0000 0.12913  0.62449  0.78866  Biso   1.000  O
  C880     1.0000 0.53157  0.89755  0.80259  Biso   1.000  C
  C881     1.0000 0.60322  0.01630  0.80392  Biso   1.000  C
  C882     1.0000 0.60327  0.01639  0.80392  Biso   1.000  C
  C883     1.0000 0.60330  0.01630  0.80392  Biso   1.000  C
  C884     1.0000 0.60334  0.01639  0.80392  Biso   1.000  C
  C885     1.0000 0.98367  0.58690  0.80392  Biso   1.000  C
  C886     1.0000 0.98371  0.58699  0.80392  Biso   1.000  C
  C887     1.0000 0.10247  0.63406  0.80259  Biso   1.000  C
  C888     1.0000 0.50714  0.82502  0.81398  Biso   1.000  C
  C889     1.0000 0.50721  0.82502  0.81398  Biso   1.000  C
  C890     1.0000 0.65319  0.06252  0.81678  Biso   1.000  C
  C891     1.0000 0.93746  0.59066  0.81678  Biso   1.000  C
  C892     1.0000 0.17498  0.68216  0.81398  Biso   1.000  C
  H493     1.0000 0.46106  0.74634  0.81294  Biso   1.000  H
  C893     1.0000 0.55441  0.87414  0.82720  Biso   1.000  C
  C894     1.0000 0.55434  0.87414  0.82720  Biso   1.000  C
  C895     1.0000 0.62810  0.99221  0.82855  Biso   1.000  C
  C896     1.0000 0.62802  0.99221  0.82855  Biso   1.000  C
  H494     1.0000 0.70348  0.14060  0.81764  Biso   1.000  H
  H495     1.0000 0.70352  0.14069  0.81764  Biso   1.000  H
  H496     1.0000 0.85931  0.56281  0.81764  Biso   1.000  H
  H497     1.0000 0.85936  0.56290  0.81764  Biso   1.000  H
  H498     1.0000 0.85939  0.56281  0.81764  Biso   1.000  H
  H499     1.0000 0.85943  0.56290  0.81764  Biso   1.000  H
  C897     1.0000 0.00778  0.63585  0.82855  Biso   1.000  C
  H500     1.0000 0.25363  0.71471  0.81294  Biso   1.000  H
  C898     1.0000 0.12583  0.68019  0.82720  Biso   1.000  C
  H501     1.0000 0.25367  0.71479  0.81294  Biso   1.000  H
  C899     1.0000 0.12587  0.68028  0.82720  Biso   1.000  C
  H502     1.0000 0.25370  0.71471  0.81294  Biso   1.000  H
  Cl133    1.0000 0.51974  0.78512  0.84194  Biso   1.000  Cl
  Cl134    1.0000 0.51979  0.78521  0.84194  Biso   1.000  Cl
  Cl135    1.0000 0.68657  0.05056  0.84485  Biso   1.000  Cl
  Cl136    1.0000 0.94937  0.63594  0.84485  Biso   1.000  Cl
  Cl137    1.0000 0.94941  0.63603  0.84485  Biso   1.000  Cl
  Cl138    1.0000 0.94944  0.63594  0.84485  Biso   1.000  Cl
  Cl139    1.0000 0.94949  0.63603  0.84485  Biso   1.000  Cl
  Cl140    1.0000 0.21485  0.73453  0.84194  Biso   1.000  Cl
  Cl141    1.0000 0.21482  0.73461  0.84194  Biso   1.000  Cl
  Cl142    1.0000 0.21489  0.73461  0.84194  Biso   1.000  Cl
  C900     1.0000 0.37195  0.36420  0.67145  Biso   1.000  C
  C901     1.0000 0.44562  0.31977  0.67279  Biso   1.000  C
  Cl143    1.0000 0.31341  0.36403  0.65516  Biso   1.000  Cl
  C902     1.0000 0.34678  0.40931  0.68322  Biso   1.000  C
  C903     1.0000 0.34682  0.40939  0.68322  Biso   1.000  C
  Cl144    1.0000 0.31349  0.36403  0.65516  Biso   1.000  Cl
  C904     1.0000 0.37190  0.36411  0.67145  Biso   1.000  C
  C905     1.0000 0.49280  0.31781  0.68603  Biso   1.000  C
  Cl145    1.0000 0.48031  0.26544  0.65805  Biso   1.000  Cl
  C906     1.0000 0.49285  0.31789  0.68603  Biso   1.000  C
  Cl146    1.0000 0.48023  0.26544  0.65805  Biso   1.000  Cl
  C907     1.0000 0.39675  0.41306  0.69608  Biso   1.000  C
  H503     1.0000 0.29649  0.43716  0.68237  Biso   1.000  H
  H504     1.0000 0.29656  0.43716  0.68237  Biso   1.000  H
  H505     1.0000 0.53890  0.28526  0.68707  Biso   1.000  H
  C908     1.0000 0.46839  0.36591  0.69742  Biso   1.000  C
  C909     1.0000 0.46844  0.36599  0.69742  Biso   1.000  C
  H506     1.0000 0.53897  0.28526  0.68707  Biso   1.000  H
  O129     1.0000 0.38918  0.45860  0.70893  Biso   1.000  O
  O130     1.0000 0.38923  0.45869  0.70893  Biso   1.000  O
  O131     1.0000 0.50466  0.37556  0.71134  Biso   1.000  O
  O132     1.0000 0.50459  0.37556  0.71134  Biso   1.000  O
  B53      1.0000 0.47700  0.45740  0.71805  Biso   1.000  B
  B54      1.0000 0.47704  0.45749  0.71805  Biso   1.000  B
  C910     1.0000 0.45812  0.44835  0.73472  Biso   1.000  C
  N130     1.0000 0.59665  0.58512  0.71508  Biso   1.000  N
  N131     1.0000 0.59662  0.58521  0.71508  Biso   1.000  N
  N132     1.0000 0.59669  0.58521  0.71508  Biso   1.000  N
  C911     1.0000 0.40350  0.49892  0.74172  Biso   1.000  C
  C912     1.0000 0.50440  0.39931  0.74346  Biso   1.000  C
  C913     1.0000 0.40354  0.49901  0.74172  Biso   1.000  C
  C914     1.0000 0.50445  0.39940  0.74346  Biso   1.000  C
  C915     1.0000 0.59369  0.68235  0.71406  Biso   1.000  C
  C916     1.0000 0.69729  0.59093  0.71498  Biso   1.000  C
  C917     1.0000 0.59376  0.68235  0.71406  Biso   1.000  C
  C918     1.0000 0.69736  0.59093  0.71498  Biso   1.000  C
  H507     1.0000 0.36850  0.53028  0.73627  Biso   1.000  H
  C919     1.0000 0.39935  0.50439  0.75655  Biso   1.000  C
  H508     1.0000 0.36857  0.53028  0.73627  Biso   1.000  H
  C920     1.0000 0.39940  0.50448  0.75655  Biso   1.000  C
  H509     1.0000 0.54010  0.36283  0.73926  Biso   1.000  H
  C921     1.0000 0.49895  0.40350  0.75828  Biso   1.000  C
  C922     1.0000 0.49899  0.40358  0.75828  Biso   1.000  C
  C923     1.0000 0.69045  0.78709  0.71281  Biso   1.000  C
  H510     1.0000 0.52324  0.67876  0.71416  Biso   1.000  H
  H511     1.0000 0.69997  0.52378  0.71576  Biso   1.000  H
  C924     1.0000 0.79733  0.69217  0.71381  Biso   1.000  C
  H512     1.0000 0.36283  0.54010  0.76073  Biso   1.000  H
  C925     1.0000 0.44834  0.45809  0.76527  Biso   1.000  C
  C926     1.0000 0.44838  0.45817  0.76527  Biso   1.000  C
  H513     1.0000 0.53027  0.36847  0.76374  Biso   1.000  H
  H514     1.0000 0.53024  0.36855  0.76374  Biso   1.000  H
  H515     1.0000 0.53031  0.36855  0.76374  Biso   1.000  H
  H516     1.0000 0.68543  0.85295  0.71196  Biso   1.000  H
  C927     1.0000 0.79641  0.79332  0.71281  Biso   1.000  C
  C928     1.0000 0.79645  0.79341  0.71281  Biso   1.000  C
  H517     1.0000 0.86643  0.69277  0.71367  Biso   1.000  H
  B55      1.0000 0.45741  0.47697  0.78195  Biso   1.000  B
  B56      1.0000 0.45745  0.47705  0.78195  Biso   1.000  B
  C929     1.0000 0.90482  0.90404  0.71210  Biso   1.000  C
  O133     1.0000 0.45867  0.38923  0.79107  Biso   1.000  O
  O134     1.0000 0.37559  0.50465  0.78866  Biso   1.000  O
  N133     1.0000 0.58513  0.59657  0.78493  Biso   1.000  N
  N134     1.0000 0.58517  0.59666  0.78493  Biso   1.000  N
  N135     1.0000 0.89842  0.99913  0.71208  Biso   1.000  N
  N136     1.0000 0.89847  0.99921  0.71208  Biso   1.000  N
  N137     1.0000 0.00083  0.89926  0.71208  Biso   1.000  N
  C930     1.0000 0.41308  0.39675  0.80392  Biso   1.000  C
  C931     1.0000 0.36598  0.46842  0.80259  Biso   1.000  C
  C932     1.0000 0.59095  0.69730  0.78502  Biso   1.000  C
  C933     1.0000 0.68235  0.59375  0.78595  Biso   1.000  C
  C934     1.0000 0.59100  0.69738  0.78502  Biso   1.000  C
  C935     1.0000 0.68230  0.59367  0.78595  Biso   1.000  C
  C936     1.0000 0.68238  0.59367  0.78595  Biso   1.000  C
  C937     1.0000 0.99919  0.09515  0.71210  Biso   1.000  C
  C938     1.0000 0.99926  0.09515  0.71210  Biso   1.000  C
  C939     1.0000 0.09589  0.00075  0.71210  Biso   1.000  C
  C940     1.0000 0.09597  0.00075  0.71210  Biso   1.000  C
  C941     1.0000 0.40933  0.34677  0.81678  Biso   1.000  C
  C942     1.0000 0.40937  0.34685  0.81678  Biso   1.000  C
  C943     1.0000 0.31786  0.49277  0.81398  Biso   1.000  C
  C944     1.0000 0.31790  0.49286  0.81398  Biso   1.000  C
  H518     1.0000 0.52377  0.69995  0.78423  Biso   1.000  H
  C945     1.0000 0.69217  0.79734  0.78620  Biso   1.000  C
  C946     1.0000 0.78704  0.69038  0.78719  Biso   1.000  C
  H519     1.0000 0.67873  0.52319  0.78583  Biso   1.000  H
  C947     1.0000 0.78708  0.69046  0.78719  Biso   1.000  C
  H520     1.0000 0.67877  0.52327  0.78583  Biso   1.000  H
  C948     1.0000 0.99695  0.20357  0.71281  Biso   1.000  C
  N138     1.0000 0.10072  0.10156  0.71208  Biso   1.000  N
  C949     1.0000 0.20662  0.00306  0.71281  Biso   1.000  C
  H521     1.0000 0.43718  0.29653  0.81764  Biso   1.000  H
  C950     1.0000 0.36410  0.37189  0.82855  Biso   1.000  C
  C951     1.0000 0.36414  0.37197  0.82855  Biso   1.000  C
  C952     1.0000 0.36418  0.37189  0.82855  Biso   1.000  C
  C953     1.0000 0.36422  0.37197  0.82855  Biso   1.000  C
  H522     1.0000 0.28521  0.53891  0.81294  Biso   1.000  H
  C954     1.0000 0.31973  0.44561  0.82720  Biso   1.000  C
  H523     1.0000 0.28529  0.53891  0.81294  Biso   1.000  H
  H524     1.0000 0.69277  0.86645  0.78633  Biso   1.000  H
  C955     1.0000 0.79336  0.79640  0.78719  Biso   1.000  C
  C956     1.0000 0.79340  0.79648  0.78719  Biso   1.000  C
  H525     1.0000 0.85300  0.68542  0.78803  Biso   1.000  H
  H526     1.0000 0.85292  0.68542  0.78803  Biso   1.000  H
  C957     1.0000 0.89482  0.20263  0.71381  Biso   1.000  C
  C958     1.0000 0.89486  0.20271  0.71381  Biso   1.000  C
  C959     1.0000 0.09664  0.30959  0.71281  Biso   1.000  C
  C960     1.0000 0.21293  0.90336  0.71281  Biso   1.000  C
  C961     1.0000 0.30783  0.10515  0.71381  Biso   1.000  C
  Cl147    1.0000 0.36404  0.31345  0.84485  Biso   1.000  Cl
  Cl148    1.0000 0.26541  0.48021  0.84194  Biso   1.000  Cl
  Cl149    1.0000 0.26545  0.48030  0.84194  Biso   1.000  Cl
  C962     1.0000 0.90402  0.90481  0.78789  Biso   1.000  C
  C963     1.0000 0.90409  0.90481  0.78789  Biso   1.000  C
  C964     1.0000 0.89364  0.30267  0.71498  Biso   1.000  C
  H527     1.0000 0.82630  0.13351  0.71367  Biso   1.000  H
  H528     1.0000 0.82634  0.13360  0.71367  Biso   1.000  H
  H529     1.0000 0.16756  0.31454  0.71196  Biso   1.000  H
  C965     1.0000 0.08862  0.40630  0.71406  Biso   1.000  C
  H530     1.0000 0.16748  0.31454  0.71196  Biso   1.000  H
  C966     1.0000 0.08869  0.40630  0.71406  Biso   1.000  C
  H531     1.0000 0.14706  0.83245  0.71196  Biso   1.000  H
  C967     1.0000 0.31764  0.91139  0.71406  Biso   1.000  C
  H532     1.0000 0.14699  0.83245  0.71196  Biso   1.000  H
  C968     1.0000 0.40905  0.10635  0.71498  Biso   1.000  C
  H533     1.0000 0.30724  0.17367  0.71367  Biso   1.000  H
  N139     1.0000 0.99914  0.89840  0.78791  Biso   1.000  N
  N140     1.0000 0.89928  0.00084  0.78791  Biso   1.000  N
  N141     1.0000 0.98854  0.40339  0.71508  Biso   1.000  N
  H534     1.0000 0.82380  0.30002  0.71576  Biso   1.000  H
  H535     1.0000 0.82385  0.30011  0.71576  Biso   1.000  H
  H536     1.0000 0.15553  0.47678  0.71416  Biso   1.000  H
  H537     1.0000 0.32121  0.84441  0.71416  Biso   1.000  H
  H538     1.0000 0.32126  0.84450  0.71416  Biso   1.000  H
  N142     1.0000 0.41479  0.01143  0.71508  Biso   1.000  N
  N143     1.0000 0.41483  0.01152  0.71508  Biso   1.000  N
  N144     1.0000 0.41486  0.01143  0.71508  Biso   1.000  N
  N145     1.0000 0.41490  0.01152  0.71508  Biso   1.000  N
  H539     1.0000 0.47620  0.17614  0.71576  Biso   1.000  H
  H540     1.0000 0.47628  0.17614  0.71576  Biso   1.000  H
  C969     1.0000 0.09512  0.99921  0.78789  Biso   1.000  C
  C970     1.0000 0.09520  0.99921  0.78789  Biso   1.000  C
  C971     1.0000 0.00076  0.09592  0.78789  Biso   1.000  C
  B57      1.0000 0.98042  0.52300  0.71805  Biso   1.000  B
  B58      1.0000 0.54255  0.01955  0.71805  Biso   1.000  B
  C972     1.0000 0.20354  0.99691  0.78719  Biso   1.000  C
  N146     1.0000 0.10155  0.10071  0.78791  Biso   1.000  N
  C973     1.0000 0.00307  0.20664  0.78719  Biso   1.000  C
  C974     1.0000 0.99024  0.54188  0.73472  Biso   1.000  C
  O135     1.0000 0.87092  0.49532  0.71134  Biso   1.000  O
  O136     1.0000 0.87096  0.49540  0.71134  Biso   1.000  O
  O137     1.0000 0.06943  0.61074  0.70893  Biso   1.000  O
  O138     1.0000 0.06947  0.61082  0.70893  Biso   1.000  O
  O139     1.0000 0.54132  0.93053  0.70893  Biso   1.000  O
  O140     1.0000 0.54136  0.93061  0.70893  Biso   1.000  O
  C975     1.0000 0.55162  0.00972  0.73472  Biso   1.000  C
  O141     1.0000 0.62446  0.12907  0.71134  Biso   1.000  O
  C976     1.0000 0.55166  0.00981  0.73472  Biso   1.000  C
  C977     1.0000 0.20266  0.89482  0.78620  Biso   1.000  C
  C978     1.0000 0.30955  0.09661  0.78719  Biso   1.000  C
  C979     1.0000 0.30959  0.09669  0.78719  Biso   1.000  C
  C980     1.0000 0.90335  0.21288  0.78719  Biso   1.000  C
  C981     1.0000 0.90339  0.21297  0.78719  Biso   1.000  C
  C982     1.0000 0.10514  0.30779  0.78620  Biso   1.000  C
  C983     1.0000 0.10518  0.30788  0.78620  Biso   1.000  C
  C984     1.0000 0.89495  0.49557  0.74346  Biso   1.000  C
  C985     1.0000 0.09544  0.59647  0.74172  Biso   1.000  C
  C986     1.0000 0.89754  0.53154  0.69742  Biso   1.000  C
  C987     1.0000 0.89758  0.53163  0.69742  Biso   1.000  C
  C988     1.0000 0.01632  0.60322  0.69608  Biso   1.000  C
  C989     1.0000 0.01636  0.60330  0.69608  Biso   1.000  C
  C990     1.0000 0.58691  0.98367  0.69608  Biso   1.000  C
  C991     1.0000 0.58698  0.98367  0.69608  Biso   1.000  C
  C992     1.0000 0.50103  0.90456  0.74172  Biso   1.000  C
  C993     1.0000 0.60062  0.10506  0.74346  Biso   1.000  C
  C994     1.0000 0.63400  0.10242  0.69742  Biso   1.000  C
  C995     1.0000 0.63404  0.10250  0.69742  Biso   1.000  C
  C996     1.0000 0.30268  0.89362  0.78502  Biso   1.000  C
  H541     1.0000 0.13356  0.82630  0.78633  Biso   1.000  H
  H542     1.0000 0.13360  0.82638  0.78633  Biso   1.000  H
  H543     1.0000 0.31460  0.16752  0.78803  Biso   1.000  H
  C997     1.0000 0.40623  0.08858  0.78595  Biso   1.000  C
  H544     1.0000 0.31452  0.16752  0.78803  Biso   1.000  H
  C998     1.0000 0.40627  0.08866  0.78595  Biso   1.000  C
  H545     1.0000 0.83246  0.14701  0.78803  Biso   1.000  H
  C999     1.0000 0.91133  0.31762  0.78595  Biso   1.000  C
  C1000    1.0000 0.91140  0.31762  0.78595  Biso   1.000  C
  C1001    1.0000 0.10634  0.40903  0.78502  Biso   1.000  C
  H546     1.0000 0.17365  0.30720  0.78633  Biso   1.000  H
  H547     1.0000 0.17369  0.30728  0.78633  Biso   1.000  H
  C1002    1.0000 0.10641  0.40903  0.78502  Biso   1.000  C
  C1003    1.0000 0.90456  0.50104  0.75828  Biso   1.000  C
  H548     1.0000 0.82271  0.45986  0.73926  Biso   1.000  H
  H549     1.0000 0.16178  0.63150  0.73627  Biso   1.000  H
  C1004    1.0000 0.10508  0.60066  0.75655  Biso   1.000  C
  H550     1.0000 0.16171  0.63150  0.73627  Biso   1.000  H
  C1005    1.0000 0.82507  0.50719  0.68603  Biso   1.000  C
  C1006    1.0000 0.06254  0.65320  0.68322  Biso   1.000  C
  C1007    1.0000 0.59065  0.93745  0.68322  Biso   1.000  C
  H551     1.0000 0.46974  0.83826  0.73627  Biso   1.000  H
  C1008    1.0000 0.49554  0.89490  0.75655  Biso   1.000  C
  C1009    1.0000 0.49558  0.89499  0.75655  Biso   1.000  C
  C1010    1.0000 0.59646  0.09541  0.75828  Biso   1.000  C
  H552     1.0000 0.63716  0.17725  0.73926  Biso   1.000  H
  C1011    1.0000 0.68210  0.17495  0.68603  Biso   1.000  C
  C1012    1.0000 0.68218  0.17495  0.68603  Biso   1.000  C
  N147     1.0000 0.40334  0.98854  0.78493  Biso   1.000  N
  H553     1.0000 0.30004  0.82382  0.78423  Biso   1.000  H
  N148     1.0000 0.40341  0.98854  0.78493  Biso   1.000  N
  H554     1.0000 0.30012  0.82382  0.78423  Biso   1.000  H
  H555     1.0000 0.47679  0.15555  0.78583  Biso   1.000  H
  H556     1.0000 0.84446  0.32121  0.78583  Biso   1.000  H
  H557     1.0000 0.84450  0.32129  0.78583  Biso   1.000  H
  N149     1.0000 0.01150  0.41484  0.78493  Biso   1.000  N
  N150     1.0000 0.01143  0.41484  0.78493  Biso   1.000  N
  H558     1.0000 0.17616  0.47618  0.78423  Biso   1.000  H
  H559     1.0000 0.17621  0.47627  0.78423  Biso   1.000  H
  H560     1.0000 0.83820  0.46969  0.76374  Biso   1.000  H
  H561     1.0000 0.83825  0.46977  0.76374  Biso   1.000  H
  H562     1.0000 0.83828  0.46969  0.76374  Biso   1.000  H
  H563     1.0000 0.83832  0.46977  0.76374  Biso   1.000  H
  C1013    1.0000 0.00975  0.55162  0.76527  Biso   1.000  C
  H564     1.0000 0.17725  0.63714  0.76073  Biso   1.000  H
  H565     1.0000 0.74629  0.46106  0.68707  Biso   1.000  H
  C1014    1.0000 0.87410  0.55435  0.67279  Biso   1.000  C
  H566     1.0000 0.74636  0.46106  0.68707  Biso   1.000  H
  C1015    1.0000 0.99220  0.62808  0.67145  Biso   1.000  C
  C1016    1.0000 0.99227  0.62808  0.67145  Biso   1.000  C
  H567     1.0000 0.14063  0.70343  0.68237  Biso   1.000  H
  H568     1.0000 0.14068  0.70352  0.68237  Biso   1.000  H
  H569     1.0000 0.56286  0.85936  0.68237  Biso   1.000  H
  C1017    1.0000 0.63587  0.00776  0.67145  Biso   1.000  C
  C1018    1.0000 0.63580  0.00776  0.67145  Biso   1.000  C
  C1019    1.0000 0.54188  0.99024  0.76527  Biso   1.000  C
  H570     1.0000 0.45989  0.82271  0.76073  Biso   1.000  H
  H571     1.0000 0.63146  0.16171  0.76374  Biso   1.000  H
  H572     1.0000 0.63150  0.16179  0.76374  Biso   1.000  H
  H573     1.0000 0.71471  0.25363  0.68707  Biso   1.000  H
  C1020    1.0000 0.68025  0.12582  0.67279  Biso   1.000  C
  H574     1.0000 0.71475  0.25372  0.68707  Biso   1.000  H
  C1021    1.0000 0.68022  0.12591  0.67279  Biso   1.000  C
  C1022    1.0000 0.68030  0.12591  0.67279  Biso   1.000  C
  B59      1.0000 0.52299  0.98042  0.78195  Biso   1.000  B
  B60      1.0000 0.01958  0.54256  0.78195  Biso   1.000  B
  Cl150    1.0000 0.78518  0.51975  0.65805  Biso   1.000  Cl
  Cl151    1.0000 0.05057  0.68652  0.65516  Biso   1.000  Cl
  Cl152    1.0000 0.05061  0.68660  0.65516  Biso   1.000  Cl
  Cl153    1.0000 0.63599  0.94941  0.65516  Biso   1.000  Cl
  Cl154    1.0000 0.73460  0.21484  0.65805  Biso   1.000  Cl
  O142     1.0000 0.49538  0.87090  0.78866  Biso   1.000  O
  O143     1.0000 0.49542  0.87098  0.78866  Biso   1.000  O
  O144     1.0000 0.61078  0.06944  0.79107  Biso   1.000  O
  O145     1.0000 0.93057  0.54137  0.79107  Biso   1.000  O
  O146     1.0000 0.12909  0.62441  0.78866  Biso   1.000  O
  O147     1.0000 0.12906  0.62449  0.78866  Biso   1.000  O
  O148     1.0000 0.12913  0.62449  0.78866  Biso   1.000  O
  C1023    1.0000 0.53157  0.89755  0.80259  Biso   1.000  C
  C1024    1.0000 0.60322  0.01630  0.80392  Biso   1.000  C
  C1025    1.0000 0.60327  0.01639  0.80392  Biso   1.000  C
  C1026    1.0000 0.60330  0.01630  0.80392  Biso   1.000  C
  C1027    1.0000 0.60334  0.01639  0.80392  Biso   1.000  C
  C1028    1.0000 0.98367  0.58690  0.80392  Biso   1.000  C
  C1029    1.0000 0.98371  0.58699  0.80392  Biso   1.000  C
  C1030    1.0000 0.10247  0.63406  0.80259  Biso   1.000  C
  C1031    1.0000 0.50714  0.82502  0.81398  Biso   1.000  C
  C1032    1.0000 0.50721  0.82502  0.81398  Biso   1.000  C
  C1033    1.0000 0.65319  0.06252  0.81678  Biso   1.000  C
  C1034    1.0000 0.93746  0.59066  0.81678  Biso   1.000  C
  C1035    1.0000 0.17498  0.68216  0.81398  Biso   1.000  C
  H575     1.0000 0.46106  0.74634  0.81294  Biso   1.000  H
  C1036    1.0000 0.55441  0.87414  0.82720  Biso   1.000  C
  C1037    1.0000 0.55434  0.87414  0.82720  Biso   1.000  C
  C1038    1.0000 0.62810  0.99221  0.82855  Biso   1.000  C
  C1039    1.0000 0.62802  0.99221  0.82855  Biso   1.000  C
  H576     1.0000 0.70348  0.14060  0.81764  Biso   1.000  H
  H577     1.0000 0.70352  0.14069  0.81764  Biso   1.000  H
  H578     1.0000 0.85931  0.56281  0.81764  Biso   1.000  H
  H579     1.0000 0.85936  0.56290  0.81764  Biso   1.000  H
  H580     1.0000 0.85939  0.56281  0.81764  Biso   1.000  H
  H581     1.0000 0.85943  0.56290  0.81764  Biso   1.000  H
  C1040    1.0000 0.00778  0.63585  0.82855  Biso   1.000  C
  H582     1.0000 0.25363  0.71471  0.81294  Biso   1.000  H
  C1041    1.0000 0.12583  0.68019  0.82720  Biso   1.000  C
  H583     1.0000 0.25367  0.71479  0.81294  Biso   1.000  H
  C1042    1.0000 0.12587  0.68028  0.82720  Biso   1.000  C
  H584     1.0000 0.25370  0.71471  0.81294  Biso   1.000  H
  Cl155    1.0000 0.51974  0.78512  0.84194  Biso   1.000  Cl
  Cl156    1.0000 0.51979  0.78521  0.84194  Biso   1.000  Cl
  Cl157    1.0000 0.68657  0.05056  0.84485  Biso   1.000  Cl
  Cl158    1.0000 0.94937  0.63594  0.84485  Biso   1.000  Cl
  Cl159    1.0000 0.94941  0.63603  0.84485  Biso   1.000  Cl
  Cl160    1.0000 0.94944  0.63594  0.84485  Biso   1.000  Cl
  Cl161    1.0000 0.94949  0.63603  0.84485  Biso   1.000  Cl
  Cl162    1.0000 0.21485  0.73453  0.84194  Biso   1.000  Cl
  Cl163    1.0000 0.21482  0.73461  0.84194  Biso   1.000  Cl
  Cl164    1.0000 0.21489  0.73461  0.84194  Biso   1.000  Cl
  C1043    1.0000 0.37195  0.36420  0.67145  Biso   1.000  C
  C1044    1.0000 0.44562  0.31977  0.67279  Biso   1.000  C
  C1045    1.0000 0.34678  0.40931  0.68322  Biso   1.000  C
  Cl165    1.0000 0.31341  0.36403  0.65516  Biso   1.000  Cl
  C1046    1.0000 0.34682  0.40939  0.68322  Biso   1.000  C
  Cl166    1.0000 0.31349  0.36403  0.65516  Biso   1.000  Cl
  Cl167    1.0000 0.48031  0.26544  0.65805  Biso   1.000  Cl
  C1047    1.0000 0.49280  0.31781  0.68603  Biso   1.000  C
  C1048    1.0000 0.37190  0.36411  0.67145  Biso   1.000  C
  C1049    1.0000 0.49285  0.31789  0.68603  Biso   1.000  C
  Cl168    1.0000 0.48023  0.26544  0.65805  Biso   1.000  Cl
  C1050    1.0000 0.39675  0.41306  0.69608  Biso   1.000  C
  H585     1.0000 0.29649  0.43716  0.68237  Biso   1.000  H
  H586     1.0000 0.29656  0.43716  0.68237  Biso   1.000  H
  H587     1.0000 0.53890  0.28526  0.68707  Biso   1.000  H
  C1051    1.0000 0.46839  0.36591  0.69742  Biso   1.000  C
  C1052    1.0000 0.46844  0.36599  0.69742  Biso   1.000  C
  H588     1.0000 0.53897  0.28526  0.68707  Biso   1.000  H
  O149     1.0000 0.38918  0.45860  0.70893  Biso   1.000  O
  O150     1.0000 0.38923  0.45869  0.70893  Biso   1.000  O
  O151     1.0000 0.50466  0.37556  0.71134  Biso   1.000  O
  O152     1.0000 0.50459  0.37556  0.71134  Biso   1.000  O
  B61      1.0000 0.47700  0.45740  0.71805  Biso   1.000  B
  B62      1.0000 0.47704  0.45749  0.71805  Biso   1.000  B
  C1053    1.0000 0.45812  0.44835  0.73472  Biso   1.000  C
  N151     1.0000 0.59665  0.58512  0.71508  Biso   1.000  N
  N152     1.0000 0.59662  0.58521  0.71508  Biso   1.000  N
  N153     1.0000 0.59669  0.58521  0.71508  Biso   1.000  N
  C1054    1.0000 0.40350  0.49892  0.74172  Biso   1.000  C
  C1055    1.0000 0.50440  0.39931  0.74346  Biso   1.000  C
  C1056    1.0000 0.40354  0.49901  0.74172  Biso   1.000  C
  C1057    1.0000 0.50445  0.39940  0.74346  Biso   1.000  C
  C1058    1.0000 0.69729  0.59093  0.71498  Biso   1.000  C
  C1059    1.0000 0.59369  0.68235  0.71406  Biso   1.000  C
  C1060    1.0000 0.59376  0.68235  0.71406  Biso   1.000  C
  C1061    1.0000 0.69736  0.59093  0.71498  Biso   1.000  C
  H589     1.0000 0.36850  0.53028  0.73627  Biso   1.000  H
  C1062    1.0000 0.39935  0.50439  0.75655  Biso   1.000  C
  C1063    1.0000 0.39940  0.50448  0.75655  Biso   1.000  C
  H590     1.0000 0.36857  0.53028  0.73627  Biso   1.000  H
  H591     1.0000 0.54010  0.36283  0.73926  Biso   1.000  H
  C1064    1.0000 0.49895  0.40350  0.75828  Biso   1.000  C
  C1065    1.0000 0.49899  0.40358  0.75828  Biso   1.000  C
  H592     1.0000 0.69997  0.52378  0.71576  Biso   1.000  H
  C1066    1.0000 0.79733  0.69217  0.71381  Biso   1.000  C
  C1067    1.0000 0.69045  0.78709  0.71281  Biso   1.000  C
  H593     1.0000 0.52324  0.67876  0.71416  Biso   1.000  H
  H594     1.0000 0.36283  0.54010  0.76073  Biso   1.000  H
  C1068    1.0000 0.44834  0.45809  0.76527  Biso   1.000  C
  C1069    1.0000 0.44838  0.45817  0.76527  Biso   1.000  C
  H595     1.0000 0.53027  0.36847  0.76374  Biso   1.000  H
  H596     1.0000 0.53024  0.36855  0.76374  Biso   1.000  H
  H597     1.0000 0.53031  0.36855  0.76374  Biso   1.000  H
  H598     1.0000 0.86643  0.69277  0.71367  Biso   1.000  H
  C1070    1.0000 0.79641  0.79332  0.71281  Biso   1.000  C
  C1071    1.0000 0.79645  0.79341  0.71281  Biso   1.000  C
  H599     1.0000 0.68543  0.85295  0.71196  Biso   1.000  H
  B63      1.0000 0.45741  0.47697  0.78195  Biso   1.000  B
  B64      1.0000 0.45745  0.47705  0.78195  Biso   1.000  B
  C1072    1.0000 0.90482  0.90404  0.71210  Biso   1.000  C
  O153     1.0000 0.45867  0.38923  0.79107  Biso   1.000  O
  O154     1.0000 0.37559  0.50465  0.78866  Biso   1.000  O
  N154     1.0000 0.58513  0.59657  0.78493  Biso   1.000  N
  N155     1.0000 0.58517  0.59666  0.78493  Biso   1.000  N
  N156     1.0000 0.89842  0.99913  0.71208  Biso   1.000  N
  N157     1.0000 0.89847  0.99921  0.71208  Biso   1.000  N
  N158     1.0000 0.00083  0.89926  0.71208  Biso   1.000  N
  C1073    1.0000 0.41308  0.39675  0.80392  Biso   1.000  C
  C1074    1.0000 0.36598  0.46842  0.80259  Biso   1.000  C
  C1075    1.0000 0.68230  0.59367  0.78595  Biso   1.000  C
  C1076    1.0000 0.59095  0.69730  0.78502  Biso   1.000  C
  C1077    1.0000 0.68235  0.59375  0.78595  Biso   1.000  C
  C1078    1.0000 0.59100  0.69738  0.78502  Biso   1.000  C
  C1079    1.0000 0.68238  0.59367  0.78595  Biso   1.000  C
  C1080    1.0000 0.99919  0.09515  0.71210  Biso   1.000  C
  C1081    1.0000 0.99926  0.09515  0.71210  Biso   1.000  C
  C1082    1.0000 0.09589  0.00075  0.71210  Biso   1.000  C
  C1083    1.0000 0.09597  0.00075  0.71210  Biso   1.000  C
  C1084    1.0000 0.40933  0.34677  0.81678  Biso   1.000  C
  C1085    1.0000 0.40937  0.34685  0.81678  Biso   1.000  C
  C1086    1.0000 0.31786  0.49277  0.81398  Biso   1.000  C
  C1087    1.0000 0.31790  0.49286  0.81398  Biso   1.000  C
  C1088    1.0000 0.78704  0.69038  0.78719  Biso   1.000  C
  H600     1.0000 0.67873  0.52319  0.78583  Biso   1.000  H
  C1089    1.0000 0.78708  0.69046  0.78719  Biso   1.000  C
  H601     1.0000 0.67877  0.52327  0.78583  Biso   1.000  H
  H602     1.0000 0.52377  0.69995  0.78423  Biso   1.000  H
  C1090    1.0000 0.69217  0.79734  0.78620  Biso   1.000  C
  C1091    1.0000 0.99695  0.20357  0.71281  Biso   1.000  C
  N159     1.0000 0.10072  0.10156  0.71208  Biso   1.000  N
  C1092    1.0000 0.20662  0.00306  0.71281  Biso   1.000  C
  H603     1.0000 0.43718  0.29653  0.81764  Biso   1.000  H
  C1093    1.0000 0.36410  0.37189  0.82855  Biso   1.000  C
  C1094    1.0000 0.36414  0.37197  0.82855  Biso   1.000  C
  C1095    1.0000 0.36418  0.37189  0.82855  Biso   1.000  C
  C1096    1.0000 0.36422  0.37197  0.82855  Biso   1.000  C
  C1097    1.0000 0.31973  0.44561  0.82720  Biso   1.000  C
  H604     1.0000 0.28521  0.53891  0.81294  Biso   1.000  H
  H605     1.0000 0.28529  0.53891  0.81294  Biso   1.000  H
  H606     1.0000 0.85300  0.68542  0.78803  Biso   1.000  H
  C1098    1.0000 0.79336  0.79640  0.78719  Biso   1.000  C
  C1099    1.0000 0.79340  0.79648  0.78719  Biso   1.000  C
  H607     1.0000 0.85292  0.68542  0.78803  Biso   1.000  H
  H608     1.0000 0.69277  0.86645  0.78633  Biso   1.000  H
  C1100    1.0000 0.89482  0.20263  0.71381  Biso   1.000  C
  C1101    1.0000 0.89486  0.20271  0.71381  Biso   1.000  C
  C1102    1.0000 0.09664  0.30959  0.71281  Biso   1.000  C
  C1103    1.0000 0.21293  0.90336  0.71281  Biso   1.000  C
  C1104    1.0000 0.30783  0.10515  0.71381  Biso   1.000  C
  Cl169    1.0000 0.36404  0.31345  0.84485  Biso   1.000  Cl
  Cl170    1.0000 0.26541  0.48021  0.84194  Biso   1.000  Cl
  Cl171    1.0000 0.26545  0.48030  0.84194  Biso   1.000  Cl
  C1105    1.0000 0.90402  0.90481  0.78789  Biso   1.000  C
  C1106    1.0000 0.90409  0.90481  0.78789  Biso   1.000  C
  C1107    1.0000 0.89364  0.30267  0.71498  Biso   1.000  C
  H609     1.0000 0.82630  0.13351  0.71367  Biso   1.000  H
  H610     1.0000 0.82634  0.13360  0.71367  Biso   1.000  H
  H611     1.0000 0.16756  0.31454  0.71196  Biso   1.000  H
  C1108    1.0000 0.08862  0.40630  0.71406  Biso   1.000  C
  H612     1.0000 0.16748  0.31454  0.71196  Biso   1.000  H
  C1109    1.0000 0.08869  0.40630  0.71406  Biso   1.000  C
  H613     1.0000 0.14706  0.83245  0.71196  Biso   1.000  H
  C1110    1.0000 0.31764  0.91139  0.71406  Biso   1.000  C
  H614     1.0000 0.14699  0.83245  0.71196  Biso   1.000  H
  C1111    1.0000 0.40905  0.10635  0.71498  Biso   1.000  C
  H615     1.0000 0.30724  0.17367  0.71367  Biso   1.000  H
  N160     1.0000 0.99914  0.89840  0.78791  Biso   1.000  N
  N161     1.0000 0.89928  0.00084  0.78791  Biso   1.000  N
  N162     1.0000 0.98854  0.40339  0.71508  Biso   1.000  N
  H616     1.0000 0.82380  0.30002  0.71576  Biso   1.000  H
  H617     1.0000 0.82385  0.30011  0.71576  Biso   1.000  H
  H618     1.0000 0.15553  0.47678  0.71416  Biso   1.000  H
  H619     1.0000 0.32121  0.84441  0.71416  Biso   1.000  H
  H620     1.0000 0.32126  0.84450  0.71416  Biso   1.000  H
  N163     1.0000 0.41479  0.01143  0.71508  Biso   1.000  N
  N164     1.0000 0.41483  0.01152  0.71508  Biso   1.000  N
  N165     1.0000 0.41486  0.01143  0.71508  Biso   1.000  N
  N166     1.0000 0.41490  0.01152  0.71508  Biso   1.000  N
  H621     1.0000 0.47620  0.17614  0.71576  Biso   1.000  H
  H622     1.0000 0.47628  0.17614  0.71576  Biso   1.000  H
  C1112    1.0000 0.09512  0.99921  0.78789  Biso   1.000  C
  C1113    1.0000 0.09520  0.99921  0.78789  Biso   1.000  C
  C1114    1.0000 0.00076  0.09592  0.78789  Biso   1.000  C
  B65      1.0000 0.98042  0.52300  0.71805  Biso   1.000  B
  B66      1.0000 0.54255  0.01955  0.71805  Biso   1.000  B
  C1115    1.0000 0.20354  0.99691  0.78719  Biso   1.000  C
  N167     1.0000 0.10155  0.10071  0.78791  Biso   1.000  N
  C1116    1.0000 0.00307  0.20664  0.78719  Biso   1.000  C
  C1117    1.0000 0.99024  0.54188  0.73472  Biso   1.000  C
  O155     1.0000 0.87092  0.49532  0.71134  Biso   1.000  O
  O156     1.0000 0.87096  0.49540  0.71134  Biso   1.000  O
  O157     1.0000 0.06943  0.61074  0.70893  Biso   1.000  O
  O158     1.0000 0.06947  0.61082  0.70893  Biso   1.000  O
  O159     1.0000 0.54132  0.93053  0.70893  Biso   1.000  O
  O160     1.0000 0.54136  0.93061  0.70893  Biso   1.000  O
  C1118    1.0000 0.55162  0.00972  0.73472  Biso   1.000  C
  O161     1.0000 0.62446  0.12907  0.71134  Biso   1.000  O
  C1119    1.0000 0.55166  0.00981  0.73472  Biso   1.000  C
  C1120    1.0000 0.20266  0.89482  0.78620  Biso   1.000  C
  C1121    1.0000 0.30955  0.09661  0.78719  Biso   1.000  C
  C1122    1.0000 0.30959  0.09669  0.78719  Biso   1.000  C
  C1123    1.0000 0.90335  0.21288  0.78719  Biso   1.000  C
  C1124    1.0000 0.90339  0.21297  0.78719  Biso   1.000  C
  C1125    1.0000 0.10514  0.30779  0.78620  Biso   1.000  C
  C1126    1.0000 0.10518  0.30788  0.78620  Biso   1.000  C
  C1127    1.0000 0.89495  0.49557  0.74346  Biso   1.000  C
  C1128    1.0000 0.09544  0.59647  0.74172  Biso   1.000  C
  C1129    1.0000 0.89754  0.53154  0.69742  Biso   1.000  C
  C1130    1.0000 0.89758  0.53163  0.69742  Biso   1.000  C
  C1131    1.0000 0.01632  0.60322  0.69608  Biso   1.000  C
  C1132    1.0000 0.01636  0.60330  0.69608  Biso   1.000  C
  C1133    1.0000 0.58691  0.98367  0.69608  Biso   1.000  C
  C1134    1.0000 0.58698  0.98367  0.69608  Biso   1.000  C
  C1135    1.0000 0.50103  0.90456  0.74172  Biso   1.000  C
  C1136    1.0000 0.60062  0.10506  0.74346  Biso   1.000  C
  C1137    1.0000 0.63400  0.10242  0.69742  Biso   1.000  C
  C1138    1.0000 0.63404  0.10250  0.69742  Biso   1.000  C
  C1139    1.0000 0.30268  0.89362  0.78502  Biso   1.000  C
  H623     1.0000 0.13356  0.82630  0.78633  Biso   1.000  H
  H624     1.0000 0.13360  0.82638  0.78633  Biso   1.000  H
  H625     1.0000 0.31460  0.16752  0.78803  Biso   1.000  H
  C1140    1.0000 0.40623  0.08858  0.78595  Biso   1.000  C
  H626     1.0000 0.31452  0.16752  0.78803  Biso   1.000  H
  C1141    1.0000 0.40627  0.08866  0.78595  Biso   1.000  C
  H627     1.0000 0.83246  0.14701  0.78803  Biso   1.000  H
  C1142    1.0000 0.91133  0.31762  0.78595  Biso   1.000  C
  C1143    1.0000 0.91140  0.31762  0.78595  Biso   1.000  C
  C1144    1.0000 0.10634  0.40903  0.78502  Biso   1.000  C
  H628     1.0000 0.17365  0.30720  0.78633  Biso   1.000  H
  H629     1.0000 0.17369  0.30728  0.78633  Biso   1.000  H
  C1145    1.0000 0.10641  0.40903  0.78502  Biso   1.000  C
  C1146    1.0000 0.90456  0.50104  0.75828  Biso   1.000  C
  H630     1.0000 0.82271  0.45986  0.73926  Biso   1.000  H
  H631     1.0000 0.16178  0.63150  0.73627  Biso   1.000  H
  C1147    1.0000 0.10508  0.60066  0.75655  Biso   1.000  C
  H632     1.0000 0.16171  0.63150  0.73627  Biso   1.000  H
  C1148    1.0000 0.82507  0.50719  0.68603  Biso   1.000  C
  C1149    1.0000 0.06254  0.65320  0.68322  Biso   1.000  C
  C1150    1.0000 0.59065  0.93745  0.68322  Biso   1.000  C
  H633     1.0000 0.46974  0.83826  0.73627  Biso   1.000  H
  C1151    1.0000 0.49554  0.89490  0.75655  Biso   1.000  C
  C1152    1.0000 0.49558  0.89499  0.75655  Biso   1.000  C
  C1153    1.0000 0.59646  0.09541  0.75828  Biso   1.000  C
  H634     1.0000 0.63716  0.17725  0.73926  Biso   1.000  H
  C1154    1.0000 0.68210  0.17495  0.68603  Biso   1.000  C
  C1155    1.0000 0.68218  0.17495  0.68603  Biso   1.000  C
  N168     1.0000 0.40334  0.98854  0.78493  Biso   1.000  N
  H635     1.0000 0.30004  0.82382  0.78423  Biso   1.000  H
  N169     1.0000 0.40341  0.98854  0.78493  Biso   1.000  N
  H636     1.0000 0.30012  0.82382  0.78423  Biso   1.000  H
  H637     1.0000 0.47679  0.15555  0.78583  Biso   1.000  H
  H638     1.0000 0.84446  0.32121  0.78583  Biso   1.000  H
  H639     1.0000 0.84450  0.32129  0.78583  Biso   1.000  H
  N170     1.0000 0.01150  0.41484  0.78493  Biso   1.000  N
  N171     1.0000 0.01143  0.41484  0.78493  Biso   1.000  N
  H640     1.0000 0.17616  0.47618  0.78423  Biso   1.000  H
  H641     1.0000 0.17621  0.47627  0.78423  Biso   1.000  H
  H642     1.0000 0.83820  0.46969  0.76374  Biso   1.000  H
  H643     1.0000 0.83825  0.46977  0.76374  Biso   1.000  H
  H644     1.0000 0.83828  0.46969  0.76374  Biso   1.000  H
  H645     1.0000 0.83832  0.46977  0.76374  Biso   1.000  H
  C1156    1.0000 0.00975  0.55162  0.76527  Biso   1.000  C
  H646     1.0000 0.17725  0.63714  0.76073  Biso   1.000  H
  H647     1.0000 0.74629  0.46106  0.68707  Biso   1.000  H
  C1157    1.0000 0.87410  0.55435  0.67279  Biso   1.000  C
  H648     1.0000 0.74636  0.46106  0.68707  Biso   1.000  H
  C1158    1.0000 0.99220  0.62808  0.67145  Biso   1.000  C
  C1159    1.0000 0.99227  0.62808  0.67145  Biso   1.000  C
  H649     1.0000 0.14063  0.70343  0.68237  Biso   1.000  H
  H650     1.0000 0.14068  0.70352  0.68237  Biso   1.000  H
  H651     1.0000 0.56286  0.85936  0.68237  Biso   1.000  H
  C1160    1.0000 0.63587  0.00776  0.67145  Biso   1.000  C
  C1161    1.0000 0.63580  0.00776  0.67145  Biso   1.000  C
  C1162    1.0000 0.54188  0.99024  0.76527  Biso   1.000  C
  H652     1.0000 0.45989  0.82271  0.76073  Biso   1.000  H
  H653     1.0000 0.63146  0.16171  0.76374  Biso   1.000  H
  H654     1.0000 0.63150  0.16179  0.76374  Biso   1.000  H
  H655     1.0000 0.71471  0.25363  0.68707  Biso   1.000  H
  C1163    1.0000 0.68025  0.12582  0.67279  Biso   1.000  C
  H656     1.0000 0.71475  0.25372  0.68707  Biso   1.000  H
  C1164    1.0000 0.68022  0.12591  0.67279  Biso   1.000  C
  C1165    1.0000 0.68030  0.12591  0.67279  Biso   1.000  C
  B67      1.0000 0.52299  0.98042  0.78195  Biso   1.000  B
  B68      1.0000 0.01958  0.54256  0.78195  Biso   1.000  B
  Cl172    1.0000 0.78518  0.51975  0.65805  Biso   1.000  Cl
  Cl173    1.0000 0.05057  0.68652  0.65516  Biso   1.000  Cl
  Cl174    1.0000 0.05061  0.68660  0.65516  Biso   1.000  Cl
  Cl175    1.0000 0.63599  0.94941  0.65516  Biso   1.000  Cl
  Cl176    1.0000 0.73460  0.21484  0.65805  Biso   1.000  Cl
  O162     1.0000 0.49538  0.87090  0.78866  Biso   1.000  O
  O163     1.0000 0.49542  0.87098  0.78866  Biso   1.000  O
  O164     1.0000 0.61078  0.06944  0.79107  Biso   1.000  O
  O165     1.0000 0.93057  0.54137  0.79107  Biso   1.000  O
  O166     1.0000 0.12909  0.62441  0.78866  Biso   1.000  O
  O167     1.0000 0.12906  0.62449  0.78866  Biso   1.000  O
  O168     1.0000 0.12913  0.62449  0.78866  Biso   1.000  O
  C1166    1.0000 0.53157  0.89755  0.80259  Biso   1.000  C
  C1167    1.0000 0.60322  0.01630  0.80392  Biso   1.000  C
  C1168    1.0000 0.60327  0.01639  0.80392  Biso   1.000  C
  C1169    1.0000 0.60330  0.01630  0.80392  Biso   1.000  C
  C1170    1.0000 0.60334  0.01639  0.80392  Biso   1.000  C
  C1171    1.0000 0.98367  0.58690  0.80392  Biso   1.000  C
  C1172    1.0000 0.98371  0.58699  0.80392  Biso   1.000  C
  C1173    1.0000 0.10247  0.63406  0.80259  Biso   1.000  C
  C1174    1.0000 0.50714  0.82502  0.81398  Biso   1.000  C
  C1175    1.0000 0.50721  0.82502  0.81398  Biso   1.000  C
  C1176    1.0000 0.65319  0.06252  0.81678  Biso   1.000  C
  C1177    1.0000 0.93746  0.59066  0.81678  Biso   1.000  C
  C1178    1.0000 0.17498  0.68216  0.81398  Biso   1.000  C
  H657     1.0000 0.46106  0.74634  0.81294  Biso   1.000  H
  C1179    1.0000 0.55441  0.87414  0.82720  Biso   1.000  C
  C1180    1.0000 0.55434  0.87414  0.82720  Biso   1.000  C
  C1181    1.0000 0.62810  0.99221  0.82855  Biso   1.000  C
  C1182    1.0000 0.62802  0.99221  0.82855  Biso   1.000  C
  H658     1.0000 0.70348  0.14060  0.81764  Biso   1.000  H
  H659     1.0000 0.70352  0.14069  0.81764  Biso   1.000  H
  H660     1.0000 0.85931  0.56281  0.81764  Biso   1.000  H
  H661     1.0000 0.85936  0.56290  0.81764  Biso   1.000  H
  H662     1.0000 0.85939  0.56281  0.81764  Biso   1.000  H
  H663     1.0000 0.85943  0.56290  0.81764  Biso   1.000  H
  C1183    1.0000 0.00778  0.63585  0.82855  Biso   1.000  C
  H664     1.0000 0.25363  0.71471  0.81294  Biso   1.000  H
  C1184    1.0000 0.12583  0.68019  0.82720  Biso   1.000  C
  H665     1.0000 0.25367  0.71479  0.81294  Biso   1.000  H
  C1185    1.0000 0.12587  0.68028  0.82720  Biso   1.000  C
  H666     1.0000 0.25370  0.71471  0.81294  Biso   1.000  H
  Cl177    1.0000 0.51974  0.78512  0.84194  Biso   1.000  Cl
  Cl178    1.0000 0.51979  0.78521  0.84194  Biso   1.000  Cl
  Cl179    1.0000 0.68657  0.05056  0.84485  Biso   1.000  Cl
  Cl180    1.0000 0.94937  0.63594  0.84485  Biso   1.000  Cl
  Cl181    1.0000 0.94941  0.63603  0.84485  Biso   1.000  Cl
  Cl182    1.0000 0.94944  0.63594  0.84485  Biso   1.000  Cl
  Cl183    1.0000 0.94949  0.63603  0.84485  Biso   1.000  Cl
  Cl184    1.0000 0.21485  0.73453  0.84194  Biso   1.000  Cl
  Cl185    1.0000 0.21482  0.73461  0.84194  Biso   1.000  Cl
  Cl186    1.0000 0.21489  0.73461  0.84194  Biso   1.000  Cl
  C1186    1.0000 0.37195  0.36420  0.67145  Biso   1.000  C
  C1187    1.0000 0.44562  0.31977  0.67279  Biso   1.000  C
  C1188    1.0000 0.34678  0.40931  0.68322  Biso   1.000  C
  Cl187    1.0000 0.31341  0.36403  0.65516  Biso   1.000  Cl
  C1189    1.0000 0.34682  0.40939  0.68322  Biso   1.000  C
  Cl188    1.0000 0.31349  0.36403  0.65516  Biso   1.000  Cl
  C1190    1.0000 0.49280  0.31781  0.68603  Biso   1.000  C
  C1191    1.0000 0.37190  0.36411  0.67145  Biso   1.000  C
  Cl189    1.0000 0.48031  0.26544  0.65805  Biso   1.000  Cl
  C1192    1.0000 0.49285  0.31789  0.68603  Biso   1.000  C
  Cl190    1.0000 0.48023  0.26544  0.65805  Biso   1.000  Cl
  C1193    1.0000 0.39675  0.41306  0.69608  Biso   1.000  C
  H667     1.0000 0.29649  0.43716  0.68237  Biso   1.000  H
  H668     1.0000 0.29656  0.43716  0.68237  Biso   1.000  H
  C1194    1.0000 0.46839  0.36591  0.69742  Biso   1.000  C
  H669     1.0000 0.53890  0.28526  0.68707  Biso   1.000  H
  C1195    1.0000 0.46844  0.36599  0.69742  Biso   1.000  C
  H670     1.0000 0.53897  0.28526  0.68707  Biso   1.000  H
  O169     1.0000 0.38918  0.45860  0.70893  Biso   1.000  O
  O170     1.0000 0.38923  0.45869  0.70893  Biso   1.000  O
  O171     1.0000 0.50466  0.37556  0.71134  Biso   1.000  O
  O172     1.0000 0.50459  0.37556  0.71134  Biso   1.000  O
  B69      1.0000 0.47700  0.45740  0.71805  Biso   1.000  B
  B70      1.0000 0.47704  0.45749  0.71805  Biso   1.000  B
  C1196    1.0000 0.45812  0.44835  0.73472  Biso   1.000  C
  N172     1.0000 0.59665  0.58512  0.71508  Biso   1.000  N
  N173     1.0000 0.59662  0.58521  0.71508  Biso   1.000  N
  N174     1.0000 0.59669  0.58521  0.71508  Biso   1.000  N
  C1197    1.0000 0.40350  0.49892  0.74172  Biso   1.000  C
  C1198    1.0000 0.50440  0.39931  0.74346  Biso   1.000  C
  C1199    1.0000 0.40354  0.49901  0.74172  Biso   1.000  C
  C1200    1.0000 0.50445  0.39940  0.74346  Biso   1.000  C
  C1201    1.0000 0.59369  0.68235  0.71406  Biso   1.000  C
  C1202    1.0000 0.69729  0.59093  0.71498  Biso   1.000  C
  C1203    1.0000 0.59376  0.68235  0.71406  Biso   1.000  C
  C1204    1.0000 0.69736  0.59093  0.71498  Biso   1.000  C
  H671     1.0000 0.36850  0.53028  0.73627  Biso   1.000  H
  C1205    1.0000 0.39935  0.50439  0.75655  Biso   1.000  C
  C1206    1.0000 0.39940  0.50448  0.75655  Biso   1.000  C
  H672     1.0000 0.36857  0.53028  0.73627  Biso   1.000  H
  H673     1.0000 0.54010  0.36283  0.73926  Biso   1.000  H
  C1207    1.0000 0.49895  0.40350  0.75828  Biso   1.000  C
  C1208    1.0000 0.49899  0.40358  0.75828  Biso   1.000  C
  C1209    1.0000 0.69045  0.78709  0.71281  Biso   1.000  C
  H674     1.0000 0.52324  0.67876  0.71416  Biso   1.000  H
  H675     1.0000 0.69997  0.52378  0.71576  Biso   1.000  H
  C1210    1.0000 0.79733  0.69217  0.71381  Biso   1.000  C
  H676     1.0000 0.36283  0.54010  0.76073  Biso   1.000  H
  C1211    1.0000 0.44834  0.45809  0.76527  Biso   1.000  C
  C1212    1.0000 0.44838  0.45817  0.76527  Biso   1.000  C
  H677     1.0000 0.53027  0.36847  0.76374  Biso   1.000  H
  H678     1.0000 0.53024  0.36855  0.76374  Biso   1.000  H
  H679     1.0000 0.53031  0.36855  0.76374  Biso   1.000  H
  H680     1.0000 0.68543  0.85295  0.71196  Biso   1.000  H
  C1213    1.0000 0.79641  0.79332  0.71281  Biso   1.000  C
  C1214    1.0000 0.79645  0.79341  0.71281  Biso   1.000  C
  H681     1.0000 0.86643  0.69277  0.71367  Biso   1.000  H
  B71      1.0000 0.45741  0.47697  0.78195  Biso   1.000  B
  B72      1.0000 0.45745  0.47705  0.78195  Biso   1.000  B
  C1215    1.0000 0.90482  0.90404  0.71210  Biso   1.000  C
  O173     1.0000 0.45867  0.38923  0.79107  Biso   1.000  O
  O174     1.0000 0.37559  0.50465  0.78866  Biso   1.000  O
  N175     1.0000 0.58513  0.59657  0.78493  Biso   1.000  N
  N176     1.0000 0.58517  0.59666  0.78493  Biso   1.000  N
  N177     1.0000 0.89842  0.99913  0.71208  Biso   1.000  N
  N178     1.0000 0.89847  0.99921  0.71208  Biso   1.000  N
  N179     1.0000 0.00083  0.89926  0.71208  Biso   1.000  N
  C1216    1.0000 0.41308  0.39675  0.80392  Biso   1.000  C
  C1217    1.0000 0.36598  0.46842  0.80259  Biso   1.000  C
  C1218    1.0000 0.68230  0.59367  0.78595  Biso   1.000  C
  C1219    1.0000 0.59095  0.69730  0.78502  Biso   1.000  C
  C1220    1.0000 0.68235  0.59375  0.78595  Biso   1.000  C
  C1221    1.0000 0.59100  0.69738  0.78502  Biso   1.000  C
  C1222    1.0000 0.68238  0.59367  0.78595  Biso   1.000  C
  C1223    1.0000 0.99919  0.09515  0.71210  Biso   1.000  C
  C1224    1.0000 0.99926  0.09515  0.71210  Biso   1.000  C
  C1225    1.0000 0.09589  0.00075  0.71210  Biso   1.000  C
  C1226    1.0000 0.09597  0.00075  0.71210  Biso   1.000  C
  C1227    1.0000 0.40933  0.34677  0.81678  Biso   1.000  C
  C1228    1.0000 0.40937  0.34685  0.81678  Biso   1.000  C
  C1229    1.0000 0.31786  0.49277  0.81398  Biso   1.000  C
  C1230    1.0000 0.31790  0.49286  0.81398  Biso   1.000  C
  C1231    1.0000 0.78704  0.69038  0.78719  Biso   1.000  C
  H682     1.0000 0.67873  0.52319  0.78583  Biso   1.000  H
  C1232    1.0000 0.78708  0.69046  0.78719  Biso   1.000  C
  H683     1.0000 0.67877  0.52327  0.78583  Biso   1.000  H
  H684     1.0000 0.52377  0.69995  0.78423  Biso   1.000  H
  C1233    1.0000 0.69217  0.79734  0.78620  Biso   1.000  C
  C1234    1.0000 0.99695  0.20357  0.71281  Biso   1.000  C
  N180     1.0000 0.10072  0.10156  0.71208  Biso   1.000  N
  C1235    1.0000 0.20662  0.00306  0.71281  Biso   1.000  C
  H685     1.0000 0.43718  0.29653  0.81764  Biso   1.000  H
  C1236    1.0000 0.36410  0.37189  0.82855  Biso   1.000  C
  C1237    1.0000 0.36414  0.37197  0.82855  Biso   1.000  C
  C1238    1.0000 0.36418  0.37189  0.82855  Biso   1.000  C
  C1239    1.0000 0.36422  0.37197  0.82855  Biso   1.000  C
  C1240    1.0000 0.31973  0.44561  0.82720  Biso   1.000  C
  H686     1.0000 0.28521  0.53891  0.81294  Biso   1.000  H
  H687     1.0000 0.28529  0.53891  0.81294  Biso   1.000  H
  C1241    1.0000 0.79336  0.79640  0.78719  Biso   1.000  C
  H688     1.0000 0.85300  0.68542  0.78803  Biso   1.000  H
  C1242    1.0000 0.79340  0.79648  0.78719  Biso   1.000  C
  H689     1.0000 0.85292  0.68542  0.78803  Biso   1.000  H
  H690     1.0000 0.69277  0.86645  0.78633  Biso   1.000  H
  C1243    1.0000 0.89482  0.20263  0.71381  Biso   1.000  C
  C1244    1.0000 0.89486  0.20271  0.71381  Biso   1.000  C
  C1245    1.0000 0.09664  0.30959  0.71281  Biso   1.000  C
  C1246    1.0000 0.21293  0.90336  0.71281  Biso   1.000  C
  C1247    1.0000 0.30783  0.10515  0.71381  Biso   1.000  C
  Cl191    1.0000 0.36404  0.31345  0.84485  Biso   1.000  Cl
  Cl192    1.0000 0.26541  0.48021  0.84194  Biso   1.000  Cl
  Cl193    1.0000 0.26545  0.48030  0.84194  Biso   1.000  Cl
  C1248    1.0000 0.90402  0.90481  0.78789  Biso   1.000  C
  C1249    1.0000 0.90409  0.90481  0.78789  Biso   1.000  C
  C1250    1.0000 0.89364  0.30267  0.71498  Biso   1.000  C
  H691     1.0000 0.82630  0.13351  0.71367  Biso   1.000  H
  H692     1.0000 0.82634  0.13360  0.71367  Biso   1.000  H
  H693     1.0000 0.16756  0.31454  0.71196  Biso   1.000  H
  C1251    1.0000 0.08862  0.40630  0.71406  Biso   1.000  C
  H694     1.0000 0.16748  0.31454  0.71196  Biso   1.000  H
  C1252    1.0000 0.08869  0.40630  0.71406  Biso   1.000  C
  H695     1.0000 0.14706  0.83245  0.71196  Biso   1.000  H
  C1253    1.0000 0.31764  0.91139  0.71406  Biso   1.000  C
  H696     1.0000 0.14699  0.83245  0.71196  Biso   1.000  H
  C1254    1.0000 0.40905  0.10635  0.71498  Biso   1.000  C
  H697     1.0000 0.30724  0.17367  0.71367  Biso   1.000  H
  N181     1.0000 0.99914  0.89840  0.78791  Biso   1.000  N
  N182     1.0000 0.89928  0.00084  0.78791  Biso   1.000  N
  N183     1.0000 0.98854  0.40339  0.71508  Biso   1.000  N
  H698     1.0000 0.82380  0.30002  0.71576  Biso   1.000  H
  H699     1.0000 0.82385  0.30011  0.71576  Biso   1.000  H
  H700     1.0000 0.15553  0.47678  0.71416  Biso   1.000  H
  H701     1.0000 0.32121  0.84441  0.71416  Biso   1.000  H
  H702     1.0000 0.32126  0.84450  0.71416  Biso   1.000  H
  N184     1.0000 0.41479  0.01143  0.71508  Biso   1.000  N
  N185     1.0000 0.41483  0.01152  0.71508  Biso   1.000  N
  N186     1.0000 0.41486  0.01143  0.71508  Biso   1.000  N
  N187     1.0000 0.41490  0.01152  0.71508  Biso   1.000  N
  H703     1.0000 0.47620  0.17614  0.71576  Biso   1.000  H
  H704     1.0000 0.47628  0.17614  0.71576  Biso   1.000  H
  C1255    1.0000 0.09512  0.99921  0.78789  Biso   1.000  C
  C1256    1.0000 0.09520  0.99921  0.78789  Biso   1.000  C
  C1257    1.0000 0.00076  0.09592  0.78789  Biso   1.000  C
  B73      1.0000 0.98042  0.52300  0.71805  Biso   1.000  B
  B74      1.0000 0.54255  0.01955  0.71805  Biso   1.000  B
  C1258    1.0000 0.20354  0.99691  0.78719  Biso   1.000  C
  N188     1.0000 0.10155  0.10071  0.78791  Biso   1.000  N
  C1259    1.0000 0.00307  0.20664  0.78719  Biso   1.000  C
  C1260    1.0000 0.99024  0.54188  0.73472  Biso   1.000  C
  O175     1.0000 0.87092  0.49532  0.71134  Biso   1.000  O
  O176     1.0000 0.87096  0.49540  0.71134  Biso   1.000  O
  O177     1.0000 0.06943  0.61074  0.70893  Biso   1.000  O
  O178     1.0000 0.06947  0.61082  0.70893  Biso   1.000  O
  O179     1.0000 0.54132  0.93053  0.70893  Biso   1.000  O
  O180     1.0000 0.54136  0.93061  0.70893  Biso   1.000  O
  C1261    1.0000 0.55162  0.00972  0.73472  Biso   1.000  C
  O181     1.0000 0.62446  0.12907  0.71134  Biso   1.000  O
  C1262    1.0000 0.55166  0.00981  0.73472  Biso   1.000  C
  C1263    1.0000 0.20266  0.89482  0.78620  Biso   1.000  C
  C1264    1.0000 0.30955  0.09661  0.78719  Biso   1.000  C
  C1265    1.0000 0.30959  0.09669  0.78719  Biso   1.000  C
  C1266    1.0000 0.90335  0.21288  0.78719  Biso   1.000  C
  C1267    1.0000 0.90339  0.21297  0.78719  Biso   1.000  C
  C1268    1.0000 0.10514  0.30779  0.78620  Biso   1.000  C
  C1269    1.0000 0.10518  0.30788  0.78620  Biso   1.000  C
  C1270    1.0000 0.89495  0.49557  0.74346  Biso   1.000  C
  C1271    1.0000 0.09544  0.59647  0.74172  Biso   1.000  C
  C1272    1.0000 0.89754  0.53154  0.69742  Biso   1.000  C
  C1273    1.0000 0.89758  0.53163  0.69742  Biso   1.000  C
  C1274    1.0000 0.01632  0.60322  0.69608  Biso   1.000  C
  C1275    1.0000 0.01636  0.60330  0.69608  Biso   1.000  C
  C1276    1.0000 0.58691  0.98367  0.69608  Biso   1.000  C
  C1277    1.0000 0.58698  0.98367  0.69608  Biso   1.000  C
  C1278    1.0000 0.50103  0.90456  0.74172  Biso   1.000  C
  C1279    1.0000 0.60062  0.10506  0.74346  Biso   1.000  C
  C1280    1.0000 0.63400  0.10242  0.69742  Biso   1.000  C
  C1281    1.0000 0.63404  0.10250  0.69742  Biso   1.000  C
  C1282    1.0000 0.30268  0.89362  0.78502  Biso   1.000  C
  H705     1.0000 0.13356  0.82630  0.78633  Biso   1.000  H
  H706     1.0000 0.13360  0.82638  0.78633  Biso   1.000  H
  H707     1.0000 0.31460  0.16752  0.78803  Biso   1.000  H
  C1283    1.0000 0.40623  0.08858  0.78595  Biso   1.000  C
  H708     1.0000 0.31452  0.16752  0.78803  Biso   1.000  H
  C1284    1.0000 0.40627  0.08866  0.78595  Biso   1.000  C
  H709     1.0000 0.83246  0.14701  0.78803  Biso   1.000  H
  C1285    1.0000 0.91133  0.31762  0.78595  Biso   1.000  C
  C1286    1.0000 0.91140  0.31762  0.78595  Biso   1.000  C
  C1287    1.0000 0.10634  0.40903  0.78502  Biso   1.000  C
  H710     1.0000 0.17365  0.30720  0.78633  Biso   1.000  H
  H711     1.0000 0.17369  0.30728  0.78633  Biso   1.000  H
  C1288    1.0000 0.10641  0.40903  0.78502  Biso   1.000  C
  C1289    1.0000 0.90456  0.50104  0.75828  Biso   1.000  C
  H712     1.0000 0.82271  0.45986  0.73926  Biso   1.000  H
  H713     1.0000 0.16178  0.63150  0.73627  Biso   1.000  H
  C1290    1.0000 0.10508  0.60066  0.75655  Biso   1.000  C
  H714     1.0000 0.16171  0.63150  0.73627  Biso   1.000  H
  C1291    1.0000 0.82507  0.50719  0.68603  Biso   1.000  C
  C1292    1.0000 0.06254  0.65320  0.68322  Biso   1.000  C
  C1293    1.0000 0.59065  0.93745  0.68322  Biso   1.000  C
  H715     1.0000 0.46974  0.83826  0.73627  Biso   1.000  H
  C1294    1.0000 0.49554  0.89490  0.75655  Biso   1.000  C
  C1295    1.0000 0.49558  0.89499  0.75655  Biso   1.000  C
  C1296    1.0000 0.59646  0.09541  0.75828  Biso   1.000  C
  H716     1.0000 0.63716  0.17725  0.73926  Biso   1.000  H
  C1297    1.0000 0.68210  0.17495  0.68603  Biso   1.000  C
  C1298    1.0000 0.68218  0.17495  0.68603  Biso   1.000  C
  N189     1.0000 0.40334  0.98854  0.78493  Biso   1.000  N
  H717     1.0000 0.30004  0.82382  0.78423  Biso   1.000  H
  N190     1.0000 0.40341  0.98854  0.78493  Biso   1.000  N
  H718     1.0000 0.30012  0.82382  0.78423  Biso   1.000  H
  H719     1.0000 0.47679  0.15555  0.78583  Biso   1.000  H
  H720     1.0000 0.84446  0.32121  0.78583  Biso   1.000  H
  H721     1.0000 0.84450  0.32129  0.78583  Biso   1.000  H
  N191     1.0000 0.01150  0.41484  0.78493  Biso   1.000  N
  N192     1.0000 0.01143  0.41484  0.78493  Biso   1.000  N
  H722     1.0000 0.17616  0.47618  0.78423  Biso   1.000  H
  H723     1.0000 0.17621  0.47627  0.78423  Biso   1.000  H
  H724     1.0000 0.83820  0.46969  0.76374  Biso   1.000  H
  H725     1.0000 0.83825  0.46977  0.76374  Biso   1.000  H
  H726     1.0000 0.83828  0.46969  0.76374  Biso   1.000  H
  H727     1.0000 0.83832  0.46977  0.76374  Biso   1.000  H
  C1299    1.0000 0.00975  0.55162  0.76527  Biso   1.000  C
  H728     1.0000 0.17725  0.63714  0.76073  Biso   1.000  H
  H729     1.0000 0.74629  0.46106  0.68707  Biso   1.000  H
  C1300    1.0000 0.87410  0.55435  0.67279  Biso   1.000  C
  H730     1.0000 0.74636  0.46106  0.68707  Biso   1.000  H
  C1301    1.0000 0.99220  0.62808  0.67145  Biso   1.000  C
  C1302    1.0000 0.99227  0.62808  0.67145  Biso   1.000  C
  H731     1.0000 0.14063  0.70343  0.68237  Biso   1.000  H
  H732     1.0000 0.14068  0.70352  0.68237  Biso   1.000  H
  H733     1.0000 0.56286  0.85936  0.68237  Biso   1.000  H
  C1303    1.0000 0.63587  0.00776  0.67145  Biso   1.000  C
  C1304    1.0000 0.63580  0.00776  0.67145  Biso   1.000  C
  C1305    1.0000 0.54188  0.99024  0.76527  Biso   1.000  C
  H734     1.0000 0.45989  0.82271  0.76073  Biso   1.000  H
  H735     1.0000 0.63146  0.16171  0.76374  Biso   1.000  H
  H736     1.0000 0.63150  0.16179  0.76374  Biso   1.000  H
  H737     1.0000 0.71471  0.25363  0.68707  Biso   1.000  H
  C1306    1.0000 0.68025  0.12582  0.67279  Biso   1.000  C
  H738     1.0000 0.71475  0.25372  0.68707  Biso   1.000  H
  C1307    1.0000 0.68022  0.12591  0.67279  Biso   1.000  C
  C1308    1.0000 0.68030  0.12591  0.67279  Biso   1.000  C
  B75      1.0000 0.52299  0.98042  0.78195  Biso   1.000  B
  B76      1.0000 0.01958  0.54256  0.78195  Biso   1.000  B
  Cl194    1.0000 0.78518  0.51975  0.65805  Biso   1.000  Cl
  Cl195    1.0000 0.05057  0.68652  0.65516  Biso   1.000  Cl
  Cl196    1.0000 0.05061  0.68660  0.65516  Biso   1.000  Cl
  Cl197    1.0000 0.63599  0.94941  0.65516  Biso   1.000  Cl
  Cl198    1.0000 0.73460  0.21484  0.65805  Biso   1.000  Cl
  O182     1.0000 0.49538  0.87090  0.78866  Biso   1.000  O
  O183     1.0000 0.49542  0.87098  0.78866  Biso   1.000  O
  O184     1.0000 0.61078  0.06944  0.79107  Biso   1.000  O
  O185     1.0000 0.93057  0.54137  0.79107  Biso   1.000  O
  O186     1.0000 0.12909  0.62441  0.78866  Biso   1.000  O
  O187     1.0000 0.12906  0.62449  0.78866  Biso   1.000  O
  O188     1.0000 0.12913  0.62449  0.78866  Biso   1.000  O
  C1309    1.0000 0.53157  0.89755  0.80259  Biso   1.000  C
  C1310    1.0000 0.60322  0.01630  0.80392  Biso   1.000  C
  C1311    1.0000 0.60327  0.01639  0.80392  Biso   1.000  C
  C1312    1.0000 0.60330  0.01630  0.80392  Biso   1.000  C
  C1313    1.0000 0.60334  0.01639  0.80392  Biso   1.000  C
  C1314    1.0000 0.98367  0.58690  0.80392  Biso   1.000  C
  C1315    1.0000 0.98371  0.58699  0.80392  Biso   1.000  C
  C1316    1.0000 0.10247  0.63406  0.80259  Biso   1.000  C
  C1317    1.0000 0.50714  0.82502  0.81398  Biso   1.000  C
  C1318    1.0000 0.50721  0.82502  0.81398  Biso   1.000  C
  C1319    1.0000 0.65319  0.06252  0.81678  Biso   1.000  C
  C1320    1.0000 0.93746  0.59066  0.81678  Biso   1.000  C
  C1321    1.0000 0.17498  0.68216  0.81398  Biso   1.000  C
  H739     1.0000 0.46106  0.74634  0.81294  Biso   1.000  H
  C1322    1.0000 0.55441  0.87414  0.82720  Biso   1.000  C
  C1323    1.0000 0.55434  0.87414  0.82720  Biso   1.000  C
  C1324    1.0000 0.62810  0.99221  0.82855  Biso   1.000  C
  C1325    1.0000 0.62802  0.99221  0.82855  Biso   1.000  C
  H740     1.0000 0.70348  0.14060  0.81764  Biso   1.000  H
  H741     1.0000 0.70352  0.14069  0.81764  Biso   1.000  H
  H742     1.0000 0.85931  0.56281  0.81764  Biso   1.000  H
  H743     1.0000 0.85936  0.56290  0.81764  Biso   1.000  H
  H744     1.0000 0.85939  0.56281  0.81764  Biso   1.000  H
  H745     1.0000 0.85943  0.56290  0.81764  Biso   1.000  H
  C1326    1.0000 0.00778  0.63585  0.82855  Biso   1.000  C
  H746     1.0000 0.25363  0.71471  0.81294  Biso   1.000  H
  C1327    1.0000 0.12583  0.68019  0.82720  Biso   1.000  C
  H747     1.0000 0.25367  0.71479  0.81294  Biso   1.000  H
  C1328    1.0000 0.12587  0.68028  0.82720  Biso   1.000  C
  H748     1.0000 0.25370  0.71471  0.81294  Biso   1.000  H
  Cl199    1.0000 0.51974  0.78512  0.84194  Biso   1.000  Cl
  Cl200    1.0000 0.51979  0.78521  0.84194  Biso   1.000  Cl
  Cl201    1.0000 0.68657  0.05056  0.84485  Biso   1.000  Cl
  Cl202    1.0000 0.94937  0.63594  0.84485  Biso   1.000  Cl
  Cl203    1.0000 0.94941  0.63603  0.84485  Biso   1.000  Cl
  Cl204    1.0000 0.94944  0.63594  0.84485  Biso   1.000  Cl
  Cl205    1.0000 0.94949  0.63603  0.84485  Biso   1.000  Cl
  Cl206    1.0000 0.21485  0.73453  0.84194  Biso   1.000  Cl
  Cl207    1.0000 0.21482  0.73461  0.84194  Biso   1.000  Cl
  Cl208    1.0000 0.21489  0.73461  0.84194  Biso   1.000  Cl
  C1329    1.0000 0.67442  0.96914  0.16189  Biso   1.000  C
  C1330    1.0000 0.60410  0.92395  0.15012  Biso   1.000  C
  Cl209    1.0000 0.61613  0.96931  0.17819  Biso   1.000  Cl
  C1331    1.0000 0.79252  0.01357  0.16054  Biso   1.000  C
  C1332    1.0000 0.65036  0.92027  0.13726  Biso   1.000  C
  H749     1.0000 0.52607  0.89618  0.15096  Biso   1.000  H
  C1333    1.0000 0.84162  0.01545  0.14730  Biso   1.000  C
  Cl210    1.0000 0.88154  0.06790  0.17528  Biso   1.000  Cl
  C1334    1.0000 0.76911  0.96735  0.13591  Biso   1.000  C
  O189     1.0000 0.59721  0.87465  0.12441  Biso   1.000  O
  H750     1.0000 0.92031  0.04808  0.14626  Biso   1.000  H
  O190     1.0000 0.79577  0.95778  0.12200  Biso   1.000  O
  B77      1.0000 0.68622  0.87585  0.11529  Biso   1.000  B
  C1335    1.0000 0.67644  0.88499  0.09861  Biso   1.000  C
  N193     1.0000 0.67819  0.74821  0.11825  Biso   1.000  N
  C1336    1.0000 0.57125  0.83442  0.09162  Biso   1.000  C
  C1337    1.0000 0.77172  0.93394  0.08987  Biso   1.000  C
  C1338    1.0000 0.57809  0.65099  0.11927  Biso   1.000  C
  C1339    1.0000 0.77302  0.74241  0.11836  Biso   1.000  C
  H751     1.0000 0.50496  0.80306  0.09706  Biso   1.000  H
  C1340    1.0000 0.56163  0.82895  0.07679  Biso   1.000  C
  C1341    1.0000 0.76212  0.92984  0.07505  Biso   1.000  C
  H752     1.0000 0.84394  0.97051  0.09407  Biso   1.000  H
  C1342    1.0000 0.57003  0.54625  0.12053  Biso   1.000  C
  H753     1.0000 0.51115  0.65458  0.11917  Biso   1.000  H
  H754     1.0000 0.84285  0.80955  0.11757  Biso   1.000  H
  C1343    1.0000 0.77183  0.64117  0.11953  Biso   1.000  C
  C1344    1.0000 0.65692  0.87525  0.06806  Biso   1.000  C
  H755     1.0000 0.48940  0.79324  0.07260  Biso   1.000  H
  H756     1.0000 0.82843  0.96478  0.06960  Biso   1.000  H
  C1345    1.0000 0.66976  0.54002  0.12053  Biso   1.000  C
  H757     1.0000 0.49914  0.48038  0.12137  Biso   1.000  H
  H758     1.0000 0.84034  0.64057  0.11967  Biso   1.000  H
  B78      1.0000 0.64707  0.85629  0.05138  Biso   1.000  B
  C1346    1.0000 0.66744  0.42930  0.12123  Biso   1.000  C
  O191     1.0000 0.73611  0.94411  0.04226  Biso   1.000  O
  O192     1.0000 0.53761  0.82869  0.04467  Biso   1.000  O
  N194     1.0000 0.65519  0.73668  0.04841  Biso   1.000  N
  N195     1.0000 0.56597  0.33421  0.12125  Biso   1.000  N
  N196     1.0000 0.76824  0.43408  0.12125  Biso   1.000  N
  C1347    1.0000 0.68300  0.93659  0.02941  Biso   1.000  C
  C1348    1.0000 0.56423  0.86491  0.03076  Biso   1.000  C
  C1349    1.0000 0.75526  0.73959  0.04739  Biso   1.000  C
  C1350    1.0000 0.56033  0.63604  0.04831  Biso   1.000  C
  C1351    1.0000 0.57078  0.23818  0.12123  Biso   1.000  C
  C1352    1.0000 0.76188  0.33259  0.12123  Biso   1.000  C
  C1353    1.0000 0.72918  0.98648  0.01655  Biso   1.000  C
  C1354    1.0000 0.49171  0.84048  0.01935  Biso   1.000  C
  C1355    1.0000 0.76329  0.64288  0.04614  Biso   1.000  C
  H759     1.0000 0.82221  0.81015  0.04750  Biso   1.000  H
  H760     1.0000 0.49049  0.63339  0.04910  Biso   1.000  H
  C1356    1.0000 0.56150  0.53600  0.04714  Biso   1.000  C
  N197     1.0000 0.66583  0.23178  0.12125  Biso   1.000  N
  C1357    1.0000 0.46005  0.12977  0.12053  Biso   1.000  C
  C1358    1.0000 0.87023  0.33028  0.12053  Biso   1.000  C
  C1359    1.0000 0.65896  0.96145  0.00478  Biso   1.000  C
  H761     1.0000 0.80732  0.03680  0.01571  Biso   1.000  H
  H762     1.0000 0.41305  0.79443  0.02040  Biso   1.000  H
  C1360    1.0000 0.54078  0.88773  0.00613  Biso   1.000  C
  C1361    1.0000 0.66363  0.53694  0.04614  Biso   1.000  C
  H763     1.0000 0.83424  0.64792  0.04530  Biso   1.000  H
  H764     1.0000 0.49299  0.46689  0.04700  Biso   1.000  H
  C1362    1.0000 0.45372  0.02375  0.12053  Biso   1.000  C
  C1363    1.0000 0.35886  0.13071  0.11953  Biso   1.000  C
  C1364    1.0000 0.97624  0.42998  0.12053  Biso   1.000  C
  C1365    1.0000 0.86935  0.22819  0.11953  Biso   1.000  C
  Cl211    1.0000 0.71725  0.01989  0.98848  Biso   1.000  Cl
  Cl212    1.0000 0.45182  0.85304  0.99139  Biso   1.000  Cl
  C1366    1.0000 0.66595  0.42853  0.04544  Biso   1.000  C
  H765     1.0000 0.51968  0.01880  0.12137  Biso   1.000  H
  C1367    1.0000 0.34899  0.92704  0.11927  Biso   1.000  C
  C1368    1.0000 0.25764  0.03067  0.11836  Biso   1.000  C
  H766     1.0000 0.35941  0.19974  0.11967  Biso   1.000  H
  H767     1.0000 0.98128  0.50089  0.12137  Biso   1.000  H
  C1369    1.0000 0.07292  0.42195  0.11927  Biso   1.000  C
  C1370    1.0000 0.96937  0.22699  0.11836  Biso   1.000  C
  H768     1.0000 0.80024  0.15967  0.11967  Biso   1.000  H
  N198     1.0000 0.76741  0.43493  0.04542  Biso   1.000  N
  N199     1.0000 0.56511  0.33250  0.04542  Biso   1.000  N
  H769     1.0000 0.34541  0.85656  0.11917  Biso   1.000  H
  N200     1.0000 0.25182  0.92995  0.11825  Biso   1.000  N
  H770     1.0000 0.19041  0.03323  0.11757  Biso   1.000  H
  H771     1.0000 0.14343  0.48884  0.11917  Biso   1.000  H
  N201     1.0000 0.07010  0.32191  0.11825  Biso   1.000  N
  H772     1.0000 0.96673  0.15720  0.11757  Biso   1.000  H
  C1371    1.0000 0.76265  0.33413  0.04544  Biso   1.000  C
  C1372    1.0000 0.57150  0.23742  0.04544  Biso   1.000  C
  B79      1.0000 0.12410  0.81034  0.11529  Biso   1.000  B
  B80      1.0000 0.18967  0.31379  0.11529  Biso   1.000  B
  N202     1.0000 0.66751  0.23263  0.04542  Biso   1.000  N
  C1373    1.0000 0.87331  0.33643  0.04614  Biso   1.000  C
  C1374    1.0000 0.46310  0.12670  0.04614  Biso   1.000  C
  C1375    1.0000 0.11503  0.79146  0.09861  Biso   1.000  C
  O193     1.0000 0.12536  0.72260  0.12441  Biso   1.000  O
  O194     1.0000 0.04223  0.83794  0.12200  Biso   1.000  O
  C1376    1.0000 0.20853  0.32353  0.09861  Biso   1.000  C
  O195     1.0000 0.27746  0.40281  0.12441  Biso   1.000  O
  O196     1.0000 0.16206  0.20427  0.12200  Biso   1.000  O
  C1377    1.0000 0.87961  0.23673  0.04614  Biso   1.000  C
  C1378    1.0000 0.97451  0.43852  0.04714  Biso   1.000  C
  C1379    1.0000 0.35709  0.12037  0.04614  Biso   1.000  C
  C1380    1.0000 0.46397  0.02546  0.04714  Biso   1.000  C
  C1381    1.0000 0.16564  0.73687  0.09162  Biso   1.000  C
  C1382    1.0000 0.06604  0.83776  0.08987  Biso   1.000  C
  C1383    1.0000 0.07973  0.73003  0.13726  Biso   1.000  C
  C1384    1.0000 0.03267  0.80180  0.13591  Biso   1.000  C
  C1385    1.0000 0.26315  0.42878  0.09162  Biso   1.000  C
  C1386    1.0000 0.16223  0.22827  0.08987  Biso   1.000  C
  C1387    1.0000 0.26998  0.34967  0.13726  Biso   1.000  C
  C1388    1.0000 0.19821  0.23084  0.13591  Biso   1.000  C
  H773     1.0000 0.81375  0.16582  0.04530  Biso   1.000  H
  C1389    1.0000 0.98428  0.24468  0.04739  Biso   1.000  C
  H774     1.0000 0.97393  0.50704  0.04700  Biso   1.000  H
  C1390    1.0000 0.07573  0.43972  0.04831  Biso   1.000  C
  H775     1.0000 0.35212  0.18633  0.04530  Biso   1.000  H
  C1391    1.0000 0.26045  0.01572  0.04739  Biso   1.000  C
  H776     1.0000 0.53312  0.02614  0.04700  Biso   1.000  H
  C1392    1.0000 0.36397  0.92431  0.04831  Biso   1.000  C
  C1393    1.0000 0.17109  0.73268  0.07679  Biso   1.000  C
  H777     1.0000 0.19696  0.70184  0.09706  Biso   1.000  H
  C1394    1.0000 0.07019  0.83230  0.07505  Biso   1.000  C
  H778     1.0000 0.02952  0.87348  0.09407  Biso   1.000  H
  C1395    1.0000 0.07601  0.68014  0.15012  Biso   1.000  C
  C1396    1.0000 0.98454  0.82615  0.14730  Biso   1.000  C
  H779     1.0000 0.29815  0.49508  0.09706  Biso   1.000  H
  C1397    1.0000 0.26731  0.43844  0.07679  Biso   1.000  C
  C1398    1.0000 0.16772  0.23793  0.07505  Biso   1.000  C
  H780     1.0000 0.12658  0.15608  0.09407  Biso   1.000  H
  C1399    1.0000 0.31988  0.39589  0.15012  Biso   1.000  C
  C1400    1.0000 0.17390  0.15839  0.14730  Biso   1.000  C
  H781     1.0000 0.98790  0.17778  0.04750  Biso   1.000  H
  N203     1.0000 0.08155  0.34480  0.04841  Biso   1.000  N
  H782     1.0000 0.14289  0.50952  0.04910  Biso   1.000  H
  H783     1.0000 0.18992  0.01213  0.04750  Biso   1.000  H
  N204     1.0000 0.26333  0.91850  0.04841  Biso   1.000  N
  H784     1.0000 0.36661  0.85707  0.04910  Biso   1.000  H
  C1401    1.0000 0.12481  0.78172  0.06806  Biso   1.000  C
  H785     1.0000 0.20679  0.69620  0.07260  Biso   1.000  H
  H786     1.0000 0.03522  0.86356  0.06960  Biso   1.000  H
  C1402    1.0000 0.03086  0.70526  0.16189  Biso   1.000  C
  H787     1.0000 0.10383  0.62982  0.15096  Biso   1.000  H
  H788     1.0000 0.95197  0.87228  0.14626  Biso   1.000  H
  C1403    1.0000 0.98642  0.77899  0.16054  Biso   1.000  C
  C1404    1.0000 0.21831  0.34310  0.06806  Biso   1.000  C
  H789     1.0000 0.30385  0.51063  0.07260  Biso   1.000  H
  H790     1.0000 0.13642  0.17163  0.06960  Biso   1.000  H
  C1405    1.0000 0.29478  0.32558  0.16189  Biso   1.000  C
  H791     1.0000 0.37016  0.47398  0.15096  Biso   1.000  H
  H792     1.0000 0.12775  0.07971  0.14626  Biso   1.000  H
  C1406    1.0000 0.22106  0.20743  0.16054  Biso   1.000  C
  B81      1.0000 0.20924  0.35292  0.05138  Biso   1.000  B
  B82      1.0000 0.14369  0.79078  0.05138  Biso   1.000  B
  Cl213    1.0000 0.03068  0.64674  0.17819  Biso   1.000  Cl
  Cl214    1.0000 0.93210  0.81359  0.17528  Biso   1.000  Cl
  Cl215    1.0000 0.35326  0.38393  0.17819  Biso   1.000  Cl
  Cl216    1.0000 0.18643  0.11849  0.17528  Biso   1.000  Cl
  O197     1.0000 0.20801  0.26390  0.04226  Biso   1.000  O
  O198     1.0000 0.29115  0.46244  0.04467  Biso   1.000  O
  O199     1.0000 0.05587  0.79197  0.04226  Biso   1.000  O
  O200     1.0000 0.17135  0.70893  0.04467  Biso   1.000  O
  C1407    1.0000 0.25367  0.31704  0.02941  Biso   1.000  C
  C1408    1.0000 0.30069  0.43579  0.03076  Biso   1.000  C
  C1409    1.0000 0.06344  0.74644  0.02941  Biso   1.000  C
  C1410    1.0000 0.13508  0.69928  0.03076  Biso   1.000  C
  C1411    1.0000 0.25734  0.27082  0.01655  Biso   1.000  C
  C1412    1.0000 0.34886  0.50832  0.01935  Biso   1.000  C
  C1413    1.0000 0.01347  0.74268  0.01655  Biso   1.000  C
  C1414    1.0000 0.15949  0.65118  0.01935  Biso   1.000  C
  C1415    1.0000 0.30256  0.34113  0.00478  Biso   1.000  C
  H793     1.0000 0.22954  0.19273  0.01571  Biso   1.000  H
  H794     1.0000 0.38140  0.58700  0.02040  Biso   1.000  H
  C1416    1.0000 0.34694  0.45920  0.00613  Biso   1.000  C
  H795     1.0000 0.96325  0.77053  0.01571  Biso   1.000  H
  C1417    1.0000 0.03859  0.69748  0.00478  Biso   1.000  C
  H796     1.0000 0.20559  0.61863  0.02040  Biso   1.000  H
  C1418    1.0000 0.11227  0.65306  0.00613  Biso   1.000  C
  Cl217    1.0000 0.30268  0.28278  0.98848  Biso   1.000  Cl
  Cl218    1.0000 0.40129  0.54822  0.99139  Biso   1.000  Cl
  Cl219    1.0000 0.98013  0.69731  0.98848  Biso   1.000  Cl
  Cl220    1.0000 0.14695  0.59873  0.99139  Biso   1.000  Cl
  C1419    1.0000 0.32557  0.03084  0.83811  Biso   1.000  C
  C1420    1.0000 0.39589  0.07603  0.84988  Biso   1.000  C
  Cl221    1.0000 0.38394  0.03067  0.82181  Biso   1.000  Cl
  C1421    1.0000 0.20747  0.98642  0.83946  Biso   1.000  C
  C1422    1.0000 0.34964  0.07971  0.86274  Biso   1.000  C
  H797     1.0000 0.47399  0.10380  0.84904  Biso   1.000  H
  C1423    1.0000 0.15837  0.98454  0.85270  Biso   1.000  C
  Cl222    1.0000 0.11845  0.93208  0.82472  Biso   1.000  Cl
  C1424    1.0000 0.23088  0.03264  0.86409  Biso   1.000  C
  O201     1.0000 0.40278  0.12533  0.87559  Biso   1.000  O
  H798     1.0000 0.07968  0.95190  0.85374  Biso   1.000  H
  O202     1.0000 0.20422  0.04220  0.87800  Biso   1.000  O
  B83      1.0000 0.31377  0.12413  0.88471  Biso   1.000  B
  C1425    1.0000 0.32359  0.11508  0.90139  Biso   1.000  C
  N205     1.0000 0.32184  0.25185  0.88175  Biso   1.000  N
  C1426    1.0000 0.42879  0.16565  0.90838  Biso   1.000  C
  C1427    1.0000 0.22827  0.06604  0.91013  Biso   1.000  C
  C1428    1.0000 0.42202  0.34908  0.88073  Biso   1.000  C
  C1429    1.0000 0.22701  0.25766  0.88164  Biso   1.000  C
  H799     1.0000 0.49510  0.19692  0.90294  Biso   1.000  H
  C1430    1.0000 0.43840  0.17112  0.92321  Biso   1.000  C
  C1431    1.0000 0.23791  0.07023  0.92495  Biso   1.000  C
  H800     1.0000 0.15609  0.02956  0.90593  Biso   1.000  H
  C1432    1.0000 0.42996  0.45373  0.87947  Biso   1.000  C
  H801     1.0000 0.48884  0.34540  0.88083  Biso   1.000  H
  H802     1.0000 0.15714  0.19043  0.88243  Biso   1.000  H
  C1433    1.0000 0.22816  0.35881  0.88047  Biso   1.000  C
  C1434    1.0000 0.34311  0.12482  0.93194  Biso   1.000  C
  H803     1.0000 0.51064  0.20683  0.92740  Biso   1.000  H
  H804     1.0000 0.17156  0.03520  0.93040  Biso   1.000  H
  C1435    1.0000 0.33028  0.46005  0.87947  Biso   1.000  C
  H805     1.0000 0.50089  0.51968  0.87863  Biso   1.000  H
  H806     1.0000 0.15966  0.35941  0.88033  Biso   1.000  H
  B84      1.0000 0.35292  0.14370  0.94862  Biso   1.000  B
  C1436    1.0000 0.33259  0.57077  0.87877  Biso   1.000  C
  O203     1.0000 0.26388  0.05587  0.95774  Biso   1.000  O
  O204     1.0000 0.46238  0.17129  0.95533  Biso   1.000  O
  N206     1.0000 0.34481  0.26330  0.95159  Biso   1.000  N
  N207     1.0000 0.43407  0.66586  0.87875  Biso   1.000  N
  N208     1.0000 0.23175  0.56590  0.87875  Biso   1.000  N
  C1437    1.0000 0.31699  0.06339  0.97059  Biso   1.000  C
  C1438    1.0000 0.43576  0.13507  0.96924  Biso   1.000  C
  C1439    1.0000 0.24473  0.26040  0.95261  Biso   1.000  C
  C1440    1.0000 0.43971  0.36403  0.95169  Biso   1.000  C
  C1441    1.0000 0.42933  0.76188  0.87877  Biso   1.000  C
  C1442    1.0000 0.23822  0.66748  0.87877  Biso   1.000  C
  C1443    1.0000 0.27081  0.01350  0.98345  Biso   1.000  C
  C1444    1.0000 0.50828  0.15950  0.98065  Biso   1.000  C
  C1445    1.0000 0.23671  0.35711  0.95386  Biso   1.000  C
  H807     1.0000 0.17782  0.18992  0.95250  Biso   1.000  H
  H808     1.0000 0.50950  0.36659  0.95090  Biso   1.000  H
  C1446    1.0000 0.43849  0.46398  0.95286  Biso   1.000  C
  N209     1.0000 0.33416  0.76821  0.87875  Biso   1.000  N
  C1447    1.0000 0.53994  0.87021  0.87947  Biso   1.000  C
  C1448    1.0000 0.12976  0.66970  0.87947  Biso   1.000  C
  C1449    1.0000 0.34115  0.03862  0.99522  Biso   1.000  C
  H809     1.0000 0.19267  0.96318  0.98429  Biso   1.000  H
  H810     1.0000 0.58706  0.20564  0.97960  Biso   1.000  H
  C1450    1.0000 0.45925  0.11234  0.99387  Biso   1.000  C
  C1451    1.0000 0.33640  0.46313  0.95386  Biso   1.000  C
  H811     1.0000 0.16575  0.35207  0.95470  Biso   1.000  H
  H812     1.0000 0.50700  0.53310  0.95300  Biso   1.000  H
  C1452    1.0000 0.54627  0.97623  0.87947  Biso   1.000  C
  C1453    1.0000 0.64117  0.86936  0.88047  Biso   1.000  C
  C1454    1.0000 0.02376  0.57000  0.87947  Biso   1.000  C
  C1455    1.0000 0.13069  0.77188  0.88047  Biso   1.000  C
  Cl223    1.0000 0.28274  0.98009  0.01152  Biso   1.000  Cl
  Cl224    1.0000 0.54817  0.14694  0.00861  Biso   1.000  Cl
  C1456    1.0000 0.33416  0.57154  0.95456  Biso   1.000  C
  H813     1.0000 0.48035  0.98127  0.87863  Biso   1.000  H
  C1457    1.0000 0.65100  0.07294  0.88073  Biso   1.000  C
  C1458    1.0000 0.74235  0.96931  0.88164  Biso   1.000  C
  H814     1.0000 0.64058  0.80024  0.88033  Biso   1.000  H
  H815     1.0000 0.01875  0.49918  0.87863  Biso   1.000  H
  C1459    1.0000 0.92708  0.57803  0.88073  Biso   1.000  C
  C1460    1.0000 0.03066  0.77308  0.88164  Biso   1.000  C
  H816     1.0000 0.19975  0.84031  0.88033  Biso   1.000  H
  N210     1.0000 0.23263  0.56513  0.95458  Biso   1.000  N
  N211     1.0000 0.43488  0.66748  0.95458  Biso   1.000  N
  H817     1.0000 0.65458  0.14342  0.88083  Biso   1.000  H
  N212     1.0000 0.74817  0.07004  0.88175  Biso   1.000  N
  H818     1.0000 0.80958  0.96675  0.88243  Biso   1.000  H
  H819     1.0000 0.85656  0.51114  0.88083  Biso   1.000  H
  N213     1.0000 0.93001  0.67816  0.88175  Biso   1.000  N
  H820     1.0000 0.03330  0.84287  0.88243  Biso   1.000  H
  C1461    1.0000 0.23746  0.66594  0.95456  Biso   1.000  C
  C1462    1.0000 0.42853  0.76265  0.95456  Biso   1.000  C
  B85      1.0000 0.87590  0.18964  0.88471  Biso   1.000  B
  B86      1.0000 0.81036  0.68628  0.88471  Biso   1.000  B
  N214     1.0000 0.33252  0.76744  0.95458  Biso   1.000  N
  C1463    1.0000 0.12673  0.66364  0.95386  Biso   1.000  C
  C1464    1.0000 0.53690  0.87329  0.95386  Biso   1.000  C
  C1465    1.0000 0.88497  0.20852  0.90139  Biso   1.000  C
  O205     1.0000 0.87468  0.27747  0.87559  Biso   1.000  O
  O206     1.0000 0.95776  0.16205  0.87800  Biso   1.000  O
  C1466    1.0000 0.79147  0.67645  0.90139  Biso   1.000  C
  O207     1.0000 0.72257  0.59726  0.87559  Biso   1.000  O
  O208     1.0000 0.83793  0.79571  0.87800  Biso   1.000  O
  C1467    1.0000 0.12042  0.76334  0.95386  Biso   1.000  C
  C1468    1.0000 0.02552  0.56155  0.95286  Biso   1.000  C
  C1469    1.0000 0.64290  0.87961  0.95386  Biso   1.000  C
  C1470    1.0000 0.53602  0.97452  0.95286  Biso   1.000  C
  C1471    1.0000 0.83435  0.26311  0.90838  Biso   1.000  C
  C1472    1.0000 0.93395  0.16222  0.91013  Biso   1.000  C
  C1473    1.0000 0.92027  0.26995  0.86274  Biso   1.000  C
  C1474    1.0000 0.96737  0.19827  0.86409  Biso   1.000  C
  C1475    1.0000 0.73684  0.57120  0.90838  Biso   1.000  C
  C1476    1.0000 0.83776  0.77171  0.91013  Biso   1.000  C
  C1477    1.0000 0.73008  0.65031  0.86274  Biso   1.000  C
  C1478    1.0000 0.80178  0.76915  0.86409  Biso   1.000  C
  H821     1.0000 0.18628  0.83424  0.95470  Biso   1.000  H
  C1479    1.0000 0.01571  0.75531  0.95261  Biso   1.000  C
  H822     1.0000 0.02611  0.49303  0.95300  Biso   1.000  H
  C1480    1.0000 0.92430  0.56035  0.95169  Biso   1.000  C
  H823     1.0000 0.64792  0.81374  0.95470  Biso   1.000  H
  C1481    1.0000 0.73966  0.98435  0.95261  Biso   1.000  C
  H824     1.0000 0.46691  0.97393  0.95300  Biso   1.000  H
  C1482    1.0000 0.63602  0.07568  0.95169  Biso   1.000  C
  C1483    1.0000 0.82890  0.26730  0.92321  Biso   1.000  C
  H825     1.0000 0.80304  0.29814  0.90294  Biso   1.000  H
  C1484    1.0000 0.92980  0.16769  0.92495  Biso   1.000  C
  H826     1.0000 0.97048  0.12651  0.90593  Biso   1.000  H
  C1485    1.0000 0.92398  0.31984  0.84988  Biso   1.000  C
  C1486    1.0000 0.01545  0.17384  0.85270  Biso   1.000  C
  H827     1.0000 0.70185  0.50490  0.90294  Biso   1.000  H
  C1487    1.0000 0.73272  0.56163  0.92321  Biso   1.000  C
  C1488    1.0000 0.83231  0.76214  0.92495  Biso   1.000  C
  H828     1.0000 0.87346  0.84398  0.90593  Biso   1.000  H
  C1489    1.0000 0.68016  0.60418  0.84988  Biso   1.000  C
  C1490    1.0000 0.82621  0.84168  0.85270  Biso   1.000  C
  H829     1.0000 0.01209  0.82220  0.95250  Biso   1.000  H
  N215     1.0000 0.91852  0.65518  0.95159  Biso   1.000  N
  H830     1.0000 0.85710  0.49047  0.95090  Biso   1.000  H
  H831     1.0000 0.81011  0.98794  0.95250  Biso   1.000  H
  N216     1.0000 0.73666  0.08149  0.95159  Biso   1.000  N
  H832     1.0000 0.63338  0.14291  0.95090  Biso   1.000  H
  C1491    1.0000 0.87523  0.21835  0.93194  Biso   1.000  C
  H833     1.0000 0.79320  0.30378  0.92740  Biso   1.000  H
  H834     1.0000 0.96485  0.13642  0.93040  Biso   1.000  H
  C1492    1.0000 0.96920  0.29472  0.83811  Biso   1.000  C
  H835     1.0000 0.89616  0.37016  0.84904  Biso   1.000  H
  H836     1.0000 0.04814  0.12779  0.85374  Biso   1.000  H
  C1493    1.0000 0.01362  0.22108  0.83946  Biso   1.000  C
  C1494    1.0000 0.78168  0.65689  0.93194  Biso   1.000  C
  H837     1.0000 0.69619  0.48944  0.92740  Biso   1.000  H
  H838     1.0000 0.86361  0.82844  0.93040  Biso   1.000  H
  C1495    1.0000 0.70521  0.67440  0.83811  Biso   1.000  C
  H839     1.0000 0.62983  0.52601  0.84904  Biso   1.000  H
  H840     1.0000 0.87228  0.92036  0.85374  Biso   1.000  H
  C1496    1.0000 0.77893  0.79255  0.83946  Biso   1.000  C
  B87      1.0000 0.79080  0.64715  0.94862  Biso   1.000  B
  B88      1.0000 0.85630  0.20921  0.94862  Biso   1.000  B
  Cl225    1.0000 0.96931  0.35324  0.82181  Biso   1.000  Cl
  Cl226    1.0000 0.06789  0.18640  0.82472  Biso   1.000  Cl
  Cl227    1.0000 0.64678  0.61614  0.82181  Biso   1.000  Cl
  Cl228    1.0000 0.81356  0.88149  0.82472  Biso   1.000  Cl
  O209     1.0000 0.79198  0.73608  0.95774  Biso   1.000  O
  O210     1.0000 0.70888  0.53762  0.95533  Biso   1.000  O
  O211     1.0000 0.94412  0.20801  0.95774  Biso   1.000  O
  O212     1.0000 0.82868  0.29114  0.95533  Biso   1.000  O
  C1497    1.0000 0.74644  0.68303  0.97059  Biso   1.000  C
  C1498    1.0000 0.69931  0.56419  0.96924  Biso   1.000  C
  C1499    1.0000 0.93660  0.25363  0.97059  Biso   1.000  C
  C1500    1.0000 0.86491  0.30070  0.96924  Biso   1.000  C
  C1501    1.0000 0.74269  0.72925  0.98345  Biso   1.000  C
  C1502    1.0000 0.65125  0.49175  0.98065  Biso   1.000  C
  C1503    1.0000 0.98652  0.25730  0.98345  Biso   1.000  C
  C1504    1.0000 0.84050  0.34880  0.98065  Biso   1.000  C
  C1505    1.0000 0.69748  0.65894  0.99522  Biso   1.000  C
  H841     1.0000 0.77049  0.80733  0.98429  Biso   1.000  H
  H842     1.0000 0.61859  0.41298  0.97960  Biso   1.000  H
  C1506    1.0000 0.65305  0.54079  0.99387  Biso   1.000  C
  C1507    1.0000 0.96140  0.30250  0.99522  Biso   1.000  C
  H843     1.0000 0.03686  0.22954  0.98429  Biso   1.000  H
  H844     1.0000 0.79445  0.38144  0.97960  Biso   1.000  H
  C1508    1.0000 0.88773  0.34692  0.99387  Biso   1.000  C
  Cl229    1.0000 0.69735  0.71729  0.01152  Biso   1.000  Cl
  Cl230    1.0000 0.59874  0.45185  0.00861  Biso   1.000  Cl
  Cl231    1.0000 0.01993  0.30267  0.01152  Biso   1.000  Cl
  Cl232    1.0000 0.85304  0.40126  0.00861  Biso   1.000  Cl
