data_image0
_cell_length_a       13.516
_cell_length_b       13.516
_cell_length_c       93.155
_cell_angle_alpha    90
_cell_angle_beta     90
_cell_angle_gamma    120

_symmetry_space_group_name_H-M    "P 1"
_symmetry_int_tables_number       1

loop_
  _symmetry_equiv_pos_as_xyz
  'x, y, z'

loop_
  _atom_site_label
  _atom_site_occupancy
  _atom_site_fract_x
  _atom_site_fract_y
  _atom_site_fract_z
  _atom_site_thermal_displace_type
  _atom_site_B_iso_or_equiv
  _atom_site_type_symbol
  C1       1.0000 0.03865  0.34113  0.50478  Biso   1.000  C
  C2       1.0000 0.11233  0.45920  0.50613  Biso   1.000  C
  C3       1.0000 0.01348  0.27082  0.51655  Biso   1.000  C
  Cl1      1.0000 0.98010  0.28278  0.48849  Biso   1.000  Cl
  C4       1.0000 0.15953  0.50832  0.51936  Biso   1.000  C
  Cl2      1.0000 0.14693  0.54822  0.49139  Biso   1.000  Cl
  C5       1.0000 0.06345  0.31704  0.52941  Biso   1.000  C
  H1       1.0000 0.96327  0.19273  0.51570  Biso   1.000  H
  C6       1.0000 0.13510  0.43579  0.53075  Biso   1.000  C
  H2       1.0000 0.20561  0.58700  0.52040  Biso   1.000  H
  O1       1.0000 0.05589  0.26390  0.54226  Biso   1.000  O
  O2       1.0000 0.17129  0.46244  0.54467  Biso   1.000  O
  B1       1.0000 0.14368  0.35292  0.55138  Biso   1.000  B
  C7       1.0000 0.12479  0.34310  0.56806  Biso   1.000  C
  N1       1.0000 0.26333  0.34480  0.54841  Biso   1.000  N
  C8       1.0000 0.07021  0.23793  0.57505  Biso   1.000  C
  C9       1.0000 0.17113  0.43844  0.57679  Biso   1.000  C
  C10      1.0000 0.26040  0.24468  0.54739  Biso   1.000  C
  C11      1.0000 0.36399  0.43972  0.54831  Biso   1.000  C
  H3       1.0000 0.03521  0.17163  0.56960  Biso   1.000  H
  C12      1.0000 0.06605  0.22827  0.58988  Biso   1.000  C
  C13      1.0000 0.16563  0.42878  0.59162  Biso   1.000  C
  H4       1.0000 0.20678  0.51063  0.57260  Biso   1.000  H
  C14      1.0000 0.35712  0.23673  0.54614  Biso   1.000  C
  H5       1.0000 0.18988  0.17778  0.54750  Biso   1.000  H
  H6       1.0000 0.36663  0.50952  0.54910  Biso   1.000  H
  C15      1.0000 0.46401  0.43852  0.54714  Biso   1.000  C
  C16      1.0000 0.11501  0.32353  0.59860  Biso   1.000  C
  H7       1.0000 0.02951  0.15608  0.59406  Biso   1.000  H
  H8       1.0000 0.19693  0.49508  0.59707  Biso   1.000  H
  C17      1.0000 0.46313  0.33643  0.54614  Biso   1.000  C
  H9       1.0000 0.35215  0.16582  0.54530  Biso   1.000  H
  H10      1.0000 0.53311  0.50704  0.54700  Biso   1.000  H
  B2       1.0000 0.12412  0.31379  0.61529  Biso   1.000  B
  C18      1.0000 0.57155  0.33413  0.54544  Biso   1.000  C
  O3       1.0000 0.12535  0.40281  0.62441  Biso   1.000  O
  O4       1.0000 0.04221  0.20427  0.62200  Biso   1.000  O
  N2       1.0000 0.25188  0.32191  0.61826  Biso   1.000  N
  N3       1.0000 0.56512  0.23263  0.54542  Biso   1.000  N
  N4       1.0000 0.66753  0.43493  0.54542  Biso   1.000  N
  C19      1.0000 0.07976  0.34967  0.63726  Biso   1.000  C
  C20      1.0000 0.03263  0.23084  0.63592  Biso   1.000  C
  C21      1.0000 0.34903  0.42195  0.61928  Biso   1.000  C
  C22      1.0000 0.25762  0.22699  0.61836  Biso   1.000  C
  C23      1.0000 0.66591  0.23742  0.54544  Biso   1.000  C
  C24      1.0000 0.76265  0.42853  0.54544  Biso   1.000  C
  C25      1.0000 0.07602  0.39589  0.65012  Biso   1.000  C
  C26      1.0000 0.98457  0.15839  0.64731  Biso   1.000  C
  C27      1.0000 0.45374  0.42998  0.62052  Biso   1.000  C
  H11      1.0000 0.34541  0.48884  0.61916  Biso   1.000  H
  H12      1.0000 0.19046  0.15720  0.61756  Biso   1.000  H
  C28      1.0000 0.35884  0.22819  0.61953  Biso   1.000  C
  N5       1.0000 0.76739  0.33250  0.54542  Biso   1.000  N
  C29      1.0000 0.66360  0.12670  0.54614  Biso   1.000  C
  C30      1.0000 0.87331  0.53694  0.54614  Biso   1.000  C
  C31      1.0000 0.03087  0.32558  0.66189  Biso   1.000  C
  H13      1.0000 0.10381  0.47398  0.65097  Biso   1.000  H
  H14      1.0000 0.95196  0.07971  0.64627  Biso   1.000  H
  C32      1.0000 0.98645  0.20743  0.66053  Biso   1.000  C
  C33      1.0000 0.46005  0.33028  0.62052  Biso   1.000  C
  H15      1.0000 0.51968  0.50089  0.62136  Biso   1.000  H
  H16      1.0000 0.35943  0.15967  0.61967  Biso   1.000  H
  C34      1.0000 0.76328  0.12037  0.54614  Biso   1.000  C
  C35      1.0000 0.56149  0.02546  0.54714  Biso   1.000  C
  C36      1.0000 0.87959  0.64288  0.54614  Biso   1.000  C
  C37      1.0000 0.97450  0.53600  0.54714  Biso   1.000  C
  Cl3      1.0000 0.03068  0.38393  0.67818  Biso   1.000  Cl
  Cl4      1.0000 0.93214  0.11849  0.67527  Biso   1.000  Cl
  C38      1.0000 0.57078  0.33259  0.62122  Biso   1.000  C
  H17      1.0000 0.83421  0.18633  0.54530  Biso   1.000  H
  C39      1.0000 0.75534  0.01572  0.54739  Biso   1.000  C
  H18      1.0000 0.49302  0.02614  0.54700  Biso   1.000  H
  C40      1.0000 0.56033  0.92431  0.54831  Biso   1.000  C
  H19      1.0000 0.81375  0.64792  0.54530  Biso   1.000  H
  C41      1.0000 0.98432  0.73959  0.54739  Biso   1.000  C
  H20      1.0000 0.97390  0.46689  0.54700  Biso   1.000  H
  C42      1.0000 0.07572  0.63604  0.54831  Biso   1.000  C
  N6       1.0000 0.66584  0.43408  0.62124  Biso   1.000  N
  N7       1.0000 0.56595  0.23178  0.62124  Biso   1.000  N
  H21      1.0000 0.82221  0.01213  0.54750  Biso   1.000  H
  N8       1.0000 0.65516  0.91850  0.54841  Biso   1.000  N
  H22      1.0000 0.49051  0.85716  0.54910  Biso   1.000  H
  H23      1.0000 0.98794  0.81015  0.54750  Biso   1.000  H
  N9       1.0000 0.08150  0.73668  0.54841  Biso   1.000  N
  H24      1.0000 0.14290  0.63339  0.54910  Biso   1.000  H
  C43      1.0000 0.76185  0.42930  0.62122  Biso   1.000  C
  C44      1.0000 0.66748  0.23818  0.62122  Biso   1.000  C
  B3       1.0000 0.64713  0.79086  0.55138  Biso   1.000  B
  B4       1.0000 0.20922  0.85629  0.55138  Biso   1.000  B
  N10      1.0000 0.76824  0.33421  0.62124  Biso   1.000  N
  C45      1.0000 0.87026  0.54002  0.62052  Biso   1.000  C
  C46      1.0000 0.66972  0.12977  0.62052  Biso   1.000  C
  C47      1.0000 0.65692  0.78172  0.56806  Biso   1.000  C
  O5       1.0000 0.73614  0.79206  0.54226  Biso   1.000  O
  O6       1.0000 0.53758  0.70893  0.54467  Biso   1.000  O
  C48      1.0000 0.21833  0.87525  0.56806  Biso   1.000  C
  O7       1.0000 0.20800  0.94411  0.54226  Biso   1.000  O
  O8       1.0000 0.29108  0.82869  0.54467  Biso   1.000  O
  C49      1.0000 0.97622  0.54625  0.62052  Biso   1.000  C
  C50      1.0000 0.86934  0.64117  0.61953  Biso   1.000  C
  C51      1.0000 0.57003  0.02375  0.62052  Biso   1.000  C
  C52      1.0000 0.77185  0.13071  0.61953  Biso   1.000  C
  C53      1.0000 0.76211  0.83230  0.57505  Biso   1.000  C
  C54      1.0000 0.56163  0.73277  0.57679  Biso   1.000  C
  C55      1.0000 0.68300  0.74644  0.52941  Biso   1.000  C
  C56      1.0000 0.56424  0.69936  0.53075  Biso   1.000  C
  C57      1.0000 0.16772  0.92984  0.57505  Biso   1.000  C
  C58      1.0000 0.26732  0.82895  0.57679  Biso   1.000  C
  C59      1.0000 0.25359  0.93659  0.52941  Biso   1.000  C
  C60      1.0000 0.30069  0.86491  0.53075  Biso   1.000  C
  H25      1.0000 0.98124  0.48038  0.62136  Biso   1.000  H
  C61      1.0000 0.07291  0.65099  0.61928  Biso   1.000  C
  C62      1.0000 0.96938  0.74241  0.61836  Biso   1.000  C
  H26      1.0000 0.80023  0.64057  0.61967  Biso   1.000  H
  H27      1.0000 0.49919  0.01880  0.62136  Biso   1.000  H
  C63      1.0000 0.57809  0.92713  0.61928  Biso   1.000  C
  C64      1.0000 0.77303  0.03067  0.61836  Biso   1.000  C
  H28      1.0000 0.84033  0.19974  0.61967  Biso   1.000  H
  H29      1.0000 0.82847  0.86365  0.56960  Biso   1.000  H
  C65      1.0000 0.77172  0.83776  0.58988  Biso   1.000  C
  C66      1.0000 0.57123  0.73687  0.59162  Biso   1.000  C
  H30      1.0000 0.48942  0.69620  0.57260  Biso   1.000  H
  C67      1.0000 0.72925  0.74276  0.51655  Biso   1.000  C
  C68      1.0000 0.49173  0.65127  0.51936  Biso   1.000  C
  H31      1.0000 0.13636  0.96478  0.56960  Biso   1.000  H
  C69      1.0000 0.16222  0.93394  0.58988  Biso   1.000  C
  C70      1.0000 0.26317  0.83442  0.59162  Biso   1.000  C
  H32      1.0000 0.30384  0.79324  0.57260  Biso   1.000  H
  C71      1.0000 0.25730  0.98648  0.51655  Biso   1.000  C
  C72      1.0000 0.34877  0.84048  0.51936  Biso   1.000  C
  H33      1.0000 0.14343  0.65458  0.61916  Biso   1.000  H
  N11      1.0000 0.07002  0.74821  0.61826  Biso   1.000  N
  H34      1.0000 0.96670  0.80955  0.61756  Biso   1.000  H
  H35      1.0000 0.51114  0.85656  0.61916  Biso   1.000  H
  N12      1.0000 0.67817  0.93003  0.61826  Biso   1.000  N
  H36      1.0000 0.84282  0.03323  0.61756  Biso   1.000  H
  C73      1.0000 0.67643  0.79146  0.59860  Biso   1.000  C
  H37      1.0000 0.84396  0.87348  0.59406  Biso   1.000  H
  H38      1.0000 0.50493  0.70193  0.59707  Biso   1.000  H
  C74      1.0000 0.65889  0.69748  0.50478  Biso   1.000  C
  H39      1.0000 0.80736  0.77053  0.51570  Biso   1.000  H
  H40      1.0000 0.41304  0.61863  0.52040  Biso   1.000  H
  C75      1.0000 0.54084  0.65315  0.50613  Biso   1.000  C
  C76      1.0000 0.20855  0.88499  0.59860  Biso   1.000  C
  H41      1.0000 0.12657  0.97051  0.59406  Biso   1.000  H
  H42      1.0000 0.29810  0.80306  0.59707  Biso   1.000  H
  C77      1.0000 0.30249  0.96145  0.50478  Biso   1.000  C
  H43      1.0000 0.22949  0.03680  0.51570  Biso   1.000  H
  H44      1.0000 0.38138  0.79443  0.52040  Biso   1.000  H
  C78      1.0000 0.34694  0.88773  0.50613  Biso   1.000  C
  B5       1.0000 0.18963  0.87585  0.61529  Biso   1.000  B
  B6       1.0000 0.68629  0.81043  0.61529  Biso   1.000  B
  Cl5      1.0000 0.71730  0.69740  0.48849  Biso   1.000  Cl
  Cl6      1.0000 0.45182  0.59881  0.49139  Biso   1.000  Cl
  Cl7      1.0000 0.30263  0.01989  0.48849  Biso   1.000  Cl
  Cl8      1.0000 0.40122  0.85304  0.49139  Biso   1.000  Cl
  O9       1.0000 0.27744  0.87465  0.62441  Biso   1.000  O
  O10      1.0000 0.16201  0.95778  0.62200  Biso   1.000  O
  O11      1.0000 0.59724  0.72260  0.62441  Biso   1.000  O
  O12      1.0000 0.79575  0.83802  0.62200  Biso   1.000  O
  C79      1.0000 0.26992  0.92027  0.63726  Biso   1.000  C
  C80      1.0000 0.19823  0.96735  0.63592  Biso   1.000  C
  C81      1.0000 0.65035  0.73012  0.63726  Biso   1.000  C
  C82      1.0000 0.76913  0.80180  0.63592  Biso   1.000  C
  C83      1.0000 0.31985  0.92395  0.65012  Biso   1.000  C
  C84      1.0000 0.17382  0.01545  0.64731  Biso   1.000  C
  C85      1.0000 0.60417  0.68023  0.65012  Biso   1.000  C
  C86      1.0000 0.84164  0.82623  0.64731  Biso   1.000  C
  C87      1.0000 0.29472  0.96914  0.66189  Biso   1.000  C
  H45      1.0000 0.37011  0.89618  0.65097  Biso   1.000  H
  H46      1.0000 0.12777  0.04808  0.64627  Biso   1.000  H
  C88      1.0000 0.22105  0.01357  0.66053  Biso   1.000  C
  C89      1.0000 0.67447  0.70526  0.66189  Biso   1.000  C
  H47      1.0000 0.52604  0.62991  0.65097  Biso   1.000  H
  H48      1.0000 0.92038  0.87228  0.64627  Biso   1.000  H
  C90      1.0000 0.79257  0.77899  0.66053  Biso   1.000  C
  Cl9      1.0000 0.35318  0.96931  0.67818  Biso   1.000  Cl
  Cl10     1.0000 0.18636  0.06790  0.67527  Biso   1.000  Cl
  Cl11     1.0000 0.61610  0.64682  0.67818  Biso   1.000  Cl
  Cl12     1.0000 0.88153  0.81367  0.67527  Biso   1.000  Cl
  N13      1.0000 0.33251  0.56513  0.45458  Biso   1.000  N
  C91      1.0000 0.42849  0.66594  0.45456  Biso   1.000  C
  C92      1.0000 0.23738  0.57154  0.45456  Biso   1.000  C
  C93      1.0000 0.53691  0.66364  0.45386  Biso   1.000  C
  N14      1.0000 0.43492  0.76744  0.45458  Biso   1.000  N
  N15      1.0000 0.23260  0.66748  0.45458  Biso   1.000  N
  C94      1.0000 0.12673  0.46313  0.45386  Biso   1.000  C
  C95      1.0000 0.64291  0.76334  0.45386  Biso   1.000  C
  C96      1.0000 0.53603  0.56155  0.45286  Biso   1.000  C
  C97      1.0000 0.33412  0.76265  0.45456  Biso   1.000  C
  C98      1.0000 0.12040  0.35711  0.45386  Biso   1.000  C
  C99      1.0000 0.02549  0.46398  0.45286  Biso   1.000  C
  C100     1.0000 0.73959  0.75531  0.45261  Biso   1.000  C
  H49      1.0000 0.64796  0.83424  0.45470  Biso   1.000  H
  C101     1.0000 0.63605  0.56035  0.45169  Biso   1.000  C
  H50      1.0000 0.46692  0.49303  0.45300  Biso   1.000  H
  C102     1.0000 0.33639  0.87329  0.45386  Biso   1.000  C
  H51      1.0000 0.18632  0.35207  0.45470  Biso   1.000  H
  C103     1.0000 0.01567  0.26040  0.45261  Biso   1.000  C
  H52      1.0000 0.02609  0.53310  0.45300  Biso   1.000  H
  C104     1.0000 0.92432  0.36403  0.45169  Biso   1.000  C
  N16      1.0000 0.73666  0.65518  0.45159  Biso   1.000  N
  H53      1.0000 0.81011  0.82220  0.45250  Biso   1.000  H
  H54      1.0000 0.63337  0.49047  0.45090  Biso   1.000  H
  C105     1.0000 0.23671  0.87961  0.45386  Biso   1.000  C
  C106     1.0000 0.43851  0.97452  0.45286  Biso   1.000  C
  H55      1.0000 0.01209  0.18992  0.45250  Biso   1.000  H
  N17      1.0000 0.91850  0.26330  0.45159  Biso   1.000  N
  H56      1.0000 0.85709  0.36659  0.45090  Biso   1.000  H
  B7       1.0000 0.85635  0.64715  0.44862  Biso   1.000  B
  H57      1.0000 0.16582  0.81374  0.45470  Biso   1.000  H
  C107     1.0000 0.24469  0.98435  0.45261  Biso   1.000  C
  H58      1.0000 0.50701  0.97393  0.45300  Biso   1.000  H
  C108     1.0000 0.43966  0.07568  0.45169  Biso   1.000  C
  B8       1.0000 0.79077  0.14370  0.44862  Biso   1.000  B
  C109     1.0000 0.87520  0.65689  0.43194  Biso   1.000  C
  O13      1.0000 0.94410  0.73608  0.45774  Biso   1.000  O
  O14      1.0000 0.82874  0.53762  0.45533  Biso   1.000  O
  H59      1.0000 0.17782  0.98794  0.45250  Biso   1.000  H
  N18      1.0000 0.34483  0.08149  0.45159  Biso   1.000  N
  H60      1.0000 0.50953  0.14291  0.45090  Biso   1.000  H
  C110     1.0000 0.78170  0.12482  0.43194  Biso   1.000  C
  O15      1.0000 0.79199  0.05587  0.45774  Biso   1.000  O
  O16      1.0000 0.70891  0.17129  0.45533  Biso   1.000  O
  C111     1.0000 0.82891  0.56163  0.42321  Biso   1.000  C
  C112     1.0000 0.92983  0.76214  0.42495  Biso   1.000  C
  C113     1.0000 0.93659  0.68303  0.47059  Biso   1.000  C
  C114     1.0000 0.86489  0.56419  0.46925  Biso   1.000  C
  B9       1.0000 0.35290  0.20921  0.44862  Biso   1.000  B
  C115     1.0000 0.73272  0.17112  0.42321  Biso   1.000  C
  C116     1.0000 0.83232  0.07023  0.42495  Biso   1.000  C
  C117     1.0000 0.74640  0.06339  0.47059  Biso   1.000  C
  C118     1.0000 0.69930  0.13507  0.46925  Biso   1.000  C
  C119     1.0000 0.83436  0.57120  0.40838  Biso   1.000  C
  H61      1.0000 0.79326  0.48944  0.42740  Biso   1.000  H
  C120     1.0000 0.93395  0.77171  0.41012  Biso   1.000  C
  H62      1.0000 0.96482  0.82844  0.43040  Biso   1.000  H
  C121     1.0000 0.98655  0.72925  0.48345  Biso   1.000  C
  C122     1.0000 0.84050  0.49175  0.48064  Biso   1.000  C
  C123     1.0000 0.34308  0.21826  0.43194  Biso   1.000  C
  O17      1.0000 0.26389  0.20801  0.45774  Biso   1.000  O
  O18      1.0000 0.46241  0.29105  0.45533  Biso   1.000  O
  C124     1.0000 0.73687  0.16565  0.40838  Biso   1.000  C
  H63      1.0000 0.69619  0.20683  0.42740  Biso   1.000  H
  C125     1.0000 0.83777  0.06604  0.41012  Biso   1.000  C
  H64      1.0000 0.86363  0.03520  0.43040  Biso   1.000  H
  C126     1.0000 0.74269  0.01350  0.48345  Biso   1.000  C
  C127     1.0000 0.65122  0.15950  0.48064  Biso   1.000  C
  C128     1.0000 0.88499  0.67645  0.40140  Biso   1.000  C
  H65      1.0000 0.80306  0.50490  0.40293  Biso   1.000  H
  H66      1.0000 0.97053  0.84398  0.40594  Biso   1.000  H
  C129     1.0000 0.96146  0.65894  0.49522  Biso   1.000  C
  H67      1.0000 0.03684  0.80733  0.48430  Biso   1.000  H
  H68      1.0000 0.79439  0.41298  0.47960  Biso   1.000  H
  C130     1.0000 0.88774  0.54079  0.49387  Biso   1.000  C
  C131     1.0000 0.43840  0.26730  0.42321  Biso   1.000  C
  C132     1.0000 0.23788  0.16769  0.42495  Biso   1.000  C
  C133     1.0000 0.31699  0.25355  0.47059  Biso   1.000  C
  C134     1.0000 0.43579  0.30070  0.46925  Biso   1.000  C
  C135     1.0000 0.79148  0.11508  0.40140  Biso   1.000  C
  H69      1.0000 0.70189  0.19692  0.40293  Biso   1.000  H
  H70      1.0000 0.87347  0.02956  0.40594  Biso   1.000  H
  H71      1.0000 0.77055  0.96326  0.48430  Biso   1.000  H
  C136     1.0000 0.69754  0.03862  0.49522  Biso   1.000  C
  H72      1.0000 0.61865  0.20564  0.47960  Biso   1.000  H
  C137     1.0000 0.65309  0.11234  0.49387  Biso   1.000  C
  B10      1.0000 0.87591  0.68628  0.38471  Biso   1.000  B
  Cl13     1.0000 0.01993  0.71729  0.51151  Biso   1.000  Cl
  Cl14     1.0000 0.85311  0.45185  0.50861  Biso   1.000  Cl
  C138     1.0000 0.42876  0.26311  0.40838  Biso   1.000  C
  H73      1.0000 0.51058  0.30378  0.42740  Biso   1.000  H
  C139     1.0000 0.22827  0.16222  0.41012  Biso   1.000  C
  H74      1.0000 0.17164  0.13642  0.43040  Biso   1.000  H
  C140     1.0000 0.27078  0.25730  0.48345  Biso   1.000  C
  C141     1.0000 0.50830  0.34880  0.48064  Biso   1.000  C
  B11      1.0000 0.81036  0.12413  0.38471  Biso   1.000  B
  Cl15     1.0000 0.69740  0.98018  0.51151  Biso   1.000  Cl
  Cl16     1.0000 0.59877  0.14694  0.50861  Biso   1.000  Cl
  O19      1.0000 0.87469  0.59726  0.37559  Biso   1.000  O
  O20      1.0000 0.95779  0.79571  0.37800  Biso   1.000  O
  N19      1.0000 0.74815  0.67816  0.38174  Biso   1.000  N
  C142     1.0000 0.32356  0.20852  0.40140  Biso   1.000  C
  H75      1.0000 0.49510  0.29814  0.40293  Biso   1.000  H
  H76      1.0000 0.15603  0.12651  0.40594  Biso   1.000  H
  C143     1.0000 0.34110  0.30250  0.49522  Biso   1.000  C
  H77      1.0000 0.19271  0.22945  0.48430  Biso   1.000  H
  H78      1.0000 0.58695  0.38135  0.47960  Biso   1.000  H
  C144     1.0000 0.45920  0.34692  0.49387  Biso   1.000  C
  N20      1.0000 0.93001  0.25185  0.38174  Biso   1.000  N
  O21      1.0000 0.72255  0.12533  0.37559  Biso   1.000  O
  O22      1.0000 0.83799  0.04220  0.37800  Biso   1.000  O
  C145     1.0000 0.92023  0.65031  0.36274  Biso   1.000  C
  C146     1.0000 0.96736  0.76915  0.36408  Biso   1.000  C
  C147     1.0000 0.65096  0.57803  0.38072  Biso   1.000  C
  C148     1.0000 0.74241  0.77308  0.38164  Biso   1.000  C
  B12      1.0000 0.31375  0.18964  0.38471  Biso   1.000  B
  Cl17     1.0000 0.28281  0.30267  0.51151  Biso   1.000  Cl
  Cl18     1.0000 0.54822  0.40126  0.50861  Biso   1.000  Cl
  C149     1.0000 0.92713  0.34908  0.38072  Biso   1.000  C
  C150     1.0000 0.03065  0.25766  0.38164  Biso   1.000  C
  C151     1.0000 0.73007  0.07971  0.36274  Biso   1.000  C
  C152     1.0000 0.80176  0.03264  0.36408  Biso   1.000  C
  C153     1.0000 0.92402  0.60418  0.34988  Biso   1.000  C
  C154     1.0000 0.01547  0.84168  0.35269  Biso   1.000  C
  C155     1.0000 0.54625  0.57000  0.37948  Biso   1.000  C
  H79      1.0000 0.65458  0.51114  0.38084  Biso   1.000  H
  H80      1.0000 0.80957  0.84287  0.38244  Biso   1.000  H
  C156     1.0000 0.64119  0.77188  0.38047  Biso   1.000  C
  N21      1.0000 0.32186  0.07004  0.38174  Biso   1.000  N
  O23      1.0000 0.40275  0.27738  0.37559  Biso   1.000  O
  O24      1.0000 0.20429  0.16205  0.37800  Biso   1.000  O
  C157     1.0000 0.02377  0.45373  0.37948  Biso   1.000  C
  H81      1.0000 0.85656  0.34540  0.38084  Biso   1.000  H
  C158     1.0000 0.13065  0.35881  0.38047  Biso   1.000  C
  H82      1.0000 0.03329  0.19043  0.38244  Biso   1.000  H
  C159     1.0000 0.68015  0.07603  0.34988  Biso   1.000  C
  C160     1.0000 0.82617  0.98454  0.35269  Biso   1.000  C
  C161     1.0000 0.96919  0.67440  0.33811  Biso   1.000  C
  H83      1.0000 0.89618  0.52601  0.34903  Biso   1.000  H
  C162     1.0000 0.01355  0.79255  0.33947  Biso   1.000  C
  H84      1.0000 0.04808  0.92036  0.35373  Biso   1.000  H
  C163     1.0000 0.53994  0.66970  0.37948  Biso   1.000  C
  H85      1.0000 0.48043  0.49918  0.37864  Biso   1.000  H
  H86      1.0000 0.64056  0.84031  0.38033  Biso   1.000  H
  C164     1.0000 0.42194  0.07294  0.38072  Biso   1.000  C
  C165     1.0000 0.22696  0.96931  0.38164  Biso   1.000  C
  C166     1.0000 0.34968  0.26995  0.36274  Biso   1.000  C
  C167     1.0000 0.23086  0.19819  0.36408  Biso   1.000  C
  C168     1.0000 0.12977  0.46005  0.37948  Biso   1.000  C
  H87      1.0000 0.01879  0.51968  0.37864  Biso   1.000  H
  H88      1.0000 0.19976  0.35941  0.38033  Biso   1.000  H
  C169     1.0000 0.70527  0.03084  0.33811  Biso   1.000  C
  H89      1.0000 0.62988  0.10380  0.34903  Biso   1.000  H
  H90      1.0000 0.87226  0.95199  0.35373  Biso   1.000  H
  C170     1.0000 0.77899  0.98650  0.33947  Biso   1.000  C
  Cl19     1.0000 0.96936  0.61614  0.32182  Biso   1.000  Cl
  Cl20     1.0000 0.06785  0.88149  0.32473  Biso   1.000  Cl
  C171     1.0000 0.42926  0.66748  0.37878  Biso   1.000  C
  C172     1.0000 0.42996  0.97623  0.37948  Biso   1.000  C
  H91      1.0000 0.48885  0.14342  0.38084  Biso   1.000  H
  C173     1.0000 0.22818  0.86936  0.38047  Biso   1.000  C
  H92      1.0000 0.15717  0.96675  0.38244  Biso   1.000  H
  C174     1.0000 0.39586  0.31984  0.34988  Biso   1.000  C
  C175     1.0000 0.15839  0.17384  0.35269  Biso   1.000  C
  C176     1.0000 0.23818  0.57077  0.37878  Biso   1.000  C
  Cl21     1.0000 0.64681  0.03067  0.32182  Biso   1.000  Cl
  Cl22     1.0000 0.81367  0.93217  0.32473  Biso   1.000  Cl
  N22      1.0000 0.33415  0.56590  0.37876  Biso   1.000  N
  N23      1.0000 0.43404  0.76821  0.37876  Biso   1.000  N
  C177     1.0000 0.33027  0.87021  0.37948  Biso   1.000  C
  H93      1.0000 0.50092  0.98127  0.37864  Biso   1.000  H
  H94      1.0000 0.15967  0.80024  0.38033  Biso   1.000  H
  C178     1.0000 0.32560  0.29472  0.33811  Biso   1.000  C
  H95      1.0000 0.47400  0.37016  0.34903  Biso   1.000  H
  H96      1.0000 0.07969  0.12770  0.35373  Biso   1.000  H
  C179     1.0000 0.20742  0.22100  0.33947  Biso   1.000  C
  N24      1.0000 0.23179  0.66586  0.37876  Biso   1.000  N
  C180     1.0000 0.33255  0.76188  0.37878  Biso   1.000  C
  Cl23     1.0000 0.38393  0.35324  0.32182  Biso   1.000  Cl
  Cl24     1.0000 0.11850  0.18640  0.32473  Biso   1.000  Cl
  C181     1.0000 0.62809  0.63587  0.32855  Biso   1.000  C
  C182     1.0000 0.65321  0.59068  0.31678  Biso   1.000  C
  C183     1.0000 0.55437  0.68021  0.32721  Biso   1.000  C
  Cl25     1.0000 0.68658  0.63596  0.34484  Biso   1.000  Cl
  C184     1.0000 0.60324  0.58692  0.30392  Biso   1.000  C
  H97      1.0000 0.70351  0.56283  0.31763  Biso   1.000  H
  C185     1.0000 0.50719  0.68218  0.31397  Biso   1.000  C
  Cl26     1.0000 0.51968  0.73455  0.34195  Biso   1.000  Cl
  O25      1.0000 0.61081  0.54138  0.29107  Biso   1.000  O
  C186     1.0000 0.53160  0.63408  0.30258  Biso   1.000  C
  H98      1.0000 0.46109  0.71473  0.31293  Biso   1.000  H
  B13      1.0000 0.52299  0.54258  0.28195  Biso   1.000  B
  O26      1.0000 0.49533  0.62442  0.28866  Biso   1.000  O
  C187     1.0000 0.54187  0.55164  0.26528  Biso   1.000  C
  N25      1.0000 0.40335  0.41486  0.28492  Biso   1.000  N
  C188     1.0000 0.49559  0.60067  0.25654  Biso   1.000  C
  C189     1.0000 0.59649  0.50106  0.25828  Biso   1.000  C
  C190     1.0000 0.40630  0.31764  0.28594  Biso   1.000  C
  C191     1.0000 0.30270  0.40905  0.28502  Biso   1.000  C
  C192     1.0000 0.50104  0.59649  0.24172  Biso   1.000  C
  H99      1.0000 0.45989  0.63715  0.26074  Biso   1.000  H
  C193     1.0000 0.60064  0.49559  0.24345  Biso   1.000  C
  H100     1.0000 0.63149  0.46971  0.26373  Biso   1.000  H
  C194     1.0000 0.30954  0.21290  0.28719  Biso   1.000  C
  H101     1.0000 0.47676  0.32122  0.28584  Biso   1.000  H
  H102     1.0000 0.30003  0.47620  0.28424  Biso   1.000  H
  C195     1.0000 0.20266  0.30781  0.28619  Biso   1.000  C
  C196     1.0000 0.55165  0.54190  0.23473  Biso   1.000  C
  H103     1.0000 0.46972  0.63151  0.23626  Biso   1.000  H
  H104     1.0000 0.63716  0.45988  0.23927  Biso   1.000  H
  C197     1.0000 0.20358  0.20666  0.28719  Biso   1.000  C
  H105     1.0000 0.31456  0.14703  0.28804  Biso   1.000  H
  H106     1.0000 0.13356  0.30721  0.28633  Biso   1.000  H
  B14      1.0000 0.54258  0.52302  0.21805  Biso   1.000  B
  C198     1.0000 0.09517  0.09594  0.28790  Biso   1.000  C
  N26      1.0000 0.41486  0.40341  0.21507  Biso   1.000  N
  O27      1.0000 0.54132  0.61075  0.20893  Biso   1.000  O
  O28      1.0000 0.62441  0.49534  0.21134  Biso   1.000  O
  N27      1.0000 0.10157  0.00085  0.28792  Biso   1.000  N
  N28      1.0000 0.99916  0.10072  0.28792  Biso   1.000  N
  C199     1.0000 0.31769  0.40632  0.21405  Biso   1.000  C
  C200     1.0000 0.40904  0.30269  0.21498  Biso   1.000  C
  C201     1.0000 0.58691  0.60324  0.19608  Biso   1.000  C
  C202     1.0000 0.63401  0.53156  0.19741  Biso   1.000  C
  C203     1.0000 0.00073  0.90483  0.28790  Biso   1.000  C
  C204     1.0000 0.90410  0.99923  0.28790  Biso   1.000  C
  C205     1.0000 0.21296  0.30961  0.21281  Biso   1.000  C
  H107     1.0000 0.32126  0.47680  0.21417  Biso   1.000  H
  C206     1.0000 0.30782  0.20264  0.21380  Biso   1.000  C
  H108     1.0000 0.47622  0.30004  0.21577  Biso   1.000  H
  C207     1.0000 0.59066  0.65321  0.18322  Biso   1.000  C
  C208     1.0000 0.68213  0.50721  0.18602  Biso   1.000  C
  C209     1.0000 0.00309  0.79650  0.28719  Biso   1.000  C
  N29      1.0000 0.89927  0.89842  0.28792  Biso   1.000  N
  C210     1.0000 0.79337  0.99692  0.28719  Biso   1.000  C
  C211     1.0000 0.20663  0.20358  0.21281  Biso   1.000  C
  H109     1.0000 0.14700  0.31456  0.21197  Biso   1.000  H
  H110     1.0000 0.30722  0.13353  0.21367  Biso   1.000  H
  C212     1.0000 0.63589  0.62810  0.17145  Biso   1.000  C
  H111     1.0000 0.56281  0.70345  0.18236  Biso   1.000  H
  H112     1.0000 0.71478  0.46108  0.18706  Biso   1.000  H
  C213     1.0000 0.68026  0.55437  0.17280  Biso   1.000  C
  C214     1.0000 0.90339  0.69048  0.28719  Biso   1.000  C
  C215     1.0000 0.10517  0.79736  0.28619  Biso   1.000  C
  C216     1.0000 0.69216  0.89483  0.28619  Biso   1.000  C
  C217     1.0000 0.78707  0.09662  0.28719  Biso   1.000  C
  C218     1.0000 0.09597  0.09517  0.21211  Biso   1.000  C
  Cl27     1.0000 0.63596  0.68653  0.15515  Biso   1.000  Cl
  Cl28     1.0000 0.73458  0.51977  0.15806  Biso   1.000  Cl
  C219     1.0000 0.91142  0.59377  0.28594  Biso   1.000  C
  H113     1.0000 0.83251  0.68544  0.28804  Biso   1.000  H
  C220     1.0000 0.10639  0.69740  0.28502  Biso   1.000  C
  H114     1.0000 0.17369  0.86647  0.28633  Biso   1.000  H
  C221     1.0000 0.59094  0.89364  0.28502  Biso   1.000  C
  H115     1.0000 0.69280  0.82640  0.28633  Biso   1.000  H
  C222     1.0000 0.68236  0.08859  0.28594  Biso   1.000  C
  H116     1.0000 0.85300  0.16753  0.28804  Biso   1.000  H
  N30      1.0000 0.00085  0.10158  0.21209  Biso   1.000  N
  N31      1.0000 0.10075  0.99923  0.21209  Biso   1.000  N
  N32      1.0000 0.01149  0.59667  0.28492  Biso   1.000  N
  H117     1.0000 0.84451  0.52329  0.28584  Biso   1.000  H
  H118     1.0000 0.17619  0.69996  0.28424  Biso   1.000  H
  N33      1.0000 0.58521  0.98855  0.28492  Biso   1.000  N
  H119     1.0000 0.52379  0.82384  0.28424  Biso   1.000  H
  H120     1.0000 0.67878  0.15557  0.28584  Biso   1.000  H
  C223     1.0000 0.90487  0.00077  0.21211  Biso   1.000  C
  C224     1.0000 0.99923  0.90406  0.21211  Biso   1.000  C
  B15      1.0000 0.01961  0.47707  0.28195  Biso   1.000  B
  B16      1.0000 0.45744  0.98044  0.28195  Biso   1.000  B
  N34      1.0000 0.89844  0.89928  0.21209  Biso   1.000  N
  C225     1.0000 0.79645  0.00308  0.21281  Biso   1.000  C
  C226     1.0000 0.99696  0.79343  0.21281  Biso   1.000  C
  C227     1.0000 0.00980  0.45819  0.26528  Biso   1.000  C
  O29      1.0000 0.93057  0.38925  0.29107  Biso   1.000  O
  O30      1.0000 0.12907  0.50466  0.28866  Biso   1.000  O
  C228     1.0000 0.44837  0.99026  0.26528  Biso   1.000  C
  O31      1.0000 0.37557  0.87100  0.28866  Biso   1.000  O
  O32      1.0000 0.45867  0.06946  0.29107  Biso   1.000  O
  C229     1.0000 0.69044  0.90338  0.21281  Biso   1.000  C
  C230     1.0000 0.79733  0.10517  0.21380  Biso   1.000  C
  C231     1.0000 0.89485  0.69219  0.21380  Biso   1.000  C
  C232     1.0000 0.09664  0.78710  0.21281  Biso   1.000  C
  C233     1.0000 0.90460  0.40360  0.25828  Biso   1.000  C
  C234     1.0000 0.10509  0.50449  0.25654  Biso   1.000  C
  C235     1.0000 0.98367  0.39676  0.30392  Biso   1.000  C
  C236     1.0000 0.10245  0.46844  0.30258  Biso   1.000  C
  C237     1.0000 0.39941  0.89500  0.25654  Biso   1.000  C
  C238     1.0000 0.49896  0.09543  0.25828  Biso   1.000  C
  C239     1.0000 0.36599  0.89757  0.30258  Biso   1.000  C
  C240     1.0000 0.41309  0.01632  0.30392  Biso   1.000  C
  H121     1.0000 0.68547  0.83247  0.21197  Biso   1.000  H
  C241     1.0000 0.59376  0.91141  0.21405  Biso   1.000  C
  C242     1.0000 0.69731  0.10636  0.21498  Biso   1.000  C
  H122     1.0000 0.86644  0.17368  0.21367  Biso   1.000  H
  C243     1.0000 0.89366  0.59095  0.21498  Biso   1.000  C
  H123     1.0000 0.82634  0.69279  0.21367  Biso   1.000  H
  H124     1.0000 0.16753  0.85297  0.21197  Biso   1.000  H
  C244     1.0000 0.08859  0.68236  0.21405  Biso   1.000  C
  C245     1.0000 0.89496  0.39941  0.24345  Biso   1.000  C
  H125     1.0000 0.83833  0.36857  0.26373  Biso   1.000  H
  C246     1.0000 0.09547  0.49903  0.24172  Biso   1.000  C
  H126     1.0000 0.17728  0.54012  0.26074  Biso   1.000  H
  C247     1.0000 0.93749  0.34687  0.31678  Biso   1.000  C
  C248     1.0000 0.17497  0.49287  0.31397  Biso   1.000  C
  C249     1.0000 0.40353  0.90457  0.24172  Biso   1.000  C
  H127     1.0000 0.36283  0.82273  0.26074  Biso   1.000  H
  C250     1.0000 0.50445  0.10508  0.24345  Biso   1.000  C
  H128     1.0000 0.53025  0.16172  0.26373  Biso   1.000  H
  C251     1.0000 0.31789  0.82504  0.31397  Biso   1.000  C
  C252     1.0000 0.40934  0.06254  0.31678  Biso   1.000  C
  H129     1.0000 0.52325  0.84451  0.21417  Biso   1.000  H
  N35      1.0000 0.59665  0.01145  0.21507  Biso   1.000  N
  H130     1.0000 0.69995  0.17616  0.21577  Biso   1.000  H
  N36      1.0000 0.98860  0.58523  0.21507  Biso   1.000  N
  H131     1.0000 0.82383  0.52380  0.21577  Biso   1.000  H
  H132     1.0000 0.15553  0.67878  0.21417  Biso   1.000  H
  C253     1.0000 0.99024  0.44836  0.23473  Biso   1.000  C
  H133     1.0000 0.82274  0.36285  0.23927  Biso   1.000  H
  H134     1.0000 0.16171  0.53029  0.23626  Biso   1.000  H
  H135     1.0000 0.85936  0.29655  0.31763  Biso   1.000  H
  C254     1.0000 0.00776  0.37199  0.32855  Biso   1.000  C
  H136     1.0000 0.25363  0.53892  0.31293  Biso   1.000  H
  C255     1.0000 0.12589  0.44563  0.32721  Biso   1.000  C
  C256     1.0000 0.45811  0.00974  0.23473  Biso   1.000  C
  H137     1.0000 0.36853  0.83828  0.23626  Biso   1.000  H
  H138     1.0000 0.54017  0.17727  0.23927  Biso   1.000  H
  H139     1.0000 0.28528  0.74635  0.31293  Biso   1.000  H
  C257     1.0000 0.31981  0.87416  0.32721  Biso   1.000  C
  C258     1.0000 0.36420  0.99223  0.32855  Biso   1.000  C
  H140     1.0000 0.43714  0.14062  0.31763  Biso   1.000  H
  B17      1.0000 0.47701  0.01956  0.21805  Biso   1.000  B
  B18      1.0000 0.98045  0.45751  0.21805  Biso   1.000  B
  Cl29     1.0000 0.94942  0.31347  0.34484  Biso   1.000  Cl
  Cl30     1.0000 0.21485  0.48032  0.34195  Biso   1.000  Cl
  Cl31     1.0000 0.26543  0.78522  0.34195  Biso   1.000  Cl
  Cl32     1.0000 0.36400  0.05058  0.34484  Biso   1.000  Cl
  O33      1.0000 0.38926  0.93063  0.20893  Biso   1.000  O
  O34      1.0000 0.50461  0.12909  0.21134  Biso   1.000  O
  O35      1.0000 0.87098  0.37558  0.21134  Biso   1.000  O
  O36      1.0000 0.06947  0.45870  0.20893  Biso   1.000  O
  C259     1.0000 0.39677  0.98368  0.19608  Biso   1.000  C
  C260     1.0000 0.46843  0.10243  0.19741  Biso   1.000  C
  C261     1.0000 0.89756  0.36601  0.19741  Biso   1.000  C
  C262     1.0000 0.01632  0.41308  0.19608  Biso   1.000  C
  C263     1.0000 0.34680  0.93746  0.18322  Biso   1.000  C
  C264     1.0000 0.49285  0.17496  0.18602  Biso   1.000  C
  C265     1.0000 0.82505  0.31791  0.18602  Biso   1.000  C
  C266     1.0000 0.06258  0.40941  0.18322  Biso   1.000  C
  H141     1.0000 0.29651  0.85938  0.18236  Biso   1.000  H
  C267     1.0000 0.37197  0.00777  0.17145  Biso   1.000  C
  H142     1.0000 0.53893  0.25365  0.18706  Biso   1.000  H
  C268     1.0000 0.44565  0.12584  0.17280  Biso   1.000  C
  H143     1.0000 0.74637  0.28527  0.18706  Biso   1.000  H
  C269     1.0000 0.87416  0.31979  0.17280  Biso   1.000  C
  C270     1.0000 0.99226  0.36421  0.17145  Biso   1.000  C
  H144     1.0000 0.14060  0.43717  0.18236  Biso   1.000  H
  Cl33     1.0000 0.31342  0.94942  0.15515  Biso   1.000  Cl
  Cl34     1.0000 0.48032  0.21486  0.15806  Biso   1.000  Cl
  Cl35     1.0000 0.78521  0.26545  0.15806  Biso   1.000  Cl
  Cl36     1.0000 0.05055  0.36404  0.15515  Biso   1.000  Cl
  C271     1.0000 0.68026  0.12584  0.67279  Biso   1.000  C
  C272     1.0000 0.63588  0.00777  0.67145  Biso   1.000  C
  C273     1.0000 0.68211  0.17496  0.68603  Biso   1.000  C
  Cl37     1.0000 0.73461  0.21486  0.65805  Biso   1.000  Cl
  C274     1.0000 0.59066  0.93746  0.68322  Biso   1.000  C
  Cl38     1.0000 0.63600  0.94942  0.65516  Biso   1.000  Cl
  C275     1.0000 0.63401  0.10243  0.69742  Biso   1.000  C
  H145     1.0000 0.71472  0.25365  0.68707  Biso   1.000  H
  C276     1.0000 0.58691  0.98368  0.69608  Biso   1.000  C
  H146     1.0000 0.56286  0.85938  0.68237  Biso   1.000  H
  O37      1.0000 0.62447  0.12909  0.71134  Biso   1.000  O
  O38      1.0000 0.54137  0.93063  0.70893  Biso   1.000  O
  B19      1.0000 0.54256  0.01956  0.71805  Biso   1.000  B
  C277     1.0000 0.55163  0.00974  0.73472  Biso   1.000  C
  N37      1.0000 0.41479  0.01145  0.71508  Biso   1.000  N
  C278     1.0000 0.60063  0.10508  0.74346  Biso   1.000  C
  C279     1.0000 0.50104  0.90457  0.74172  Biso   1.000  C
  C280     1.0000 0.40906  0.10636  0.71498  Biso   1.000  C
  C281     1.0000 0.31764  0.91141  0.71406  Biso   1.000  C
  C282     1.0000 0.59647  0.09543  0.75828  Biso   1.000  C
  H147     1.0000 0.63717  0.17727  0.73926  Biso   1.000  H
  H148     1.0000 0.46975  0.83828  0.73627  Biso   1.000  H
  C283     1.0000 0.49559  0.89500  0.75655  Biso   1.000  C
  H149     1.0000 0.47621  0.17616  0.71576  Biso   1.000  H
  C284     1.0000 0.30784  0.10517  0.71381  Biso   1.000  C
  C285     1.0000 0.21293  0.90338  0.71281  Biso   1.000  C
  H150     1.0000 0.32127  0.84451  0.71416  Biso   1.000  H
  H151     1.0000 0.63147  0.16172  0.76374  Biso   1.000  H
  C286     1.0000 0.54189  0.99026  0.76527  Biso   1.000  C
  H152     1.0000 0.45990  0.82273  0.76073  Biso   1.000  H
  C287     1.0000 0.20663  0.00308  0.71281  Biso   1.000  C
  H153     1.0000 0.30725  0.17368  0.71367  Biso   1.000  H
  H154     1.0000 0.14700  0.83247  0.71196  Biso   1.000  H
  B20      1.0000 0.52299  0.98044  0.78195  Biso   1.000  B
  C288     1.0000 0.09590  0.00077  0.71210  Biso   1.000  C
  O39      1.0000 0.61079  0.06946  0.79107  Biso   1.000  O
  O40      1.0000 0.49543  0.87100  0.78866  Biso   1.000  O
  N38      1.0000 0.40335  0.98855  0.78493  Biso   1.000  N
  N39      1.0000 0.10073  0.10158  0.71208  Biso   1.000  N
  N40      1.0000 0.00084  0.89928  0.71208  Biso   1.000  N
  C289     1.0000 0.60323  0.01632  0.80392  Biso   1.000  C
  C290     1.0000 0.53157  0.89757  0.80259  Biso   1.000  C
  C291     1.0000 0.40624  0.08859  0.78595  Biso   1.000  C
  C292     1.0000 0.30269  0.89364  0.78502  Biso   1.000  C
  C293     1.0000 0.99927  0.09517  0.71210  Biso   1.000  C
  C294     1.0000 0.90483  0.90406  0.71210  Biso   1.000  C
  C295     1.0000 0.65320  0.06254  0.81678  Biso   1.000  C
  C296     1.0000 0.50715  0.82504  0.81398  Biso   1.000  C
  C297     1.0000 0.30956  0.09662  0.78719  Biso   1.000  C
  H155     1.0000 0.47679  0.15557  0.78583  Biso   1.000  H
  H156     1.0000 0.30005  0.82384  0.78423  Biso   1.000  H
  C298     1.0000 0.20267  0.89483  0.78620  Biso   1.000  C
  N41      1.0000 0.89848  0.99923  0.71208  Biso   1.000  N
  C299     1.0000 0.99695  0.20358  0.71281  Biso   1.000  C
  C300     1.0000 0.79646  0.79343  0.71281  Biso   1.000  C
  H157     1.0000 0.70349  0.14062  0.81764  Biso   1.000  H
  C301     1.0000 0.62803  0.99223  0.82855  Biso   1.000  C
  H158     1.0000 0.46107  0.74635  0.81294  Biso   1.000  H
  C302     1.0000 0.55435  0.87416  0.82720  Biso   1.000  C
  H159     1.0000 0.31460  0.16753  0.78803  Biso   1.000  H
  C303     1.0000 0.20355  0.99692  0.78719  Biso   1.000  C
  H160     1.0000 0.13361  0.82640  0.78633  Biso   1.000  H
  C304     1.0000 0.09665  0.30961  0.71281  Biso   1.000  C
  C305     1.0000 0.89483  0.20264  0.71381  Biso   1.000  C
  C306     1.0000 0.69046  0.78710  0.71281  Biso   1.000  C
  C307     1.0000 0.79734  0.69219  0.71381  Biso   1.000  C
  Cl39     1.0000 0.68658  0.05058  0.84485  Biso   1.000  Cl
  Cl40     1.0000 0.51979  0.78522  0.84194  Biso   1.000  Cl
  C308     1.0000 0.09513  0.99923  0.78789  Biso   1.000  C
  H161     1.0000 0.16756  0.31456  0.71196  Biso   1.000  H
  C309     1.0000 0.08863  0.40632  0.71406  Biso   1.000  C
  C310     1.0000 0.89365  0.30269  0.71498  Biso   1.000  C
  H162     1.0000 0.82631  0.13353  0.71367  Biso   1.000  H
  H163     1.0000 0.68544  0.85297  0.71196  Biso   1.000  H
  C311     1.0000 0.59377  0.68236  0.71406  Biso   1.000  C
  C312     1.0000 0.69730  0.59095  0.71498  Biso   1.000  C
  H164     1.0000 0.86644  0.69279  0.71367  Biso   1.000  H
  N42      1.0000 0.10156  0.10072  0.78791  Biso   1.000  N
  N43      1.0000 0.99915  0.89842  0.78791  Biso   1.000  N
  H165     1.0000 0.15553  0.47680  0.71416  Biso   1.000  H
  N44      1.0000 0.98855  0.40341  0.71508  Biso   1.000  N
  H166     1.0000 0.82381  0.30004  0.71576  Biso   1.000  H
  H167     1.0000 0.52324  0.67878  0.71416  Biso   1.000  H
  N45      1.0000 0.59670  0.58523  0.71508  Biso   1.000  N
  H168     1.0000 0.69997  0.52380  0.71576  Biso   1.000  H
  C313     1.0000 0.00077  0.09594  0.78789  Biso   1.000  C
  C314     1.0000 0.90410  0.90483  0.78789  Biso   1.000  C
  B21      1.0000 0.98043  0.52302  0.71805  Biso   1.000  B
  B22      1.0000 0.47705  0.45751  0.71805  Biso   1.000  B
  C315     1.0000 0.00308  0.20666  0.78719  Biso   1.000  C
  N46      1.0000 0.89929  0.00085  0.78791  Biso   1.000  N
  C316     1.0000 0.79341  0.79650  0.78719  Biso   1.000  C
  O41      1.0000 0.06943  0.61075  0.70893  Biso   1.000  O
  C317     1.0000 0.99024  0.54190  0.73472  Biso   1.000  C
  O42      1.0000 0.87093  0.49534  0.71134  Biso   1.000  O
  C318     1.0000 0.45813  0.44836  0.73472  Biso   1.000  C
  O43      1.0000 0.38924  0.45870  0.70893  Biso   1.000  O
  O44      1.0000 0.50467  0.37558  0.71134  Biso   1.000  O
  C319     1.0000 0.10515  0.30781  0.78620  Biso   1.000  C
  C320     1.0000 0.90336  0.21290  0.78719  Biso   1.000  C
  C321     1.0000 0.78709  0.69048  0.78719  Biso   1.000  C
  C322     1.0000 0.69218  0.79736  0.78620  Biso   1.000  C
  C323     1.0000 0.01633  0.60324  0.69608  Biso   1.000  C
  C324     1.0000 0.09545  0.59649  0.74172  Biso   1.000  C
  C325     1.0000 0.89495  0.49559  0.74346  Biso   1.000  C
  C326     1.0000 0.89755  0.53156  0.69742  Biso   1.000  C
  C327     1.0000 0.40355  0.49903  0.74172  Biso   1.000  C
  C328     1.0000 0.50446  0.39941  0.74346  Biso   1.000  C
  C329     1.0000 0.39676  0.41308  0.69608  Biso   1.000  C
  C330     1.0000 0.46844  0.36601  0.69742  Biso   1.000  C
  C331     1.0000 0.10634  0.40905  0.78502  Biso   1.000  C
  H169     1.0000 0.17366  0.30721  0.78633  Biso   1.000  H
  H170     1.0000 0.83247  0.14703  0.78803  Biso   1.000  H
  C332     1.0000 0.91141  0.31764  0.78595  Biso   1.000  C
  H171     1.0000 0.85300  0.68544  0.78803  Biso   1.000  H
  C333     1.0000 0.68235  0.59377  0.78595  Biso   1.000  C
  C334     1.0000 0.59101  0.69740  0.78502  Biso   1.000  C
  H172     1.0000 0.69278  0.86647  0.78633  Biso   1.000  H
  C335     1.0000 0.06255  0.65321  0.68322  Biso   1.000  C
  H173     1.0000 0.16179  0.63151  0.73627  Biso   1.000  H
  C336     1.0000 0.10509  0.60067  0.75655  Biso   1.000  C
  C337     1.0000 0.90457  0.50106  0.75828  Biso   1.000  C
  H174     1.0000 0.82272  0.45988  0.73926  Biso   1.000  H
  C338     1.0000 0.82508  0.50721  0.68603  Biso   1.000  C
  H175     1.0000 0.36858  0.53029  0.73627  Biso   1.000  H
  C339     1.0000 0.39941  0.50449  0.75655  Biso   1.000  C
  C340     1.0000 0.49900  0.40360  0.75828  Biso   1.000  C
  H176     1.0000 0.54011  0.36285  0.73926  Biso   1.000  H
  C341     1.0000 0.34683  0.40941  0.68322  Biso   1.000  C
  C342     1.0000 0.49286  0.31791  0.68603  Biso   1.000  C
  N47      1.0000 0.01151  0.41486  0.78493  Biso   1.000  N
  H177     1.0000 0.17617  0.47620  0.78423  Biso   1.000  H
  H178     1.0000 0.84447  0.32122  0.78583  Biso   1.000  H
  H179     1.0000 0.67878  0.52329  0.78583  Biso   1.000  H
  N48      1.0000 0.58518  0.59667  0.78493  Biso   1.000  N
  H180     1.0000 0.52378  0.69996  0.78423  Biso   1.000  H
  H181     1.0000 0.14064  0.70345  0.68237  Biso   1.000  H
  C343     1.0000 0.99228  0.62810  0.67145  Biso   1.000  C
  C344     1.0000 0.00976  0.55164  0.76527  Biso   1.000  C
  H182     1.0000 0.17726  0.63715  0.76073  Biso   1.000  H
  H183     1.0000 0.83829  0.46971  0.76374  Biso   1.000  H
  H184     1.0000 0.74637  0.46108  0.68707  Biso   1.000  H
  C345     1.0000 0.87411  0.55437  0.67279  Biso   1.000  C
  C346     1.0000 0.44839  0.45819  0.76527  Biso   1.000  C
  H185     1.0000 0.36284  0.54012  0.76073  Biso   1.000  H
  H186     1.0000 0.53032  0.36857  0.76374  Biso   1.000  H
  C347     1.0000 0.37196  0.36421  0.67145  Biso   1.000  C
  H187     1.0000 0.29657  0.43717  0.68237  Biso   1.000  H
  H188     1.0000 0.53891  0.28527  0.68707  Biso   1.000  H
  C348     1.0000 0.44563  0.31979  0.67279  Biso   1.000  C
  B23      1.0000 0.01959  0.54258  0.78195  Biso   1.000  B
  B24      1.0000 0.45746  0.47707  0.78195  Biso   1.000  B
  Cl41     1.0000 0.05058  0.68653  0.65516  Biso   1.000  Cl
  Cl42     1.0000 0.78519  0.51977  0.65805  Biso   1.000  Cl
  Cl43     1.0000 0.31350  0.36404  0.65516  Biso   1.000  Cl
  Cl44     1.0000 0.48032  0.26545  0.65805  Biso   1.000  Cl
  O45      1.0000 0.12910  0.62442  0.78866  Biso   1.000  O
  O46      1.0000 0.93058  0.54138  0.79107  Biso   1.000  O
  O47      1.0000 0.45868  0.38925  0.79107  Biso   1.000  O
  O48      1.0000 0.37559  0.50466  0.78866  Biso   1.000  O
  C349     1.0000 0.10248  0.63408  0.80259  Biso   1.000  C
  C350     1.0000 0.98368  0.58692  0.80392  Biso   1.000  C
  C351     1.0000 0.41309  0.39676  0.80392  Biso   1.000  C
  C352     1.0000 0.36599  0.46844  0.80259  Biso   1.000  C
  C353     1.0000 0.17499  0.68218  0.81398  Biso   1.000  C
  C354     1.0000 0.93747  0.59068  0.81678  Biso   1.000  C
  C355     1.0000 0.40938  0.34687  0.81678  Biso   1.000  C
  C356     1.0000 0.31791  0.49287  0.81398  Biso   1.000  C
  H189     1.0000 0.25363  0.71473  0.81294  Biso   1.000  H
  C357     1.0000 0.12584  0.68021  0.82720  Biso   1.000  C
  C358     1.0000 0.00778  0.63587  0.82855  Biso   1.000  C
  H190     1.0000 0.85940  0.56283  0.81764  Biso   1.000  H
  C359     1.0000 0.36423  0.37199  0.82855  Biso   1.000  C
  H191     1.0000 0.43719  0.29655  0.81764  Biso   1.000  H
  H192     1.0000 0.28529  0.53892  0.81294  Biso   1.000  H
  C360     1.0000 0.31974  0.44563  0.82720  Biso   1.000  C
  Cl45     1.0000 0.21486  0.73455  0.84194  Biso   1.000  Cl
  Cl46     1.0000 0.94945  0.63596  0.84485  Biso   1.000  Cl
  Cl47     1.0000 0.36404  0.31347  0.84485  Biso   1.000  Cl
  Cl48     1.0000 0.26546  0.48032  0.84194  Biso   1.000  Cl
  C361     1.0000 0.32557  0.03084  0.83811  Biso   1.000  C
  C362     1.0000 0.39589  0.07603  0.84988  Biso   1.000  C
  Cl49     1.0000 0.38394  0.03067  0.82181  Biso   1.000  Cl
  C363     1.0000 0.20752  0.98650  0.83946  Biso   1.000  C
  C364     1.0000 0.34964  0.07971  0.86274  Biso   1.000  C
  H193     1.0000 0.47399  0.10380  0.84904  Biso   1.000  H
  C365     1.0000 0.15837  0.98454  0.85270  Biso   1.000  C
  Cl50     1.0000 0.11850  0.93217  0.82472  Biso   1.000  Cl
  C366     1.0000 0.23088  0.03264  0.86409  Biso   1.000  C
  O49      1.0000 0.40278  0.12533  0.87559  Biso   1.000  O
  H194     1.0000 0.07972  0.95199  0.85374  Biso   1.000  H
  O50      1.0000 0.20422  0.04220  0.87800  Biso   1.000  O
  B25      1.0000 0.31377  0.12413  0.88471  Biso   1.000  B
  C367     1.0000 0.32359  0.11508  0.90139  Biso   1.000  C
  N49      1.0000 0.32184  0.25185  0.88175  Biso   1.000  N
  C368     1.0000 0.42879  0.16565  0.90838  Biso   1.000  C
  C369     1.0000 0.22827  0.06604  0.91013  Biso   1.000  C
  C370     1.0000 0.42202  0.34908  0.88073  Biso   1.000  C
  C371     1.0000 0.22701  0.25766  0.88164  Biso   1.000  C
  H195     1.0000 0.49510  0.19692  0.90294  Biso   1.000  H
  C372     1.0000 0.43840  0.17112  0.92321  Biso   1.000  C
  C373     1.0000 0.23791  0.07023  0.92495  Biso   1.000  C
  H196     1.0000 0.15609  0.02956  0.90593  Biso   1.000  H
  C374     1.0000 0.42996  0.45373  0.87947  Biso   1.000  C
  H197     1.0000 0.48884  0.34540  0.88083  Biso   1.000  H
  H198     1.0000 0.15714  0.19043  0.88243  Biso   1.000  H
  C375     1.0000 0.22816  0.35881  0.88047  Biso   1.000  C
  C376     1.0000 0.34311  0.12482  0.93194  Biso   1.000  C
  H199     1.0000 0.51064  0.20683  0.92740  Biso   1.000  H
  H200     1.0000 0.17156  0.03520  0.93040  Biso   1.000  H
  C377     1.0000 0.33028  0.46005  0.87947  Biso   1.000  C
  H201     1.0000 0.50089  0.51968  0.87863  Biso   1.000  H
  H202     1.0000 0.15966  0.35941  0.88033  Biso   1.000  H
  B26      1.0000 0.35292  0.14370  0.94862  Biso   1.000  B
  C378     1.0000 0.33259  0.57077  0.87877  Biso   1.000  C
  O51      1.0000 0.26388  0.05587  0.95774  Biso   1.000  O
  O52      1.0000 0.46238  0.17129  0.95533  Biso   1.000  O
  N50      1.0000 0.34481  0.26330  0.95159  Biso   1.000  N
  N51      1.0000 0.43407  0.66586  0.87875  Biso   1.000  N
  N52      1.0000 0.23175  0.56590  0.87875  Biso   1.000  N
  C379     1.0000 0.31699  0.06339  0.97059  Biso   1.000  C
  C380     1.0000 0.43576  0.13507  0.96924  Biso   1.000  C
  C381     1.0000 0.24473  0.26040  0.95261  Biso   1.000  C
  C382     1.0000 0.43971  0.36403  0.95169  Biso   1.000  C
  C383     1.0000 0.42933  0.76188  0.87877  Biso   1.000  C
  C384     1.0000 0.23822  0.66748  0.87877  Biso   1.000  C
  C385     1.0000 0.27081  0.01350  0.98345  Biso   1.000  C
  C386     1.0000 0.50828  0.15950  0.98065  Biso   1.000  C
  C387     1.0000 0.23671  0.35711  0.95386  Biso   1.000  C
  H203     1.0000 0.17782  0.18992  0.95250  Biso   1.000  H
  H204     1.0000 0.50950  0.36659  0.95090  Biso   1.000  H
  C388     1.0000 0.43849  0.46398  0.95286  Biso   1.000  C
  N53      1.0000 0.33416  0.76821  0.87875  Biso   1.000  N
  C389     1.0000 0.53994  0.87021  0.87947  Biso   1.000  C
  C390     1.0000 0.12976  0.66970  0.87947  Biso   1.000  C
  C391     1.0000 0.34115  0.03862  0.99522  Biso   1.000  C
  H205     1.0000 0.19272  0.96326  0.98429  Biso   1.000  H
  H206     1.0000 0.58706  0.20564  0.97960  Biso   1.000  H
  C392     1.0000 0.45925  0.11234  0.99387  Biso   1.000  C
  C393     1.0000 0.33640  0.46313  0.95386  Biso   1.000  C
  H207     1.0000 0.16575  0.35207  0.95470  Biso   1.000  H
  H208     1.0000 0.50700  0.53310  0.95300  Biso   1.000  H
  C394     1.0000 0.54627  0.97623  0.87947  Biso   1.000  C
  C395     1.0000 0.64117  0.86936  0.88047  Biso   1.000  C
  C396     1.0000 0.02376  0.57000  0.87947  Biso   1.000  C
  C397     1.0000 0.13069  0.77188  0.88047  Biso   1.000  C
  Cl51     1.0000 0.28278  0.98018  0.01152  Biso   1.000  Cl
  Cl52     1.0000 0.54817  0.14694  0.00861  Biso   1.000  Cl
  C398     1.0000 0.33416  0.57154  0.95456  Biso   1.000  C
  H209     1.0000 0.48035  0.98127  0.87863  Biso   1.000  H
  C399     1.0000 0.65100  0.07294  0.88073  Biso   1.000  C
  C400     1.0000 0.74235  0.96931  0.88164  Biso   1.000  C
  H210     1.0000 0.64058  0.80024  0.88033  Biso   1.000  H
  H211     1.0000 0.01875  0.49918  0.87863  Biso   1.000  H
  C401     1.0000 0.92708  0.57803  0.88073  Biso   1.000  C
  C402     1.0000 0.03066  0.77308  0.88164  Biso   1.000  C
  H212     1.0000 0.19975  0.84031  0.88033  Biso   1.000  H
  N54      1.0000 0.23263  0.56513  0.95458  Biso   1.000  N
  N55      1.0000 0.43488  0.66748  0.95458  Biso   1.000  N
  H213     1.0000 0.65458  0.14342  0.88083  Biso   1.000  H
  N56      1.0000 0.74817  0.07004  0.88175  Biso   1.000  N
  H214     1.0000 0.80958  0.96675  0.88243  Biso   1.000  H
  H215     1.0000 0.85656  0.51114  0.88083  Biso   1.000  H
  N57      1.0000 0.93001  0.67816  0.88175  Biso   1.000  N
  H216     1.0000 0.03330  0.84287  0.88243  Biso   1.000  H
  C403     1.0000 0.23746  0.66594  0.95456  Biso   1.000  C
  C404     1.0000 0.42853  0.76265  0.95456  Biso   1.000  C
  B27      1.0000 0.87590  0.18964  0.88471  Biso   1.000  B
  B28      1.0000 0.81036  0.68628  0.88471  Biso   1.000  B
  N58      1.0000 0.33252  0.76744  0.95458  Biso   1.000  N
  C405     1.0000 0.12673  0.66364  0.95386  Biso   1.000  C
  C406     1.0000 0.53690  0.87329  0.95386  Biso   1.000  C
  C407     1.0000 0.88497  0.20852  0.90139  Biso   1.000  C
  O53      1.0000 0.87463  0.27738  0.87559  Biso   1.000  O
  O54      1.0000 0.95776  0.16205  0.87800  Biso   1.000  O
  C408     1.0000 0.79147  0.67645  0.90139  Biso   1.000  C
  O55      1.0000 0.72257  0.59726  0.87559  Biso   1.000  O
  O56      1.0000 0.83793  0.79571  0.87800  Biso   1.000  O
  C409     1.0000 0.12042  0.76334  0.95386  Biso   1.000  C
  C410     1.0000 0.02552  0.56155  0.95286  Biso   1.000  C
  C411     1.0000 0.64290  0.87961  0.95386  Biso   1.000  C
  C412     1.0000 0.53602  0.97452  0.95286  Biso   1.000  C
  C413     1.0000 0.83435  0.26311  0.90838  Biso   1.000  C
  C414     1.0000 0.93395  0.16222  0.91013  Biso   1.000  C
  C415     1.0000 0.92027  0.26995  0.86274  Biso   1.000  C
  C416     1.0000 0.96732  0.19819  0.86409  Biso   1.000  C
  C417     1.0000 0.73684  0.57120  0.90838  Biso   1.000  C
  C418     1.0000 0.83776  0.77171  0.91013  Biso   1.000  C
  C419     1.0000 0.73008  0.65031  0.86274  Biso   1.000  C
  C420     1.0000 0.80178  0.76915  0.86409  Biso   1.000  C
  H217     1.0000 0.18628  0.83424  0.95470  Biso   1.000  H
  C421     1.0000 0.01571  0.75531  0.95261  Biso   1.000  C
  H218     1.0000 0.02611  0.49303  0.95300  Biso   1.000  H
  C422     1.0000 0.92430  0.56035  0.95169  Biso   1.000  C
  H219     1.0000 0.64792  0.81374  0.95470  Biso   1.000  H
  C423     1.0000 0.73966  0.98435  0.95261  Biso   1.000  C
  H220     1.0000 0.46691  0.97393  0.95300  Biso   1.000  H
  C424     1.0000 0.63602  0.07568  0.95169  Biso   1.000  C
  H221     1.0000 0.80311  0.29814  0.90294  Biso   1.000  H
  C425     1.0000 0.82890  0.26730  0.92321  Biso   1.000  C
  C426     1.0000 0.92980  0.16769  0.92495  Biso   1.000  C
  H222     1.0000 0.97048  0.12651  0.90593  Biso   1.000  H
  C427     1.0000 0.92398  0.31984  0.84988  Biso   1.000  C
  C428     1.0000 0.01545  0.17384  0.85270  Biso   1.000  C
  H223     1.0000 0.70185  0.50490  0.90294  Biso   1.000  H
  C429     1.0000 0.73272  0.56163  0.92321  Biso   1.000  C
  C430     1.0000 0.83231  0.76214  0.92495  Biso   1.000  C
  H224     1.0000 0.87353  0.84398  0.90593  Biso   1.000  H
  C431     1.0000 0.68016  0.60418  0.84988  Biso   1.000  C
  C432     1.0000 0.82621  0.84168  0.85270  Biso   1.000  C
  H225     1.0000 0.01209  0.82220  0.95250  Biso   1.000  H
  N59      1.0000 0.91852  0.65518  0.95159  Biso   1.000  N
  H226     1.0000 0.85710  0.49047  0.95090  Biso   1.000  H
  H227     1.0000 0.81011  0.98794  0.95250  Biso   1.000  H
  N60      1.0000 0.73673  0.08149  0.95159  Biso   1.000  N
  H228     1.0000 0.63338  0.14291  0.95090  Biso   1.000  H
  C433     1.0000 0.87519  0.21826  0.93194  Biso   1.000  C
  H229     1.0000 0.79320  0.30378  0.92740  Biso   1.000  H
  H230     1.0000 0.96485  0.13642  0.93040  Biso   1.000  H
  C434     1.0000 0.96920  0.29472  0.83811  Biso   1.000  C
  H231     1.0000 0.89616  0.37016  0.84904  Biso   1.000  H
  H232     1.0000 0.04802  0.12770  0.85374  Biso   1.000  H
  C435     1.0000 0.01358  0.22100  0.83946  Biso   1.000  C
  C436     1.0000 0.78168  0.65689  0.93194  Biso   1.000  C
  H233     1.0000 0.69626  0.48944  0.92740  Biso   1.000  H
  H234     1.0000 0.86361  0.82844  0.93040  Biso   1.000  H
  C437     1.0000 0.70528  0.67440  0.83811  Biso   1.000  C
  H235     1.0000 0.62983  0.52601  0.84904  Biso   1.000  H
  H236     1.0000 0.87228  0.92036  0.85374  Biso   1.000  H
  C438     1.0000 0.77901  0.79255  0.83946  Biso   1.000  C
  B29      1.0000 0.79080  0.64715  0.94862  Biso   1.000  B
  B30      1.0000 0.85630  0.20921  0.94862  Biso   1.000  B
  Cl53     1.0000 0.96931  0.35324  0.82181  Biso   1.000  Cl
  Cl54     1.0000 0.06789  0.18640  0.82472  Biso   1.000  Cl
  Cl55     1.0000 0.64678  0.61614  0.82181  Biso   1.000  Cl
  Cl56     1.0000 0.81364  0.88149  0.82472  Biso   1.000  Cl
  O57      1.0000 0.79198  0.73608  0.95774  Biso   1.000  O
  O58      1.0000 0.70888  0.53762  0.95533  Biso   1.000  O
  O59      1.0000 0.94412  0.20801  0.95774  Biso   1.000  O
  O60      1.0000 0.82872  0.29105  0.95533  Biso   1.000  O
  C439     1.0000 0.74644  0.68303  0.97059  Biso   1.000  C
  C440     1.0000 0.69931  0.56419  0.96924  Biso   1.000  C
  C441     1.0000 0.93655  0.25355  0.97059  Biso   1.000  C
  C442     1.0000 0.86491  0.30070  0.96924  Biso   1.000  C
  C443     1.0000 0.74269  0.72925  0.98345  Biso   1.000  C
  C444     1.0000 0.65125  0.49175  0.98065  Biso   1.000  C
  C445     1.0000 0.98652  0.25730  0.98345  Biso   1.000  C
  C446     1.0000 0.84050  0.34880  0.98065  Biso   1.000  C
  C447     1.0000 0.69755  0.65894  0.99522  Biso   1.000  C
  H237     1.0000 0.77049  0.80733  0.98429  Biso   1.000  H
  H238     1.0000 0.61859  0.41298  0.97960  Biso   1.000  H
  C448     1.0000 0.65312  0.54079  0.99387  Biso   1.000  C
  C449     1.0000 0.96140  0.30250  0.99522  Biso   1.000  C
  H239     1.0000 0.03675  0.22945  0.98429  Biso   1.000  H
  H240     1.0000 0.79440  0.38135  0.97960  Biso   1.000  H
  C450     1.0000 0.88773  0.34692  0.99387  Biso   1.000  C
  Cl57     1.0000 0.69735  0.71729  0.01152  Biso   1.000  Cl
  Cl58     1.0000 0.59882  0.45185  0.00861  Biso   1.000  Cl
  Cl59     1.0000 0.01986  0.30267  0.01152  Biso   1.000  Cl
  Cl60     1.0000 0.85311  0.40126  0.00861  Biso   1.000  Cl
  C451     1.0000 0.98642  0.77899  0.16054  Biso   1.000  C
  C452     1.0000 0.98459  0.82623  0.14730  Biso   1.000  C
  C453     1.0000 0.03079  0.70526  0.16189  Biso   1.000  C
  Cl61     1.0000 0.93214  0.81367  0.17528  Biso   1.000  Cl
  C454     1.0000 0.03267  0.80180  0.13591  Biso   1.000  C
  H241     1.0000 0.95197  0.87228  0.14626  Biso   1.000  H
  C455     1.0000 0.07606  0.68023  0.15012  Biso   1.000  C
  Cl62     1.0000 0.03072  0.64682  0.17819  Biso   1.000  Cl
  O61      1.0000 0.04227  0.83802  0.12200  Biso   1.000  O
  C456     1.0000 0.07977  0.73012  0.13726  Biso   1.000  C
  H242     1.0000 0.10387  0.62991  0.15096  Biso   1.000  H
  B31      1.0000 0.12414  0.81043  0.11529  Biso   1.000  B
  O62      1.0000 0.12536  0.72260  0.12441  Biso   1.000  O
  N61      1.0000 0.25186  0.93003  0.11825  Biso   1.000  N
  C457     1.0000 0.11503  0.79146  0.09861  Biso   1.000  C
  C458     1.0000 0.34903  0.92713  0.11927  Biso   1.000  C
  C459     1.0000 0.25764  0.03067  0.11836  Biso   1.000  C
  C460     1.0000 0.16564  0.73687  0.09162  Biso   1.000  C
  C461     1.0000 0.06604  0.83776  0.08987  Biso   1.000  C
  C462     1.0000 0.45372  0.02375  0.12053  Biso   1.000  C
  H243     1.0000 0.34541  0.85656  0.11917  Biso   1.000  H
  C463     1.0000 0.35886  0.13071  0.11953  Biso   1.000  C
  H244     1.0000 0.19041  0.03323  0.11757  Biso   1.000  H
  H245     1.0000 0.19700  0.70193  0.09706  Biso   1.000  H
  C464     1.0000 0.17113  0.73277  0.07679  Biso   1.000  C
  C465     1.0000 0.07019  0.83230  0.07505  Biso   1.000  C
  H246     1.0000 0.02952  0.87348  0.09407  Biso   1.000  H
  C466     1.0000 0.46005  0.12977  0.12053  Biso   1.000  C
  H247     1.0000 0.51968  0.01880  0.12137  Biso   1.000  H
  H248     1.0000 0.35941  0.19974  0.11967  Biso   1.000  H
  C467     1.0000 0.12481  0.78172  0.06806  Biso   1.000  C
  H249     1.0000 0.20679  0.69620  0.07260  Biso   1.000  H
  H250     1.0000 0.03518  0.86365  0.06960  Biso   1.000  H
  C468     1.0000 0.57078  0.23818  0.12123  Biso   1.000  C
  B32      1.0000 0.14373  0.79086  0.05138  Biso   1.000  B
  N62      1.0000 0.56597  0.33421  0.12125  Biso   1.000  N
  N63      1.0000 0.66583  0.23178  0.12125  Biso   1.000  N
  N64      1.0000 0.26333  0.91850  0.04841  Biso   1.000  N
  O63      1.0000 0.05591  0.79206  0.04226  Biso   1.000  O
  O64      1.0000 0.17135  0.70893  0.04467  Biso   1.000  O
  C469     1.0000 0.66744  0.42930  0.12123  Biso   1.000  C
  C470     1.0000 0.76188  0.33259  0.12123  Biso   1.000  C
  C471     1.0000 0.26045  0.01572  0.04739  Biso   1.000  C
  C472     1.0000 0.36397  0.92431  0.04831  Biso   1.000  C
  C473     1.0000 0.06344  0.74644  0.02941  Biso   1.000  C
  C474     1.0000 0.13512  0.69936  0.03076  Biso   1.000  C
  C475     1.0000 0.66976  0.54002  0.12053  Biso   1.000  C
  N65      1.0000 0.76824  0.43408  0.12125  Biso   1.000  N
  C476     1.0000 0.87023  0.33028  0.12053  Biso   1.000  C
  C477     1.0000 0.35709  0.12037  0.04614  Biso   1.000  C
  H251     1.0000 0.18992  0.01213  0.04750  Biso   1.000  H
  C478     1.0000 0.46397  0.02546  0.04714  Biso   1.000  C
  H252     1.0000 0.36665  0.85716  0.04910  Biso   1.000  H
  C479     1.0000 0.01351  0.74276  0.01655  Biso   1.000  C
  C480     1.0000 0.15953  0.65127  0.01935  Biso   1.000  C
  C481     1.0000 0.57003  0.54625  0.12053  Biso   1.000  C
  C482     1.0000 0.77183  0.64117  0.11953  Biso   1.000  C
  C483     1.0000 0.97624  0.42998  0.12053  Biso   1.000  C
  C484     1.0000 0.86935  0.22819  0.11953  Biso   1.000  C
  C485     1.0000 0.46310  0.12670  0.04614  Biso   1.000  C
  H253     1.0000 0.35212  0.18633  0.04530  Biso   1.000  H
  H254     1.0000 0.53312  0.02614  0.04700  Biso   1.000  H
  H255     1.0000 0.96325  0.77053  0.01571  Biso   1.000  H
  C486     1.0000 0.03859  0.69748  0.00478  Biso   1.000  C
  H256     1.0000 0.20559  0.61863  0.02040  Biso   1.000  H
  C487     1.0000 0.11231  0.65315  0.00613  Biso   1.000  C
  C488     1.0000 0.57809  0.65099  0.11927  Biso   1.000  C
  H257     1.0000 0.49914  0.48038  0.12137  Biso   1.000  H
  C489     1.0000 0.77302  0.74241  0.11836  Biso   1.000  C
  H258     1.0000 0.84034  0.64057  0.11967  Biso   1.000  H
  H259     1.0000 0.98128  0.50089  0.12137  Biso   1.000  H
  C490     1.0000 0.07292  0.42195  0.11927  Biso   1.000  C
  C491     1.0000 0.96937  0.22699  0.11836  Biso   1.000  C
  H260     1.0000 0.80024  0.15967  0.11967  Biso   1.000  H
  C492     1.0000 0.57150  0.23742  0.04544  Biso   1.000  C
  Cl63     1.0000 0.98017  0.69740  0.98848  Biso   1.000  Cl
  Cl64     1.0000 0.14699  0.59881  0.99139  Biso   1.000  Cl
  N66      1.0000 0.67819  0.74821  0.11825  Biso   1.000  N
  H261     1.0000 0.51115  0.65458  0.11917  Biso   1.000  H
  H262     1.0000 0.84285  0.80955  0.11757  Biso   1.000  H
  H263     1.0000 0.14343  0.48884  0.11917  Biso   1.000  H
  N67      1.0000 0.07002  0.32191  0.11825  Biso   1.000  N
  H264     1.0000 0.96673  0.15720  0.11757  Biso   1.000  H
  N68      1.0000 0.56511  0.33250  0.04542  Biso   1.000  N
  N69      1.0000 0.66751  0.23263  0.04542  Biso   1.000  N
  B33      1.0000 0.68622  0.87585  0.11529  Biso   1.000  B
  B34      1.0000 0.18967  0.31379  0.11529  Biso   1.000  B
  C493     1.0000 0.66595  0.42853  0.04544  Biso   1.000  C
  C494     1.0000 0.76265  0.33413  0.04544  Biso   1.000  C
  O65      1.0000 0.59721  0.87465  0.12441  Biso   1.000  O
  O66      1.0000 0.79577  0.95778  0.12200  Biso   1.000  O
  C495     1.0000 0.67644  0.88499  0.09861  Biso   1.000  C
  C496     1.0000 0.20853  0.32353  0.09861  Biso   1.000  C
  O67      1.0000 0.27746  0.40281  0.12441  Biso   1.000  O
  O68      1.0000 0.16206  0.20427  0.12200  Biso   1.000  O
  C497     1.0000 0.66363  0.53694  0.04614  Biso   1.000  C
  N70      1.0000 0.76741  0.43493  0.04542  Biso   1.000  N
  C498     1.0000 0.87331  0.33643  0.04614  Biso   1.000  C
  C499     1.0000 0.65036  0.92027  0.13726  Biso   1.000  C
  C500     1.0000 0.76911  0.96735  0.13591  Biso   1.000  C
  C501     1.0000 0.57125  0.83442  0.09162  Biso   1.000  C
  C502     1.0000 0.77172  0.93394  0.08987  Biso   1.000  C
  C503     1.0000 0.26315  0.42878  0.09162  Biso   1.000  C
  C504     1.0000 0.16223  0.22827  0.08987  Biso   1.000  C
  C505     1.0000 0.26991  0.34967  0.13726  Biso   1.000  C
  C506     1.0000 0.19821  0.23084  0.13591  Biso   1.000  C
  C507     1.0000 0.76329  0.64288  0.04614  Biso   1.000  C
  C508     1.0000 0.56150  0.53600  0.04714  Biso   1.000  C
  C509     1.0000 0.87961  0.23673  0.04614  Biso   1.000  C
  C510     1.0000 0.97451  0.43852  0.04714  Biso   1.000  C
  C511     1.0000 0.60410  0.92395  0.15012  Biso   1.000  C
  C512     1.0000 0.84162  0.01545  0.14730  Biso   1.000  C
  H265     1.0000 0.50496  0.80306  0.09706  Biso   1.000  H
  C513     1.0000 0.56163  0.82895  0.07679  Biso   1.000  C
  C514     1.0000 0.76212  0.92984  0.07505  Biso   1.000  C
  H266     1.0000 0.84394  0.97051  0.09407  Biso   1.000  H
  H267     1.0000 0.29815  0.49508  0.09706  Biso   1.000  H
  C515     1.0000 0.26731  0.43844  0.07679  Biso   1.000  C
  C516     1.0000 0.16772  0.23793  0.07505  Biso   1.000  C
  H268     1.0000 0.12658  0.15608  0.09407  Biso   1.000  H
  C517     1.0000 0.31988  0.39589  0.15012  Biso   1.000  C
  C518     1.0000 0.17382  0.15839  0.14730  Biso   1.000  C
  C519     1.0000 0.75526  0.73959  0.04739  Biso   1.000  C
  H269     1.0000 0.83424  0.64792  0.04530  Biso   1.000  H
  C520     1.0000 0.56033  0.63604  0.04831  Biso   1.000  C
  H270     1.0000 0.49299  0.46689  0.04700  Biso   1.000  H
  H271     1.0000 0.81375  0.16582  0.04530  Biso   1.000  H
  C521     1.0000 0.98428  0.24468  0.04739  Biso   1.000  C
  H272     1.0000 0.97393  0.50704  0.04700  Biso   1.000  H
  C522     1.0000 0.07573  0.43972  0.04831  Biso   1.000  C
  C523     1.0000 0.67442  0.96914  0.16189  Biso   1.000  C
  H273     1.0000 0.52607  0.89618  0.15096  Biso   1.000  H
  C524     1.0000 0.79252  0.01357  0.16054  Biso   1.000  C
  H274     1.0000 0.92039  0.04808  0.14626  Biso   1.000  H
  C525     1.0000 0.65692  0.87525  0.06806  Biso   1.000  C
  H275     1.0000 0.48940  0.79324  0.07260  Biso   1.000  H
  H276     1.0000 0.82843  0.96478  0.06960  Biso   1.000  H
  C526     1.0000 0.21831  0.34310  0.06806  Biso   1.000  C
  H277     1.0000 0.30385  0.51063  0.07260  Biso   1.000  H
  H278     1.0000 0.13642  0.17163  0.06960  Biso   1.000  H
  C527     1.0000 0.29471  0.32558  0.16189  Biso   1.000  C
  H279     1.0000 0.37016  0.47398  0.15096  Biso   1.000  H
  H280     1.0000 0.12775  0.07971  0.14626  Biso   1.000  H
  C528     1.0000 0.22098  0.20743  0.16054  Biso   1.000  C
  N71      1.0000 0.65519  0.73668  0.04841  Biso   1.000  N
  H281     1.0000 0.82221  0.81015  0.04750  Biso   1.000  H
  H282     1.0000 0.49049  0.63339  0.04910  Biso   1.000  H
  H283     1.0000 0.98790  0.17778  0.04750  Biso   1.000  H
  N72      1.0000 0.08147  0.34480  0.04841  Biso   1.000  N
  H284     1.0000 0.14289  0.50952  0.04910  Biso   1.000  H
  Cl65     1.0000 0.61613  0.96931  0.17819  Biso   1.000  Cl
  Cl66     1.0000 0.88154  0.06790  0.17528  Biso   1.000  Cl
  B35      1.0000 0.64707  0.85629  0.05138  Biso   1.000  B
  B36      1.0000 0.20924  0.35292  0.05138  Biso   1.000  B
  Cl67     1.0000 0.35326  0.38393  0.17819  Biso   1.000  Cl
  Cl68     1.0000 0.18643  0.11849  0.17528  Biso   1.000  Cl
  O69      1.0000 0.73611  0.94411  0.04226  Biso   1.000  O
  O70      1.0000 0.53761  0.82869  0.04467  Biso   1.000  O
  O71      1.0000 0.20801  0.26390  0.04226  Biso   1.000  O
  O72      1.0000 0.29115  0.46244  0.04467  Biso   1.000  O
  C529     1.0000 0.68300  0.93659  0.02941  Biso   1.000  C
  C530     1.0000 0.56423  0.86491  0.03076  Biso   1.000  C
  C531     1.0000 0.25359  0.31704  0.02941  Biso   1.000  C
  C532     1.0000 0.30069  0.43579  0.03076  Biso   1.000  C
  C533     1.0000 0.72918  0.98648  0.01655  Biso   1.000  C
  C534     1.0000 0.49171  0.84048  0.01935  Biso   1.000  C
  C535     1.0000 0.25734  0.27082  0.01655  Biso   1.000  C
  C536     1.0000 0.34879  0.50832  0.01935  Biso   1.000  C
  C537     1.0000 0.65896  0.96145  0.00478  Biso   1.000  C
  H285     1.0000 0.80732  0.03680  0.01571  Biso   1.000  H
  H286     1.0000 0.41305  0.79443  0.02040  Biso   1.000  H
  C538     1.0000 0.54078  0.88773  0.00613  Biso   1.000  C
  C539     1.0000 0.30248  0.34113  0.00478  Biso   1.000  C
  H287     1.0000 0.22954  0.19273  0.01571  Biso   1.000  H
  H288     1.0000 0.38140  0.58700  0.02040  Biso   1.000  H
  C540     1.0000 0.34687  0.45920  0.00613  Biso   1.000  C
  Cl69     1.0000 0.71725  0.01989  0.98848  Biso   1.000  Cl
  Cl70     1.0000 0.45182  0.85304  0.99139  Biso   1.000  Cl
  Cl71     1.0000 0.30268  0.28278  0.98848  Biso   1.000  Cl
  Cl72     1.0000 0.40129  0.54822  0.99139  Biso   1.000  Cl
  Ne1      1.0000 0.00001  0.00002  0.25000  Biso   1.000  Ne
  He1      1.0000 0.88368  0.90988  0.25001  Biso   1.000  He
  He2      1.0000 0.97441  0.08958  0.24999  Biso   1.000  He
  He3      1.0000 0.11952  0.02791  0.24999  Biso   1.000  He
  Ar1      1.0000 0.00003  0.00001  0.25000  Biso   1.000  Ar
  Ne2      1.0000 0.66668  0.33335  0.08333  Biso   1.000  Ne
  He4      1.0000 0.57332  0.36328  0.08332  Biso   1.000  He
  He5      1.0000 0.72764  0.39382  0.08335  Biso   1.000  He
  He6      1.0000 0.67127  0.27335  0.08332  Biso   1.000  He
  Ar2      1.0000 0.66668  0.33335  0.08333  Biso   1.000  Ar
  Ne3      1.0000 0.33334  0.66668  0.41667  Biso   1.000  Ne
  He7      1.0000 0.23997  0.69658  0.41666  Biso   1.000  He
  He8      1.0000 0.39430  0.72720  0.41669  Biso   1.000  He
  He9      1.0000 0.33287  0.60491  0.41669  Biso   1.000  He
  Ar3      1.0000 0.33333  0.66671  0.41667  Biso   1.000  Ar
  Ne4      1.0000 0.66667  0.33335  0.58333  Biso   1.000  Ne
  He10     1.0000 0.55036  0.24324  0.58334  Biso   1.000  He
  He11     1.0000 0.64082  0.42280  0.58333  Biso   1.000  He
  He12     1.0000 0.78629  0.36149  0.58332  Biso   1.000  He
  Ar4      1.0000 0.66671  0.33336  0.58333  Biso   1.000  Ar
  Ne5      1.0000 0.00002  0.00002  0.75000  Biso   1.000  Ne
  He13     1.0000 0.90666  0.02996  0.74999  Biso   1.000  He
  He14     1.0000 0.06092  0.06049  0.75002  Biso   1.000  He
  He15     1.0000 0.00047  0.93851  0.74998  Biso   1.000  He
  Ar5      1.0000 0.99999  0.00000  0.75000  Biso   1.000  Ar
  Ne6      1.0000 0.33334  0.66668  0.91667  Biso   1.000  Ne
  He16     1.0000 0.21704  0.57660  0.91667  Biso   1.000  He
  He17     1.0000 0.30780  0.75625  0.91666  Biso   1.000  He
  He18     1.0000 0.45285  0.69459  0.91666  Biso   1.000  He
  Ar6      1.0000 0.33338  0.66671  0.91667  Biso   1.000  Ar
