data_image0
_cell_length_a       25.866
_cell_length_b       27.053
_cell_length_c       26.846
_cell_angle_alpha    90
_cell_angle_beta     118.33
_cell_angle_gamma    90

_symmetry_space_group_name_H-M    "P 1"
_symmetry_int_tables_number       1

loop_
  _symmetry_equiv_pos_as_xyz
  'x, y, z'

loop_
  _atom_site_label
  _atom_site_occupancy
  _atom_site_fract_x
  _atom_site_fract_y
  _atom_site_fract_z
  _atom_site_thermal_displace_type
  _atom_site_B_iso_or_equiv
  _atom_site_type_symbol
  C1       1.0000 0.61640  0.49129  0.51467  Biso   1.000  C
  C2       1.0000 0.62073  0.50028  0.46757  Biso   1.000  C
  C3       1.0000 0.66466  0.50009  0.56846  Biso   1.000  C
  H1       1.0000 0.58135  0.47928  0.51179  Biso   1.000  H
  C4       1.0000 0.67294  0.51979  0.46935  Biso   1.000  C
  H2       1.0000 0.58864  0.49351  0.43257  Biso   1.000  H
  C5       1.0000 0.71572  0.51776  0.57252  Biso   1.000  C
  H3       1.0000 0.66153  0.49381  0.60096  Biso   1.000  H
  C6       1.0000 0.67663  0.53003  0.41954  Biso   1.000  C
  C7       1.0000 0.72199  0.52863  0.52402  Biso   1.000  C
  H4       1.0000 0.74755  0.52290  0.60819  Biso   1.000  H
  C8       1.0000 0.62596  0.51780  0.36258  Biso   1.000  C
  C9       1.0000 0.72771  0.54907  0.42411  Biso   1.000  C
  C10      1.0000 0.77492  0.54759  0.52749  Biso   1.000  C
  O1       1.0000 0.61989  0.46494  0.36038  Biso   1.000  O
  H5       1.0000 0.63376  0.52941  0.33258  Biso   1.000  H
  H6       1.0000 0.59028  0.53340  0.35818  Biso   1.000  H
  C11      1.0000 0.77689  0.55872  0.47883  Biso   1.000  C
  O2       1.0000 0.73485  0.55617  0.37722  Biso   1.000  O
  C12      1.0000 0.82938  0.55014  0.58428  Biso   1.000  C
  C13      1.0000 0.56817  0.44834  0.31125  Biso   1.000  C
  O3       1.0000 0.82587  0.58141  0.48132  Biso   1.000  O
  C14      1.0000 0.72829  0.60685  0.35809  Biso   1.000  C
  H7       1.0000 0.82156  0.56789  0.61128  Biso   1.000  H
  H8       1.0000 0.86085  0.56670  0.58107  Biso   1.000  H
  O4       1.0000 0.84486  0.50013  0.60168  Biso   1.000  O
  C15      1.0000 0.56942  0.39304  0.31535  Biso   1.000  C
  H9       1.0000 0.53317  0.46150  0.31099  Biso   1.000  H
  H10      1.0000 0.56876  0.45891  0.27697  Biso   1.000  H
  C16      1.0000 0.86341  0.55062  0.46893  Biso   1.000  C
  H11      1.0000 0.68864  0.61830  0.34667  Biso   1.000  H
  H12      1.0000 0.75555  0.62788  0.38848  Biso   1.000  H
  C17      1.0000 0.74064  0.60914  0.30884  Biso   1.000  C
  C18      1.0000 0.89598  0.49569  0.65593  Biso   1.000  C
  C19      1.0000 0.53158  0.36817  0.32856  Biso   1.000  C
  C20      1.0000 0.61496  0.36613  0.31112  Biso   1.000  C
  H13      1.0000 0.88094  0.52501  0.49736  Biso   1.000  H
  H14      1.0000 0.84107  0.53491  0.43228  Biso   1.000  H
  C21      1.0000 0.91049  0.58341  0.46859  Biso   1.000  C
  H15      1.0000 0.74019  0.64348  0.29817  Biso   1.000  H
  H16      1.0000 0.77985  0.59638  0.32077  Biso   1.000  H
  C22      1.0000 0.69767  0.58056  0.25746  Biso   1.000  C
  C23      1.0000 0.91062  0.44143  0.66541  Biso   1.000  C
  H17      1.0000 0.92845  0.51399  0.65648  Biso   1.000  H
  H18      1.0000 0.88804  0.50871  0.68525  Biso   1.000  H
  C24      1.0000 0.53829  0.31582  0.34053  Biso   1.000  C
  O5       1.0000 0.48449  0.39223  0.32763  Biso   1.000  O
  C25      1.0000 0.62106  0.31416  0.32272  Biso   1.000  C
  C26      1.0000 0.65565  0.38931  0.29686  Biso   1.000  C
  H19      1.0000 0.93476  0.56371  0.45767  Biso   1.000  H
  H20      1.0000 0.89176  0.60869  0.43998  Biso   1.000  H
  C27      1.0000 0.95003  0.60851  0.52470  Biso   1.000  C
  H21      1.0000 0.69879  0.54600  0.26749  Biso   1.000  H
  H22      1.0000 0.65837  0.59280  0.24549  Biso   1.000  H
  C28      1.0000 0.71147  0.58489  0.20871  Biso   1.000  C
  C29      1.0000 0.90595  0.41633  0.70679  Biso   1.000  C
  C30      1.0000 0.92788  0.41526  0.62910  Biso   1.000  C
  O6       1.0000 0.50323  0.29435  0.36017  Biso   1.000  O
  C31      1.0000 0.58216  0.28958  0.33808  Biso   1.000  C
  C32      1.0000 0.48978  0.40413  0.38209  Biso   1.000  C
  C33      1.0000 0.66652  0.28899  0.31870  Biso   1.000  C
  H23      1.0000 0.65285  0.42321  0.29017  Biso   1.000  H
  C34      1.0000 0.69845  0.36318  0.29280  Biso   1.000  C
  H24      1.0000 0.92556  0.62559  0.53757  Biso   1.000  H
  H25      1.0000 0.97365  0.63320  0.51856  Biso   1.000  H
  C35      1.0000 0.99045  0.57384  0.57066  Biso   1.000  C
  H26      1.0000 0.68316  0.56641  0.17697  Biso   1.000  H
  H27      1.0000 0.70988  0.61901  0.19818  Biso   1.000  H
  H28      1.0000 0.75017  0.57221  0.22010  Biso   1.000  H
  C36      1.0000 0.91842  0.36403  0.71500  Biso   1.000  C
  O7       1.0000 0.88408  0.43903  0.73891  Biso   1.000  O
  C37      1.0000 0.93986  0.36343  0.63710  Biso   1.000  C
  C38      1.0000 0.93389  0.43895  0.58509  Biso   1.000  C
  C39      1.0000 0.44482  0.28111  0.31616  Biso   1.000  C
  C40      1.0000 0.59052  0.23546  0.35200  Biso   1.000  C
  H29      1.0000 0.49877  0.37471  0.40528  Biso   1.000  H
  H30      1.0000 0.52098  0.42809  0.40139  Biso   1.000  H
  C41      1.0000 0.43112  0.42554  0.37147  Biso   1.000  C
  C42      1.0000 0.70408  0.31250  0.30376  Biso   1.000  C
  H31      1.0000 0.67116  0.25531  0.32640  Biso   1.000  H
  H32      1.0000 0.72397  0.37911  0.28268  Biso   1.000  H
  H33      1.0000 0.96755  0.55221  0.58098  Biso   1.000  H
  H34      1.0000 0.01245  0.55458  0.55716  Biso   1.000  H
  H35      1.0000 0.01694  0.59258  0.60316  Biso   1.000  H
  C43      1.0000 0.93304  0.33815  0.67992  Biso   1.000  C
  O8       1.0000 0.91606  0.34092  0.75965  Biso   1.000  O
  C44      1.0000 0.92861  0.45248  0.79541  Biso   1.000  C
  C45      1.0000 0.95715  0.33859  0.60062  Biso   1.000  C
  C46      1.0000 0.95092  0.41441  0.55170  Biso   1.000  C
  H36      1.0000 0.92586  0.47259  0.57908  Biso   1.000  H
  C47      1.0000 0.41191  0.25934  0.34447  Biso   1.000  C
  H37      1.0000 0.42457  0.31021  0.29458  Biso   1.000  H
  H38      1.0000 0.44748  0.25720  0.29047  Biso   1.000  H
  H39      1.0000 0.59138  0.21709  0.32140  Biso   1.000  H
  H40      1.0000 0.55866  0.22290  0.35780  Biso   1.000  H
  O9       1.0000 0.64546  0.23058  0.40287  Biso   1.000  O
  H41      1.0000 0.43287  0.43189  0.40790  Biso   1.000  H
  H42      1.0000 0.40108  0.40069  0.35238  Biso   1.000  H
  C48      1.0000 0.41224  0.47266  0.33698  Biso   1.000  C
  H43      1.0000 0.73339  0.29468  0.30101  Biso   1.000  H
  C49      1.0000 0.93622  0.28282  0.68246  Biso   1.000  C
  C50      1.0000 0.85853  0.32991  0.75258  Biso   1.000  C
  H44      1.0000 0.95184  0.42380  0.81487  Biso   1.000  H
  H45      1.0000 0.95452  0.47740  0.79346  Biso   1.000  H
  C51      1.0000 0.89811  0.47233  0.82651  Biso   1.000  C
  H46      1.0000 0.96426  0.30481  0.60477  Biso   1.000  H
  C52      1.0000 0.96349  0.36321  0.55995  Biso   1.000  C
  H47      1.0000 0.95446  0.43108  0.52318  Biso   1.000  H
  H48      1.0000 0.41258  0.28289  0.37197  Biso   1.000  H
  H49      1.0000 0.37119  0.25480  0.31620  Biso   1.000  H
  C53      1.0000 0.43570  0.21048  0.37401  Biso   1.000  C
  C54      1.0000 0.66278  0.18065  0.41865  Biso   1.000  C
  H50      1.0000 0.37128  0.47891  0.32610  Biso   1.000  H
  H51      1.0000 0.41505  0.46779  0.30257  Biso   1.000  H
  C55      1.0000 0.44777  0.51754  0.36719  Biso   1.000  C
  O10      1.0000 0.88679  0.26600  0.63155  Biso   1.000  O
  H52      1.0000 0.96435  0.26341  0.71107  Biso   1.000  H
  H53      1.0000 0.83504  0.35981  0.74336  Biso   1.000  H
  H54      1.0000 0.83875  0.30629  0.72207  Biso   1.000  H
  C56      1.0000 0.86624  0.30865  0.80709  Biso   1.000  C
  H55      1.0000 0.87144  0.44731  0.82677  Biso   1.000  H
  H56      1.0000 0.92713  0.47851  0.86549  Biso   1.000  H
  C57      1.0000 0.86361  0.51961  0.80176  Biso   1.000  C
  H57      1.0000 0.97608  0.34651  0.53740  Biso   1.000  H
  H58      1.0000 0.43567  0.18678  0.34680  Biso   1.000  H
  H59      1.0000 0.47598  0.21499  0.40321  Biso   1.000  H
  C58      1.0000 0.39995  0.18981  0.40050  Biso   1.000  C
  H60      1.0000 0.63287  0.16279  0.42339  Biso   1.000  H
  H61      1.0000 0.66936  0.16401  0.39009  Biso   1.000  H
  C59      1.0000 0.71912  0.18357  0.47409  Biso   1.000  C
  H62      1.0000 0.43247  0.54600  0.34328  Biso   1.000  H
  H63      1.0000 0.44547  0.52260  0.40147  Biso   1.000  H
  H64      1.0000 0.48797  0.51259  0.37621  Biso   1.000  H
  C60      1.0000 0.88303  0.21347  0.62525  Biso   1.000  C
  H65      1.0000 0.88656  0.33268  0.83688  Biso   1.000  H
  H66      1.0000 0.82774  0.30329  0.80396  Biso   1.000  H
  C61      1.0000 0.90053  0.25971  0.82444  Biso   1.000  C
  H67      1.0000 0.83385  0.51340  0.76308  Biso   1.000  H
  H68      1.0000 0.89004  0.54460  0.80078  Biso   1.000  H
  C62      1.0000 0.83435  0.53927  0.83498  Biso   1.000  C
  H69      1.0000 0.36028  0.18430  0.37159  Biso   1.000  H
  H70      1.0000 0.41688  0.15921  0.41907  Biso   1.000  H
  H71      1.0000 0.40007  0.21299  0.42758  Biso   1.000  H
  C63      1.0000 0.77144  0.17229  0.47608  Biso   1.000  C
  C64      1.0000 0.71794  0.20327  0.52225  Biso   1.000  C
  C65      1.0000 0.82646  0.20201  0.57349  Biso   1.000  C
  H72      1.0000 0.91594  0.20101  0.62119  Biso   1.000  H
  H73      1.0000 0.88375  0.19820  0.65826  Biso   1.000  H
  H74      1.0000 0.90994  0.25228  0.86316  Biso   1.000  H
  H75      1.0000 0.93724  0.26400  0.82347  Biso   1.000  H
  C66      1.0000 0.86804  0.21569  0.78728  Biso   1.000  C
  H76      1.0000 0.81794  0.57129  0.82088  Biso   1.000  H
  H77      1.0000 0.80361  0.51710  0.83096  Biso   1.000  H
  H78      1.0000 0.86282  0.54190  0.87425  Biso   1.000  H
  C67      1.0000 0.82568  0.18246  0.52631  Biso   1.000  C
  O11      1.0000 0.77332  0.14952  0.43084  Biso   1.000  O
  C68      1.0000 0.77179  0.21299  0.57239  Biso   1.000  C
  C69      1.0000 0.66513  0.21443  0.52326  Biso   1.000  C
  H79      1.0000 0.85923  0.22219  0.74899  Biso   1.000  H
  H80      1.0000 0.89224  0.18671  0.80078  Biso   1.000  H
  H81      1.0000 0.83215  0.21040  0.78889  Biso   1.000  H
  O12      1.0000 0.87743  0.17628  0.52360  Biso   1.000  O
  C70      1.0000 0.78737  0.18079  0.39610  Biso   1.000  C
  C71      1.0000 0.76914  0.23391  0.61890  Biso   1.000  C
  H82      1.0000 0.62965  0.20811  0.49118  Biso   1.000  H
  C72      1.0000 0.66424  0.23391  0.56926  Biso   1.000  C
  C73      1.0000 0.89803  0.12546  0.52995  Biso   1.000  C
  H83      1.0000 0.75686  0.20541  0.37748  Biso   1.000  H
  H84      1.0000 0.82426  0.19769  0.41886  Biso   1.000  H
  C74      1.0000 0.79209  0.14819  0.35276  Biso   1.000  C
  C75      1.0000 0.71714  0.24422  0.61818  Biso   1.000  C
  H85      1.0000 0.80403  0.24101  0.65136  Biso   1.000  H
  H86      1.0000 0.62854  0.24049  0.56837  Biso   1.000  H
  H87      1.0000 0.90703  0.11300  0.56706  Biso   1.000  H
  H88      1.0000 0.86806  0.10461  0.50159  Biso   1.000  H
  C76      1.0000 0.95238  0.12527  0.52280  Biso   1.000  C
  H89      1.0000 0.80426  0.16848  0.33038  Biso   1.000  H
  H90      1.0000 0.82276  0.12402  0.37257  Biso   1.000  H
  C77      1.0000 0.73626  0.12098  0.31281  Biso   1.000  C
  H91      1.0000 0.71674  0.25790  0.64979  Biso   1.000  H
  H92      1.0000 0.96375  0.09130  0.52187  Biso   1.000  H
  H93      1.0000 0.94285  0.13998  0.48649  Biso   1.000  H
  C78      1.0000 0.00451  0.15255  0.56858  Biso   1.000  C
  H94      1.0000 0.72105  0.10420  0.33507  Biso   1.000  H
  H95      1.0000 0.74608  0.09589  0.29280  Biso   1.000  H
  C79      1.0000 0.68887  0.15362  0.27020  Biso   1.000  C
  H96      1.0000 0.99395  0.18689  0.56896  Biso   1.000  H
  H97      1.0000 0.01405  0.13828  0.60506  Biso   1.000  H
  C80      1.0000 0.05806  0.15000  0.55957  Biso   1.000  C
  H98      1.0000 0.65698  0.13359  0.24401  Biso   1.000  H
  H99      1.0000 0.67507  0.17558  0.28929  Biso   1.000  H
  H100     1.0000 0.70448  0.17251  0.25010  Biso   1.000  H
  H101     1.0000 0.04934  0.16549  0.52428  Biso   1.000  H
  H102     1.0000 0.09017  0.16689  0.59000  Biso   1.000  H
  H103     1.0000 0.06847  0.11611  0.55889  Biso   1.000  H
  C81      1.0000 0.55213  0.48246  0.63278  Biso   1.000  C
  C82      1.0000 0.58770  0.52734  0.66300  Biso   1.000  C
  H104     1.0000 0.56747  0.45400  0.65669  Biso   1.000  H
  H105     1.0000 0.55444  0.47740  0.59846  Biso   1.000  H
  H106     1.0000 0.51193  0.48741  0.62377  Biso   1.000  H
  C83      1.0000 0.56876  0.57446  0.62846  Biso   1.000  C
  H107     1.0000 0.62866  0.52109  0.67387  Biso   1.000  H
  H108     1.0000 0.58483  0.53221  0.69736  Biso   1.000  H
  C84      1.0000 0.51016  0.59587  0.61788  Biso   1.000  C
  H109     1.0000 0.56703  0.56811  0.59207  Biso   1.000  H
  H110     1.0000 0.59886  0.59931  0.64759  Biso   1.000  H
  O13      1.0000 0.51545  0.60777  0.67235  Biso   1.000  O
  H111     1.0000 0.50117  0.62529  0.59469  Biso   1.000  H
  H112     1.0000 0.47896  0.57188  0.59859  Biso   1.000  H
  C85      1.0000 0.46834  0.63183  0.67137  Biso   1.000  C
  C86      1.0000 0.43048  0.60692  0.68462  Biso   1.000  C
  C87      1.0000 0.46165  0.68418  0.65944  Biso   1.000  C
  C88      1.0000 0.43173  0.55162  0.68872  Biso   1.000  C
  C89      1.0000 0.38498  0.63387  0.68885  Biso   1.000  C
  C90      1.0000 0.41778  0.71042  0.66190  Biso   1.000  C
  O14      1.0000 0.49667  0.70565  0.63981  Biso   1.000  O
  O15      1.0000 0.38001  0.53502  0.63959  Biso   1.000  O
  H113     1.0000 0.46673  0.53850  0.68898  Biso   1.000  H
  H114     1.0000 0.43112  0.54109  0.72296  Biso   1.000  H
  C91      1.0000 0.37886  0.68584  0.67721  Biso   1.000  C
  C92      1.0000 0.34427  0.61065  0.70307  Biso   1.000  C
  C93      1.0000 0.40940  0.76450  0.64793  Biso   1.000  C
  C94      1.0000 0.55508  0.71885  0.68382  Biso   1.000  C
  C95      1.0000 0.37394  0.48216  0.63739  Biso   1.000  C
  C96      1.0000 0.33338  0.71101  0.68128  Biso   1.000  C
  H115     1.0000 0.34702  0.57679  0.70976  Biso   1.000  H
  C97      1.0000 0.30145  0.63682  0.70718  Biso   1.000  C
  O16      1.0000 0.35448  0.76942  0.59711  Biso   1.000  O
  H116     1.0000 0.40856  0.78291  0.67857  Biso   1.000  H
  H117     1.0000 0.44124  0.77710  0.64218  Biso   1.000  H
  H118     1.0000 0.57535  0.68979  0.70536  Biso   1.000  H
  H119     1.0000 0.55244  0.74280  0.70946  Biso   1.000  H
  C98      1.0000 0.58803  0.74066  0.65551  Biso   1.000  C
  C99      1.0000 0.32324  0.46997  0.58039  Biso   1.000  C
  H120     1.0000 0.36615  0.47059  0.66735  Biso   1.000  H
  H121     1.0000 0.40966  0.46660  0.64179  Biso   1.000  H
  C100     1.0000 0.29580  0.68750  0.69617  Biso   1.000  C
  H122     1.0000 0.32874  0.74469  0.67357  Biso   1.000  H
  H123     1.0000 0.27596  0.62089  0.71729  Biso   1.000  H
  C101     1.0000 0.33716  0.81935  0.58132  Biso   1.000  C
  H124     1.0000 0.58733  0.71711  0.62796  Biso   1.000  H
  H125     1.0000 0.62874  0.74520  0.68377  Biso   1.000  H
  C102     1.0000 0.56424  0.78952  0.62597  Biso   1.000  C
  C103     1.0000 0.27222  0.45089  0.57586  Biso   1.000  C
  C104     1.0000 0.32699  0.48021  0.53062  Biso   1.000  C
  H126     1.0000 0.26655  0.70528  0.69897  Biso   1.000  H
  C105     1.0000 0.28082  0.81643  0.52589  Biso   1.000  C
  H127     1.0000 0.36707  0.83721  0.57658  Biso   1.000  H
  H128     1.0000 0.33054  0.83599  0.60989  Biso   1.000  H
  H129     1.0000 0.56427  0.81318  0.65318  Biso   1.000  H
  H130     1.0000 0.52396  0.78498  0.59677  Biso   1.000  H
  C106     1.0000 0.59994  0.81019  0.59948  Biso   1.000  C
  C107     1.0000 0.22301  0.44128  0.52115  Biso   1.000  C
  O17      1.0000 0.26509  0.44383  0.62275  Biso   1.000  O
  C108     1.0000 0.27791  0.47137  0.47595  Biso   1.000  C
  C109     1.0000 0.37917  0.49972  0.53240  Biso   1.000  C
  C110     1.0000 0.22846  0.82767  0.52390  Biso   1.000  C
  C111     1.0000 0.28200  0.79673  0.47773  Biso   1.000  C
  H131     1.0000 0.63966  0.81570  0.62838  Biso   1.000  H
  H132     1.0000 0.58306  0.84079  0.58090  Biso   1.000  H
  H133     1.0000 0.59987  0.78701  0.57239  Biso   1.000  H
  C112     1.0000 0.22502  0.45241  0.47248  Biso   1.000  C
  O18      1.0000 0.17401  0.41859  0.51861  Biso   1.000  O
  C113     1.0000 0.27161  0.39315  0.64188  Biso   1.000  C
  C114     1.0000 0.28418  0.48224  0.42745  Biso   1.000  C
  C115     1.0000 0.38354  0.50871  0.48530  Biso   1.000  C
  H134     1.0000 0.41126  0.50649  0.56740  Biso   1.000  H
  C116     1.0000 0.17424  0.81754  0.47362  Biso   1.000  C
  O19      1.0000 0.22659  0.85048  0.56909  Biso   1.000  O
  C117     1.0000 0.22815  0.78701  0.42758  Biso   1.000  C
  C118     1.0000 0.33475  0.78557  0.47667  Biso   1.000  C
  C119     1.0000 0.17052  0.44986  0.41569  Biso   1.000  C
  C120     1.0000 0.13649  0.44938  0.53105  Biso   1.000  C
  H135     1.0000 0.31123  0.38170  0.65326  Biso   1.000  H
  H136     1.0000 0.24435  0.37208  0.61149  Biso   1.000  H
  C121     1.0000 0.25929  0.39086  0.69114  Biso   1.000  C
  H137     1.0000 0.25235  0.47710  0.39178  Biso   1.000  H
  C122     1.0000 0.33528  0.49991  0.43152  Biso   1.000  C
  H138     1.0000 0.41855  0.52068  0.48818  Biso   1.000  H
  C123     1.0000 0.17344  0.79799  0.42648  Biso   1.000  C
  O20      1.0000 0.12251  0.82368  0.47637  Biso   1.000  O
  C124     1.0000 0.21257  0.81921  0.60388  Biso   1.000  C
  C125     1.0000 0.23080  0.76609  0.38107  Biso   1.000  C
  H139     1.0000 0.37025  0.79189  0.50879  Biso   1.000  H
  C126     1.0000 0.33564  0.76609  0.43067  Biso   1.000  C
  O21      1.0000 0.15502  0.49987  0.39825  Biso   1.000  O
  H140     1.0000 0.17837  0.43211  0.38869  Biso   1.000  H
  H141     1.0000 0.13907  0.43330  0.41886  Biso   1.000  H
  H142     1.0000 0.11894  0.47499  0.50257  Biso   1.000  H
  H143     1.0000 0.15887  0.46509  0.56770  Biso   1.000  H
  C127     1.0000 0.08939  0.41659  0.53134  Biso   1.000  C
  H144     1.0000 0.25973  0.35649  0.70176  Biso   1.000  H
  H145     1.0000 0.22003  0.40362  0.67916  Biso   1.000  H
  C128     1.0000 0.30223  0.41940  0.74251  Biso   1.000  C
  H146     1.0000 0.33835  0.50619  0.39897  Biso   1.000  H
  C129     1.0000 0.11691  0.78653  0.37473  Biso   1.000  C
  C130     1.0000 0.10187  0.87454  0.47003  Biso   1.000  C
  H147     1.0000 0.24308  0.79459  0.62250  Biso   1.000  H
  H148     1.0000 0.17566  0.80228  0.58107  Biso   1.000  H
  C131     1.0000 0.20785  0.85181  0.64721  Biso   1.000  C
  C132     1.0000 0.28276  0.75578  0.38179  Biso   1.000  C
  H149     1.0000 0.19585  0.75899  0.34857  Biso   1.000  H
  H150     1.0000 0.37136  0.75951  0.43160  Biso   1.000  H
  C133     1.0000 0.10392  0.50427  0.34405  Biso   1.000  C
  H151     1.0000 0.06515  0.43629  0.54226  Biso   1.000  H
  H152     1.0000 0.10818  0.39131  0.55999  Biso   1.000  H
  C134     1.0000 0.04988  0.39149  0.47523  Biso   1.000  C
  H153     1.0000 0.30115  0.45400  0.73248  Biso   1.000  H
  H154     1.0000 0.34153  0.40720  0.75449  Biso   1.000  H
  C135     1.0000 0.28843  0.41511  0.79126  Biso   1.000  C
  O22      1.0000 0.11311  0.73397  0.36842  Biso   1.000  O
  H155     1.0000 0.08396  0.79899  0.37879  Biso   1.000  H
  H156     1.0000 0.11617  0.80180  0.34168  Biso   1.000  H
  H157     1.0000 0.09285  0.88700  0.43287  Biso   1.000  H
  H158     1.0000 0.13184  0.89539  0.49838  Biso   1.000  H
  C136     1.0000 0.04752  0.87469  0.47718  Biso   1.000  C
  H159     1.0000 0.19562  0.83148  0.66955  Biso   1.000  H
  H160     1.0000 0.17716  0.87598  0.62736  Biso   1.000  H
  C137     1.0000 0.26362  0.87902  0.68712  Biso   1.000  C
  H161     1.0000 0.28316  0.74210  0.35018  Biso   1.000  H
  C138     1.0000 0.08928  0.55853  0.33457  Biso   1.000  C
  H162     1.0000 0.07149  0.48601  0.34349  Biso   1.000  H
  H163     1.0000 0.11188  0.49129  0.31468  Biso   1.000  H
  H164     1.0000 0.07436  0.37441  0.46237  Biso   1.000  H
  H165     1.0000 0.02627  0.36680  0.48137  Biso   1.000  H
  C139     1.0000 0.00947  0.42616  0.42927  Biso   1.000  C
  H166     1.0000 0.31672  0.43359  0.82296  Biso   1.000  H
  H167     1.0000 0.29004  0.38099  0.80176  Biso   1.000  H
  H168     1.0000 0.24973  0.42779  0.77988  Biso   1.000  H
  C140     1.0000 0.06369  0.71718  0.31747  Biso   1.000  C
  H169     1.0000 0.03616  0.90870  0.47807  Biso   1.000  H
  H170     1.0000 0.05705  0.85998  0.51349  Biso   1.000  H
  C141     1.0000 0.99543  0.84745  0.43139  Biso   1.000  C
  H171     1.0000 0.27883  0.89580  0.66486  Biso   1.000  H
  H172     1.0000 0.25386  0.90408  0.70718  Biso   1.000  H
  C142     1.0000 0.31103  0.84638  0.72977  Biso   1.000  C
  C143     1.0000 0.09393  0.58367  0.29314  Biso   1.000  C
  C144     1.0000 0.07200  0.58474  0.37083  Biso   1.000  C
  H173     1.0000 0.03235  0.44779  0.41899  Biso   1.000  H
  H174     1.0000 0.98747  0.44538  0.44277  Biso   1.000  H
  H175     1.0000 0.98294  0.40739  0.39677  Biso   1.000  H
  C145     1.0000 0.06690  0.66185  0.32005  Biso   1.000  C
  H176     1.0000 0.03559  0.73659  0.28890  Biso   1.000  H
  H177     1.0000 0.00597  0.81311  0.43097  Biso   1.000  H
  H178     1.0000 0.98587  0.86168  0.39487  Biso   1.000  H
  C146     1.0000 0.94188  0.85000  0.44040  Biso   1.000  C
  H179     1.0000 0.34295  0.86641  0.75597  Biso   1.000  H
  H180     1.0000 0.32487  0.82438  0.71069  Biso   1.000  H
  H181     1.0000 0.29545  0.82749  0.74987  Biso   1.000  H
  O23      1.0000 0.11580  0.56097  0.26102  Biso   1.000  O
  C147     1.0000 0.08151  0.63597  0.28497  Biso   1.000  C
  C148     1.0000 0.06008  0.63657  0.36288  Biso   1.000  C
  C149     1.0000 0.06601  0.56105  0.41489  Biso   1.000  C
  H182     1.0000 0.95056  0.83451  0.47570  Biso   1.000  H
  H183     1.0000 0.90977  0.83311  0.40998  Biso   1.000  H
  H184     1.0000 0.93146  0.88389  0.44108  Biso   1.000  H
  C150     1.0000 0.07131  0.54748  0.20452  Biso   1.000  C
  O24      1.0000 0.08382  0.65908  0.24028  Biso   1.000  O
  C151     1.0000 0.04278  0.66137  0.39935  Biso   1.000  C
  C152     1.0000 0.04898  0.58559  0.44827  Biso   1.000  C
  H185     1.0000 0.07408  0.52741  0.42089  Biso   1.000  H
  C153     1.0000 0.10183  0.52767  0.17346  Biso   1.000  C
  H186     1.0000 0.04810  0.57620  0.18510  Biso   1.000  H
  H187     1.0000 0.04538  0.52260  0.20651  Biso   1.000  H
  C154     1.0000 0.14141  0.67009  0.24739  Biso   1.000  C
  H188     1.0000 0.03566  0.69519  0.39517  Biso   1.000  H
  C155     1.0000 0.03645  0.63675  0.44002  Biso   1.000  C
  H189     1.0000 0.04548  0.56888  0.47680  Biso   1.000  H
  C156     1.0000 0.13627  0.48039  0.19818  Biso   1.000  C
  H190     1.0000 0.12849  0.55269  0.17321  Biso   1.000  H
  H191     1.0000 0.07277  0.52149  0.13449  Biso   1.000  H
  H192     1.0000 0.16488  0.64019  0.25657  Biso   1.000  H
  H193     1.0000 0.16119  0.69371  0.27790  Biso   1.000  H
  C157     1.0000 0.13366  0.69135  0.19289  Biso   1.000  C
  H194     1.0000 0.02386  0.65349  0.46258  Biso   1.000  H
  C158     1.0000 0.16559  0.46073  0.16500  Biso   1.000  C
  H195     1.0000 0.16609  0.48660  0.23690  Biso   1.000  H
  H196     1.0000 0.10990  0.45540  0.19919  Biso   1.000  H
  H197     1.0000 0.11338  0.66728  0.16309  Biso   1.000  H
  H198     1.0000 0.17218  0.69671  0.19597  Biso   1.000  H
  C159     1.0000 0.09941  0.74029  0.17553  Biso   1.000  C
  H199     1.0000 0.18200  0.42871  0.17909  Biso   1.000  H
  H200     1.0000 0.19627  0.48290  0.16898  Biso   1.000  H
  H201     1.0000 0.13710  0.45810  0.12568  Biso   1.000  H
  H202     1.0000 0.09000  0.74768  0.13681  Biso   1.000  H
  H203     1.0000 0.06270  0.73600  0.17651  Biso   1.000  H
  C160     1.0000 0.13190  0.78431  0.21269  Biso   1.000  C
  H204     1.0000 0.14067  0.77781  0.25099  Biso   1.000  H
  H205     1.0000 0.10769  0.81329  0.19919  Biso   1.000  H
  H206     1.0000 0.16779  0.78960  0.21108  Biso   1.000  H
  C161     1.0000 0.45238  0.37471  0.52280  Biso   1.000  C
  C162     1.0000 0.39803  0.37456  0.52995  Biso   1.000  C
  H207     1.0000 0.46375  0.40868  0.52187  Biso   1.000  H
  H208     1.0000 0.44285  0.36000  0.48649  Biso   1.000  H
  C163     1.0000 0.50451  0.34743  0.56858  Biso   1.000  C
  O25      1.0000 0.37743  0.32370  0.52360  Biso   1.000  O
  H209     1.0000 0.40703  0.38698  0.56706  Biso   1.000  H
  H210     1.0000 0.36806  0.39541  0.50159  Biso   1.000  H
  H211     1.0000 0.51405  0.36170  0.60506  Biso   1.000  H
  H212     1.0000 0.49395  0.31309  0.56896  Biso   1.000  H
  C164     1.0000 0.55806  0.34998  0.55957  Biso   1.000  C
  C165     1.0000 0.32568  0.31756  0.52631  Biso   1.000  C
  H213     1.0000 0.54934  0.33449  0.52428  Biso   1.000  H
  H214     1.0000 0.59017  0.33309  0.59000  Biso   1.000  H
  H215     1.0000 0.56847  0.38391  0.55889  Biso   1.000  H
  C166     1.0000 0.27144  0.32769  0.47608  Biso   1.000  C
  C167     1.0000 0.32646  0.29797  0.57349  Biso   1.000  C
  C168     1.0000 0.21912  0.31645  0.47409  Biso   1.000  C
  O26      1.0000 0.27332  0.35050  0.43084  Biso   1.000  O
  C169     1.0000 0.27179  0.28699  0.57239  Biso   1.000  C
  C170     1.0000 0.38303  0.28651  0.62525  Biso   1.000  C
  C171     1.0000 0.16278  0.31937  0.41865  Biso   1.000  C
  C172     1.0000 0.21794  0.29671  0.52225  Biso   1.000  C
  C173     1.0000 0.28737  0.31919  0.39610  Biso   1.000  C
  C174     1.0000 0.26914  0.26607  0.61890  Biso   1.000  C
  H216     1.0000 0.41594  0.29901  0.62119  Biso   1.000  H
  H217     1.0000 0.38375  0.30181  0.65826  Biso   1.000  H
  O27      1.0000 0.38679  0.23399  0.63155  Biso   1.000  O
  O28      1.0000 0.14546  0.26940  0.40287  Biso   1.000  O
  H218     1.0000 0.13287  0.33719  0.42339  Biso   1.000  H
  H219     1.0000 0.16936  0.33601  0.39009  Biso   1.000  H
  C175     1.0000 0.16513  0.28559  0.52326  Biso   1.000  C
  H220     1.0000 0.25686  0.29461  0.37748  Biso   1.000  H
  H221     1.0000 0.32426  0.30230  0.41886  Biso   1.000  H
  C176     1.0000 0.29209  0.35179  0.35276  Biso   1.000  C
  C177     1.0000 0.21714  0.25579  0.61818  Biso   1.000  C
  H222     1.0000 0.30403  0.25901  0.65136  Biso   1.000  H
  C178     1.0000 0.43622  0.21720  0.68246  Biso   1.000  C
  C179     1.0000 0.09052  0.26452  0.35200  Biso   1.000  C
  H223     1.0000 0.12965  0.29191  0.49118  Biso   1.000  H
  C180     1.0000 0.16424  0.26611  0.56926  Biso   1.000  C
  H224     1.0000 0.30426  0.33150  0.33038  Biso   1.000  H
  H225     1.0000 0.32276  0.37600  0.37257  Biso   1.000  H
  C181     1.0000 0.23626  0.37903  0.31281  Biso   1.000  C
  H226     1.0000 0.21674  0.24208  0.64979  Biso   1.000  H
  C182     1.0000 0.43304  0.16183  0.67992  Biso   1.000  C
  H227     1.0000 0.46435  0.23661  0.71107  Biso   1.000  H
  C183     1.0000 0.08216  0.21040  0.33808  Biso   1.000  C
  H228     1.0000 0.09138  0.28289  0.32140  Biso   1.000  H
  H229     1.0000 0.05866  0.27709  0.35780  Biso   1.000  H
  H230     1.0000 0.12854  0.25949  0.56837  Biso   1.000  H
  H231     1.0000 0.22105  0.39578  0.33507  Biso   1.000  H
  H232     1.0000 0.24608  0.40410  0.29280  Biso   1.000  H
  C184     1.0000 0.18887  0.34639  0.27020  Biso   1.000  C
  C185     1.0000 0.41842  0.13599  0.71500  Biso   1.000  C
  C186     1.0000 0.43986  0.13658  0.63710  Biso   1.000  C
  C187     1.0000 0.12106  0.18586  0.32272  Biso   1.000  C
  C188     1.0000 0.03829  0.18419  0.34053  Biso   1.000  C
  H233     1.0000 0.15698  0.36639  0.24401  Biso   1.000  H
  H234     1.0000 0.17507  0.32440  0.28929  Biso   1.000  H
  H235     1.0000 0.20448  0.32751  0.25010  Biso   1.000  H
  C189     1.0000 0.40595  0.08369  0.70679  Biso   1.000  C
  O29      1.0000 0.41606  0.15910  0.75965  Biso   1.000  O
  C190     1.0000 0.42788  0.08476  0.62910  Biso   1.000  C
  C191     1.0000 0.45715  0.16139  0.60062  Biso   1.000  C
  C192     1.0000 0.16652  0.21103  0.31870  Biso   1.000  C
  C193     1.0000 0.11496  0.13389  0.31112  Biso   1.000  C
  C194     1.0000 0.03158  0.13185  0.32856  Biso   1.000  C
  O30      1.0000 0.00323  0.20567  0.36017  Biso   1.000  O
  C195     1.0000 0.41062  0.05855  0.66541  Biso   1.000  C
  O31      1.0000 0.38408  0.06095  0.73891  Biso   1.000  O
  C196     1.0000 0.35853  0.17011  0.75258  Biso   1.000  C
  C197     1.0000 0.43389  0.06107  0.58509  Biso   1.000  C
  H236     1.0000 0.46426  0.19521  0.60477  Biso   1.000  H
  C198     1.0000 0.46349  0.13677  0.55995  Biso   1.000  C
  C199     1.0000 0.20408  0.18748  0.30376  Biso   1.000  C
  H237     1.0000 0.17116  0.24470  0.32640  Biso   1.000  H
  C200     1.0000 0.15565  0.11067  0.29686  Biso   1.000  C
  C201     1.0000 0.06942  0.10694  0.31535  Biso   1.000  C
  O32      1.0000 0.98449  0.10775  0.32763  Biso   1.000  O
  C202     1.0000 0.94482  0.21887  0.31616  Biso   1.000  C
  C203     1.0000 0.39598  0.00429  0.65593  Biso   1.000  C
  C204     1.0000 0.42861  0.04750  0.79541  Biso   1.000  C
  H238     1.0000 0.33504  0.14021  0.74336  Biso   1.000  H
  H239     1.0000 0.33875  0.19369  0.72207  Biso   1.000  H
  C205     1.0000 0.36624  0.19137  0.80709  Biso   1.000  C
  C206     1.0000 0.45092  0.08557  0.55170  Biso   1.000  C
  H240     1.0000 0.42586  0.02739  0.57908  Biso   1.000  H
  H241     1.0000 0.47608  0.15351  0.53740  Biso   1.000  H
  C207     1.0000 0.19845  0.13681  0.29280  Biso   1.000  C
  H242     1.0000 0.23339  0.20530  0.30101  Biso   1.000  H
  H243     1.0000 0.15285  0.07681  0.29017  Biso   1.000  H
  C208     1.0000 0.06817  0.05164  0.31125  Biso   1.000  C
  C209     1.0000 0.98978  0.09589  0.38209  Biso   1.000  C
  H244     1.0000 0.92457  0.18981  0.29458  Biso   1.000  H
  H245     1.0000 0.94748  0.24278  0.29047  Biso   1.000  H
  C210     1.0000 0.91191  0.24068  0.34447  Biso   1.000  C
  O33      1.0000 0.34486  0.99989  0.60168  Biso   1.000  O
  H246     1.0000 0.42845  0.98599  0.65648  Biso   1.000  H
  H247     1.0000 0.38804  0.99131  0.68525  Biso   1.000  H
  H248     1.0000 0.45184  0.07618  0.81487  Biso   1.000  H
  H249     1.0000 0.45452  0.02259  0.79346  Biso   1.000  H
  C211     1.0000 0.39811  0.02765  0.82651  Biso   1.000  C
  H250     1.0000 0.38656  0.16730  0.83688  Biso   1.000  H
  H251     1.0000 0.32774  0.19669  0.80396  Biso   1.000  H
  C212     1.0000 0.40053  0.24027  0.82444  Biso   1.000  C
  H252     1.0000 0.45446  0.06890  0.52318  Biso   1.000  H
  H253     1.0000 0.22397  0.12091  0.28268  Biso   1.000  H
  H254     1.0000 0.03317  0.03852  0.31099  Biso   1.000  H
  H255     1.0000 0.06876  0.04110  0.27697  Biso   1.000  H
  O34      1.0000 0.11989  0.03504  0.36038  Biso   1.000  O
  H256     1.0000 0.02098  0.07190  0.40139  Biso   1.000  H
  H257     1.0000 0.99877  0.12531  0.40528  Biso   1.000  H
  C213     1.0000 0.93112  0.07448  0.37147  Biso   1.000  C
  H258     1.0000 0.91258  0.21709  0.37197  Biso   1.000  H
  H259     1.0000 0.87119  0.24519  0.31620  Biso   1.000  H
  C214     1.0000 0.93570  0.28951  0.37401  Biso   1.000  C
  C215     1.0000 0.32938  0.94988  0.58428  Biso   1.000  C
  H260     1.0000 0.37144  0.05271  0.82677  Biso   1.000  H
  H261     1.0000 0.42713  0.02151  0.86549  Biso   1.000  H
  C216     1.0000 0.36361  0.98037  0.80176  Biso   1.000  C
  H262     1.0000 0.40994  0.24770  0.86316  Biso   1.000  H
  H263     1.0000 0.43724  0.23598  0.82347  Biso   1.000  H
  C217     1.0000 0.36804  0.28429  0.78728  Biso   1.000  C
  C218     1.0000 0.12596  0.98218  0.36258  Biso   1.000  C
  H264     1.0000 0.93287  0.06809  0.40790  Biso   1.000  H
  H265     1.0000 0.90108  0.09929  0.35238  Biso   1.000  H
  C219     1.0000 0.91224  0.02732  0.33698  Biso   1.000  C
  H266     1.0000 0.93567  0.31320  0.34680  Biso   1.000  H
  H267     1.0000 0.97598  0.28500  0.40321  Biso   1.000  H
  C220     1.0000 0.89995  0.31021  0.40050  Biso   1.000  C
  C221     1.0000 0.27492  0.95243  0.52749  Biso   1.000  C
  H268     1.0000 0.32156  0.93210  0.61128  Biso   1.000  H
  H269     1.0000 0.36085  0.93332  0.58107  Biso   1.000  H
  H270     1.0000 0.33385  0.98658  0.76308  Biso   1.000  H
  H271     1.0000 0.39004  0.95538  0.80078  Biso   1.000  H
  C222     1.0000 0.33435  0.96071  0.83498  Biso   1.000  C
  H272     1.0000 0.35923  0.27779  0.74899  Biso   1.000  H
  H273     1.0000 0.39224  0.31331  0.80078  Biso   1.000  H
  H274     1.0000 0.33215  0.28958  0.78889  Biso   1.000  H
  C223     1.0000 0.17663  0.96998  0.41954  Biso   1.000  C
  H275     1.0000 0.13376  0.97061  0.33258  Biso   1.000  H
  H276     1.0000 0.09028  0.96658  0.35818  Biso   1.000  H
  C224     1.0000 0.94777  0.98244  0.36719  Biso   1.000  C
  H277     1.0000 0.87128  0.02111  0.32610  Biso   1.000  H
  H278     1.0000 0.91505  0.03220  0.30257  Biso   1.000  H
  H279     1.0000 0.86028  0.31571  0.37159  Biso   1.000  H
  H280     1.0000 0.91688  0.34081  0.41907  Biso   1.000  H
  H281     1.0000 0.90007  0.28699  0.42758  Biso   1.000  H
  C225     1.0000 0.27689  0.94126  0.47883  Biso   1.000  C
  C226     1.0000 0.22199  0.97135  0.52402  Biso   1.000  C
  H282     1.0000 0.31794  0.92870  0.82088  Biso   1.000  H
  H283     1.0000 0.30361  0.98289  0.83096  Biso   1.000  H
  H284     1.0000 0.36282  0.95808  0.87425  Biso   1.000  H
  C227     1.0000 0.22771  0.95091  0.42411  Biso   1.000  C
  C228     1.0000 0.17294  0.98022  0.46935  Biso   1.000  C
  H285     1.0000 0.93247  0.95402  0.34328  Biso   1.000  H
  H286     1.0000 0.94547  0.97741  0.40147  Biso   1.000  H
  H287     1.0000 0.98797  0.98740  0.37621  Biso   1.000  H
  O35      1.0000 0.32587  0.91860  0.48132  Biso   1.000  O
  C229     1.0000 0.21572  0.98222  0.57252  Biso   1.000  C
  O36      1.0000 0.23485  0.94385  0.37722  Biso   1.000  O
  C230     1.0000 0.12073  0.99974  0.46757  Biso   1.000  C
  C231     1.0000 0.36341  0.94940  0.46893  Biso   1.000  C
  H288     1.0000 0.24755  0.97708  0.60819  Biso   1.000  H
  C232     1.0000 0.16466  0.99993  0.56846  Biso   1.000  C
  C233     1.0000 0.22829  0.89314  0.35809  Biso   1.000  C
  C234     1.0000 0.11640  0.00869  0.51467  Biso   1.000  C
  H289     1.0000 0.08864  0.00651  0.43257  Biso   1.000  H
  H290     1.0000 0.38094  0.97501  0.49736  Biso   1.000  H
  H291     1.0000 0.34107  0.96511  0.43228  Biso   1.000  H
  C235     1.0000 0.41049  0.91661  0.46859  Biso   1.000  C
  H292     1.0000 0.16153  0.00621  0.60096  Biso   1.000  H
  H293     1.0000 0.18864  0.88171  0.34667  Biso   1.000  H
  H294     1.0000 0.25555  0.87210  0.38848  Biso   1.000  H
  C236     1.0000 0.24064  0.89084  0.30884  Biso   1.000  C
  H295     1.0000 0.08135  0.02070  0.51179  Biso   1.000  H
  H296     1.0000 0.43476  0.93631  0.45767  Biso   1.000  H
  H297     1.0000 0.39176  0.89129  0.43998  Biso   1.000  H
  C237     1.0000 0.45003  0.89151  0.52470  Biso   1.000  C
  H298     1.0000 0.24019  0.85650  0.29817  Biso   1.000  H
  H299     1.0000 0.27985  0.90360  0.32077  Biso   1.000  H
  C238     1.0000 0.19767  0.91942  0.25746  Biso   1.000  C
  H300     1.0000 0.42556  0.87439  0.53757  Biso   1.000  H
  H301     1.0000 0.47365  0.86682  0.51856  Biso   1.000  H
  C239     1.0000 0.49045  0.92614  0.57066  Biso   1.000  C
  H302     1.0000 0.19879  0.95402  0.26749  Biso   1.000  H
  H303     1.0000 0.15837  0.90722  0.24549  Biso   1.000  H
  C240     1.0000 0.21147  0.91509  0.20871  Biso   1.000  C
  H304     1.0000 0.51245  0.94540  0.55716  Biso   1.000  H
  H305     1.0000 0.51694  0.90740  0.60316  Biso   1.000  H
  H306     1.0000 0.46755  0.94781  0.58098  Biso   1.000  H
  H307     1.0000 0.18316  0.93361  0.17697  Biso   1.000  H
  H308     1.0000 0.20988  0.88101  0.19818  Biso   1.000  H
  H309     1.0000 0.25017  0.92781  0.22010  Biso   1.000  H
  C241     1.0000 0.54752  0.62529  0.47718  Biso   1.000  C
  C242     1.0000 0.49543  0.65253  0.43139  Biso   1.000  C
  C243     1.0000 0.60187  0.62544  0.47003  Biso   1.000  C
  H310     1.0000 0.53616  0.59128  0.47807  Biso   1.000  H
  H311     1.0000 0.55705  0.64000  0.51349  Biso   1.000  H
  C244     1.0000 0.44188  0.64998  0.44040  Biso   1.000  C
  H312     1.0000 0.48587  0.63830  0.39487  Biso   1.000  H
  H313     1.0000 0.50597  0.68691  0.43097  Biso   1.000  H
  H314     1.0000 0.59285  0.61298  0.43287  Biso   1.000  H
  H315     1.0000 0.63184  0.60459  0.49838  Biso   1.000  H
  O37      1.0000 0.62251  0.67630  0.47637  Biso   1.000  O
  H316     1.0000 0.45056  0.66551  0.47570  Biso   1.000  H
  H317     1.0000 0.40977  0.66691  0.40998  Biso   1.000  H
  H318     1.0000 0.43146  0.61609  0.44108  Biso   1.000  H
  C245     1.0000 0.67424  0.68244  0.47362  Biso   1.000  C
  C246     1.0000 0.72846  0.67231  0.52390  Biso   1.000  C
  C247     1.0000 0.67344  0.70203  0.42648  Biso   1.000  C
  C248     1.0000 0.78082  0.68355  0.52589  Biso   1.000  C
  O38      1.0000 0.72659  0.64950  0.56909  Biso   1.000  O
  C249     1.0000 0.72815  0.71297  0.42758  Biso   1.000  C
  C250     1.0000 0.61691  0.71349  0.37473  Biso   1.000  C
  C251     1.0000 0.83716  0.68063  0.58132  Biso   1.000  C
  C252     1.0000 0.78200  0.70325  0.47773  Biso   1.000  C
  C253     1.0000 0.71257  0.68081  0.60388  Biso   1.000  C
  C254     1.0000 0.73080  0.73389  0.38107  Biso   1.000  C
  H319     1.0000 0.58396  0.70099  0.37879  Biso   1.000  H
  H320     1.0000 0.61617  0.69819  0.34168  Biso   1.000  H
  O39      1.0000 0.61311  0.76601  0.36842  Biso   1.000  O
  H321     1.0000 0.86707  0.66281  0.57658  Biso   1.000  H
  H322     1.0000 0.83054  0.66399  0.60989  Biso   1.000  H
  O40      1.0000 0.85448  0.73060  0.59711  Biso   1.000  O
  C255     1.0000 0.83475  0.71441  0.47667  Biso   1.000  C
  H323     1.0000 0.74308  0.70539  0.62250  Biso   1.000  H
  H324     1.0000 0.67566  0.69770  0.58107  Biso   1.000  H
  C256     1.0000 0.70785  0.64821  0.64721  Biso   1.000  C
  C257     1.0000 0.78276  0.74421  0.38179  Biso   1.000  C
  H325     1.0000 0.69585  0.74099  0.34857  Biso   1.000  H
  C258     1.0000 0.56369  0.78280  0.31747  Biso   1.000  C
  C259     1.0000 0.90940  0.73548  0.64793  Biso   1.000  C
  H326     1.0000 0.87025  0.70809  0.50879  Biso   1.000  H
  C260     1.0000 0.83564  0.73389  0.43067  Biso   1.000  C
  H327     1.0000 0.69562  0.66850  0.66955  Biso   1.000  H
  H328     1.0000 0.67716  0.62400  0.62736  Biso   1.000  H
  C261     1.0000 0.76362  0.62097  0.68712  Biso   1.000  C
  H329     1.0000 0.78316  0.75788  0.35018  Biso   1.000  H
  C262     1.0000 0.56690  0.83817  0.32005  Biso   1.000  C
  H330     1.0000 0.53559  0.76339  0.28890  Biso   1.000  H
  C263     1.0000 0.91778  0.78956  0.66190  Biso   1.000  C
  H331     1.0000 0.90856  0.71711  0.67857  Biso   1.000  H
  H332     1.0000 0.94124  0.72288  0.64218  Biso   1.000  H
  H333     1.0000 0.87136  0.74051  0.43160  Biso   1.000  H
  H334     1.0000 0.77883  0.60418  0.66486  Biso   1.000  H
  H335     1.0000 0.75386  0.59590  0.70718  Biso   1.000  H
  C264     1.0000 0.81103  0.65361  0.72977  Biso   1.000  C
  C265     1.0000 0.58151  0.86401  0.28497  Biso   1.000  C
  C266     1.0000 0.56008  0.86342  0.36288  Biso   1.000  C
  C267     1.0000 0.96165  0.81581  0.65944  Biso   1.000  C
  C268     1.0000 0.87886  0.81414  0.67721  Biso   1.000  C
  H336     1.0000 0.84295  0.63361  0.75597  Biso   1.000  H
  H337     1.0000 0.82487  0.67560  0.71069  Biso   1.000  H
  H338     1.0000 0.79545  0.67249  0.74987  Biso   1.000  H
  C269     1.0000 0.59393  0.91631  0.29314  Biso   1.000  C
  O41      1.0000 0.58382  0.84090  0.24028  Biso   1.000  O
  C270     1.0000 0.57200  0.91524  0.37083  Biso   1.000  C
  C271     1.0000 0.54278  0.83861  0.39935  Biso   1.000  C
  C272     1.0000 0.96834  0.86815  0.67137  Biso   1.000  C
  O42      1.0000 0.99667  0.79433  0.63981  Biso   1.000  O
  C273     1.0000 0.88498  0.86611  0.68885  Biso   1.000  C
  C274     1.0000 0.83338  0.78897  0.68128  Biso   1.000  C
  C275     1.0000 0.58928  0.94145  0.33457  Biso   1.000  C
  O43      1.0000 0.61580  0.93905  0.26102  Biso   1.000  O
  C276     1.0000 0.64141  0.82989  0.24739  Biso   1.000  C
  C277     1.0000 0.56601  0.93893  0.41489  Biso   1.000  C
  H339     1.0000 0.53566  0.80479  0.39517  Biso   1.000  H
  C278     1.0000 0.53645  0.86323  0.44002  Biso   1.000  C
  C279     1.0000 0.93048  0.89306  0.68462  Biso   1.000  C
  O44      1.0000 0.01545  0.89225  0.67235  Biso   1.000  O
  C280     1.0000 0.05508  0.78113  0.68382  Biso   1.000  C
  C281     1.0000 0.84427  0.88933  0.70307  Biso   1.000  C
  C282     1.0000 0.79580  0.81252  0.69617  Biso   1.000  C
  H340     1.0000 0.82874  0.75530  0.67357  Biso   1.000  H
  C283     1.0000 0.60392  0.99571  0.34405  Biso   1.000  C
  C284     1.0000 0.57131  0.95250  0.20452  Biso   1.000  C
  H341     1.0000 0.66488  0.85979  0.25657  Biso   1.000  H
  H342     1.0000 0.66119  0.80631  0.27790  Biso   1.000  H
  C285     1.0000 0.63366  0.80863  0.19289  Biso   1.000  C
  C286     1.0000 0.54898  0.91443  0.44827  Biso   1.000  C
  H343     1.0000 0.57408  0.97261  0.42089  Biso   1.000  H
  H344     1.0000 0.52386  0.84649  0.46258  Biso   1.000  H
  C287     1.0000 0.93173  0.94836  0.68872  Biso   1.000  C
  C288     1.0000 0.01016  0.90411  0.61788  Biso   1.000  C
  H345     1.0000 0.07535  0.81019  0.70536  Biso   1.000  H
  H346     1.0000 0.05244  0.75718  0.70946  Biso   1.000  H
  C289     1.0000 0.08803  0.75932  0.65551  Biso   1.000  C
  H347     1.0000 0.84702  0.92319  0.70976  Biso   1.000  H
  C290     1.0000 0.80145  0.86316  0.70718  Biso   1.000  C
  H348     1.0000 0.76655  0.79470  0.69897  Biso   1.000  H
  H349     1.0000 0.57149  0.01401  0.34349  Biso   1.000  H
  H350     1.0000 0.61188  0.00869  0.31468  Biso   1.000  H
  O45      1.0000 0.65502  0.00011  0.39825  Biso   1.000  O
  H351     1.0000 0.54810  0.92378  0.18510  Biso   1.000  H
  H352     1.0000 0.54538  0.97738  0.20651  Biso   1.000  H
  C291     1.0000 0.60183  0.97235  0.17346  Biso   1.000  C
  H353     1.0000 0.61338  0.83270  0.16309  Biso   1.000  H
  H354     1.0000 0.67218  0.80331  0.19597  Biso   1.000  H
  C292     1.0000 0.59941  0.75973  0.17553  Biso   1.000  C
  H355     1.0000 0.54548  0.93110  0.47680  Biso   1.000  H
  H356     1.0000 0.96673  0.96148  0.68898  Biso   1.000  H
  H357     1.0000 0.93112  0.95890  0.72296  Biso   1.000  H
  O46      1.0000 0.88001  0.96496  0.63959  Biso   1.000  O
  H358     1.0000 0.97896  0.92810  0.59859  Biso   1.000  H
  H359     1.0000 0.00117  0.87469  0.59469  Biso   1.000  H
  C293     1.0000 0.06876  0.92552  0.62846  Biso   1.000  C
  H360     1.0000 0.08733  0.78291  0.62796  Biso   1.000  H
  H361     1.0000 0.12874  0.75478  0.68377  Biso   1.000  H
  C294     1.0000 0.06424  0.71046  0.62597  Biso   1.000  C
  H362     1.0000 0.77596  0.87909  0.71729  Biso   1.000  H
  C295     1.0000 0.67052  0.05012  0.41569  Biso   1.000  C
  H363     1.0000 0.62849  0.94729  0.17321  Biso   1.000  H
  H364     1.0000 0.57277  0.97849  0.13449  Biso   1.000  H
  C296     1.0000 0.63627  0.01959  0.19818  Biso   1.000  C
  H365     1.0000 0.59000  0.75230  0.13681  Biso   1.000  H
  H366     1.0000 0.56270  0.76398  0.17651  Biso   1.000  H
  C297     1.0000 0.63190  0.71567  0.21269  Biso   1.000  C
  C298     1.0000 0.87394  0.01782  0.63739  Biso   1.000  C
  H367     1.0000 0.06703  0.93191  0.59207  Biso   1.000  H
  H368     1.0000 0.09886  0.90068  0.64759  Biso   1.000  H
  C299     1.0000 0.08770  0.97265  0.66300  Biso   1.000  C
  H369     1.0000 0.06427  0.68680  0.65318  Biso   1.000  H
  H370     1.0000 0.02396  0.71500  0.59677  Biso   1.000  H
  C300     1.0000 0.09994  0.68979  0.59948  Biso   1.000  C
  H371     1.0000 0.67837  0.06790  0.38869  Biso   1.000  H
  H372     1.0000 0.63907  0.06668  0.41886  Biso   1.000  H
  C301     1.0000 0.72502  0.04757  0.47248  Biso   1.000  C
  H373     1.0000 0.66609  0.01338  0.23690  Biso   1.000  H
  H374     1.0000 0.60990  0.04458  0.19919  Biso   1.000  H
  C302     1.0000 0.66559  0.03926  0.16500  Biso   1.000  C
  H375     1.0000 0.64067  0.72221  0.25099  Biso   1.000  H
  H376     1.0000 0.60769  0.68669  0.19919  Biso   1.000  H
  H377     1.0000 0.66779  0.71038  0.21108  Biso   1.000  H
  C303     1.0000 0.82324  0.03002  0.58039  Biso   1.000  C
  H378     1.0000 0.86615  0.02939  0.66735  Biso   1.000  H
  H379     1.0000 0.90966  0.03338  0.64179  Biso   1.000  H
  H380     1.0000 0.12866  0.97889  0.67387  Biso   1.000  H
  H381     1.0000 0.08483  0.96780  0.69736  Biso   1.000  H
  C304     1.0000 0.05213  0.01752  0.63278  Biso   1.000  C
  H382     1.0000 0.13966  0.68429  0.62838  Biso   1.000  H
  H383     1.0000 0.08306  0.65919  0.58090  Biso   1.000  H
  H384     1.0000 0.09987  0.71301  0.57239  Biso   1.000  H
  C305     1.0000 0.72301  0.05870  0.52115  Biso   1.000  C
  C306     1.0000 0.77791  0.02865  0.47595  Biso   1.000  C
  H385     1.0000 0.68200  0.07130  0.17909  Biso   1.000  H
  H386     1.0000 0.69627  0.01708  0.16898  Biso   1.000  H
  H387     1.0000 0.63710  0.04188  0.12568  Biso   1.000  H
  C307     1.0000 0.77222  0.04909  0.57586  Biso   1.000  C
  C308     1.0000 0.82699  0.01978  0.53062  Biso   1.000  C
  H388     1.0000 0.06747  0.04598  0.65669  Biso   1.000  H
  H389     1.0000 0.05444  0.02259  0.59846  Biso   1.000  H
  H390     1.0000 0.01193  0.01260  0.62377  Biso   1.000  H
  O47      1.0000 0.67401  0.08140  0.51861  Biso   1.000  O
  C309     1.0000 0.78418  0.01778  0.42745  Biso   1.000  C
  O48      1.0000 0.76509  0.05615  0.62275  Biso   1.000  O
  C310     1.0000 0.87917  0.00026  0.53240  Biso   1.000  C
  C311     1.0000 0.63649  0.05060  0.53105  Biso   1.000  C
  H391     1.0000 0.75235  0.02288  0.39178  Biso   1.000  H
  C312     1.0000 0.83528  0.00007  0.43152  Biso   1.000  C
  C313     1.0000 0.77161  0.10686  0.64188  Biso   1.000  C
  C314     1.0000 0.88354  0.99128  0.48530  Biso   1.000  C
  H392     1.0000 0.91126  0.99349  0.56740  Biso   1.000  H
  H393     1.0000 0.61894  0.02499  0.50257  Biso   1.000  H
  H394     1.0000 0.65887  0.03489  0.56770  Biso   1.000  H
  C315     1.0000 0.58939  0.08339  0.53134  Biso   1.000  C
  H395     1.0000 0.83835  0.99379  0.39897  Biso   1.000  H
  H396     1.0000 0.81123  0.11829  0.65326  Biso   1.000  H
  H397     1.0000 0.74435  0.12790  0.61149  Biso   1.000  H
  C316     1.0000 0.75929  0.10916  0.69114  Biso   1.000  C
  H398     1.0000 0.91855  0.97930  0.48818  Biso   1.000  H
  H399     1.0000 0.56515  0.06369  0.54226  Biso   1.000  H
  H400     1.0000 0.60818  0.10868  0.55999  Biso   1.000  H
  C317     1.0000 0.54988  0.10849  0.47523  Biso   1.000  C
  H401     1.0000 0.75973  0.14350  0.70176  Biso   1.000  H
  H402     1.0000 0.72003  0.09640  0.67916  Biso   1.000  H
  C318     1.0000 0.80223  0.08058  0.74251  Biso   1.000  C
  H403     1.0000 0.57436  0.12561  0.46237  Biso   1.000  H
  H404     1.0000 0.52627  0.13318  0.48137  Biso   1.000  H
  C319     1.0000 0.50947  0.07386  0.42927  Biso   1.000  C
  H405     1.0000 0.80115  0.04598  0.73248  Biso   1.000  H
  H406     1.0000 0.84153  0.09278  0.75449  Biso   1.000  H
  C320     1.0000 0.78843  0.08491  0.79126  Biso   1.000  C
  H407     1.0000 0.48747  0.05460  0.44277  Biso   1.000  H
  H408     1.0000 0.48294  0.09260  0.39677  Biso   1.000  H
  H409     1.0000 0.53235  0.05219  0.41899  Biso   1.000  H
  H410     1.0000 0.81672  0.06639  0.82296  Biso   1.000  H
  H411     1.0000 0.79004  0.11899  0.80176  Biso   1.000  H
  H412     1.0000 0.74973  0.07219  0.77988  Biso   1.000  H
  C321     1.0000 0.71146  0.41511  0.70870  Biso   1.000  C
  C322     1.0000 0.69762  0.41940  0.75745  Biso   1.000  C
  H413     1.0000 0.68315  0.43359  0.67696  Biso   1.000  H
  H414     1.0000 0.70983  0.38099  0.69816  Biso   1.000  H
  H415     1.0000 0.75016  0.42779  0.72008  Biso   1.000  H
  C323     1.0000 0.74057  0.39086  0.80878  Biso   1.000  C
  H416     1.0000 0.69874  0.45400  0.76748  Biso   1.000  H
  H417     1.0000 0.65832  0.40720  0.74547  Biso   1.000  H
  C324     1.0000 0.72826  0.39315  0.85804  Biso   1.000  C
  H418     1.0000 0.74014  0.35649  0.79816  Biso   1.000  H
  H419     1.0000 0.77984  0.40362  0.82076  Biso   1.000  H
  H420     1.0000 0.68863  0.38170  0.84666  Biso   1.000  H
  H421     1.0000 0.75554  0.37208  0.88847  Biso   1.000  H
  O49      1.0000 0.73478  0.44383  0.87717  Biso   1.000  O
  C325     1.0000 0.72766  0.45089  0.92410  Biso   1.000  C
  C326     1.0000 0.77682  0.44128  0.97877  Biso   1.000  C
  C327     1.0000 0.67662  0.46997  0.91953  Biso   1.000  C
  O50      1.0000 0.82586  0.41859  0.98131  Biso   1.000  O
  C328     1.0000 0.77493  0.45241  0.02752  Biso   1.000  C
  C329     1.0000 0.67289  0.48021  0.96934  Biso   1.000  C
  C330     1.0000 0.62595  0.48216  0.86257  Biso   1.000  C
  C331     1.0000 0.86340  0.44938  0.96891  Biso   1.000  C
  C332     1.0000 0.82942  0.44986  0.08431  Biso   1.000  C
  C333     1.0000 0.72204  0.47137  0.02405  Biso   1.000  C
  C334     1.0000 0.62072  0.49972  0.96756  Biso   1.000  C
  H422     1.0000 0.63371  0.47059  0.83256  Biso   1.000  H
  H423     1.0000 0.59023  0.46660  0.85817  Biso   1.000  H
  O51      1.0000 0.61988  0.53502  0.86037  Biso   1.000  O
  H424     1.0000 0.88092  0.47499  0.99735  Biso   1.000  H
  H425     1.0000 0.84102  0.46509  0.93226  Biso   1.000  H
  C335     1.0000 0.91044  0.41659  0.96857  Biso   1.000  C
  H426     1.0000 0.82157  0.43211  0.11131  Biso   1.000  H
  H427     1.0000 0.86086  0.43330  0.08110  Biso   1.000  H
  O52      1.0000 0.84491  0.49987  0.10171  Biso   1.000  O
  C336     1.0000 0.71577  0.48224  0.07255  Biso   1.000  C
  H428     1.0000 0.58863  0.50649  0.93256  Biso   1.000  H
  C337     1.0000 0.61641  0.50871  0.01470  Biso   1.000  C
  C338     1.0000 0.56816  0.55162  0.81124  Biso   1.000  C
  H429     1.0000 0.93471  0.43629  0.95766  Biso   1.000  H
  H430     1.0000 0.89171  0.39131  0.93997  Biso   1.000  H
  C339     1.0000 0.95004  0.39149  0.02473  Biso   1.000  C
  C340     1.0000 0.89599  0.50427  0.15596  Biso   1.000  C
  H431     1.0000 0.74754  0.47710  0.10818  Biso   1.000  H
  C341     1.0000 0.66467  0.49991  0.06849  Biso   1.000  C
  H432     1.0000 0.58139  0.52068  0.01182  Biso   1.000  H
  H433     1.0000 0.53312  0.53850  0.81098  Biso   1.000  H
  H434     1.0000 0.56875  0.54109  0.77696  Biso   1.000  H
  C342     1.0000 0.56940  0.60692  0.81534  Biso   1.000  C
  H435     1.0000 0.92557  0.37441  0.03759  Biso   1.000  H
  H436     1.0000 0.97366  0.36680  0.01859  Biso   1.000  H
  C343     1.0000 0.99046  0.42616  0.07069  Biso   1.000  C
  C344     1.0000 0.91063  0.55853  0.16544  Biso   1.000  C
  H437     1.0000 0.92846  0.48601  0.15651  Biso   1.000  H
  H438     1.0000 0.88805  0.49129  0.18528  Biso   1.000  H
  H439     1.0000 0.66157  0.50619  0.10099  Biso   1.000  H
  C345     1.0000 0.53153  0.63183  0.82854  Biso   1.000  C
  C346     1.0000 0.61491  0.63387  0.81111  Biso   1.000  C
  H440     1.0000 0.96756  0.44779  0.08101  Biso   1.000  H
  H441     1.0000 0.01246  0.44538  0.05719  Biso   1.000  H
  H442     1.0000 0.01695  0.40739  0.10319  Biso   1.000  H
  C347     1.0000 0.90600  0.58367  0.20682  Biso   1.000  C
  C348     1.0000 0.92793  0.58474  0.12913  Biso   1.000  C
  C349     1.0000 0.53824  0.68418  0.84052  Biso   1.000  C
  O53      1.0000 0.48444  0.60777  0.82761  Biso   1.000  O
  C350     1.0000 0.62101  0.68584  0.82270  Biso   1.000  C
  C351     1.0000 0.65560  0.61065  0.79685  Biso   1.000  C
  C352     1.0000 0.91843  0.63597  0.21503  Biso   1.000  C
  O54      1.0000 0.88413  0.56097  0.23894  Biso   1.000  O
  C353     1.0000 0.93987  0.63657  0.13713  Biso   1.000  C
  C354     1.0000 0.93393  0.56105  0.08512  Biso   1.000  C
  C355     1.0000 0.58208  0.71042  0.83802  Biso   1.000  C
  O55      1.0000 0.50321  0.70565  0.86015  Biso   1.000  O
  C356     1.0000 0.48973  0.59587  0.88208  Biso   1.000  C
  C357     1.0000 0.66645  0.71101  0.81864  Biso   1.000  C
  H443     1.0000 0.65284  0.57679  0.79016  Biso   1.000  H
  C358     1.0000 0.69844  0.63682  0.79278  Biso   1.000  C
  C359     1.0000 0.93305  0.66185  0.17995  Biso   1.000  C
  O56      1.0000 0.91607  0.65908  0.25968  Biso   1.000  O
  C360     1.0000 0.92861  0.54748  0.29544  Biso   1.000  C
  C361     1.0000 0.95716  0.66137  0.10065  Biso   1.000  C
  C362     1.0000 0.95095  0.58559  0.05169  Biso   1.000  C
  H444     1.0000 0.92587  0.52741  0.07911  Biso   1.000  H
  C363     1.0000 0.59047  0.76450  0.85199  Biso   1.000  C
  C364     1.0000 0.44477  0.71885  0.81614  Biso   1.000  C
  H445     1.0000 0.49872  0.62529  0.90527  Biso   1.000  H
  H446     1.0000 0.52093  0.57188  0.90137  Biso   1.000  H
  C365     1.0000 0.43111  0.57446  0.87145  Biso   1.000  C
  C366     1.0000 0.70407  0.68750  0.80375  Biso   1.000  C
  H447     1.0000 0.67115  0.74469  0.82639  Biso   1.000  H
  H448     1.0000 0.72392  0.62089  0.78267  Biso   1.000  H
  C367     1.0000 0.93623  0.71718  0.18249  Biso   1.000  C
  C368     1.0000 0.85854  0.67009  0.25261  Biso   1.000  C
  H449     1.0000 0.95185  0.57620  0.31490  Biso   1.000  H
  H450     1.0000 0.95456  0.52260  0.29349  Biso   1.000  H
  C369     1.0000 0.89812  0.52767  0.32654  Biso   1.000  C
  H451     1.0000 0.96427  0.69519  0.10480  Biso   1.000  H
  C370     1.0000 0.96350  0.63675  0.05998  Biso   1.000  C
  H452     1.0000 0.95447  0.56888  0.02321  Biso   1.000  H
  H453     1.0000 0.59131  0.78291  0.82135  Biso   1.000  H
  H454     1.0000 0.55865  0.77710  0.85779  Biso   1.000  H
  O57      1.0000 0.64541  0.76942  0.90285  Biso   1.000  O
  H455     1.0000 0.42452  0.68979  0.79456  Biso   1.000  H
  H456     1.0000 0.44743  0.74280  0.79046  Biso   1.000  H
  C371     1.0000 0.41186  0.74066  0.84445  Biso   1.000  C
  H457     1.0000 0.43280  0.56811  0.90785  Biso   1.000  H
  H458     1.0000 0.40103  0.59931  0.85237  Biso   1.000  H
  C372     1.0000 0.41219  0.52734  0.83696  Biso   1.000  C
  H459     1.0000 0.73332  0.70528  0.80095  Biso   1.000  H
  H460     1.0000 0.96436  0.73659  0.21110  Biso   1.000  H
  O58      1.0000 0.88684  0.73397  0.13158  Biso   1.000  O
  H461     1.0000 0.83505  0.64019  0.24339  Biso   1.000  H
  H462     1.0000 0.83876  0.69371  0.22210  Biso   1.000  H
  C373     1.0000 0.86623  0.69135  0.30707  Biso   1.000  C
  H463     1.0000 0.87145  0.55269  0.32680  Biso   1.000  H
  H464     1.0000 0.92715  0.52149  0.36547  Biso   1.000  H
  C374     1.0000 0.86366  0.48039  0.30179  Biso   1.000  C
  H465     1.0000 0.97607  0.65349  0.03738  Biso   1.000  H
  C375     1.0000 0.66273  0.81935  0.91864  Biso   1.000  C
  H466     1.0000 0.41253  0.71711  0.87196  Biso   1.000  H
  H467     1.0000 0.37114  0.74520  0.81619  Biso   1.000  H
  C376     1.0000 0.43563  0.78952  0.87395  Biso   1.000  C
  H468     1.0000 0.37123  0.52109  0.82609  Biso   1.000  H
  H469     1.0000 0.41504  0.53221  0.80256  Biso   1.000  H
  C377     1.0000 0.44772  0.48246  0.86718  Biso   1.000  C
  C378     1.0000 0.88304  0.78653  0.12528  Biso   1.000  C
  H470     1.0000 0.88656  0.66728  0.33691  Biso   1.000  H
  H471     1.0000 0.82774  0.69671  0.30399  Biso   1.000  H
  C379     1.0000 0.90054  0.74029  0.32447  Biso   1.000  C
  H472     1.0000 0.83386  0.48660  0.26311  Biso   1.000  H
  H473     1.0000 0.89005  0.45540  0.30081  Biso   1.000  H
  C380     1.0000 0.83436  0.46073  0.33500  Biso   1.000  C
  H474     1.0000 0.63282  0.83721  0.92338  Biso   1.000  H
  H475     1.0000 0.66935  0.83599  0.89007  Biso   1.000  H
  C381     1.0000 0.71907  0.81643  0.97407  Biso   1.000  C
  H476     1.0000 0.43562  0.81318  0.84678  Biso   1.000  H
  H477     1.0000 0.47591  0.78498  0.90315  Biso   1.000  H
  C382     1.0000 0.39994  0.81019  0.90048  Biso   1.000  C
  H478     1.0000 0.43242  0.45400  0.84327  Biso   1.000  H
  H479     1.0000 0.44542  0.47740  0.90146  Biso   1.000  H
  H480     1.0000 0.48794  0.48741  0.87615  Biso   1.000  H
  C383     1.0000 0.82651  0.79799  0.07352  Biso   1.000  C
  H481     1.0000 0.91599  0.79899  0.12121  Biso   1.000  H
  H482     1.0000 0.88376  0.80180  0.15828  Biso   1.000  H
  H483     1.0000 0.90995  0.74768  0.36319  Biso   1.000  H
  H484     1.0000 0.93725  0.73600  0.32349  Biso   1.000  H
  C384     1.0000 0.86805  0.78431  0.28731  Biso   1.000  C
  H485     1.0000 0.81795  0.42871  0.32091  Biso   1.000  H
  H486     1.0000 0.80366  0.48290  0.33098  Biso   1.000  H
  H487     1.0000 0.86283  0.45810  0.37428  Biso   1.000  H
  C385     1.0000 0.77143  0.82767  0.97606  Biso   1.000  C
  C386     1.0000 0.71795  0.79673  0.02228  Biso   1.000  C
  H488     1.0000 0.36023  0.81570  0.87158  Biso   1.000  H
  H489     1.0000 0.41683  0.84079  0.91906  Biso   1.000  H
  H490     1.0000 0.40002  0.78701  0.92757  Biso   1.000  H
  C387     1.0000 0.82569  0.81754  0.02634  Biso   1.000  C
  C388     1.0000 0.77180  0.78701  0.07242  Biso   1.000  C
  H491     1.0000 0.85928  0.77781  0.24901  Biso   1.000  H
  H492     1.0000 0.89225  0.81329  0.30081  Biso   1.000  H
  H493     1.0000 0.83213  0.78960  0.28888  Biso   1.000  H
  O59      1.0000 0.77327  0.85048  0.93083  Biso   1.000  O
  C389     1.0000 0.66518  0.78557  0.02329  Biso   1.000  C
  O60      1.0000 0.87742  0.82368  0.02359  Biso   1.000  O
  C390     1.0000 0.76915  0.76609  0.11893  Biso   1.000  C
  C391     1.0000 0.78732  0.81921  0.89608  Biso   1.000  C
  H494     1.0000 0.62964  0.79189  0.99117  Biso   1.000  H
  C392     1.0000 0.66425  0.76609  0.06929  Biso   1.000  C
  C393     1.0000 0.89808  0.87454  0.02998  Biso   1.000  C
  C394     1.0000 0.71719  0.75578  0.11821  Biso   1.000  C
  H495     1.0000 0.80404  0.75899  0.15139  Biso   1.000  H
  H496     1.0000 0.75681  0.79459  0.87746  Biso   1.000  H
  H497     1.0000 0.82421  0.80228  0.91885  Biso   1.000  H
  C395     1.0000 0.79202  0.85181  0.85271  Biso   1.000  C
  H498     1.0000 0.62855  0.75951  0.06840  Biso   1.000  H
  H499     1.0000 0.90708  0.88700  0.06709  Biso   1.000  H
  H500     1.0000 0.86807  0.89539  0.00162  Biso   1.000  H
  C396     1.0000 0.95243  0.87469  0.02283  Biso   1.000  C
  H501     1.0000 0.71677  0.74210  0.14978  Biso   1.000  H
  H502     1.0000 0.80425  0.83148  0.83036  Biso   1.000  H
  H503     1.0000 0.82271  0.87598  0.87255  Biso   1.000  H
  C397     1.0000 0.73621  0.87902  0.81280  Biso   1.000  C
  H504     1.0000 0.94284  0.85998  0.98647  Biso   1.000  H
  H505     1.0000 0.96376  0.90870  0.02189  Biso   1.000  H
  C398     1.0000 0.00452  0.84745  0.06861  Biso   1.000  C
  H506     1.0000 0.72104  0.89580  0.83506  Biso   1.000  H
  H507     1.0000 0.74603  0.90408  0.79278  Biso   1.000  H
  C399     1.0000 0.68886  0.84638  0.77019  Biso   1.000  C
  H508     1.0000 0.99396  0.81311  0.06899  Biso   1.000  H
  H509     1.0000 0.01406  0.86168  0.10509  Biso   1.000  H
  C400     1.0000 0.05807  0.85000  0.05960  Biso   1.000  C
  H510     1.0000 0.65693  0.86641  0.74399  Biso   1.000  H
  H511     1.0000 0.67502  0.82438  0.78927  Biso   1.000  H
  H512     1.0000 0.70443  0.82749  0.75009  Biso   1.000  H
  H513     1.0000 0.04939  0.83451  0.02431  Biso   1.000  H
  H514     1.0000 0.09016  0.83311  0.08998  Biso   1.000  H
  H515     1.0000 0.06848  0.88389  0.05892  Biso   1.000  H
  C401     1.0000 0.28848  0.58489  0.29127  Biso   1.000  C
  C402     1.0000 0.30228  0.58056  0.24252  Biso   1.000  C
  H516     1.0000 0.31677  0.56641  0.32297  Biso   1.000  H
  H517     1.0000 0.29005  0.61901  0.30177  Biso   1.000  H
  H518     1.0000 0.24978  0.57221  0.27989  Biso   1.000  H
  C403     1.0000 0.25931  0.60914  0.19115  Biso   1.000  C
  H519     1.0000 0.30116  0.54600  0.23249  Biso   1.000  H
  H520     1.0000 0.34158  0.59280  0.25450  Biso   1.000  H
  C404     1.0000 0.27166  0.60685  0.14189  Biso   1.000  C
  H521     1.0000 0.25978  0.64348  0.20177  Biso   1.000  H
  H522     1.0000 0.22008  0.59638  0.17917  Biso   1.000  H
  O61      1.0000 0.26510  0.55617  0.12276  Biso   1.000  O
  H523     1.0000 0.31128  0.61830  0.15328  Biso   1.000  H
  H524     1.0000 0.24440  0.62788  0.11151  Biso   1.000  H
  C405     1.0000 0.27224  0.54907  0.07588  Biso   1.000  C
  C406     1.0000 0.32332  0.53003  0.08045  Biso   1.000  C
  C407     1.0000 0.22306  0.55872  0.02116  Biso   1.000  C
  C408     1.0000 0.37399  0.51780  0.13741  Biso   1.000  C
  C409     1.0000 0.32701  0.51979  0.03064  Biso   1.000  C
  O62      1.0000 0.17406  0.58141  0.01862  Biso   1.000  O
  C410     1.0000 0.22501  0.54759  0.97245  Biso   1.000  C
  O63      1.0000 0.38006  0.46494  0.13961  Biso   1.000  O
  H525     1.0000 0.36619  0.52941  0.16741  Biso   1.000  H
  H526     1.0000 0.40971  0.53340  0.14181  Biso   1.000  H
  C411     1.0000 0.37922  0.50028  0.03242  Biso   1.000  C
  C412     1.0000 0.27790  0.52863  0.97592  Biso   1.000  C
  C413     1.0000 0.13654  0.55062  0.03106  Biso   1.000  C
  C414     1.0000 0.17051  0.55014  0.91566  Biso   1.000  C
  C415     1.0000 0.43178  0.44834  0.18874  Biso   1.000  C
  H527     1.0000 0.41131  0.49351  0.06741  Biso   1.000  H
  C416     1.0000 0.38353  0.49129  0.98527  Biso   1.000  C
  C417     1.0000 0.28417  0.51776  0.92742  Biso   1.000  C
  H528     1.0000 0.11899  0.52501  0.00258  Biso   1.000  H
  H529     1.0000 0.15892  0.53491  0.06771  Biso   1.000  H
  C418     1.0000 0.08946  0.58341  0.03140  Biso   1.000  C
  H530     1.0000 0.17836  0.56789  0.88866  Biso   1.000  H
  H531     1.0000 0.13904  0.56670  0.91888  Biso   1.000  H
  O64      1.0000 0.15503  0.50013  0.89827  Biso   1.000  O
  C419     1.0000 0.43053  0.39304  0.18463  Biso   1.000  C
  H532     1.0000 0.46678  0.46150  0.18899  Biso   1.000  H
  H533     1.0000 0.43117  0.45891  0.22297  Biso   1.000  H
  C420     1.0000 0.33523  0.50009  0.93149  Biso   1.000  C
  H534     1.0000 0.41854  0.47928  0.98815  Biso   1.000  H
  H535     1.0000 0.25234  0.52290  0.89175  Biso   1.000  H
  H536     1.0000 0.06523  0.56371  0.04232  Biso   1.000  H
  H537     1.0000 0.10819  0.60869  0.06001  Biso   1.000  H
  C421     1.0000 0.04984  0.60851  0.97520  Biso   1.000  C
  C422     1.0000 0.10391  0.49569  0.84402  Biso   1.000  C
  C423     1.0000 0.38499  0.36613  0.18887  Biso   1.000  C
  C424     1.0000 0.46837  0.36817  0.17143  Biso   1.000  C
  H538     1.0000 0.33834  0.49381  0.89894  Biso   1.000  H
  H539     1.0000 0.07437  0.62559  0.96238  Biso   1.000  H
  H540     1.0000 0.02622  0.63320  0.98134  Biso   1.000  H
  C425     1.0000 0.00946  0.57384  0.92924  Biso   1.000  C
  C426     1.0000 0.08927  0.44143  0.83454  Biso   1.000  C
  H541     1.0000 0.07144  0.51399  0.84347  Biso   1.000  H
  H542     1.0000 0.11183  0.50871  0.81465  Biso   1.000  H
  C427     1.0000 0.34428  0.38931  0.20308  Biso   1.000  C
  C428     1.0000 0.37893  0.31416  0.17727  Biso   1.000  C
  C429     1.0000 0.46166  0.31582  0.15945  Biso   1.000  C
  O65      1.0000 0.51546  0.39223  0.17236  Biso   1.000  O
  H543     1.0000 0.98742  0.55458  0.94274  Biso   1.000  H
  H544     1.0000 0.98293  0.59258  0.89674  Biso   1.000  H
  H545     1.0000 0.03234  0.55221  0.91896  Biso   1.000  H
  C430     1.0000 0.09392  0.41633  0.79311  Biso   1.000  C
  C431     1.0000 0.07199  0.41526  0.87080  Biso   1.000  C
  C432     1.0000 0.30150  0.36318  0.20719  Biso   1.000  C
  H546     1.0000 0.34709  0.42321  0.20981  Biso   1.000  H
  C433     1.0000 0.33343  0.28899  0.18129  Biso   1.000  C
  C434     1.0000 0.41779  0.28958  0.16191  Biso   1.000  C
  O66      1.0000 0.49672  0.29435  0.13982  Biso   1.000  O
  C435     1.0000 0.51017  0.40413  0.11790  Biso   1.000  C
  C436     1.0000 0.08150  0.36403  0.78494  Biso   1.000  C
  O67      1.0000 0.11579  0.43903  0.76099  Biso   1.000  O
  C437     1.0000 0.06003  0.36343  0.86285  Biso   1.000  C
  C438     1.0000 0.06601  0.43895  0.91486  Biso   1.000  C
  C439     1.0000 0.29585  0.31250  0.19619  Biso   1.000  C
  H547     1.0000 0.27598  0.37911  0.21730  Biso   1.000  H
  H548     1.0000 0.32879  0.25531  0.17359  Biso   1.000  H
  C440     1.0000 0.40941  0.23546  0.14794  Biso   1.000  C
  C441     1.0000 0.55513  0.28111  0.18383  Biso   1.000  C
  H549     1.0000 0.50118  0.37471  0.09471  Biso   1.000  H
  H550     1.0000 0.47901  0.42809  0.09860  Biso   1.000  H
  C442     1.0000 0.56881  0.42554  0.12848  Biso   1.000  C
  C443     1.0000 0.06689  0.33815  0.82002  Biso   1.000  C
  O68      1.0000 0.08383  0.34092  0.74029  Biso   1.000  O
  C444     1.0000 0.07132  0.45248  0.70454  Biso   1.000  C
  C445     1.0000 0.04278  0.33859  0.89933  Biso   1.000  C
  C446     1.0000 0.04897  0.41441  0.94825  Biso   1.000  C
  H551     1.0000 0.07407  0.47259  0.92087  Biso   1.000  H
  H552     1.0000 0.26656  0.29468  0.19898  Biso   1.000  H
  H553     1.0000 0.40857  0.21709  0.17858  Biso   1.000  H
  H554     1.0000 0.44129  0.22290  0.14219  Biso   1.000  H
  O69      1.0000 0.35449  0.23058  0.09712  Biso   1.000  O
  H555     1.0000 0.57538  0.31021  0.20541  Biso   1.000  H
  H556     1.0000 0.55249  0.25720  0.20947  Biso   1.000  H
  C447     1.0000 0.58808  0.25934  0.15552  Biso   1.000  C
  H557     1.0000 0.56708  0.43189  0.09208  Biso   1.000  H
  H558     1.0000 0.59891  0.40069  0.14761  Biso   1.000  H
  C448     1.0000 0.58775  0.47266  0.16301  Biso   1.000  C
  C449     1.0000 0.06370  0.28282  0.81748  Biso   1.000  C
  C450     1.0000 0.14136  0.32991  0.74736  Biso   1.000  C
  H559     1.0000 0.04805  0.42380  0.68507  Biso   1.000  H
  H560     1.0000 0.04537  0.47740  0.70648  Biso   1.000  H
  C451     1.0000 0.10182  0.47233  0.67343  Biso   1.000  C
  H561     1.0000 0.03567  0.30481  0.89518  Biso   1.000  H
  C452     1.0000 0.03640  0.36321  0.93999  Biso   1.000  C
  H562     1.0000 0.04547  0.43108  0.97677  Biso   1.000  H
  C453     1.0000 0.33717  0.18065  0.08134  Biso   1.000  C
  H563     1.0000 0.58741  0.28289  0.12801  Biso   1.000  H
  H564     1.0000 0.62879  0.25480  0.18379  Biso   1.000  H
  C454     1.0000 0.56429  0.21048  0.12598  Biso   1.000  C
  H565     1.0000 0.62867  0.47891  0.17388  Biso   1.000  H
  H566     1.0000 0.58490  0.46779  0.19741  Biso   1.000  H
  C455     1.0000 0.55218  0.51754  0.13279  Biso   1.000  C
  O70      1.0000 0.11310  0.26600  0.86839  Biso   1.000  O
  H567     1.0000 0.03558  0.26341  0.78888  Biso   1.000  H
  H568     1.0000 0.16489  0.35981  0.75659  Biso   1.000  H
  H569     1.0000 0.16114  0.30629  0.77787  Biso   1.000  H
  C456     1.0000 0.13365  0.30865  0.69286  Biso   1.000  C
  H570     1.0000 0.12848  0.44731  0.67318  Biso   1.000  H
  H571     1.0000 0.07276  0.47851  0.63446  Biso   1.000  H
  C457     1.0000 0.13628  0.51961  0.69819  Biso   1.000  C
  H572     1.0000 0.02385  0.34651  0.96255  Biso   1.000  H
  H573     1.0000 0.36708  0.16279  0.07660  Biso   1.000  H
  H574     1.0000 0.33059  0.16401  0.10990  Biso   1.000  H
  C458     1.0000 0.28087  0.18357  0.02590  Biso   1.000  C
  H575     1.0000 0.56428  0.18678  0.15319  Biso   1.000  H
  H576     1.0000 0.52397  0.21499  0.09678  Biso   1.000  H
  C459     1.0000 0.60000  0.18981  0.09949  Biso   1.000  C
  H577     1.0000 0.56748  0.54600  0.15670  Biso   1.000  H
  H578     1.0000 0.55451  0.52260  0.09852  Biso   1.000  H
  H579     1.0000 0.51198  0.51259  0.12378  Biso   1.000  H
  C460     1.0000 0.11686  0.21347  0.87470  Biso   1.000  C
  H580     1.0000 0.11337  0.33268  0.66306  Biso   1.000  H
  H581     1.0000 0.17219  0.30329  0.69599  Biso   1.000  H
  C461     1.0000 0.09936  0.25971  0.67551  Biso   1.000  C
  H582     1.0000 0.16608  0.51340  0.73687  Biso   1.000  H
  H583     1.0000 0.10985  0.54460  0.69916  Biso   1.000  H
  C462     1.0000 0.16558  0.53927  0.66497  Biso   1.000  C
  C463     1.0000 0.22851  0.17229  0.02391  Biso   1.000  C
  C464     1.0000 0.28195  0.20327  0.97770  Biso   1.000  C
  H584     1.0000 0.63967  0.18430  0.12839  Biso   1.000  H
  H585     1.0000 0.58311  0.15921  0.08091  Biso   1.000  H
  H586     1.0000 0.59992  0.21299  0.07241  Biso   1.000  H
  C465     1.0000 0.17343  0.20201  0.92645  Biso   1.000  C
  H587     1.0000 0.08395  0.20101  0.87876  Biso   1.000  H
  H588     1.0000 0.11616  0.19820  0.84165  Biso   1.000  H
  H589     1.0000 0.08999  0.25228  0.63678  Biso   1.000  H
  H590     1.0000 0.06269  0.26400  0.67648  Biso   1.000  H
  C466     1.0000 0.13185  0.21569  0.71266  Biso   1.000  C
  H591     1.0000 0.18195  0.57129  0.67906  Biso   1.000  H
  H592     1.0000 0.19628  0.51710  0.66899  Biso   1.000  H
  H593     1.0000 0.13705  0.54190  0.62566  Biso   1.000  H
  O71      1.0000 0.22663  0.14952  0.06915  Biso   1.000  O
  C467     1.0000 0.17425  0.18246  0.97364  Biso   1.000  C
  C468     1.0000 0.22814  0.21299  0.92755  Biso   1.000  C
  C469     1.0000 0.33474  0.21443  0.97664  Biso   1.000  C
  H594     1.0000 0.14066  0.22219  0.75096  Biso   1.000  H
  H595     1.0000 0.10765  0.18671  0.69916  Biso   1.000  H
  H596     1.0000 0.16774  0.21040  0.71105  Biso   1.000  H
  C470     1.0000 0.21258  0.18079  0.10389  Biso   1.000  C
  O72      1.0000 0.12250  0.17628  0.97634  Biso   1.000  O
  C471     1.0000 0.23075  0.23391  0.88104  Biso   1.000  C
  H597     1.0000 0.37030  0.20811  0.00880  Biso   1.000  H
  C472     1.0000 0.33563  0.23391  0.93064  Biso   1.000  C
  H598     1.0000 0.24309  0.20541  0.12251  Biso   1.000  H
  H599     1.0000 0.17567  0.19769  0.08108  Biso   1.000  H
  C473     1.0000 0.20786  0.14819  0.14722  Biso   1.000  C
  C474     1.0000 0.10186  0.12546  0.97000  Biso   1.000  C
  C475     1.0000 0.28275  0.24422  0.88176  Biso   1.000  C
  H600     1.0000 0.19584  0.24101  0.84854  Biso   1.000  H
  H601     1.0000 0.37135  0.24049  0.93157  Biso   1.000  H
  H602     1.0000 0.19569  0.16848  0.16961  Biso   1.000  H
  H603     1.0000 0.17717  0.12402  0.12738  Biso   1.000  H
  C476     1.0000 0.26369  0.12098  0.18717  Biso   1.000  C
  H604     1.0000 0.09284  0.11300  0.93284  Biso   1.000  H
  H605     1.0000 0.13183  0.10461  0.99835  Biso   1.000  H
  C477     1.0000 0.04751  0.12527  0.97715  Biso   1.000  C
  H606     1.0000 0.28315  0.25790  0.85015  Biso   1.000  H
  H607     1.0000 0.27890  0.10420  0.16491  Biso   1.000  H
  H608     1.0000 0.25387  0.09589  0.20719  Biso   1.000  H
  C478     1.0000 0.31108  0.15362  0.22979  Biso   1.000  C
  H609     1.0000 0.05710  0.13998  0.01350  Biso   1.000  H
  C479     1.0000 0.99538  0.15255  0.93136  Biso   1.000  C
  H610     1.0000 0.03614  0.09130  0.97808  Biso   1.000  H
  H611     1.0000 0.34297  0.13359  0.25598  Biso   1.000  H
  H612     1.0000 0.32488  0.17558  0.21070  Biso   1.000  H
  H613     1.0000 0.29547  0.17251  0.24989  Biso   1.000  H
  H614     1.0000 0.98584  0.13828  0.89488  Biso   1.000  H
  C480     1.0000 0.94187  0.15000  0.94037  Biso   1.000  C
  H615     1.0000 0.00594  0.18689  0.93098  Biso   1.000  H
  H616     1.0000 0.95055  0.16549  0.97567  Biso   1.000  H
  H617     1.0000 0.90976  0.16689  0.90995  Biso   1.000  H
  H618     1.0000 0.93145  0.11611  0.94105  Biso   1.000  H
  C481     1.0000 0.76369  0.37903  0.18717  Biso   1.000  C
  C482     1.0000 0.70786  0.35179  0.14722  Biso   1.000  C
  H619     1.0000 0.77890  0.39578  0.16491  Biso   1.000  H
  H620     1.0000 0.75387  0.40410  0.20719  Biso   1.000  H
  C483     1.0000 0.81108  0.34639  0.22979  Biso   1.000  C
  C484     1.0000 0.71258  0.31919  0.10389  Biso   1.000  C
  H621     1.0000 0.69569  0.33150  0.16961  Biso   1.000  H
  H622     1.0000 0.67717  0.37600  0.12738  Biso   1.000  H
  H623     1.0000 0.84297  0.36639  0.25598  Biso   1.000  H
  H624     1.0000 0.82488  0.32440  0.21070  Biso   1.000  H
  H625     1.0000 0.79547  0.32751  0.24989  Biso   1.000  H
  H626     1.0000 0.74309  0.29461  0.12251  Biso   1.000  H
  H627     1.0000 0.67567  0.30230  0.08108  Biso   1.000  H
  O73      1.0000 0.72663  0.35050  0.06915  Biso   1.000  O
  C485     1.0000 0.72851  0.32769  0.02391  Biso   1.000  C
  C486     1.0000 0.78087  0.31645  0.02590  Biso   1.000  C
  C487     1.0000 0.67425  0.31756  0.97364  Biso   1.000  C
  C488     1.0000 0.83717  0.31937  0.08134  Biso   1.000  C
  C489     1.0000 0.78195  0.29671  0.97770  Biso   1.000  C
  C490     1.0000 0.67343  0.29797  0.92645  Biso   1.000  C
  O74      1.0000 0.62250  0.32370  0.97634  Biso   1.000  O
  H628     1.0000 0.86708  0.33719  0.07660  Biso   1.000  H
  H629     1.0000 0.83059  0.33601  0.10990  Biso   1.000  H
  O75      1.0000 0.85449  0.26940  0.09712  Biso   1.000  O
  C491     1.0000 0.72814  0.28699  0.92755  Biso   1.000  C
  C492     1.0000 0.83474  0.28559  0.97664  Biso   1.000  C
  C493     1.0000 0.61686  0.28651  0.87470  Biso   1.000  C
  C494     1.0000 0.60186  0.37456  0.97000  Biso   1.000  C
  C495     1.0000 0.90941  0.26452  0.14794  Biso   1.000  C
  C496     1.0000 0.73075  0.26607  0.88104  Biso   1.000  C
  H630     1.0000 0.87030  0.29191  0.00880  Biso   1.000  H
  C497     1.0000 0.83563  0.26611  0.93064  Biso   1.000  C
  H631     1.0000 0.58395  0.29901  0.87876  Biso   1.000  H
  H632     1.0000 0.61616  0.30181  0.84165  Biso   1.000  H
  O76      1.0000 0.61310  0.23399  0.86839  Biso   1.000  O
  H633     1.0000 0.59284  0.38698  0.93284  Biso   1.000  H
  H634     1.0000 0.63183  0.39541  0.99835  Biso   1.000  H
  C498     1.0000 0.54751  0.37471  0.97715  Biso   1.000  C
  C499     1.0000 0.91779  0.21040  0.16191  Biso   1.000  C
  H635     1.0000 0.90857  0.28289  0.17858  Biso   1.000  H
  H636     1.0000 0.94129  0.27709  0.14219  Biso   1.000  H
  C500     1.0000 0.78275  0.25579  0.88176  Biso   1.000  C
  H637     1.0000 0.69584  0.25901  0.84854  Biso   1.000  H
  H638     1.0000 0.87135  0.25949  0.93157  Biso   1.000  H
  C501     1.0000 0.56370  0.21720  0.81748  Biso   1.000  C
  H639     1.0000 0.55710  0.36000  0.01350  Biso   1.000  H
  H640     1.0000 0.53614  0.40868  0.97808  Biso   1.000  H
  C502     1.0000 0.49538  0.34743  0.93136  Biso   1.000  C
  C503     1.0000 0.96166  0.18419  0.15945  Biso   1.000  C
  C504     1.0000 0.87893  0.18586  0.17727  Biso   1.000  C
  H641     1.0000 0.78315  0.24208  0.85015  Biso   1.000  H
  C505     1.0000 0.56689  0.16183  0.82002  Biso   1.000  C
  H642     1.0000 0.53558  0.23661  0.78888  Biso   1.000  H
  H643     1.0000 0.48584  0.36170  0.89488  Biso   1.000  H
  H644     1.0000 0.50594  0.31309  0.93098  Biso   1.000  H
  C506     1.0000 0.44187  0.34998  0.94037  Biso   1.000  C
  C507     1.0000 0.96837  0.13185  0.17143  Biso   1.000  C
  O77      1.0000 0.99672  0.20567  0.13982  Biso   1.000  O
  C508     1.0000 0.88499  0.13389  0.18887  Biso   1.000  C
  C509     1.0000 0.83343  0.21103  0.18129  Biso   1.000  C
  C510     1.0000 0.58150  0.13599  0.78494  Biso   1.000  C
  C511     1.0000 0.56003  0.13658  0.86285  Biso   1.000  C
  H645     1.0000 0.45055  0.33449  0.97567  Biso   1.000  H
  H646     1.0000 0.40976  0.33309  0.90995  Biso   1.000  H
  H647     1.0000 0.43145  0.38391  0.94105  Biso   1.000  H
  C512     1.0000 0.93053  0.10694  0.18463  Biso   1.000  C
  O78      1.0000 0.01546  0.10775  0.17236  Biso   1.000  O
  C513     1.0000 0.05513  0.21887  0.18383  Biso   1.000  C
  C514     1.0000 0.84428  0.11067  0.20308  Biso   1.000  C
  C515     1.0000 0.79585  0.18748  0.19619  Biso   1.000  C
  H648     1.0000 0.82879  0.24470  0.17359  Biso   1.000  H
  C516     1.0000 0.59392  0.08369  0.79311  Biso   1.000  C
  O79      1.0000 0.58383  0.15910  0.74029  Biso   1.000  O
  C517     1.0000 0.57199  0.08476  0.87080  Biso   1.000  C
  C518     1.0000 0.54278  0.16139  0.89933  Biso   1.000  C
  C519     1.0000 0.93178  0.05164  0.18874  Biso   1.000  C
  C520     1.0000 0.01017  0.09589  0.11790  Biso   1.000  C
  H649     1.0000 0.07538  0.18981  0.20541  Biso   1.000  H
  H650     1.0000 0.05249  0.24278  0.20947  Biso   1.000  H
  C521     1.0000 0.08808  0.24068  0.15552  Biso   1.000  C
  H651     1.0000 0.84709  0.07681  0.20981  Biso   1.000  H
  C522     1.0000 0.80150  0.13681  0.20719  Biso   1.000  C
  H652     1.0000 0.76656  0.20530  0.19898  Biso   1.000  H
  C523     1.0000 0.58927  0.05855  0.83454  Biso   1.000  C
  O80      1.0000 0.61579  0.06095  0.76099  Biso   1.000  O
  C524     1.0000 0.64136  0.17011  0.74736  Biso   1.000  C
  C525     1.0000 0.56601  0.06107  0.91486  Biso   1.000  C
  H653     1.0000 0.53567  0.19521  0.89518  Biso   1.000  H
  C526     1.0000 0.53640  0.13677  0.93999  Biso   1.000  C
  H654     1.0000 0.96678  0.03852  0.18899  Biso   1.000  H
  H655     1.0000 0.93117  0.04110  0.22297  Biso   1.000  H
  O81      1.0000 0.88006  0.03504  0.13961  Biso   1.000  O
  H656     1.0000 0.97901  0.07190  0.09860  Biso   1.000  H
  H657     1.0000 0.00118  0.12531  0.09471  Biso   1.000  H
  C527     1.0000 0.06881  0.07448  0.12848  Biso   1.000  C
  H658     1.0000 0.08741  0.21709  0.12801  Biso   1.000  H
  H659     1.0000 0.12879  0.24519  0.18379  Biso   1.000  H
  C528     1.0000 0.06429  0.28951  0.12598  Biso   1.000  C
  H660     1.0000 0.77598  0.12091  0.21730  Biso   1.000  H
  C529     1.0000 0.60391  0.00429  0.84402  Biso   1.000  C
  C530     1.0000 0.57132  0.04750  0.70454  Biso   1.000  C
  H661     1.0000 0.66489  0.14021  0.75659  Biso   1.000  H
  H662     1.0000 0.66114  0.19369  0.77787  Biso   1.000  H
  C531     1.0000 0.63365  0.19137  0.69286  Biso   1.000  C
  C532     1.0000 0.54897  0.08557  0.94825  Biso   1.000  C
  H663     1.0000 0.57407  0.02739  0.92087  Biso   1.000  H
  H664     1.0000 0.52385  0.15351  0.96255  Biso   1.000  H
  C533     1.0000 0.87399  0.98218  0.13741  Biso   1.000  C
  H665     1.0000 0.06708  0.06809  0.09208  Biso   1.000  H
  H666     1.0000 0.09891  0.09929  0.14761  Biso   1.000  H
  C534     1.0000 0.08775  0.02732  0.16301  Biso   1.000  C
  H667     1.0000 0.06428  0.31320  0.15319  Biso   1.000  H
  H668     1.0000 0.02397  0.28500  0.09678  Biso   1.000  H
  C535     1.0000 0.10000  0.31021  0.09949  Biso   1.000  C
  H669     1.0000 0.57144  0.98599  0.84347  Biso   1.000  H
  H670     1.0000 0.61183  0.99131  0.81465  Biso   1.000  H
  O82      1.0000 0.65503  0.99989  0.89827  Biso   1.000  O
  H671     1.0000 0.54805  0.07618  0.68507  Biso   1.000  H
  H672     1.0000 0.54537  0.02259  0.70648  Biso   1.000  H
  C536     1.0000 0.60182  0.02765  0.67343  Biso   1.000  C
  H673     1.0000 0.61337  0.16730  0.66306  Biso   1.000  H
  H674     1.0000 0.67219  0.19669  0.69599  Biso   1.000  H
  C537     1.0000 0.59936  0.24027  0.67551  Biso   1.000  C
  H675     1.0000 0.54547  0.06890  0.97677  Biso   1.000  H
  C538     1.0000 0.82332  0.96998  0.08045  Biso   1.000  C
  H676     1.0000 0.86619  0.97061  0.16741  Biso   1.000  H
  H677     1.0000 0.90971  0.96658  0.14181  Biso   1.000  H
  C539     1.0000 0.05218  0.98244  0.13279  Biso   1.000  C
  H678     1.0000 0.12867  0.02111  0.17388  Biso   1.000  H
  H679     1.0000 0.08490  0.03220  0.19741  Biso   1.000  H
  H680     1.0000 0.13967  0.31571  0.12839  Biso   1.000  H
  H681     1.0000 0.08311  0.34081  0.08091  Biso   1.000  H
  H682     1.0000 0.09992  0.28699  0.07241  Biso   1.000  H
  C540     1.0000 0.67051  0.94988  0.91566  Biso   1.000  C
  C541     1.0000 0.63628  0.98037  0.69819  Biso   1.000  C
  H683     1.0000 0.62848  0.05271  0.67318  Biso   1.000  H
  H684     1.0000 0.57276  0.02151  0.63446  Biso   1.000  H
  H685     1.0000 0.58999  0.24770  0.63678  Biso   1.000  H
  H686     1.0000 0.56269  0.23598  0.67648  Biso   1.000  H
  C542     1.0000 0.63185  0.28429  0.71266  Biso   1.000  C
  C543     1.0000 0.77224  0.95091  0.07588  Biso   1.000  C
  C544     1.0000 0.82701  0.98022  0.03064  Biso   1.000  C
  H687     1.0000 0.06748  0.95402  0.15670  Biso   1.000  H
  H688     1.0000 0.05451  0.97741  0.09852  Biso   1.000  H
  H689     1.0000 0.01198  0.98740  0.12378  Biso   1.000  H
  H690     1.0000 0.67836  0.93210  0.88866  Biso   1.000  H
  H691     1.0000 0.63904  0.93332  0.91888  Biso   1.000  H
  C545     1.0000 0.72501  0.95243  0.97245  Biso   1.000  C
  H692     1.0000 0.66608  0.98658  0.73687  Biso   1.000  H
  H693     1.0000 0.60985  0.95538  0.69916  Biso   1.000  H
  C546     1.0000 0.66558  0.96071  0.66497  Biso   1.000  C
  H694     1.0000 0.64066  0.27779  0.75096  Biso   1.000  H
  H695     1.0000 0.60765  0.31331  0.69916  Biso   1.000  H
  H696     1.0000 0.66774  0.28958  0.71105  Biso   1.000  H
  C547     1.0000 0.72306  0.94126  0.02116  Biso   1.000  C
  O83      1.0000 0.76510  0.94385  0.12276  Biso   1.000  O
  C548     1.0000 0.77790  0.97135  0.97592  Biso   1.000  C
  C549     1.0000 0.87922  0.99974  0.03242  Biso   1.000  C
  H697     1.0000 0.68195  0.92870  0.67906  Biso   1.000  H
  H698     1.0000 0.69628  0.98289  0.66899  Biso   1.000  H
  H699     1.0000 0.63705  0.95808  0.62566  Biso   1.000  H
  O84      1.0000 0.67406  0.91860  0.01862  Biso   1.000  O
  C550     1.0000 0.77166  0.89314  0.14189  Biso   1.000  C
  C551     1.0000 0.78417  0.98222  0.92742  Biso   1.000  C
  H700     1.0000 0.91131  0.00651  0.06741  Biso   1.000  H
  C552     1.0000 0.88353  0.00869  0.98527  Biso   1.000  C
  C553     1.0000 0.63654  0.94940  0.03106  Biso   1.000  C
  H701     1.0000 0.81128  0.88171  0.15328  Biso   1.000  H
  H702     1.0000 0.74440  0.87210  0.11151  Biso   1.000  H
  C554     1.0000 0.75931  0.89084  0.19115  Biso   1.000  C
  H703     1.0000 0.75234  0.97708  0.89175  Biso   1.000  H
  C555     1.0000 0.83523  0.99993  0.93149  Biso   1.000  C
  H704     1.0000 0.91854  0.02070  0.98815  Biso   1.000  H
  H705     1.0000 0.61899  0.97501  0.00258  Biso   1.000  H
  H706     1.0000 0.65892  0.96511  0.06771  Biso   1.000  H
  C556     1.0000 0.58946  0.91661  0.03140  Biso   1.000  C
  H707     1.0000 0.75978  0.85650  0.20177  Biso   1.000  H
  H708     1.0000 0.72008  0.90360  0.17917  Biso   1.000  H
  C557     1.0000 0.80228  0.91942  0.24252  Biso   1.000  C
  H709     1.0000 0.83834  0.00621  0.89894  Biso   1.000  H
  C558     1.0000 0.54984  0.89151  0.97520  Biso   1.000  C
  H710     1.0000 0.56523  0.93631  0.04232  Biso   1.000  H
  H711     1.0000 0.60819  0.89129  0.06001  Biso   1.000  H
  H712     1.0000 0.80116  0.95402  0.23249  Biso   1.000  H
  H713     1.0000 0.84158  0.90722  0.25450  Biso   1.000  H
  C559     1.0000 0.78848  0.91509  0.29127  Biso   1.000  C
  H714     1.0000 0.57437  0.87439  0.96238  Biso   1.000  H
  H715     1.0000 0.52622  0.86682  0.98134  Biso   1.000  H
  C560     1.0000 0.50946  0.92614  0.92924  Biso   1.000  C
  H716     1.0000 0.81677  0.93361  0.32297  Biso   1.000  H
  H717     1.0000 0.79005  0.88101  0.30177  Biso   1.000  H
  H718     1.0000 0.74978  0.92781  0.27989  Biso   1.000  H
  H719     1.0000 0.48742  0.94540  0.94274  Biso   1.000  H
  H720     1.0000 0.48293  0.90740  0.89674  Biso   1.000  H
  H721     1.0000 0.53234  0.94781  0.91896  Biso   1.000  H
  C561     1.0000 0.29202  0.64821  0.85271  Biso   1.000  C
  C562     1.0000 0.23621  0.62097  0.81280  Biso   1.000  C
  C563     1.0000 0.28732  0.68081  0.89608  Biso   1.000  C
  H722     1.0000 0.30425  0.66850  0.83036  Biso   1.000  H
  H723     1.0000 0.32271  0.62400  0.87255  Biso   1.000  H
  H724     1.0000 0.22104  0.60418  0.83506  Biso   1.000  H
  H725     1.0000 0.24603  0.59590  0.79278  Biso   1.000  H
  C564     1.0000 0.18886  0.65361  0.77019  Biso   1.000  C
  H726     1.0000 0.25681  0.70539  0.87746  Biso   1.000  H
  H727     1.0000 0.32421  0.69770  0.91885  Biso   1.000  H
  O85      1.0000 0.27327  0.64950  0.93083  Biso   1.000  O
  H728     1.0000 0.15693  0.63361  0.74399  Biso   1.000  H
  H729     1.0000 0.17502  0.67560  0.78927  Biso   1.000  H
  H730     1.0000 0.20443  0.67249  0.75009  Biso   1.000  H
  C565     1.0000 0.27143  0.67231  0.97606  Biso   1.000  C
  C566     1.0000 0.21907  0.68355  0.97407  Biso   1.000  C
  C567     1.0000 0.32569  0.68244  0.02634  Biso   1.000  C
  C568     1.0000 0.16273  0.68063  0.91864  Biso   1.000  C
  C569     1.0000 0.21795  0.70325  0.02228  Biso   1.000  C
  C570     1.0000 0.32651  0.70203  0.07352  Biso   1.000  C
  O86      1.0000 0.37742  0.67630  0.02359  Biso   1.000  O
  H731     1.0000 0.13282  0.66281  0.92338  Biso   1.000  H
  H732     1.0000 0.16935  0.66399  0.89007  Biso   1.000  H
  O87      1.0000 0.14541  0.73060  0.90285  Biso   1.000  O
  C571     1.0000 0.27180  0.71297  0.07242  Biso   1.000  C
  C572     1.0000 0.16518  0.71441  0.02329  Biso   1.000  C
  C573     1.0000 0.38304  0.71349  0.12528  Biso   1.000  C
  C574     1.0000 0.39808  0.62544  0.02998  Biso   1.000  C
  C575     1.0000 0.09047  0.73548  0.85199  Biso   1.000  C
  C576     1.0000 0.26915  0.73389  0.11893  Biso   1.000  C
  H733     1.0000 0.12964  0.70809  0.99117  Biso   1.000  H
  C577     1.0000 0.16425  0.73389  0.06929  Biso   1.000  C
  H734     1.0000 0.41599  0.70099  0.12121  Biso   1.000  H
  H735     1.0000 0.38376  0.69819  0.15828  Biso   1.000  H
  O88      1.0000 0.38684  0.76601  0.13158  Biso   1.000  O
  H736     1.0000 0.40708  0.61298  0.06709  Biso   1.000  H
  H737     1.0000 0.36807  0.60459  0.00162  Biso   1.000  H
  C578     1.0000 0.45243  0.62529  0.02283  Biso   1.000  C
  C579     1.0000 0.08208  0.78956  0.83802  Biso   1.000  C
  H738     1.0000 0.09131  0.71711  0.82135  Biso   1.000  H
  H739     1.0000 0.05865  0.72288  0.85779  Biso   1.000  H
  C580     1.0000 0.21719  0.74421  0.11821  Biso   1.000  C
  H740     1.0000 0.30404  0.74099  0.15139  Biso   1.000  H
  H741     1.0000 0.12855  0.74051  0.06840  Biso   1.000  H
  C581     1.0000 0.43623  0.78280  0.18249  Biso   1.000  C
  H742     1.0000 0.44284  0.64000  0.98647  Biso   1.000  H
  H743     1.0000 0.46376  0.59128  0.02189  Biso   1.000  H
  C582     1.0000 0.50452  0.65253  0.06861  Biso   1.000  C
  C583     1.0000 0.03824  0.81581  0.84052  Biso   1.000  C
  C584     1.0000 0.12101  0.81414  0.82270  Biso   1.000  C
  H744     1.0000 0.21677  0.75788  0.14978  Biso   1.000  H
  C585     1.0000 0.43305  0.83817  0.17995  Biso   1.000  C
  H745     1.0000 0.46436  0.76339  0.21110  Biso   1.000  H
  H746     1.0000 0.51406  0.63830  0.10509  Biso   1.000  H
  H747     1.0000 0.49396  0.68691  0.06899  Biso   1.000  H
  C586     1.0000 0.55807  0.64998  0.05960  Biso   1.000  C
  C587     1.0000 0.03153  0.86815  0.82854  Biso   1.000  C
  O89      1.0000 0.00321  0.79433  0.86015  Biso   1.000  O
  C588     1.0000 0.11491  0.86611  0.81111  Biso   1.000  C
  C589     1.0000 0.16645  0.78897  0.81864  Biso   1.000  C
  C590     1.0000 0.41843  0.86401  0.21503  Biso   1.000  C
  C591     1.0000 0.43987  0.86342  0.13713  Biso   1.000  C
  H748     1.0000 0.54939  0.66551  0.02431  Biso   1.000  H
  H749     1.0000 0.59016  0.66691  0.08998  Biso   1.000  H
  H750     1.0000 0.56848  0.61609  0.05892  Biso   1.000  H
  C592     1.0000 0.06940  0.89306  0.81534  Biso   1.000  C
  O90      1.0000 0.98444  0.89225  0.82761  Biso   1.000  O
  C593     1.0000 0.94477  0.78113  0.81614  Biso   1.000  C
  C594     1.0000 0.15560  0.88933  0.79685  Biso   1.000  C
  C595     1.0000 0.20407  0.81252  0.80375  Biso   1.000  C
  H751     1.0000 0.17115  0.75530  0.82639  Biso   1.000  H
  C596     1.0000 0.40600  0.91631  0.20682  Biso   1.000  C
  O91      1.0000 0.41607  0.84090  0.25968  Biso   1.000  O
  C597     1.0000 0.42793  0.91524  0.12913  Biso   1.000  C
  C598     1.0000 0.45716  0.83861  0.10065  Biso   1.000  C
  C599     1.0000 0.06816  0.94836  0.81124  Biso   1.000  C
  C600     1.0000 0.98973  0.90411  0.88208  Biso   1.000  C
  H752     1.0000 0.92452  0.81019  0.79456  Biso   1.000  H
  H753     1.0000 0.94743  0.75718  0.79046  Biso   1.000  H
  C601     1.0000 0.91186  0.75932  0.84445  Biso   1.000  C
  H754     1.0000 0.15284  0.92319  0.79016  Biso   1.000  H
  C602     1.0000 0.19844  0.86316  0.79278  Biso   1.000  C
  H755     1.0000 0.23332  0.79470  0.80095  Biso   1.000  H
  C603     1.0000 0.41063  0.94145  0.16544  Biso   1.000  C
  O92      1.0000 0.38413  0.93905  0.23894  Biso   1.000  O
  C604     1.0000 0.35854  0.82989  0.25261  Biso   1.000  C
  C605     1.0000 0.43393  0.93893  0.08512  Biso   1.000  C
  H756     1.0000 0.46427  0.80479  0.10480  Biso   1.000  H
  C606     1.0000 0.46350  0.86323  0.05998  Biso   1.000  C
  H757     1.0000 0.03312  0.96148  0.81098  Biso   1.000  H
  H758     1.0000 0.06875  0.95890  0.77696  Biso   1.000  H
  O93      1.0000 0.11988  0.96496  0.86037  Biso   1.000  O
  H759     1.0000 0.02093  0.92810  0.90137  Biso   1.000  H
  H760     1.0000 0.99872  0.87469  0.90527  Biso   1.000  H
  C607     1.0000 0.93111  0.92552  0.87145  Biso   1.000  C
  H761     1.0000 0.91253  0.78291  0.87196  Biso   1.000  H
  H762     1.0000 0.87114  0.75478  0.81619  Biso   1.000  H
  C608     1.0000 0.93563  0.71046  0.87395  Biso   1.000  C
  H763     1.0000 0.22392  0.87909  0.78267  Biso   1.000  H
  C609     1.0000 0.39599  0.99571  0.15596  Biso   1.000  C
  C610     1.0000 0.42861  0.95250  0.29544  Biso   1.000  C
  H764     1.0000 0.33505  0.85979  0.24339  Biso   1.000  H
  H765     1.0000 0.33876  0.80631  0.22210  Biso   1.000  H
  C611     1.0000 0.36623  0.80863  0.30707  Biso   1.000  C
  C612     1.0000 0.45095  0.91443  0.05169  Biso   1.000  C
  H766     1.0000 0.42587  0.97261  0.07911  Biso   1.000  H
  H767     1.0000 0.47607  0.84649  0.03738  Biso   1.000  H
  C613     1.0000 0.12595  0.01782  0.86257  Biso   1.000  C
  H768     1.0000 0.93280  0.93191  0.90785  Biso   1.000  H
  H769     1.0000 0.90103  0.90068  0.85237  Biso   1.000  H
  C614     1.0000 0.91219  0.97265  0.83696  Biso   1.000  C
  H770     1.0000 0.93562  0.68680  0.84678  Biso   1.000  H
  H771     1.0000 0.97591  0.71500  0.90315  Biso   1.000  H
  C615     1.0000 0.89994  0.68979  0.90048  Biso   1.000  C
  H772     1.0000 0.42846  0.01401  0.15651  Biso   1.000  H
  H773     1.0000 0.38805  0.00869  0.18528  Biso   1.000  H
  O94      1.0000 0.34491  0.00011  0.10171  Biso   1.000  O
  H774     1.0000 0.45185  0.92378  0.31490  Biso   1.000  H
  H775     1.0000 0.45456  0.97738  0.29349  Biso   1.000  H
  C616     1.0000 0.39812  0.97235  0.32654  Biso   1.000  C
  H776     1.0000 0.38656  0.83270  0.33691  Biso   1.000  H
  H777     1.0000 0.32774  0.80331  0.30399  Biso   1.000  H
  C617     1.0000 0.40054  0.75973  0.32447  Biso   1.000  C
  H778     1.0000 0.45447  0.93110  0.02321  Biso   1.000  H
  C618     1.0000 0.17662  0.03002  0.91953  Biso   1.000  C
  H779     1.0000 0.13371  0.02939  0.83256  Biso   1.000  H
  H780     1.0000 0.09023  0.03338  0.85817  Biso   1.000  H
  H781     1.0000 0.87123  0.97889  0.82609  Biso   1.000  H
  H782     1.0000 0.91504  0.96780  0.80256  Biso   1.000  H
  C619     1.0000 0.94772  0.01752  0.86718  Biso   1.000  C
  H783     1.0000 0.86023  0.68429  0.87158  Biso   1.000  H
  H784     1.0000 0.91683  0.65919  0.91906  Biso   1.000  H
  H785     1.0000 0.90002  0.71301  0.92757  Biso   1.000  H
  C620     1.0000 0.32942  0.05012  0.08431  Biso   1.000  C
  H786     1.0000 0.37145  0.94729  0.32680  Biso   1.000  H
  H787     1.0000 0.42715  0.97849  0.36547  Biso   1.000  H
  C621     1.0000 0.36366  0.01959  0.30179  Biso   1.000  C
  H788     1.0000 0.40995  0.75230  0.36319  Biso   1.000  H
  H789     1.0000 0.43725  0.76398  0.32349  Biso   1.000  H
  C622     1.0000 0.36805  0.71567  0.28731  Biso   1.000  C
  C623     1.0000 0.22766  0.04909  0.92410  Biso   1.000  C
  C624     1.0000 0.17289  0.01978  0.96934  Biso   1.000  C
  H790     1.0000 0.93242  0.04598  0.84327  Biso   1.000  H
  H791     1.0000 0.94542  0.02259  0.90146  Biso   1.000  H
  H792     1.0000 0.98794  0.01260  0.87615  Biso   1.000  H
  H793     1.0000 0.32157  0.06790  0.11131  Biso   1.000  H
  H794     1.0000 0.36086  0.06668  0.08110  Biso   1.000  H
  C625     1.0000 0.27493  0.04757  0.02752  Biso   1.000  C
  H795     1.0000 0.33386  0.01338  0.26311  Biso   1.000  H
  H796     1.0000 0.39005  0.04458  0.30081  Biso   1.000  H
  C626     1.0000 0.33436  0.03926  0.33500  Biso   1.000  C
  H797     1.0000 0.35928  0.72221  0.24901  Biso   1.000  H
  H798     1.0000 0.39225  0.68669  0.30081  Biso   1.000  H
  H799     1.0000 0.33213  0.71038  0.28888  Biso   1.000  H
  C627     1.0000 0.27682  0.05870  0.97877  Biso   1.000  C
  O95      1.0000 0.23478  0.05615  0.87717  Biso   1.000  O
  C628     1.0000 0.12072  0.00026  0.96756  Biso   1.000  C
  C629     1.0000 0.22204  0.02865  0.02405  Biso   1.000  C
  H800     1.0000 0.31795  0.07130  0.32091  Biso   1.000  H
  H801     1.0000 0.30366  0.01708  0.33098  Biso   1.000  H
  H802     1.0000 0.36283  0.04188  0.37428  Biso   1.000  H
  O96      1.0000 0.32586  0.08140  0.98131  Biso   1.000  O
  C630     1.0000 0.22826  0.10686  0.85804  Biso   1.000  C
  H803     1.0000 0.08863  0.99349  0.93256  Biso   1.000  H
  C631     1.0000 0.11641  0.99128  0.01470  Biso   1.000  C
  C632     1.0000 0.21577  0.01778  0.07255  Biso   1.000  C
  C633     1.0000 0.36340  0.05060  0.96891  Biso   1.000  C
  H804     1.0000 0.18863  0.11829  0.84666  Biso   1.000  H
  H805     1.0000 0.25554  0.12790  0.88847  Biso   1.000  H
  C634     1.0000 0.24057  0.10916  0.80878  Biso   1.000  C
  H806     1.0000 0.08139  0.97930  0.01182  Biso   1.000  H
  C635     1.0000 0.16467  0.00007  0.06849  Biso   1.000  C
  H807     1.0000 0.24754  0.02288  0.10818  Biso   1.000  H
  H808     1.0000 0.38092  0.02499  0.99735  Biso   1.000  H
  H809     1.0000 0.34102  0.03489  0.93226  Biso   1.000  H
  C636     1.0000 0.41044  0.08339  0.96857  Biso   1.000  C
  H810     1.0000 0.24014  0.14350  0.79816  Biso   1.000  H
  H811     1.0000 0.27984  0.09640  0.82076  Biso   1.000  H
  C637     1.0000 0.19762  0.08058  0.75745  Biso   1.000  C
  H812     1.0000 0.16157  0.99379  0.10099  Biso   1.000  H
  H813     1.0000 0.43471  0.06369  0.95766  Biso   1.000  H
  H814     1.0000 0.39171  0.10868  0.93997  Biso   1.000  H
  C638     1.0000 0.45004  0.10849  0.02473  Biso   1.000  C
  H815     1.0000 0.19874  0.04598  0.76748  Biso   1.000  H
  H816     1.0000 0.15832  0.09278  0.74547  Biso   1.000  H
  C639     1.0000 0.21146  0.08491  0.70870  Biso   1.000  C
  H817     1.0000 0.42557  0.12561  0.03759  Biso   1.000  H
  H818     1.0000 0.47366  0.13318  0.01859  Biso   1.000  H
  C640     1.0000 0.49046  0.07386  0.07069  Biso   1.000  C
  H819     1.0000 0.18315  0.06639  0.67696  Biso   1.000  H
  H820     1.0000 0.20983  0.11899  0.69816  Biso   1.000  H
  H821     1.0000 0.25016  0.07219  0.72008  Biso   1.000  H
  H822     1.0000 0.51246  0.05460  0.05719  Biso   1.000  H
  H823     1.0000 0.51695  0.09260  0.10319  Biso   1.000  H
  H824     1.0000 0.46756  0.05219  0.08101  Biso   1.000  H
  Ne1      1.0000 0.25081  0.36584  0.00084  Biso   1.000  Ne
  He1      1.0000 0.09626  0.30148  0.11852  Biso   1.000  He
  He2      1.0000 0.34090  0.36704  0.92614  Biso   1.000  He
  Ar1      1.0000 0.25199  0.36587  0.00163  Biso   1.000  Ar
  Ne2      1.0000 0.24912  0.13416  0.49912  Biso   1.000  Ne
  He3      1.0000 0.23400  0.12051  0.62395  Biso   1.000  He
  He4      1.0000 0.32276  0.07621  0.41112  Biso   1.000  He
  Ar2      1.0000 0.24790  0.13413  0.49833  Biso   1.000  Ar
  Ne3      1.0000 0.74912  0.36584  0.49912  Biso   1.000  Ne
  He5      1.0000 0.73254  0.37947  0.62514  Biso   1.000  He
  He6      1.0000 0.83233  0.30804  0.44433  Biso   1.000  He
  Ar3      1.0000 0.74788  0.36587  0.49836  Biso   1.000  Ar
  Ne4      1.0000 0.25080  0.63415  0.50084  Biso   1.000  Ne
  He7      1.0000 0.16644  0.69188  0.55667  Biso   1.000  He
  He8      1.0000 0.38599  0.64319  0.48851  Biso   1.000  He
  Ar4      1.0000 0.25184  0.63422  0.50166  Biso   1.000  Ar
  Ne5      1.0000 0.75081  0.13416  0.00084  Biso   1.000  Ne
  He9      1.0000 0.66642  0.19187  0.05669  Biso   1.000  He
  He10     1.0000 0.88599  0.14319  0.98850  Biso   1.000  He
  Ar5      1.0000 0.75195  0.13414  0.00167  Biso   1.000  Ar
  Ne6      1.0000 0.75080  0.86584  0.50084  Biso   1.000  Ne
  He11     1.0000 0.59624  0.80149  0.61852  Biso   1.000  He
  He12     1.0000 0.84091  0.86702  0.42617  Biso   1.000  He
  Ar6      1.0000 0.75200  0.86586  0.50158  Biso   1.000  Ar
  Ne7      1.0000 0.74911  0.63415  0.99912  Biso   1.000  Ne
  He13     1.0000 0.73401  0.62049  0.12398  Biso   1.000  He
  He14     1.0000 0.82274  0.57620  0.91112  Biso   1.000  He
  Ar7      1.0000 0.74780  0.63414  0.99838  Biso   1.000  Ar
  Ne8      1.0000 0.24911  0.86584  0.99912  Biso   1.000  Ne
  He15     1.0000 0.23256  0.87946  0.12517  Biso   1.000  He
  He16     1.0000 0.33232  0.80807  0.94433  Biso   1.000  He
  Ar8      1.0000 0.24781  0.86584  0.99836  Biso   1.000  Ar
