data_image0
_cell_length_a       25.469
_cell_length_b       25.469
_cell_length_c       25.469
_cell_angle_alpha    90
_cell_angle_beta     90
_cell_angle_gamma    90

_symmetry_space_group_name_H-M    "P 1"
_symmetry_int_tables_number       1

loop_
  _symmetry_equiv_pos_as_xyz
  'x, y, z'

loop_
  _atom_site_label
  _atom_site_occupancy
  _atom_site_fract_x
  _atom_site_fract_y
  _atom_site_fract_z
  _atom_site_thermal_displace_type
  _atom_site_B_iso_or_equiv
  _atom_site_type_symbol
  C1       1.0000 0.38619  0.27728  0.23762  Biso   1.000  C
  C2       1.0000 0.43602  0.28631  0.20511  Biso   1.000  C
  C3       1.0000 0.38619  0.22274  0.26236  Biso   1.000  C
  H1       1.0000 0.38400  0.30421  0.26558  Biso   1.000  H
  H2       1.0000 0.35498  0.28109  0.21481  Biso   1.000  H
  C4       1.0000 0.48475  0.27775  0.23853  Biso   1.000  C
  H3       1.0000 0.43649  0.26181  0.17488  Biso   1.000  H
  H4       1.0000 0.43598  0.32259  0.19121  Biso   1.000  H
  C5       1.0000 0.43602  0.21367  0.29491  Biso   1.000  C
  H5       1.0000 0.38400  0.19581  0.23440  Biso   1.000  H
  H6       1.0000 0.35498  0.21889  0.28521  Biso   1.000  H
  N1       1.0000 0.53426  0.28364  0.21061  Biso   1.000  N
  H7       1.0000 0.48408  0.30351  0.26821  Biso   1.000  H
  C6       1.0000 0.48475  0.22223  0.26146  Biso   1.000  C
  H8       1.0000 0.43649  0.23821  0.32510  Biso   1.000  H
  H9       1.0000 0.43598  0.17739  0.30881  Biso   1.000  H
  C7       1.0000 0.57289  0.24999  0.24999  Biso   1.000  C
  C8       1.0000 0.54753  0.33892  0.20354  Biso   1.000  C
  H10      1.0000 0.56469  0.27119  0.22109  Biso   1.000  H
  N2       1.0000 0.53426  0.21634  0.28941  Biso   1.000  N
  H11      1.0000 0.48408  0.19651  0.23181  Biso   1.000  H
  C9       1.0000 0.60729  0.28321  0.28560  Biso   1.000  C
  C10      1.0000 0.60729  0.21681  0.21438  Biso   1.000  C
  H12      1.0000 0.56469  0.22879  0.27889  Biso   1.000  H
  H13      1.0000 0.55310  0.35490  0.23849  Biso   1.000  H
  H14      1.0000 0.51730  0.35690  0.18709  Biso   1.000  H
  C11      1.0000 0.59590  0.34886  0.17017  Biso   1.000  C
  C12      1.0000 0.54753  0.16106  0.29644  Biso   1.000  C
  H15      1.0000 0.63567  0.29911  0.26499  Biso   1.000  H
  H16      1.0000 0.62248  0.26098  0.31320  Biso   1.000  H
  H17      1.0000 0.58609  0.31101  0.30170  Biso   1.000  H
  H18      1.0000 0.63567  0.20091  0.23499  Biso   1.000  H
  H19      1.0000 0.62248  0.23900  0.18682  Biso   1.000  H
  H20      1.0000 0.58609  0.18901  0.19828  Biso   1.000  H
  C13      1.0000 0.62731  0.39201  0.18206  Biso   1.000  C
  C14      1.0000 0.60799  0.31792  0.12733  Biso   1.000  C
  H21      1.0000 0.55310  0.14508  0.26149  Biso   1.000  H
  H22      1.0000 0.51730  0.14312  0.31289  Biso   1.000  H
  C15      1.0000 0.59590  0.15112  0.32981  Biso   1.000  C
  H23      1.0000 0.61918  0.41329  0.21159  Biso   1.000  H
  C16      1.0000 0.67019  0.40406  0.15112  Biso   1.000  C
  C17      1.0000 0.65111  0.32981  0.09592  Biso   1.000  C
  H24      1.0000 0.58667  0.28839  0.11920  Biso   1.000  H
  C18      1.0000 0.62731  0.10797  0.31792  Biso   1.000  C
  C19      1.0000 0.60799  0.18206  0.37265  Biso   1.000  C
  C20      1.0000 0.70352  0.45247  0.16106  Biso   1.000  C
  C21      1.0000 0.68204  0.37265  0.10797  Biso   1.000  C
  C22      1.0000 0.66108  0.29644  0.04755  Biso   1.000  C
  H25      1.0000 0.61918  0.08669  0.28839  Biso   1.000  H
  C23      1.0000 0.67019  0.09592  0.34886  Biso   1.000  C
  H26      1.0000 0.58667  0.21159  0.38078  Biso   1.000  H
  C24      1.0000 0.65111  0.17017  0.40406  Biso   1.000  C
  H27      1.0000 0.73847  0.44690  0.14508  Biso   1.000  H
  H28      1.0000 0.68707  0.48270  0.14312  Biso   1.000  H
  N3       1.0000 0.71059  0.46574  0.21634  Biso   1.000  N
  H29      1.0000 0.71157  0.38078  0.08669  Biso   1.000  H
  H30      1.0000 0.64510  0.26149  0.05308  Biso   1.000  H
  H31      1.0000 0.64310  0.31289  0.01732  Biso   1.000  H
  N4       1.0000 0.71632  0.28941  0.03428  Biso   1.000  N
  C25      1.0000 0.70352  0.04755  0.33892  Biso   1.000  C
  C26      1.0000 0.68204  0.12733  0.39201  Biso   1.000  C
  C27      1.0000 0.66108  0.20354  0.45247  Biso   1.000  C
  C28      1.0000 0.74997  0.42711  0.24999  Biso   1.000  C
  C29      1.0000 0.73851  0.51521  0.22223  Biso   1.000  C
  H32      1.0000 0.72107  0.43527  0.22879  Biso   1.000  H
  C30      1.0000 0.72221  0.26146  0.98477  Biso   1.000  C
  C31      1.0000 0.74997  0.24999  0.07291  Biso   1.000  C
  H33      1.0000 0.72877  0.27889  0.06471  Biso   1.000  H
  H34      1.0000 0.73847  0.05308  0.35490  Biso   1.000  H
  H35      1.0000 0.68707  0.01732  0.35690  Biso   1.000  H
  N5       1.0000 0.71059  0.03428  0.28364  Biso   1.000  N
  H36      1.0000 0.71157  0.11920  0.41329  Biso   1.000  H
  H37      1.0000 0.64510  0.23849  0.44690  Biso   1.000  H
  H38      1.0000 0.64310  0.18709  0.48270  Biso   1.000  H
  N6       1.0000 0.71632  0.21061  0.46574  Biso   1.000  N
  N7       1.0000 0.78939  0.46574  0.28364  Biso   1.000  N
  C32      1.0000 0.78558  0.39267  0.21681  Biso   1.000  C
  C33      1.0000 0.71440  0.39267  0.28321  Biso   1.000  C
  H39      1.0000 0.77887  0.43527  0.27119  Biso   1.000  H
  H40      1.0000 0.76819  0.51588  0.19651  Biso   1.000  H
  C34      1.0000 0.76144  0.51521  0.27775  Biso   1.000  C
  C35      1.0000 0.70509  0.56398  0.21367  Biso   1.000  C
  C36      1.0000 0.77777  0.23853  0.98477  Biso   1.000  C
  C37      1.0000 0.71365  0.29491  0.93596  Biso   1.000  C
  H41      1.0000 0.69649  0.23181  0.98410  Biso   1.000  H
  N8       1.0000 0.78366  0.21061  0.03428  Biso   1.000  N
  C38      1.0000 0.71679  0.21438  0.10731  Biso   1.000  C
  C39      1.0000 0.78319  0.28560  0.10731  Biso   1.000  C
  H42      1.0000 0.77117  0.22109  0.06471  Biso   1.000  H
  C40      1.0000 0.73851  0.98477  0.27775  Biso   1.000  C
  C41      1.0000 0.74997  0.07291  0.24999  Biso   1.000  C
  H43      1.0000 0.72107  0.06471  0.27119  Biso   1.000  H
  C42      1.0000 0.74997  0.24999  0.42711  Biso   1.000  C
  C43      1.0000 0.72221  0.23853  0.51521  Biso   1.000  C
  H44      1.0000 0.72877  0.22109  0.43527  Biso   1.000  H
  C44      1.0000 0.79646  0.45247  0.33892  Biso   1.000  C
  H45      1.0000 0.76497  0.36429  0.20091  Biso   1.000  H
  H46      1.0000 0.81318  0.37748  0.23900  Biso   1.000  H
  H47      1.0000 0.80168  0.41388  0.18901  Biso   1.000  H
  H48      1.0000 0.73497  0.36429  0.29911  Biso   1.000  H
  H49      1.0000 0.68680  0.37748  0.26098  Biso   1.000  H
  H50      1.0000 0.69830  0.41388  0.31101  Biso   1.000  H
  H51      1.0000 0.73179  0.51588  0.30351  Biso   1.000  H
  C45      1.0000 0.79489  0.56398  0.28631  Biso   1.000  C
  H52      1.0000 0.67490  0.56347  0.23821  Biso   1.000  H
  H53      1.0000 0.69119  0.56398  0.17739  Biso   1.000  H
  C46      1.0000 0.73760  0.61381  0.22274  Biso   1.000  C
  C47      1.0000 0.78629  0.20511  0.93596  Biso   1.000  C
  H54      1.0000 0.80349  0.26821  0.98410  Biso   1.000  H
  H55      1.0000 0.73819  0.32510  0.93647  Biso   1.000  H
  H56      1.0000 0.67737  0.30881  0.93596  Biso   1.000  H
  C48      1.0000 0.72272  0.26236  0.88621  Biso   1.000  C
  C49      1.0000 0.83890  0.20354  0.04755  Biso   1.000  C
  H57      1.0000 0.70089  0.23499  0.13569  Biso   1.000  H
  H58      1.0000 0.73898  0.18682  0.12250  Biso   1.000  H
  H59      1.0000 0.68899  0.19828  0.08610  Biso   1.000  H
  H60      1.0000 0.79909  0.26499  0.13569  Biso   1.000  H
  H61      1.0000 0.76100  0.31320  0.12250  Biso   1.000  H
  H62      1.0000 0.81099  0.30170  0.08610  Biso   1.000  H
  C50      1.0000 0.76144  0.98477  0.22223  Biso   1.000  C
  C51      1.0000 0.70509  0.93596  0.28631  Biso   1.000  C
  H63      1.0000 0.76819  0.98410  0.30351  Biso   1.000  H
  N9       1.0000 0.78939  0.03428  0.21634  Biso   1.000  N
  C52      1.0000 0.78558  0.10731  0.28321  Biso   1.000  C
  C53      1.0000 0.71440  0.10731  0.21681  Biso   1.000  C
  H64      1.0000 0.77887  0.06471  0.22879  Biso   1.000  H
  N10      1.0000 0.78366  0.28941  0.46574  Biso   1.000  N
  C54      1.0000 0.71679  0.28560  0.39267  Biso   1.000  C
  C55      1.0000 0.78319  0.21438  0.39267  Biso   1.000  C
  H65      1.0000 0.77117  0.27889  0.43527  Biso   1.000  H
  H66      1.0000 0.69649  0.26821  0.51588  Biso   1.000  H
  C56      1.0000 0.77777  0.26146  0.51521  Biso   1.000  C
  C57      1.0000 0.71365  0.20511  0.56398  Biso   1.000  C
  H67      1.0000 0.76147  0.44690  0.35490  Biso   1.000  H
  H68      1.0000 0.81287  0.48270  0.35690  Biso   1.000  H
  C58      1.0000 0.82979  0.40406  0.34886  Biso   1.000  C
  H69      1.0000 0.82508  0.56347  0.26181  Biso   1.000  H
  H70      1.0000 0.80879  0.56398  0.32259  Biso   1.000  H
  C59      1.0000 0.76238  0.61381  0.27728  Biso   1.000  C
  H71      1.0000 0.76560  0.61600  0.19581  Biso   1.000  H
  H72      1.0000 0.71479  0.64498  0.21889  Biso   1.000  H
  H73      1.0000 0.76179  0.17488  0.93647  Biso   1.000  H
  H74      1.0000 0.82257  0.19121  0.93596  Biso   1.000  H
  C60      1.0000 0.77726  0.23762  0.88621  Biso   1.000  C
  H75      1.0000 0.69579  0.23440  0.88402  Biso   1.000  H
  H76      1.0000 0.71887  0.28521  0.85500  Biso   1.000  H
  H77      1.0000 0.85488  0.23849  0.05308  Biso   1.000  H
  H78      1.0000 0.85688  0.18709  0.01732  Biso   1.000  H
  C61      1.0000 0.84888  0.17017  0.09592  Biso   1.000  C
  C62      1.0000 0.79489  0.93596  0.21367  Biso   1.000  C
  H79      1.0000 0.73179  0.98410  0.19651  Biso   1.000  H
  H80      1.0000 0.67490  0.93647  0.26181  Biso   1.000  H
  H81      1.0000 0.69119  0.93596  0.32259  Biso   1.000  H
  C63      1.0000 0.73760  0.88621  0.27728  Biso   1.000  C
  C64      1.0000 0.79646  0.04755  0.16106  Biso   1.000  C
  H82      1.0000 0.76497  0.13569  0.29911  Biso   1.000  H
  H83      1.0000 0.81318  0.12250  0.26098  Biso   1.000  H
  H84      1.0000 0.80168  0.08610  0.31101  Biso   1.000  H
  H85      1.0000 0.73497  0.13569  0.20091  Biso   1.000  H
  H86      1.0000 0.68680  0.12250  0.23900  Biso   1.000  H
  H87      1.0000 0.69830  0.08610  0.18901  Biso   1.000  H
  C65      1.0000 0.83890  0.29644  0.45247  Biso   1.000  C
  H88      1.0000 0.70089  0.26499  0.36429  Biso   1.000  H
  H89      1.0000 0.73898  0.31320  0.37748  Biso   1.000  H
  H90      1.0000 0.68899  0.30170  0.41388  Biso   1.000  H
  H91      1.0000 0.79909  0.23499  0.36429  Biso   1.000  H
  H92      1.0000 0.76100  0.18682  0.37748  Biso   1.000  H
  H93      1.0000 0.81099  0.19828  0.41388  Biso   1.000  H
  H94      1.0000 0.80349  0.23181  0.51588  Biso   1.000  H
  C66      1.0000 0.78629  0.29491  0.56398  Biso   1.000  C
  H95      1.0000 0.73819  0.17488  0.56347  Biso   1.000  H
  H96      1.0000 0.67737  0.19121  0.56398  Biso   1.000  H
  C67      1.0000 0.72272  0.23762  0.61381  Biso   1.000  C
  C68      1.0000 0.87267  0.39201  0.31792  Biso   1.000  C
  C69      1.0000 0.81794  0.37265  0.39201  Biso   1.000  C
  H97      1.0000 0.73438  0.61600  0.30421  Biso   1.000  H
  H98      1.0000 0.78519  0.64498  0.28109  Biso   1.000  H
  H99      1.0000 0.80419  0.26558  0.88402  Biso   1.000  H
  H100     1.0000 0.78107  0.21481  0.85500  Biso   1.000  H
  C70      1.0000 0.89199  0.18206  0.12733  Biso   1.000  C
  C71      1.0000 0.81794  0.12733  0.10797  Biso   1.000  C
  H101     1.0000 0.82508  0.93647  0.23821  Biso   1.000  H
  H102     1.0000 0.80879  0.93596  0.17739  Biso   1.000  H
  C72      1.0000 0.76238  0.88621  0.22274  Biso   1.000  C
  H103     1.0000 0.76560  0.88402  0.30421  Biso   1.000  H
  H104     1.0000 0.71479  0.85500  0.28109  Biso   1.000  H
  H105     1.0000 0.76147  0.05308  0.14508  Biso   1.000  H
  H106     1.0000 0.81287  0.01732  0.14312  Biso   1.000  H
  C73      1.0000 0.82979  0.09592  0.15112  Biso   1.000  C
  H107     1.0000 0.85488  0.26149  0.44690  Biso   1.000  H
  H108     1.0000 0.85688  0.31289  0.48270  Biso   1.000  H
  C74      1.0000 0.84888  0.32981  0.40406  Biso   1.000  C
  H109     1.0000 0.76179  0.32510  0.56347  Biso   1.000  H
  H110     1.0000 0.82257  0.30881  0.56398  Biso   1.000  H
  C75      1.0000 0.77726  0.26236  0.61381  Biso   1.000  C
  H111     1.0000 0.69579  0.26558  0.61600  Biso   1.000  H
  H112     1.0000 0.71887  0.21481  0.64498  Biso   1.000  H
  C76      1.0000 0.90408  0.34886  0.32981  Biso   1.000  C
  H113     1.0000 0.88080  0.41329  0.28839  Biso   1.000  H
  H114     1.0000 0.78837  0.38078  0.41329  Biso   1.000  H
  H115     1.0000 0.91327  0.21159  0.11920  Biso   1.000  H
  C77      1.0000 0.90408  0.15112  0.17017  Biso   1.000  C
  H116     1.0000 0.78837  0.11920  0.08669  Biso   1.000  H
  H117     1.0000 0.73438  0.88402  0.19581  Biso   1.000  H
  H118     1.0000 0.78519  0.85500  0.21889  Biso   1.000  H
  C78      1.0000 0.87267  0.10797  0.18206  Biso   1.000  C
  C79      1.0000 0.89199  0.31792  0.37265  Biso   1.000  C
  H119     1.0000 0.80419  0.23440  0.61600  Biso   1.000  H
  H120     1.0000 0.78107  0.28521  0.64498  Biso   1.000  H
  C80      1.0000 0.95245  0.33892  0.29644  Biso   1.000  C
  C81      1.0000 0.95245  0.16106  0.20354  Biso   1.000  C
  H121     1.0000 0.88080  0.08669  0.21159  Biso   1.000  H
  H122     1.0000 0.91327  0.28839  0.38078  Biso   1.000  H
  H123     1.0000 0.94688  0.35490  0.26149  Biso   1.000  H
  H124     1.0000 0.98268  0.35690  0.31289  Biso   1.000  H
  N11      1.0000 0.96572  0.28364  0.28941  Biso   1.000  N
  H125     1.0000 0.94688  0.14508  0.23849  Biso   1.000  H
  H126     1.0000 0.98268  0.14312  0.18709  Biso   1.000  H
  N12      1.0000 0.96572  0.21634  0.21061  Biso   1.000  N
  C82      1.0000 0.92709  0.24999  0.24999  Biso   1.000  C
  H127     1.0000 0.93529  0.27119  0.27889  Biso   1.000  H
  C83      1.0000 0.01519  0.27775  0.26146  Biso   1.000  C
  H128     1.0000 0.93529  0.22879  0.22109  Biso   1.000  H
  C84      1.0000 0.01519  0.22223  0.23853  Biso   1.000  C
  C85      1.0000 0.89269  0.28321  0.21438  Biso   1.000  C
  C86      1.0000 0.89269  0.21681  0.28560  Biso   1.000  C
  C87      1.0000 0.06396  0.28631  0.29491  Biso   1.000  C
  H129     1.0000 0.01586  0.30351  0.23181  Biso   1.000  H
  C88      1.0000 0.06396  0.21367  0.20511  Biso   1.000  C
  H130     1.0000 0.01586  0.19651  0.26821  Biso   1.000  H
  H131     1.0000 0.86427  0.29911  0.23499  Biso   1.000  H
  H132     1.0000 0.87750  0.26098  0.18682  Biso   1.000  H
  H133     1.0000 0.91390  0.31101  0.19828  Biso   1.000  H
  H134     1.0000 0.86427  0.20091  0.26499  Biso   1.000  H
  H135     1.0000 0.87750  0.23900  0.31320  Biso   1.000  H
  H136     1.0000 0.91390  0.18901  0.30170  Biso   1.000  H
  H137     1.0000 0.06349  0.26181  0.32510  Biso   1.000  H
  H138     1.0000 0.06396  0.32259  0.30881  Biso   1.000  H
  C89      1.0000 0.11379  0.27728  0.26236  Biso   1.000  C
  H139     1.0000 0.06349  0.23821  0.17488  Biso   1.000  H
  H140     1.0000 0.06396  0.17739  0.19121  Biso   1.000  H
  C90      1.0000 0.11379  0.22274  0.23762  Biso   1.000  C
  H141     1.0000 0.11598  0.30421  0.23440  Biso   1.000  H
  H142     1.0000 0.14496  0.28109  0.28521  Biso   1.000  H
  H143     1.0000 0.11598  0.19581  0.26558  Biso   1.000  H
  H144     1.0000 0.14496  0.21889  0.21481  Biso   1.000  H
  C91      1.0000 0.27728  0.23762  0.38619  Biso   1.000  C
  C92      1.0000 0.28631  0.20511  0.43602  Biso   1.000  C
  C93      1.0000 0.22274  0.26236  0.38619  Biso   1.000  C
  H145     1.0000 0.30421  0.26558  0.38400  Biso   1.000  H
  H146     1.0000 0.28109  0.21481  0.35498  Biso   1.000  H
  C94      1.0000 0.27775  0.23853  0.48475  Biso   1.000  C
  H147     1.0000 0.26181  0.17488  0.43649  Biso   1.000  H
  H148     1.0000 0.32259  0.19121  0.43598  Biso   1.000  H
  C95      1.0000 0.21367  0.29491  0.43602  Biso   1.000  C
  H149     1.0000 0.19581  0.23440  0.38400  Biso   1.000  H
  H150     1.0000 0.21889  0.28521  0.35498  Biso   1.000  H
  N13      1.0000 0.28364  0.21061  0.53426  Biso   1.000  N
  H151     1.0000 0.30351  0.26821  0.48408  Biso   1.000  H
  C96      1.0000 0.22223  0.26146  0.48475  Biso   1.000  C
  H152     1.0000 0.23821  0.32510  0.43649  Biso   1.000  H
  H153     1.0000 0.17739  0.30881  0.43598  Biso   1.000  H
  C97      1.0000 0.24999  0.24999  0.57289  Biso   1.000  C
  C98      1.0000 0.33892  0.20354  0.54753  Biso   1.000  C
  H154     1.0000 0.27119  0.22109  0.56469  Biso   1.000  H
  N14      1.0000 0.21634  0.28941  0.53426  Biso   1.000  N
  H155     1.0000 0.19651  0.23181  0.48408  Biso   1.000  H
  C99      1.0000 0.28321  0.28560  0.60729  Biso   1.000  C
  C100     1.0000 0.21681  0.21438  0.60729  Biso   1.000  C
  H156     1.0000 0.22879  0.27889  0.56469  Biso   1.000  H
  H157     1.0000 0.35490  0.23849  0.55310  Biso   1.000  H
  H158     1.0000 0.35690  0.18709  0.51730  Biso   1.000  H
  C101     1.0000 0.34886  0.17017  0.59590  Biso   1.000  C
  C102     1.0000 0.16106  0.29644  0.54753  Biso   1.000  C
  H159     1.0000 0.29911  0.26499  0.63567  Biso   1.000  H
  H160     1.0000 0.26098  0.31320  0.62248  Biso   1.000  H
  H161     1.0000 0.31101  0.30170  0.58609  Biso   1.000  H
  H162     1.0000 0.20091  0.23499  0.63567  Biso   1.000  H
  H163     1.0000 0.23900  0.18682  0.62248  Biso   1.000  H
  H164     1.0000 0.18901  0.19828  0.58609  Biso   1.000  H
  C103     1.0000 0.39201  0.18206  0.62731  Biso   1.000  C
  C104     1.0000 0.31792  0.12733  0.60799  Biso   1.000  C
  H165     1.0000 0.14508  0.26149  0.55310  Biso   1.000  H
  H166     1.0000 0.14312  0.31289  0.51730  Biso   1.000  H
  C105     1.0000 0.15112  0.32981  0.59590  Biso   1.000  C
  H167     1.0000 0.41329  0.21159  0.61918  Biso   1.000  H
  C106     1.0000 0.40406  0.15112  0.67019  Biso   1.000  C
  C107     1.0000 0.32981  0.09592  0.65111  Biso   1.000  C
  H168     1.0000 0.28839  0.11920  0.58667  Biso   1.000  H
  C108     1.0000 0.10797  0.31792  0.62731  Biso   1.000  C
  C109     1.0000 0.18206  0.37265  0.60799  Biso   1.000  C
  C110     1.0000 0.37265  0.10797  0.68204  Biso   1.000  C
  C111     1.0000 0.45247  0.16106  0.70352  Biso   1.000  C
  C112     1.0000 0.29644  0.04755  0.66108  Biso   1.000  C
  H169     1.0000 0.08669  0.28839  0.61918  Biso   1.000  H
  C113     1.0000 0.09592  0.34886  0.67019  Biso   1.000  C
  C114     1.0000 0.17017  0.40406  0.65111  Biso   1.000  C
  H170     1.0000 0.21159  0.38078  0.58667  Biso   1.000  H
  H171     1.0000 0.38078  0.08669  0.71157  Biso   1.000  H
  H172     1.0000 0.44690  0.14508  0.73847  Biso   1.000  H
  H173     1.0000 0.48270  0.14312  0.68707  Biso   1.000  H
  N15      1.0000 0.46574  0.21634  0.71059  Biso   1.000  N
  H174     1.0000 0.26149  0.05308  0.64510  Biso   1.000  H
  H175     1.0000 0.31289  0.01732  0.64310  Biso   1.000  H
  N16      1.0000 0.28941  0.03428  0.71632  Biso   1.000  N
  C115     1.0000 0.04755  0.33892  0.70352  Biso   1.000  C
  C116     1.0000 0.12733  0.39201  0.68204  Biso   1.000  C
  C117     1.0000 0.20354  0.45247  0.66108  Biso   1.000  C
  C118     1.0000 0.51521  0.22223  0.73851  Biso   1.000  C
  C119     1.0000 0.42711  0.24999  0.74997  Biso   1.000  C
  H176     1.0000 0.43527  0.22879  0.72107  Biso   1.000  H
  C120     1.0000 0.26146  0.98477  0.72221  Biso   1.000  C
  C121     1.0000 0.24999  0.07291  0.74997  Biso   1.000  C
  H177     1.0000 0.27889  0.06471  0.72877  Biso   1.000  H
  H178     1.0000 0.05308  0.35490  0.73847  Biso   1.000  H
  H179     1.0000 0.01732  0.35690  0.68707  Biso   1.000  H
  N17      1.0000 0.03428  0.28364  0.71059  Biso   1.000  N
  H180     1.0000 0.11920  0.41329  0.71157  Biso   1.000  H
  H181     1.0000 0.23849  0.44690  0.64510  Biso   1.000  H
  H182     1.0000 0.18709  0.48270  0.64310  Biso   1.000  H
  N18      1.0000 0.21061  0.46574  0.71632  Biso   1.000  N
  H183     1.0000 0.51588  0.19651  0.76819  Biso   1.000  H
  C122     1.0000 0.56398  0.21367  0.70509  Biso   1.000  C
  C123     1.0000 0.51521  0.27775  0.76144  Biso   1.000  C
  N19      1.0000 0.46574  0.28364  0.78939  Biso   1.000  N
  C124     1.0000 0.39267  0.28321  0.71440  Biso   1.000  C
  C125     1.0000 0.39267  0.21681  0.78558  Biso   1.000  C
  H184     1.0000 0.43527  0.27119  0.77887  Biso   1.000  H
  C126     1.0000 0.23853  0.98477  0.77777  Biso   1.000  C
  C127     1.0000 0.29491  0.93596  0.71365  Biso   1.000  C
  H185     1.0000 0.23181  0.98410  0.69649  Biso   1.000  H
  N20      1.0000 0.21061  0.03428  0.78366  Biso   1.000  N
  C128     1.0000 0.21438  0.10731  0.71679  Biso   1.000  C
  C129     1.0000 0.28560  0.10731  0.78319  Biso   1.000  C
  H186     1.0000 0.22109  0.06471  0.77117  Biso   1.000  H
  C130     1.0000 0.98477  0.27775  0.73851  Biso   1.000  C
  C131     1.0000 0.07291  0.24999  0.74997  Biso   1.000  C
  H187     1.0000 0.06471  0.27119  0.72107  Biso   1.000  H
  C132     1.0000 0.23853  0.51521  0.72221  Biso   1.000  C
  C133     1.0000 0.24999  0.42711  0.74997  Biso   1.000  C
  H188     1.0000 0.22109  0.43527  0.72877  Biso   1.000  H
  H189     1.0000 0.56347  0.23821  0.67490  Biso   1.000  H
  H190     1.0000 0.56398  0.17739  0.69119  Biso   1.000  H
  C134     1.0000 0.61381  0.22274  0.73760  Biso   1.000  C
  H191     1.0000 0.51588  0.30351  0.73179  Biso   1.000  H
  C135     1.0000 0.56398  0.28631  0.79489  Biso   1.000  C
  C136     1.0000 0.45247  0.33892  0.79646  Biso   1.000  C
  H192     1.0000 0.36429  0.29911  0.73497  Biso   1.000  H
  H193     1.0000 0.37748  0.26098  0.68680  Biso   1.000  H
  H194     1.0000 0.41388  0.31101  0.69830  Biso   1.000  H
  H195     1.0000 0.36429  0.20091  0.76497  Biso   1.000  H
  H196     1.0000 0.37748  0.23900  0.81318  Biso   1.000  H
  H197     1.0000 0.41388  0.18901  0.80168  Biso   1.000  H
  C137     1.0000 0.20511  0.93596  0.78629  Biso   1.000  C
  H198     1.0000 0.26821  0.98410  0.80349  Biso   1.000  H
  H199     1.0000 0.32510  0.93647  0.73819  Biso   1.000  H
  H200     1.0000 0.30881  0.93596  0.67737  Biso   1.000  H
  C138     1.0000 0.26236  0.88621  0.72272  Biso   1.000  C
  C139     1.0000 0.20354  0.04755  0.83890  Biso   1.000  C
  H201     1.0000 0.23499  0.13569  0.70089  Biso   1.000  H
  H202     1.0000 0.18682  0.12250  0.73898  Biso   1.000  H
  H203     1.0000 0.19828  0.08610  0.68899  Biso   1.000  H
  H204     1.0000 0.26499  0.13569  0.79909  Biso   1.000  H
  H205     1.0000 0.31320  0.12250  0.76100  Biso   1.000  H
  H206     1.0000 0.30170  0.08610  0.81099  Biso   1.000  H
  C140     1.0000 0.98477  0.22223  0.76144  Biso   1.000  C
  C141     1.0000 0.93596  0.28631  0.70509  Biso   1.000  C
  H207     1.0000 0.98410  0.30351  0.76819  Biso   1.000  H
  N21      1.0000 0.03428  0.21634  0.78939  Biso   1.000  N
  C142     1.0000 0.10731  0.28321  0.78558  Biso   1.000  C
  C143     1.0000 0.10731  0.21681  0.71440  Biso   1.000  C
  H208     1.0000 0.06471  0.22879  0.77887  Biso   1.000  H
  H209     1.0000 0.26821  0.51588  0.69649  Biso   1.000  H
  C144     1.0000 0.20511  0.56398  0.71365  Biso   1.000  C
  C145     1.0000 0.26146  0.51521  0.77777  Biso   1.000  C
  N22      1.0000 0.28941  0.46574  0.78366  Biso   1.000  N
  C146     1.0000 0.21438  0.39267  0.78319  Biso   1.000  C
  C147     1.0000 0.28560  0.39267  0.71679  Biso   1.000  C
  H210     1.0000 0.27889  0.43527  0.77117  Biso   1.000  H
  H211     1.0000 0.61600  0.19581  0.76560  Biso   1.000  H
  H212     1.0000 0.64498  0.21889  0.71479  Biso   1.000  H
  C148     1.0000 0.61381  0.27728  0.76238  Biso   1.000  C
  H213     1.0000 0.56347  0.26181  0.82508  Biso   1.000  H
  H214     1.0000 0.56398  0.32259  0.80879  Biso   1.000  H
  H215     1.0000 0.44690  0.35490  0.76147  Biso   1.000  H
  H216     1.0000 0.48270  0.35690  0.81287  Biso   1.000  H
  C149     1.0000 0.40406  0.34886  0.82979  Biso   1.000  C
  H217     1.0000 0.17488  0.93647  0.76179  Biso   1.000  H
  H218     1.0000 0.19121  0.93596  0.82257  Biso   1.000  H
  C150     1.0000 0.23762  0.88621  0.77726  Biso   1.000  C
  H219     1.0000 0.23440  0.88402  0.69579  Biso   1.000  H
  H220     1.0000 0.28521  0.85500  0.71887  Biso   1.000  H
  H221     1.0000 0.23849  0.05308  0.85488  Biso   1.000  H
  H222     1.0000 0.18709  0.01732  0.85688  Biso   1.000  H
  C151     1.0000 0.17017  0.09592  0.84888  Biso   1.000  C
  C152     1.0000 0.93596  0.21367  0.79489  Biso   1.000  C
  H223     1.0000 0.98410  0.19651  0.73179  Biso   1.000  H
  H224     1.0000 0.93647  0.26181  0.67490  Biso   1.000  H
  H225     1.0000 0.93596  0.32259  0.69119  Biso   1.000  H
  C153     1.0000 0.88621  0.27728  0.73760  Biso   1.000  C
  C154     1.0000 0.04755  0.16106  0.79646  Biso   1.000  C
  H226     1.0000 0.13569  0.29911  0.76497  Biso   1.000  H
  H227     1.0000 0.12250  0.26098  0.81318  Biso   1.000  H
  H228     1.0000 0.08610  0.31101  0.80168  Biso   1.000  H
  H229     1.0000 0.13569  0.20091  0.73497  Biso   1.000  H
  H230     1.0000 0.12250  0.23900  0.68680  Biso   1.000  H
  H231     1.0000 0.08610  0.18901  0.69830  Biso   1.000  H
  H232     1.0000 0.17488  0.56347  0.73819  Biso   1.000  H
  H233     1.0000 0.19121  0.56398  0.67737  Biso   1.000  H
  C155     1.0000 0.23762  0.61381  0.72272  Biso   1.000  C
  H234     1.0000 0.23181  0.51588  0.80349  Biso   1.000  H
  C156     1.0000 0.29491  0.56398  0.78629  Biso   1.000  C
  C157     1.0000 0.29644  0.45247  0.83890  Biso   1.000  C
  H235     1.0000 0.23499  0.36429  0.79909  Biso   1.000  H
  H236     1.0000 0.18682  0.37748  0.76100  Biso   1.000  H
  H237     1.0000 0.19828  0.41388  0.81099  Biso   1.000  H
  H238     1.0000 0.26499  0.36429  0.70089  Biso   1.000  H
  H239     1.0000 0.31320  0.37748  0.73898  Biso   1.000  H
  H240     1.0000 0.30170  0.41388  0.68899  Biso   1.000  H
  H241     1.0000 0.61600  0.30421  0.73438  Biso   1.000  H
  H242     1.0000 0.64498  0.28109  0.78519  Biso   1.000  H
  C158     1.0000 0.37265  0.39201  0.81794  Biso   1.000  C
  C159     1.0000 0.39201  0.31792  0.87267  Biso   1.000  C
  H243     1.0000 0.26558  0.88402  0.80419  Biso   1.000  H
  H244     1.0000 0.21481  0.85500  0.78107  Biso   1.000  H
  C160     1.0000 0.12733  0.10797  0.81794  Biso   1.000  C
  C161     1.0000 0.18206  0.12733  0.89199  Biso   1.000  C
  H245     1.0000 0.93647  0.23821  0.82508  Biso   1.000  H
  H246     1.0000 0.93596  0.17739  0.80879  Biso   1.000  H
  C162     1.0000 0.88621  0.22274  0.76238  Biso   1.000  C
  H247     1.0000 0.88402  0.30421  0.76560  Biso   1.000  H
  H248     1.0000 0.85500  0.28109  0.71479  Biso   1.000  H
  H249     1.0000 0.05308  0.14508  0.76147  Biso   1.000  H
  H250     1.0000 0.01732  0.14312  0.81287  Biso   1.000  H
  C163     1.0000 0.09592  0.15112  0.82979  Biso   1.000  C
  H251     1.0000 0.26558  0.61600  0.69579  Biso   1.000  H
  H252     1.0000 0.21481  0.64498  0.71887  Biso   1.000  H
  C164     1.0000 0.26236  0.61381  0.77726  Biso   1.000  C
  H253     1.0000 0.32510  0.56347  0.76179  Biso   1.000  H
  H254     1.0000 0.30881  0.56398  0.82257  Biso   1.000  H
  H255     1.0000 0.26149  0.44690  0.85488  Biso   1.000  H
  H256     1.0000 0.31289  0.48270  0.85688  Biso   1.000  H
  C165     1.0000 0.32981  0.40406  0.84888  Biso   1.000  C
  H257     1.0000 0.38078  0.41329  0.78837  Biso   1.000  H
  C166     1.0000 0.34886  0.32981  0.90408  Biso   1.000  C
  H258     1.0000 0.41329  0.28839  0.88080  Biso   1.000  H
  H259     1.0000 0.11920  0.08669  0.78837  Biso   1.000  H
  H260     1.0000 0.21159  0.11920  0.91327  Biso   1.000  H
  C167     1.0000 0.15112  0.17017  0.90408  Biso   1.000  C
  H261     1.0000 0.88402  0.19581  0.73438  Biso   1.000  H
  H262     1.0000 0.85500  0.21889  0.78519  Biso   1.000  H
  C168     1.0000 0.10797  0.18206  0.87267  Biso   1.000  C
  H263     1.0000 0.23440  0.61600  0.80419  Biso   1.000  H
  H264     1.0000 0.28521  0.64498  0.78107  Biso   1.000  H
  C169     1.0000 0.31792  0.37265  0.89199  Biso   1.000  C
  C170     1.0000 0.33892  0.29644  0.95245  Biso   1.000  C
  C171     1.0000 0.16106  0.20354  0.95245  Biso   1.000  C
  H265     1.0000 0.08669  0.21159  0.88080  Biso   1.000  H
  H266     1.0000 0.28839  0.38078  0.91327  Biso   1.000  H
  H267     1.0000 0.35490  0.26149  0.94688  Biso   1.000  H
  H268     1.0000 0.35690  0.31289  0.98268  Biso   1.000  H
  N23      1.0000 0.28364  0.28941  0.96572  Biso   1.000  N
  H269     1.0000 0.14508  0.23849  0.94688  Biso   1.000  H
  H270     1.0000 0.14312  0.18709  0.98268  Biso   1.000  H
  N24      1.0000 0.21634  0.21061  0.96572  Biso   1.000  N
  C172     1.0000 0.24999  0.24999  0.92709  Biso   1.000  C
  H271     1.0000 0.27119  0.27889  0.93529  Biso   1.000  H
  C173     1.0000 0.27775  0.26146  0.01519  Biso   1.000  C
  H272     1.0000 0.22879  0.22109  0.93529  Biso   1.000  H
  C174     1.0000 0.22223  0.23853  0.01519  Biso   1.000  C
  C175     1.0000 0.28321  0.21438  0.89269  Biso   1.000  C
  C176     1.0000 0.21681  0.28560  0.89269  Biso   1.000  C
  C177     1.0000 0.28631  0.29491  0.06396  Biso   1.000  C
  H273     1.0000 0.30351  0.23181  0.01586  Biso   1.000  H
  C178     1.0000 0.21367  0.20511  0.06396  Biso   1.000  C
  H274     1.0000 0.19651  0.26821  0.01586  Biso   1.000  H
  H275     1.0000 0.29911  0.23499  0.86427  Biso   1.000  H
  H276     1.0000 0.26098  0.18682  0.87750  Biso   1.000  H
  H277     1.0000 0.31101  0.19828  0.91390  Biso   1.000  H
  H278     1.0000 0.20091  0.26499  0.86427  Biso   1.000  H
  H279     1.0000 0.23900  0.31320  0.87750  Biso   1.000  H
  H280     1.0000 0.18901  0.30170  0.91390  Biso   1.000  H
  H281     1.0000 0.26181  0.32510  0.06349  Biso   1.000  H
  H282     1.0000 0.32259  0.30881  0.06396  Biso   1.000  H
  C179     1.0000 0.27728  0.26236  0.11379  Biso   1.000  C
  H283     1.0000 0.23821  0.17488  0.06349  Biso   1.000  H
  H284     1.0000 0.17739  0.19121  0.06396  Biso   1.000  H
  C180     1.0000 0.22274  0.23762  0.11379  Biso   1.000  C
  H285     1.0000 0.30421  0.23440  0.11598  Biso   1.000  H
  H286     1.0000 0.28109  0.28521  0.14496  Biso   1.000  H
  H287     1.0000 0.19581  0.26558  0.11598  Biso   1.000  H
  H288     1.0000 0.21889  0.21481  0.14496  Biso   1.000  H
  C181     1.0000 0.23762  0.38619  0.27728  Biso   1.000  C
  C182     1.0000 0.20511  0.43602  0.28631  Biso   1.000  C
  C183     1.0000 0.26236  0.38619  0.22274  Biso   1.000  C
  H289     1.0000 0.26558  0.38400  0.30421  Biso   1.000  H
  H290     1.0000 0.21481  0.35498  0.28109  Biso   1.000  H
  C184     1.0000 0.23853  0.48475  0.27775  Biso   1.000  C
  H291     1.0000 0.17488  0.43649  0.26181  Biso   1.000  H
  H292     1.0000 0.19121  0.43598  0.32259  Biso   1.000  H
  C185     1.0000 0.29491  0.43602  0.21367  Biso   1.000  C
  H293     1.0000 0.23440  0.38400  0.19581  Biso   1.000  H
  H294     1.0000 0.28521  0.35498  0.21889  Biso   1.000  H
  C186     1.0000 0.26146  0.48475  0.22223  Biso   1.000  C
  N25      1.0000 0.21061  0.53426  0.28364  Biso   1.000  N
  H295     1.0000 0.26821  0.48408  0.30351  Biso   1.000  H
  H296     1.0000 0.32510  0.43649  0.23821  Biso   1.000  H
  H297     1.0000 0.30881  0.43598  0.17739  Biso   1.000  H
  N26      1.0000 0.28941  0.53426  0.21634  Biso   1.000  N
  H298     1.0000 0.23181  0.48408  0.19651  Biso   1.000  H
  C187     1.0000 0.24999  0.57289  0.24999  Biso   1.000  C
  H299     1.0000 0.22109  0.56469  0.27119  Biso   1.000  H
  C188     1.0000 0.20354  0.54753  0.33892  Biso   1.000  C
  C189     1.0000 0.29644  0.54753  0.16106  Biso   1.000  C
  H300     1.0000 0.27889  0.56469  0.22879  Biso   1.000  H
  C190     1.0000 0.21438  0.60729  0.21681  Biso   1.000  C
  C191     1.0000 0.28560  0.60729  0.28321  Biso   1.000  C
  H301     1.0000 0.23849  0.55310  0.35490  Biso   1.000  H
  H302     1.0000 0.18709  0.51730  0.35690  Biso   1.000  H
  C192     1.0000 0.17017  0.59590  0.34886  Biso   1.000  C
  H303     1.0000 0.26149  0.55310  0.14508  Biso   1.000  H
  H304     1.0000 0.31289  0.51730  0.14312  Biso   1.000  H
  C193     1.0000 0.32981  0.59590  0.15112  Biso   1.000  C
  H305     1.0000 0.23499  0.63567  0.20091  Biso   1.000  H
  H306     1.0000 0.18682  0.62248  0.23900  Biso   1.000  H
  H307     1.0000 0.19828  0.58609  0.18901  Biso   1.000  H
  H308     1.0000 0.26499  0.63567  0.29911  Biso   1.000  H
  H309     1.0000 0.31320  0.62248  0.26098  Biso   1.000  H
  H310     1.0000 0.30170  0.58609  0.31101  Biso   1.000  H
  C194     1.0000 0.12733  0.60799  0.31792  Biso   1.000  C
  C195     1.0000 0.18206  0.62731  0.39201  Biso   1.000  C
  C196     1.0000 0.37265  0.60799  0.18206  Biso   1.000  C
  C197     1.0000 0.31792  0.62731  0.10797  Biso   1.000  C
  C198     1.0000 0.09592  0.65111  0.32981  Biso   1.000  C
  H311     1.0000 0.11920  0.58667  0.28839  Biso   1.000  H
  H312     1.0000 0.21159  0.61918  0.41329  Biso   1.000  H
  C199     1.0000 0.15112  0.67019  0.40406  Biso   1.000  C
  H313     1.0000 0.38078  0.58667  0.21159  Biso   1.000  H
  C200     1.0000 0.40406  0.65111  0.17017  Biso   1.000  C
  H314     1.0000 0.28839  0.61918  0.08669  Biso   1.000  H
  C201     1.0000 0.34886  0.67019  0.09592  Biso   1.000  C
  C202     1.0000 0.10797  0.68204  0.37265  Biso   1.000  C
  C203     1.0000 0.04755  0.66108  0.29644  Biso   1.000  C
  C204     1.0000 0.16106  0.70352  0.45247  Biso   1.000  C
  C205     1.0000 0.39201  0.68204  0.12733  Biso   1.000  C
  C206     1.0000 0.45247  0.66108  0.20354  Biso   1.000  C
  C207     1.0000 0.33892  0.70352  0.04755  Biso   1.000  C
  H315     1.0000 0.08669  0.71157  0.38078  Biso   1.000  H
  H316     1.0000 0.05308  0.64510  0.26149  Biso   1.000  H
  H317     1.0000 0.01732  0.64310  0.31289  Biso   1.000  H
  N27      1.0000 0.03428  0.71632  0.28941  Biso   1.000  N
  H318     1.0000 0.14508  0.73847  0.44690  Biso   1.000  H
  H319     1.0000 0.14312  0.68707  0.48270  Biso   1.000  H
  N28      1.0000 0.21634  0.71059  0.46574  Biso   1.000  N
  H320     1.0000 0.41329  0.71157  0.11920  Biso   1.000  H
  H321     1.0000 0.44690  0.64510  0.23849  Biso   1.000  H
  H322     1.0000 0.48270  0.64310  0.18709  Biso   1.000  H
  N29      1.0000 0.46574  0.71632  0.21061  Biso   1.000  N
  H323     1.0000 0.35490  0.73847  0.05308  Biso   1.000  H
  H324     1.0000 0.35690  0.68707  0.01732  Biso   1.000  H
  N30      1.0000 0.28364  0.71059  0.03428  Biso   1.000  N
  C208     1.0000 0.98477  0.72221  0.26146  Biso   1.000  C
  C209     1.0000 0.07291  0.74997  0.24999  Biso   1.000  C
  H325     1.0000 0.06471  0.72877  0.27889  Biso   1.000  H
  C210     1.0000 0.22223  0.73851  0.51521  Biso   1.000  C
  C211     1.0000 0.24999  0.74997  0.42711  Biso   1.000  C
  H326     1.0000 0.22879  0.72107  0.43527  Biso   1.000  H
  C212     1.0000 0.42711  0.74997  0.24999  Biso   1.000  C
  C213     1.0000 0.51521  0.72221  0.23853  Biso   1.000  C
  H327     1.0000 0.43527  0.72877  0.22109  Biso   1.000  H
  C214     1.0000 0.27775  0.73851  0.98477  Biso   1.000  C
  C215     1.0000 0.24999  0.74997  0.07291  Biso   1.000  C
  H328     1.0000 0.27119  0.72107  0.06471  Biso   1.000  H
  C216     1.0000 0.98477  0.77777  0.23853  Biso   1.000  C
  C217     1.0000 0.93596  0.71365  0.29491  Biso   1.000  C
  H329     1.0000 0.98410  0.69649  0.23181  Biso   1.000  H
  N31      1.0000 0.03428  0.78366  0.21061  Biso   1.000  N
  C218     1.0000 0.10731  0.71679  0.21438  Biso   1.000  C
  C219     1.0000 0.10731  0.78319  0.28560  Biso   1.000  C
  H330     1.0000 0.06471  0.77117  0.22109  Biso   1.000  H
  H331     1.0000 0.19651  0.76819  0.51588  Biso   1.000  H
  C220     1.0000 0.21367  0.70509  0.56398  Biso   1.000  C
  C221     1.0000 0.27775  0.76144  0.51521  Biso   1.000  C
  N32      1.0000 0.28364  0.78939  0.46574  Biso   1.000  N
  C222     1.0000 0.28321  0.71440  0.39267  Biso   1.000  C
  C223     1.0000 0.21681  0.78558  0.39267  Biso   1.000  C
  H332     1.0000 0.27119  0.77887  0.43527  Biso   1.000  H
  N33      1.0000 0.46574  0.78366  0.28941  Biso   1.000  N
  C224     1.0000 0.39267  0.71679  0.28560  Biso   1.000  C
  C225     1.0000 0.39267  0.78319  0.21438  Biso   1.000  C
  H333     1.0000 0.43527  0.77117  0.27889  Biso   1.000  H
  H334     1.0000 0.51588  0.69649  0.26821  Biso   1.000  H
  C226     1.0000 0.51521  0.77777  0.26146  Biso   1.000  C
  C227     1.0000 0.56398  0.71365  0.20511  Biso   1.000  C
  C228     1.0000 0.22223  0.76144  0.98477  Biso   1.000  C
  C229     1.0000 0.28631  0.70509  0.93596  Biso   1.000  C
  H335     1.0000 0.30351  0.76819  0.98410  Biso   1.000  H
  N34      1.0000 0.21634  0.78939  0.03428  Biso   1.000  N
  C230     1.0000 0.28321  0.78558  0.10731  Biso   1.000  C
  C231     1.0000 0.21681  0.71440  0.10731  Biso   1.000  C
  H336     1.0000 0.22879  0.77887  0.06471  Biso   1.000  H
  C232     1.0000 0.93596  0.78629  0.20511  Biso   1.000  C
  H337     1.0000 0.98410  0.80349  0.26821  Biso   1.000  H
  H338     1.0000 0.93647  0.73819  0.32510  Biso   1.000  H
  H339     1.0000 0.93596  0.67737  0.30881  Biso   1.000  H
  C233     1.0000 0.88621  0.72272  0.26236  Biso   1.000  C
  C234     1.0000 0.04755  0.83890  0.20354  Biso   1.000  C
  H340     1.0000 0.13569  0.70089  0.23499  Biso   1.000  H
  H341     1.0000 0.12250  0.73898  0.18682  Biso   1.000  H
  H342     1.0000 0.08610  0.68899  0.19828  Biso   1.000  H
  H343     1.0000 0.13569  0.79909  0.26499  Biso   1.000  H
  H344     1.0000 0.12250  0.76100  0.31320  Biso   1.000  H
  H345     1.0000 0.08610  0.81099  0.30170  Biso   1.000  H
  H346     1.0000 0.23821  0.67490  0.56347  Biso   1.000  H
  H347     1.0000 0.17739  0.69119  0.56398  Biso   1.000  H
  C235     1.0000 0.22274  0.73760  0.61381  Biso   1.000  C
  H348     1.0000 0.30351  0.73179  0.51588  Biso   1.000  H
  C236     1.0000 0.28631  0.79489  0.56398  Biso   1.000  C
  C237     1.0000 0.33892  0.79646  0.45247  Biso   1.000  C
  H349     1.0000 0.29911  0.73497  0.36429  Biso   1.000  H
  H350     1.0000 0.26098  0.68680  0.37748  Biso   1.000  H
  H351     1.0000 0.31101  0.69830  0.41388  Biso   1.000  H
  H352     1.0000 0.20091  0.76497  0.36429  Biso   1.000  H
  H353     1.0000 0.23900  0.81318  0.37748  Biso   1.000  H
  H354     1.0000 0.18901  0.80168  0.41388  Biso   1.000  H
  C238     1.0000 0.45247  0.83890  0.29644  Biso   1.000  C
  H355     1.0000 0.36429  0.70089  0.26499  Biso   1.000  H
  H356     1.0000 0.37748  0.73898  0.31320  Biso   1.000  H
  H357     1.0000 0.41388  0.68899  0.30170  Biso   1.000  H
  H358     1.0000 0.36429  0.79909  0.23499  Biso   1.000  H
  H359     1.0000 0.37748  0.76100  0.18682  Biso   1.000  H
  H360     1.0000 0.41388  0.81099  0.19828  Biso   1.000  H
  H361     1.0000 0.51588  0.80349  0.23181  Biso   1.000  H
  C239     1.0000 0.56398  0.78629  0.29491  Biso   1.000  C
  H362     1.0000 0.56347  0.73819  0.17488  Biso   1.000  H
  H363     1.0000 0.56398  0.67737  0.19121  Biso   1.000  H
  C240     1.0000 0.61381  0.72272  0.23762  Biso   1.000  C
  C241     1.0000 0.21367  0.79489  0.93596  Biso   1.000  C
  H364     1.0000 0.19651  0.73179  0.98410  Biso   1.000  H
  H365     1.0000 0.26181  0.67490  0.93647  Biso   1.000  H
  H366     1.0000 0.32259  0.69119  0.93596  Biso   1.000  H
  C242     1.0000 0.27728  0.73760  0.88621  Biso   1.000  C
  C243     1.0000 0.16106  0.79646  0.04755  Biso   1.000  C
  H367     1.0000 0.29911  0.76497  0.13569  Biso   1.000  H
  H368     1.0000 0.26098  0.81318  0.12250  Biso   1.000  H
  H369     1.0000 0.31101  0.80168  0.08610  Biso   1.000  H
  H370     1.0000 0.20091  0.73497  0.13569  Biso   1.000  H
  H371     1.0000 0.23900  0.68680  0.12250  Biso   1.000  H
  H372     1.0000 0.18901  0.69830  0.08610  Biso   1.000  H
  H373     1.0000 0.93647  0.76179  0.17488  Biso   1.000  H
  H374     1.0000 0.93596  0.82257  0.19121  Biso   1.000  H
  C244     1.0000 0.88621  0.77726  0.23762  Biso   1.000  C
  H375     1.0000 0.88402  0.69579  0.23440  Biso   1.000  H
  H376     1.0000 0.85500  0.71887  0.28521  Biso   1.000  H
  H377     1.0000 0.05308  0.85488  0.23849  Biso   1.000  H
  H378     1.0000 0.01732  0.85688  0.18709  Biso   1.000  H
  C245     1.0000 0.09592  0.84888  0.17017  Biso   1.000  C
  H379     1.0000 0.19581  0.76560  0.61600  Biso   1.000  H
  H380     1.0000 0.21889  0.71479  0.64498  Biso   1.000  H
  C246     1.0000 0.27728  0.76238  0.61381  Biso   1.000  C
  H381     1.0000 0.26181  0.82508  0.56347  Biso   1.000  H
  H382     1.0000 0.32259  0.80879  0.56398  Biso   1.000  H
  H383     1.0000 0.35490  0.76147  0.44690  Biso   1.000  H
  H384     1.0000 0.35690  0.81287  0.48270  Biso   1.000  H
  C247     1.0000 0.34886  0.82979  0.40406  Biso   1.000  C
  H385     1.0000 0.44690  0.85488  0.26149  Biso   1.000  H
  H386     1.0000 0.48270  0.85688  0.31289  Biso   1.000  H
  C248     1.0000 0.40406  0.84888  0.32981  Biso   1.000  C
  H387     1.0000 0.56347  0.76179  0.32510  Biso   1.000  H
  H388     1.0000 0.56398  0.82257  0.30881  Biso   1.000  H
  C249     1.0000 0.61381  0.77726  0.26236  Biso   1.000  C
  H389     1.0000 0.61600  0.69579  0.26558  Biso   1.000  H
  H390     1.0000 0.64498  0.71887  0.21481  Biso   1.000  H
  H391     1.0000 0.23821  0.82508  0.93647  Biso   1.000  H
  H392     1.0000 0.17739  0.80879  0.93596  Biso   1.000  H
  C250     1.0000 0.22274  0.76238  0.88621  Biso   1.000  C
  H393     1.0000 0.30421  0.76560  0.88402  Biso   1.000  H
  H394     1.0000 0.28109  0.71479  0.85500  Biso   1.000  H
  H395     1.0000 0.14508  0.76147  0.05308  Biso   1.000  H
  H396     1.0000 0.14312  0.81287  0.01732  Biso   1.000  H
  C251     1.0000 0.15112  0.82979  0.09592  Biso   1.000  C
  H397     1.0000 0.88402  0.80419  0.26558  Biso   1.000  H
  H398     1.0000 0.85500  0.78107  0.21481  Biso   1.000  H
  C252     1.0000 0.10797  0.81794  0.12733  Biso   1.000  C
  C253     1.0000 0.12733  0.89199  0.18206  Biso   1.000  C
  H399     1.0000 0.30421  0.73438  0.61600  Biso   1.000  H
  H400     1.0000 0.28109  0.78519  0.64498  Biso   1.000  H
  C254     1.0000 0.39201  0.81794  0.37265  Biso   1.000  C
  C255     1.0000 0.31792  0.87267  0.39201  Biso   1.000  C
  C256     1.0000 0.37265  0.89199  0.31792  Biso   1.000  C
  H401     1.0000 0.61600  0.80419  0.23440  Biso   1.000  H
  H402     1.0000 0.64498  0.78107  0.28521  Biso   1.000  H
  H403     1.0000 0.19581  0.73438  0.88402  Biso   1.000  H
  H404     1.0000 0.21889  0.78519  0.85500  Biso   1.000  H
  C257     1.0000 0.18206  0.87267  0.10797  Biso   1.000  C
  H405     1.0000 0.08669  0.78837  0.11920  Biso   1.000  H
  C258     1.0000 0.17017  0.90408  0.15112  Biso   1.000  C
  H406     1.0000 0.11920  0.91327  0.21159  Biso   1.000  H
  H407     1.0000 0.41329  0.78837  0.38078  Biso   1.000  H
  C259     1.0000 0.32981  0.90408  0.34886  Biso   1.000  C
  H408     1.0000 0.28839  0.88080  0.41329  Biso   1.000  H
  H409     1.0000 0.38078  0.91327  0.28839  Biso   1.000  H
  H410     1.0000 0.21159  0.88080  0.08669  Biso   1.000  H
  C260     1.0000 0.20354  0.95245  0.16106  Biso   1.000  C
  C261     1.0000 0.29644  0.95245  0.33892  Biso   1.000  C
  H411     1.0000 0.23849  0.94688  0.14508  Biso   1.000  H
  H412     1.0000 0.18709  0.98268  0.14312  Biso   1.000  H
  N35      1.0000 0.21061  0.96572  0.21634  Biso   1.000  N
  H413     1.0000 0.26149  0.94688  0.35490  Biso   1.000  H
  H414     1.0000 0.31289  0.98268  0.35690  Biso   1.000  H
  N36      1.0000 0.28941  0.96572  0.28364  Biso   1.000  N
  C262     1.0000 0.24999  0.92709  0.24999  Biso   1.000  C
  H415     1.0000 0.22109  0.93529  0.22879  Biso   1.000  H
  C263     1.0000 0.23853  0.01519  0.22223  Biso   1.000  C
  H416     1.0000 0.27889  0.93529  0.27119  Biso   1.000  H
  C264     1.0000 0.26146  0.01519  0.27775  Biso   1.000  C
  C265     1.0000 0.21438  0.89269  0.28321  Biso   1.000  C
  C266     1.0000 0.28560  0.89269  0.21681  Biso   1.000  C
  C267     1.0000 0.20511  0.06396  0.21367  Biso   1.000  C
  H417     1.0000 0.26821  0.01586  0.19651  Biso   1.000  H
  C268     1.0000 0.29491  0.06396  0.28631  Biso   1.000  C
  H418     1.0000 0.23181  0.01586  0.30351  Biso   1.000  H
  H419     1.0000 0.23499  0.86427  0.29911  Biso   1.000  H
  H420     1.0000 0.18682  0.87750  0.26098  Biso   1.000  H
  H421     1.0000 0.19828  0.91390  0.31101  Biso   1.000  H
  H422     1.0000 0.26499  0.86427  0.20091  Biso   1.000  H
  H423     1.0000 0.31320  0.87750  0.23900  Biso   1.000  H
  H424     1.0000 0.30170  0.91390  0.18901  Biso   1.000  H
  H425     1.0000 0.17488  0.06349  0.23821  Biso   1.000  H
  H426     1.0000 0.19121  0.06396  0.17739  Biso   1.000  H
  C269     1.0000 0.23762  0.11379  0.22274  Biso   1.000  C
  H427     1.0000 0.32510  0.06349  0.26181  Biso   1.000  H
  H428     1.0000 0.30881  0.06396  0.32259  Biso   1.000  H
  C270     1.0000 0.26236  0.11379  0.27728  Biso   1.000  C
  H429     1.0000 0.26558  0.11598  0.19581  Biso   1.000  H
  H430     1.0000 0.21481  0.14496  0.21889  Biso   1.000  H
  H431     1.0000 0.23440  0.11598  0.30421  Biso   1.000  H
  H432     1.0000 0.28521  0.14496  0.28109  Biso   1.000  H
  C271     1.0000 0.43205  0.35796  0.37732  Biso   1.000  C
  C272     1.0000 0.40112  0.34591  0.42020  Biso   1.000  C
  H433     1.0000 0.46158  0.33668  0.36919  Biso   1.000  H
  C273     1.0000 0.42020  0.40112  0.34591  Biso   1.000  C
  C274     1.0000 0.41109  0.29754  0.45353  Biso   1.000  C
  C275     1.0000 0.35796  0.37732  0.43205  Biso   1.000  C
  C276     1.0000 0.37732  0.43205  0.35796  Biso   1.000  C
  C277     1.0000 0.45353  0.41109  0.29754  Biso   1.000  C
  N37      1.0000 0.46633  0.28427  0.46060  Biso   1.000  N
  H434     1.0000 0.39511  0.30311  0.48848  Biso   1.000  H
  H435     1.0000 0.39311  0.26731  0.43708  Biso   1.000  H
  H436     1.0000 0.33668  0.36919  0.46158  Biso   1.000  H
  C278     1.0000 0.34591  0.42020  0.40112  Biso   1.000  C
  H437     1.0000 0.36919  0.46158  0.33668  Biso   1.000  H
  H438     1.0000 0.48848  0.39511  0.30311  Biso   1.000  H
  H439     1.0000 0.43708  0.39311  0.26731  Biso   1.000  H
  N38      1.0000 0.46060  0.46633  0.28427  Biso   1.000  N
  C279     1.0000 0.47222  0.23476  0.48852  Biso   1.000  C
  C280     1.0000 0.49998  0.32290  0.49998  Biso   1.000  C
  H440     1.0000 0.47878  0.31470  0.47108  Biso   1.000  H
  C281     1.0000 0.29754  0.45353  0.41109  Biso   1.000  C
  C282     1.0000 0.48852  0.47222  0.23476  Biso   1.000  C
  C283     1.0000 0.49998  0.49998  0.32290  Biso   1.000  C
  H441     1.0000 0.47108  0.47878  0.31470  Biso   1.000  H
  H442     1.0000 0.44650  0.23409  0.51820  Biso   1.000  H
  C284     1.0000 0.46366  0.18599  0.45510  Biso   1.000  C
  C285     1.0000 0.52778  0.23476  0.51145  Biso   1.000  C
  N39      1.0000 0.53367  0.28427  0.53940  Biso   1.000  N
  C286     1.0000 0.53320  0.35730  0.46441  Biso   1.000  C
  C287     1.0000 0.46680  0.35730  0.53559  Biso   1.000  C
  H443     1.0000 0.52118  0.31470  0.52888  Biso   1.000  H
  H444     1.0000 0.30311  0.48848  0.39511  Biso   1.000  H
  H445     1.0000 0.26731  0.43708  0.39311  Biso   1.000  H
  N40      1.0000 0.28427  0.46060  0.46633  Biso   1.000  N
  H446     1.0000 0.51820  0.44650  0.23409  Biso   1.000  H
  C288     1.0000 0.45510  0.46366  0.18599  Biso   1.000  C
  C289     1.0000 0.51145  0.52778  0.23476  Biso   1.000  C
  N41      1.0000 0.53940  0.53367  0.28427  Biso   1.000  N
  C290     1.0000 0.46441  0.53320  0.35730  Biso   1.000  C
  C291     1.0000 0.53559  0.46680  0.35730  Biso   1.000  C
  H447     1.0000 0.52888  0.52118  0.31470  Biso   1.000  H
  H448     1.0000 0.48820  0.18650  0.42491  Biso   1.000  H
  H449     1.0000 0.42738  0.18599  0.44120  Biso   1.000  H
  C292     1.0000 0.47273  0.13620  0.48761  Biso   1.000  C
  H450     1.0000 0.55350  0.23409  0.48180  Biso   1.000  H
  C293     1.0000 0.53630  0.18599  0.54490  Biso   1.000  C
  C294     1.0000 0.58891  0.29754  0.54647  Biso   1.000  C
  H451     1.0000 0.54910  0.38568  0.48498  Biso   1.000  H
  H452     1.0000 0.51097  0.37249  0.43681  Biso   1.000  H
  H453     1.0000 0.56100  0.33609  0.44831  Biso   1.000  H
  H454     1.0000 0.45090  0.38568  0.51498  Biso   1.000  H
  H455     1.0000 0.48899  0.37249  0.56319  Biso   1.000  H
  H456     1.0000 0.43900  0.33609  0.55169  Biso   1.000  H
  C295     1.0000 0.23476  0.48852  0.47222  Biso   1.000  C
  C296     1.0000 0.32290  0.49998  0.49998  Biso   1.000  C
  H457     1.0000 0.31470  0.47108  0.47878  Biso   1.000  H
  H458     1.0000 0.42491  0.48820  0.18650  Biso   1.000  H
  H459     1.0000 0.44120  0.42738  0.18599  Biso   1.000  H
  C297     1.0000 0.48761  0.47273  0.13620  Biso   1.000  C
  H460     1.0000 0.48180  0.55350  0.23409  Biso   1.000  H
  C298     1.0000 0.54490  0.53630  0.18599  Biso   1.000  C
  C299     1.0000 0.54647  0.58891  0.29754  Biso   1.000  C
  H461     1.0000 0.48498  0.54910  0.38568  Biso   1.000  H
  H462     1.0000 0.43681  0.51097  0.37249  Biso   1.000  H
  H463     1.0000 0.44831  0.56100  0.33609  Biso   1.000  H
  H464     1.0000 0.51498  0.45090  0.38568  Biso   1.000  H
  H465     1.0000 0.56319  0.48899  0.37249  Biso   1.000  H
  H466     1.0000 0.55169  0.43900  0.33609  Biso   1.000  H
  H467     1.0000 0.44580  0.13401  0.51561  Biso   1.000  H
  H468     1.0000 0.46888  0.10499  0.46480  Biso   1.000  H
  C300     1.0000 0.52727  0.13620  0.51239  Biso   1.000  C
  H469     1.0000 0.51180  0.18650  0.57509  Biso   1.000  H
  H470     1.0000 0.57258  0.18599  0.55880  Biso   1.000  H
  H471     1.0000 0.60489  0.30311  0.51148  Biso   1.000  H
  H472     1.0000 0.60689  0.26731  0.56288  Biso   1.000  H
  C301     1.0000 0.59888  0.34591  0.57980  Biso   1.000  C
  H473     1.0000 0.23409  0.51820  0.44650  Biso   1.000  H
  C302     1.0000 0.18599  0.45510  0.46366  Biso   1.000  C
  C303     1.0000 0.23476  0.51145  0.52778  Biso   1.000  C
  N42      1.0000 0.28427  0.53940  0.53367  Biso   1.000  N
  C304     1.0000 0.35730  0.46441  0.53320  Biso   1.000  C
  C305     1.0000 0.35730  0.53559  0.46680  Biso   1.000  C
  H474     1.0000 0.31470  0.52888  0.52118  Biso   1.000  H
  H475     1.0000 0.51561  0.44580  0.13401  Biso   1.000  H
  H476     1.0000 0.46480  0.46888  0.10499  Biso   1.000  H
  C306     1.0000 0.51239  0.52727  0.13620  Biso   1.000  C
  H477     1.0000 0.57509  0.51180  0.18650  Biso   1.000  H
  H478     1.0000 0.55880  0.57258  0.18599  Biso   1.000  H
  H479     1.0000 0.51148  0.60489  0.30311  Biso   1.000  H
  H480     1.0000 0.56288  0.60689  0.26731  Biso   1.000  H
  C307     1.0000 0.57980  0.59888  0.34591  Biso   1.000  C
  H481     1.0000 0.55420  0.13401  0.48439  Biso   1.000  H
  H482     1.0000 0.53108  0.10499  0.53520  Biso   1.000  H
  C308     1.0000 0.56795  0.35796  0.62264  Biso   1.000  C
  C309     1.0000 0.64200  0.37732  0.56795  Biso   1.000  C
  H483     1.0000 0.18650  0.42491  0.48820  Biso   1.000  H
  H484     1.0000 0.18599  0.44120  0.42738  Biso   1.000  H
  C310     1.0000 0.13620  0.48761  0.47273  Biso   1.000  C
  H485     1.0000 0.23409  0.48180  0.55350  Biso   1.000  H
  C311     1.0000 0.18599  0.54490  0.53630  Biso   1.000  C
  C312     1.0000 0.29754  0.54647  0.58891  Biso   1.000  C
  H486     1.0000 0.38568  0.48498  0.54910  Biso   1.000  H
  H487     1.0000 0.37249  0.43681  0.51097  Biso   1.000  H
  H488     1.0000 0.33609  0.44831  0.56100  Biso   1.000  H
  H489     1.0000 0.38568  0.51498  0.45090  Biso   1.000  H
  H490     1.0000 0.37249  0.56319  0.48899  Biso   1.000  H
  H491     1.0000 0.33609  0.55169  0.43900  Biso   1.000  H
  H492     1.0000 0.48439  0.55420  0.13401  Biso   1.000  H
  H493     1.0000 0.53520  0.53108  0.10499  Biso   1.000  H
  C313     1.0000 0.62264  0.56795  0.35796  Biso   1.000  C
  C314     1.0000 0.56795  0.64200  0.37732  Biso   1.000  C
  H494     1.0000 0.53838  0.33668  0.63081  Biso   1.000  H
  C315     1.0000 0.57980  0.40112  0.65405  Biso   1.000  C
  H495     1.0000 0.66328  0.36919  0.53838  Biso   1.000  H
  C316     1.0000 0.65405  0.42020  0.59888  Biso   1.000  C
  H496     1.0000 0.13401  0.51561  0.44580  Biso   1.000  H
  H497     1.0000 0.10499  0.46480  0.46888  Biso   1.000  H
  C317     1.0000 0.13620  0.51239  0.52727  Biso   1.000  C
  H498     1.0000 0.18650  0.57509  0.51180  Biso   1.000  H
  H499     1.0000 0.18599  0.55880  0.57258  Biso   1.000  H
  H500     1.0000 0.30311  0.51148  0.60489  Biso   1.000  H
  H501     1.0000 0.26731  0.56288  0.60689  Biso   1.000  H
  C318     1.0000 0.34591  0.57980  0.59888  Biso   1.000  C
  C319     1.0000 0.65405  0.57980  0.40112  Biso   1.000  C
  H502     1.0000 0.63081  0.53838  0.33668  Biso   1.000  H
  H503     1.0000 0.53838  0.66328  0.36919  Biso   1.000  H
  C320     1.0000 0.59888  0.65405  0.42020  Biso   1.000  C
  C321     1.0000 0.62264  0.43205  0.64200  Biso   1.000  C
  C322     1.0000 0.54647  0.41109  0.70246  Biso   1.000  C
  C323     1.0000 0.70246  0.45353  0.58891  Biso   1.000  C
  H504     1.0000 0.13401  0.48439  0.55420  Biso   1.000  H
  H505     1.0000 0.10499  0.53520  0.53108  Biso   1.000  H
  C324     1.0000 0.35796  0.62264  0.56795  Biso   1.000  C
  C325     1.0000 0.37732  0.56795  0.64200  Biso   1.000  C
  C326     1.0000 0.70246  0.54647  0.41109  Biso   1.000  C
  C327     1.0000 0.64200  0.62264  0.43205  Biso   1.000  C
  C328     1.0000 0.58891  0.70246  0.45353  Biso   1.000  C
  H506     1.0000 0.63081  0.46158  0.66328  Biso   1.000  H
  H507     1.0000 0.51148  0.39511  0.69689  Biso   1.000  H
  H508     1.0000 0.56288  0.39311  0.73269  Biso   1.000  H
  N43      1.0000 0.53940  0.46633  0.71573  Biso   1.000  N
  H509     1.0000 0.69689  0.48848  0.60489  Biso   1.000  H
  H510     1.0000 0.73269  0.43708  0.60689  Biso   1.000  H
  N44      1.0000 0.71573  0.46060  0.53367  Biso   1.000  N
  H511     1.0000 0.33668  0.63081  0.53838  Biso   1.000  H
  C329     1.0000 0.40112  0.65405  0.57980  Biso   1.000  C
  H512     1.0000 0.36919  0.53838  0.66328  Biso   1.000  H
  C330     1.0000 0.42020  0.59888  0.65405  Biso   1.000  C
  N45      1.0000 0.71573  0.53940  0.46633  Biso   1.000  N
  H513     1.0000 0.69689  0.51148  0.39511  Biso   1.000  H
  H514     1.0000 0.73269  0.56288  0.39311  Biso   1.000  H
  H515     1.0000 0.66328  0.63081  0.46158  Biso   1.000  H
  H516     1.0000 0.60489  0.69689  0.48848  Biso   1.000  H
  H517     1.0000 0.60689  0.73269  0.43708  Biso   1.000  H
  N46      1.0000 0.53367  0.71573  0.46060  Biso   1.000  N
  C331     1.0000 0.51145  0.47222  0.76520  Biso   1.000  C
  C332     1.0000 0.49998  0.49998  0.67710  Biso   1.000  C
  H518     1.0000 0.52888  0.47878  0.68530  Biso   1.000  H
  C333     1.0000 0.76520  0.48852  0.52778  Biso   1.000  C
  C334     1.0000 0.67710  0.49998  0.49998  Biso   1.000  C
  H519     1.0000 0.68530  0.47108  0.52118  Biso   1.000  H
  C335     1.0000 0.43205  0.64200  0.62264  Biso   1.000  C
  C336     1.0000 0.41109  0.70246  0.54647  Biso   1.000  C
  C337     1.0000 0.45353  0.58891  0.70246  Biso   1.000  C
  C338     1.0000 0.76520  0.51145  0.47222  Biso   1.000  C
  H520     1.0000 0.68530  0.52888  0.47878  Biso   1.000  H
  C339     1.0000 0.49998  0.67710  0.49998  Biso   1.000  C
  C340     1.0000 0.52778  0.76520  0.48852  Biso   1.000  C
  H521     1.0000 0.52118  0.68530  0.47108  Biso   1.000  H
  H522     1.0000 0.48180  0.44650  0.76587  Biso   1.000  H
  C341     1.0000 0.54490  0.46366  0.81397  Biso   1.000  C
  C342     1.0000 0.48852  0.52778  0.76520  Biso   1.000  C
  N47      1.0000 0.46060  0.53367  0.71573  Biso   1.000  N
  C343     1.0000 0.53559  0.53320  0.64270  Biso   1.000  C
  C344     1.0000 0.46441  0.46680  0.64270  Biso   1.000  C
  H523     1.0000 0.47108  0.52118  0.68530  Biso   1.000  H
  H524     1.0000 0.76587  0.51820  0.55350  Biso   1.000  H
  C345     1.0000 0.81397  0.45510  0.53630  Biso   1.000  C
  C346     1.0000 0.64270  0.46441  0.46680  Biso   1.000  C
  C347     1.0000 0.64270  0.53559  0.53320  Biso   1.000  C
  H525     1.0000 0.46158  0.66328  0.63081  Biso   1.000  H
  H526     1.0000 0.39511  0.69689  0.51148  Biso   1.000  H
  H527     1.0000 0.39311  0.73269  0.56288  Biso   1.000  H
  N48      1.0000 0.46633  0.71573  0.53940  Biso   1.000  N
  H528     1.0000 0.48848  0.60489  0.69689  Biso   1.000  H
  H529     1.0000 0.43708  0.60689  0.73269  Biso   1.000  H
  H530     1.0000 0.76587  0.48180  0.44650  Biso   1.000  H
  C348     1.0000 0.81397  0.54490  0.46366  Biso   1.000  C
  H531     1.0000 0.47878  0.68530  0.52888  Biso   1.000  H
  C349     1.0000 0.53320  0.64270  0.53559  Biso   1.000  C
  C350     1.0000 0.46680  0.64270  0.46441  Biso   1.000  C
  C351     1.0000 0.47222  0.76520  0.51145  Biso   1.000  C
  H532     1.0000 0.55350  0.76587  0.51820  Biso   1.000  H
  C352     1.0000 0.53630  0.81397  0.45510  Biso   1.000  C
  H533     1.0000 0.57509  0.48820  0.81350  Biso   1.000  H
  H534     1.0000 0.55880  0.42738  0.81397  Biso   1.000  H
  C353     1.0000 0.51239  0.47273  0.86380  Biso   1.000  C
  H535     1.0000 0.51820  0.55350  0.76587  Biso   1.000  H
  C354     1.0000 0.45510  0.53630  0.81397  Biso   1.000  C
  H536     1.0000 0.51498  0.54910  0.61428  Biso   1.000  H
  H537     1.0000 0.56319  0.51097  0.62747  Biso   1.000  H
  H538     1.0000 0.55169  0.56100  0.66391  Biso   1.000  H
  H539     1.0000 0.48498  0.45090  0.61428  Biso   1.000  H
  H540     1.0000 0.43681  0.48899  0.62747  Biso   1.000  H
  H541     1.0000 0.44831  0.43900  0.66391  Biso   1.000  H
  H542     1.0000 0.81350  0.42491  0.51180  Biso   1.000  H
  H543     1.0000 0.81397  0.44120  0.57258  Biso   1.000  H
  C355     1.0000 0.86380  0.48761  0.52727  Biso   1.000  C
  H544     1.0000 0.61428  0.48498  0.45090  Biso   1.000  H
  H545     1.0000 0.62747  0.43681  0.48899  Biso   1.000  H
  H546     1.0000 0.66391  0.44831  0.43900  Biso   1.000  H
  H547     1.0000 0.61428  0.51498  0.54910  Biso   1.000  H
  H548     1.0000 0.62747  0.56319  0.51097  Biso   1.000  H
  H549     1.0000 0.66391  0.55169  0.56100  Biso   1.000  H
  C356     1.0000 0.86380  0.51239  0.47273  Biso   1.000  C
  H550     1.0000 0.81350  0.57509  0.48820  Biso   1.000  H
  H551     1.0000 0.81397  0.55880  0.42738  Biso   1.000  H
  H552     1.0000 0.54910  0.61428  0.51498  Biso   1.000  H
  H553     1.0000 0.51097  0.62747  0.56319  Biso   1.000  H
  H554     1.0000 0.56100  0.66391  0.55169  Biso   1.000  H
  H555     1.0000 0.45090  0.61428  0.48498  Biso   1.000  H
  H556     1.0000 0.48899  0.62747  0.43681  Biso   1.000  H
  H557     1.0000 0.43900  0.66391  0.44831  Biso   1.000  H
  H558     1.0000 0.44650  0.76587  0.48180  Biso   1.000  H
  C357     1.0000 0.46366  0.81397  0.54490  Biso   1.000  C
  H559     1.0000 0.51180  0.81350  0.42491  Biso   1.000  H
  H560     1.0000 0.57258  0.81397  0.44120  Biso   1.000  H
  C358     1.0000 0.52727  0.86380  0.48761  Biso   1.000  C
  H561     1.0000 0.48439  0.44580  0.86599  Biso   1.000  H
  H562     1.0000 0.53520  0.46888  0.89497  Biso   1.000  H
  C359     1.0000 0.48761  0.52727  0.86380  Biso   1.000  C
  H563     1.0000 0.42491  0.51180  0.81350  Biso   1.000  H
  H564     1.0000 0.44120  0.57258  0.81397  Biso   1.000  H
  H565     1.0000 0.86599  0.51561  0.55420  Biso   1.000  H
  H566     1.0000 0.89497  0.46480  0.53108  Biso   1.000  H
  H567     1.0000 0.86599  0.48439  0.44580  Biso   1.000  H
  H568     1.0000 0.89497  0.53520  0.46888  Biso   1.000  H
  H569     1.0000 0.48820  0.81350  0.57509  Biso   1.000  H
  H570     1.0000 0.42738  0.81397  0.55880  Biso   1.000  H
  C360     1.0000 0.47273  0.86380  0.51239  Biso   1.000  C
  H571     1.0000 0.55420  0.86599  0.51561  Biso   1.000  H
  H572     1.0000 0.53108  0.89497  0.46480  Biso   1.000  H
  H573     1.0000 0.51561  0.55420  0.86599  Biso   1.000  H
  H574     1.0000 0.46480  0.53108  0.89497  Biso   1.000  H
  H575     1.0000 0.44580  0.86599  0.48439  Biso   1.000  H
  H576     1.0000 0.46888  0.89497  0.53520  Biso   1.000  H
  C361     1.0000 0.40112  0.15407  0.07978  Biso   1.000  C
  C362     1.0000 0.42020  0.09887  0.15407  Biso   1.000  C
  H577     1.0000 0.46158  0.16330  0.13079  Biso   1.000  H
  C363     1.0000 0.35796  0.12266  0.06793  Biso   1.000  C
  C364     1.0000 0.41109  0.20248  0.04645  Biso   1.000  C
  C365     1.0000 0.43205  0.14198  0.12266  Biso   1.000  C
  C366     1.0000 0.41109  0.20244  0.04645  Biso   1.000  C
  C367     1.0000 0.37732  0.06793  0.14198  Biso   1.000  C
  C368     1.0000 0.45353  0.08893  0.20248  Biso   1.000  C
  C369     1.0000 0.45353  0.08893  0.20244  Biso   1.000  C
  C370     1.0000 0.45353  0.08889  0.20248  Biso   1.000  C
  C371     1.0000 0.45353  0.08889  0.20244  Biso   1.000  C
  C372     1.0000 0.34591  0.07978  0.09887  Biso   1.000  C
  H578     1.0000 0.33668  0.13079  0.03840  Biso   1.000  H
  H579     1.0000 0.33668  0.13079  0.03836  Biso   1.000  H
  N49      1.0000 0.46633  0.21575  0.03938  Biso   1.000  N
  H580     1.0000 0.39511  0.19687  0.01150  Biso   1.000  H
  H581     1.0000 0.39311  0.23268  0.06290  Biso   1.000  H
  N50      1.0000 0.46633  0.21571  0.03938  Biso   1.000  N
  H582     1.0000 0.39511  0.19687  0.01146  Biso   1.000  H
  H583     1.0000 0.39311  0.23268  0.06286  Biso   1.000  H
  H584     1.0000 0.36919  0.03840  0.16330  Biso   1.000  H
  H585     1.0000 0.36919  0.03836  0.16330  Biso   1.000  H
  N51      1.0000 0.46060  0.03365  0.21575  Biso   1.000  N
  H586     1.0000 0.48848  0.10491  0.19687  Biso   1.000  H
  N52      1.0000 0.46060  0.03365  0.21571  Biso   1.000  N
  H587     1.0000 0.48848  0.10487  0.19687  Biso   1.000  H
  H588     1.0000 0.43708  0.10688  0.23268  Biso   1.000  H
  C373     1.0000 0.29754  0.04645  0.08893  Biso   1.000  C
  C374     1.0000 0.29754  0.04645  0.08889  Biso   1.000  C
  C375     1.0000 0.47222  0.26522  0.01146  Biso   1.000  C
  C376     1.0000 0.49998  0.17708  0.00000  Biso   1.000  C
  H589     1.0000 0.47878  0.18528  0.02890  Biso   1.000  H
  C377     1.0000 0.48852  0.02776  0.26522  Biso   1.000  C
  C378     1.0000 0.49998  0.00000  0.17708  Biso   1.000  C
  H590     1.0000 0.47108  0.02120  0.18528  Biso   1.000  H
  N53      1.0000 0.28427  0.03938  0.03365  Biso   1.000  N
  H591     1.0000 0.30311  0.01150  0.10491  Biso   1.000  H
  H592     1.0000 0.30311  0.01150  0.10487  Biso   1.000  H
  H593     1.0000 0.26731  0.06290  0.10688  Biso   1.000  H
  H594     1.0000 0.30311  0.01146  0.10491  Biso   1.000  H
  H595     1.0000 0.30311  0.01146  0.10487  Biso   1.000  H
  H596     1.0000 0.26731  0.06286  0.10688  Biso   1.000  H
  H597     1.0000 0.44650  0.26589  0.98178  Biso   1.000  H
  C379     1.0000 0.52778  0.26522  0.98854  Biso   1.000  C
  C380     1.0000 0.52778  0.26522  0.98850  Biso   1.000  C
  C381     1.0000 0.46366  0.31395  0.04488  Biso   1.000  C
  N54      1.0000 0.53367  0.21575  0.96062  Biso   1.000  N
  C382     1.0000 0.46680  0.14268  0.96435  Biso   1.000  C
  N55      1.0000 0.53367  0.21575  0.96058  Biso   1.000  N
  C383     1.0000 0.46680  0.14268  0.96439  Biso   1.000  C
  N56      1.0000 0.53367  0.21571  0.96062  Biso   1.000  N
  N57      1.0000 0.53367  0.21571  0.96058  Biso   1.000  N
  H598     1.0000 0.52118  0.18528  0.97106  Biso   1.000  H
  C384     1.0000 0.53320  0.14268  0.03561  Biso   1.000  C
  C385     1.0000 0.53320  0.14268  0.03557  Biso   1.000  C
  C386     1.0000 0.51145  0.97220  0.26522  Biso   1.000  C
  C387     1.0000 0.45510  0.03632  0.31395  Biso   1.000  C
  H599     1.0000 0.51820  0.05348  0.26589  Biso   1.000  H
  C388     1.0000 0.46441  0.96678  0.14268  Biso   1.000  C
  N58      1.0000 0.53940  0.96631  0.21575  Biso   1.000  N
  N59      1.0000 0.53940  0.96631  0.21571  Biso   1.000  N
  H600     1.0000 0.52888  0.97880  0.18528  Biso   1.000  H
  C389     1.0000 0.53559  0.03322  0.14268  Biso   1.000  C
  C390     1.0000 0.53559  0.03318  0.14268  Biso   1.000  C
  C391     1.0000 0.23476  0.01146  0.02776  Biso   1.000  C
  C392     1.0000 0.32290  0.00000  0.00000  Biso   1.000  C
  H601     1.0000 0.31470  0.02890  0.02120  Biso   1.000  H
  C393     1.0000 0.53630  0.31395  0.95508  Biso   1.000  C
  H602     1.0000 0.55350  0.26589  0.01822  Biso   1.000  H
  H603     1.0000 0.55350  0.26589  0.01818  Biso   1.000  H
  H604     1.0000 0.48820  0.31348  0.07511  Biso   1.000  H
  H605     1.0000 0.42738  0.31399  0.05882  Biso   1.000  H
  C394     1.0000 0.47273  0.36378  0.01237  Biso   1.000  C
  H606     1.0000 0.48820  0.31348  0.07507  Biso   1.000  H
  C395     1.0000 0.58891  0.20248  0.95351  Biso   1.000  C
  C396     1.0000 0.58891  0.20244  0.95351  Biso   1.000  C
  H607     1.0000 0.45090  0.11430  0.98500  Biso   1.000  H
  H608     1.0000 0.45090  0.11430  0.98496  Biso   1.000  H
  H609     1.0000 0.48899  0.12749  0.93679  Biso   1.000  H
  H610     1.0000 0.43900  0.16389  0.94829  Biso   1.000  H
  H611     1.0000 0.54910  0.11430  0.01500  Biso   1.000  H
  H612     1.0000 0.51097  0.12749  0.06321  Biso   1.000  H
  H613     1.0000 0.51097  0.12749  0.06317  Biso   1.000  H
  H614     1.0000 0.56100  0.16389  0.05171  Biso   1.000  H
  H615     1.0000 0.48180  0.94644  0.26589  Biso   1.000  H
  C397     1.0000 0.54490  0.96368  0.31395  Biso   1.000  C
  H616     1.0000 0.48180  0.94648  0.26589  Biso   1.000  H
  C398     1.0000 0.54490  0.96364  0.31395  Biso   1.000  C
  H617     1.0000 0.42491  0.01182  0.31348  Biso   1.000  H
  H618     1.0000 0.44120  0.07260  0.31399  Biso   1.000  H
  C399     1.0000 0.48761  0.02729  0.36378  Biso   1.000  C
  H619     1.0000 0.42491  0.01178  0.31348  Biso   1.000  H
  C400     1.0000 0.48761  0.02725  0.36378  Biso   1.000  C
  H620     1.0000 0.48498  0.95088  0.11430  Biso   1.000  H
  H621     1.0000 0.43681  0.98901  0.12749  Biso   1.000  H
  H622     1.0000 0.43681  0.98897  0.12749  Biso   1.000  H
  H623     1.0000 0.44831  0.93898  0.16389  Biso   1.000  H
  C401     1.0000 0.54647  0.91107  0.20248  Biso   1.000  C
  C402     1.0000 0.54647  0.91107  0.20244  Biso   1.000  C
  H624     1.0000 0.56319  0.01099  0.12749  Biso   1.000  H
  H625     1.0000 0.51498  0.04908  0.11430  Biso   1.000  H
  H626     1.0000 0.55169  0.06098  0.16389  Biso   1.000  H
  C403     1.0000 0.23476  0.98854  0.97220  Biso   1.000  C
  C404     1.0000 0.23476  0.98850  0.97220  Biso   1.000  C
  H627     1.0000 0.23409  0.98178  0.05348  Biso   1.000  H
  C405     1.0000 0.18599  0.04488  0.03632  Biso   1.000  C
  N60      1.0000 0.28427  0.96062  0.96631  Biso   1.000  N
  N61      1.0000 0.28427  0.96058  0.96631  Biso   1.000  N
  H628     1.0000 0.31470  0.97106  0.97880  Biso   1.000  H
  C406     1.0000 0.35730  0.96435  0.03322  Biso   1.000  C
  C407     1.0000 0.35730  0.96435  0.03318  Biso   1.000  C
  C408     1.0000 0.35730  0.96439  0.03322  Biso   1.000  C
  C409     1.0000 0.35730  0.96439  0.03318  Biso   1.000  C
  C410     1.0000 0.35730  0.03561  0.96678  Biso   1.000  C
  C411     1.0000 0.35730  0.03557  0.96678  Biso   1.000  C
  H629     1.0000 0.57258  0.31399  0.94118  Biso   1.000  H
  C412     1.0000 0.52727  0.36378  0.98763  Biso   1.000  C
  H630     1.0000 0.51180  0.31348  0.92489  Biso   1.000  H
  C413     1.0000 0.52727  0.36378  0.98759  Biso   1.000  C
  H631     1.0000 0.44580  0.36597  0.98441  Biso   1.000  H
  H632     1.0000 0.44580  0.36597  0.98437  Biso   1.000  H
  H633     1.0000 0.46888  0.39503  0.03518  Biso   1.000  H
  C414     1.0000 0.59888  0.15407  0.92018  Biso   1.000  C
  H634     1.0000 0.60489  0.19687  0.98850  Biso   1.000  H
  H635     1.0000 0.60689  0.23268  0.93710  Biso   1.000  H
  H636     1.0000 0.57509  0.98818  0.31348  Biso   1.000  H
  H637     1.0000 0.55880  0.92736  0.31399  Biso   1.000  H
  C415     1.0000 0.51239  0.97267  0.36378  Biso   1.000  C
  C416     1.0000 0.51239  0.97271  0.36378  Biso   1.000  C
  H638     1.0000 0.51561  0.05418  0.36597  Biso   1.000  H
  H639     1.0000 0.46480  0.03110  0.39503  Biso   1.000  H
  C417     1.0000 0.57980  0.90110  0.15407  Biso   1.000  C
  H640     1.0000 0.51148  0.89509  0.19687  Biso   1.000  H
  H641     1.0000 0.56288  0.89305  0.23268  Biso   1.000  H
  H642     1.0000 0.56288  0.89309  0.23268  Biso   1.000  H
  C418     1.0000 0.18599  0.95508  0.96368  Biso   1.000  C
  C419     1.0000 0.18599  0.95508  0.96364  Biso   1.000  C
  H643     1.0000 0.23409  0.01822  0.94644  Biso   1.000  H
  H644     1.0000 0.23409  0.01822  0.94648  Biso   1.000  H
  H645     1.0000 0.23409  0.01818  0.94644  Biso   1.000  H
  H646     1.0000 0.23409  0.01818  0.94648  Biso   1.000  H
  H647     1.0000 0.18650  0.07511  0.01182  Biso   1.000  H
  H648     1.0000 0.18599  0.05882  0.07260  Biso   1.000  H
  C420     1.0000 0.13620  0.01237  0.02729  Biso   1.000  C
  H649     1.0000 0.18650  0.07511  0.01178  Biso   1.000  H
  C421     1.0000 0.13620  0.01237  0.02725  Biso   1.000  C
  H650     1.0000 0.18650  0.07507  0.01182  Biso   1.000  H
  H651     1.0000 0.18650  0.07507  0.01178  Biso   1.000  H
  C422     1.0000 0.29754  0.95351  0.91107  Biso   1.000  C
  H652     1.0000 0.38568  0.98500  0.04908  Biso   1.000  H
  H653     1.0000 0.37249  0.93679  0.01099  Biso   1.000  H
  H654     1.0000 0.38568  0.98496  0.04908  Biso   1.000  H
  H655     1.0000 0.33609  0.94829  0.06098  Biso   1.000  H
  H656     1.0000 0.38568  0.01500  0.95088  Biso   1.000  H
  H657     1.0000 0.37249  0.06321  0.98901  Biso   1.000  H
  H658     1.0000 0.37249  0.06321  0.98897  Biso   1.000  H
  H659     1.0000 0.37249  0.06317  0.98901  Biso   1.000  H
  H660     1.0000 0.37249  0.06317  0.98897  Biso   1.000  H
  H661     1.0000 0.33609  0.05171  0.93898  Biso   1.000  H
  H662     1.0000 0.53108  0.39503  0.96482  Biso   1.000  H
  H663     1.0000 0.53108  0.39503  0.96478  Biso   1.000  H
  H664     1.0000 0.55420  0.36597  0.01559  Biso   1.000  H
  C423     1.0000 0.64200  0.12266  0.93204  Biso   1.000  C
  C424     1.0000 0.56795  0.14198  0.87730  Biso   1.000  C
  H665     1.0000 0.48439  0.94578  0.36597  Biso   1.000  H
  H666     1.0000 0.53520  0.96886  0.39503  Biso   1.000  H
  C425     1.0000 0.62264  0.93204  0.14198  Biso   1.000  C
  C426     1.0000 0.56795  0.85798  0.12266  Biso   1.000  C
  H667     1.0000 0.18599  0.94118  0.92736  Biso   1.000  H
  C427     1.0000 0.13620  0.98763  0.97267  Biso   1.000  C
  C428     1.0000 0.13620  0.98763  0.97271  Biso   1.000  C
  H668     1.0000 0.18650  0.92489  0.98818  Biso   1.000  H
  C429     1.0000 0.13620  0.98759  0.97267  Biso   1.000  C
  C430     1.0000 0.13620  0.98759  0.97271  Biso   1.000  C
  H669     1.0000 0.13401  0.98441  0.05418  Biso   1.000  H
  H670     1.0000 0.13401  0.98437  0.05418  Biso   1.000  H
  H671     1.0000 0.10499  0.03518  0.03110  Biso   1.000  H
  C431     1.0000 0.34591  0.92018  0.90110  Biso   1.000  C
  H672     1.0000 0.30311  0.98850  0.89509  Biso   1.000  H
  H673     1.0000 0.26731  0.93710  0.89305  Biso   1.000  H
  H674     1.0000 0.26731  0.93710  0.89309  Biso   1.000  H
  C432     1.0000 0.57980  0.09887  0.84589  Biso   1.000  C
  H675     1.0000 0.53838  0.16330  0.86917  Biso   1.000  H
  H676     1.0000 0.66328  0.13079  0.96160  Biso   1.000  H
  C433     1.0000 0.65405  0.07978  0.90110  Biso   1.000  C
  C434     1.0000 0.65405  0.92018  0.09887  Biso   1.000  C
  H677     1.0000 0.63081  0.96160  0.16330  Biso   1.000  H
  H678     1.0000 0.53838  0.83666  0.13079  Biso   1.000  H
  C435     1.0000 0.59888  0.84589  0.07978  Biso   1.000  C
  H679     1.0000 0.10499  0.96482  0.96886  Biso   1.000  H
  H680     1.0000 0.10499  0.96478  0.96886  Biso   1.000  H
  H681     1.0000 0.13401  0.01559  0.94578  Biso   1.000  H
  C436     1.0000 0.37732  0.93204  0.85798  Biso   1.000  C
  C437     1.0000 0.35796  0.87730  0.93204  Biso   1.000  C
  C438     1.0000 0.54647  0.08893  0.79752  Biso   1.000  C
  C439     1.0000 0.54647  0.08889  0.79752  Biso   1.000  C
  C440     1.0000 0.62264  0.06793  0.85798  Biso   1.000  C
  C441     1.0000 0.70246  0.04645  0.91107  Biso   1.000  C
  C442     1.0000 0.70246  0.95351  0.08893  Biso   1.000  C
  C443     1.0000 0.70246  0.95351  0.08889  Biso   1.000  C
  C444     1.0000 0.64200  0.87730  0.06793  Biso   1.000  C
  C445     1.0000 0.58891  0.79752  0.04645  Biso   1.000  C
  C446     1.0000 0.40112  0.84589  0.92018  Biso   1.000  C
  H682     1.0000 0.33668  0.86917  0.96160  Biso   1.000  H
  H683     1.0000 0.36919  0.96160  0.83666  Biso   1.000  H
  C447     1.0000 0.42020  0.90110  0.84589  Biso   1.000  C
  N62      1.0000 0.53940  0.03365  0.78425  Biso   1.000  N
  H684     1.0000 0.51148  0.10491  0.80309  Biso   1.000  H
  H685     1.0000 0.51148  0.10487  0.80309  Biso   1.000  H
  H686     1.0000 0.56288  0.10688  0.76725  Biso   1.000  H
  H687     1.0000 0.56288  0.10688  0.76729  Biso   1.000  H
  H688     1.0000 0.63081  0.03840  0.83666  Biso   1.000  H
  H689     1.0000 0.63081  0.03836  0.83666  Biso   1.000  H
  H690     1.0000 0.69689  0.01150  0.89509  Biso   1.000  H
  H691     1.0000 0.73269  0.06290  0.89305  Biso   1.000  H
  N63      1.0000 0.71573  0.03938  0.96631  Biso   1.000  N
  H692     1.0000 0.73269  0.06290  0.89309  Biso   1.000  H
  H693     1.0000 0.69689  0.01146  0.89509  Biso   1.000  H
  H694     1.0000 0.73269  0.06286  0.89305  Biso   1.000  H
  H695     1.0000 0.73269  0.06286  0.89309  Biso   1.000  H
  H696     1.0000 0.66328  0.86917  0.03840  Biso   1.000  H
  H697     1.0000 0.66328  0.86917  0.03836  Biso   1.000  H
  H698     1.0000 0.69689  0.98850  0.10491  Biso   1.000  H
  N64      1.0000 0.71573  0.96062  0.03365  Biso   1.000  N
  H699     1.0000 0.69689  0.98850  0.10487  Biso   1.000  H
  N65      1.0000 0.71573  0.96058  0.03365  Biso   1.000  N
  H700     1.0000 0.73269  0.93710  0.10688  Biso   1.000  H
  N66      1.0000 0.53367  0.78425  0.03938  Biso   1.000  N
  H701     1.0000 0.60489  0.80309  0.01150  Biso   1.000  H
  H702     1.0000 0.60689  0.76725  0.06290  Biso   1.000  H
  H703     1.0000 0.60489  0.80309  0.01146  Biso   1.000  H
  H704     1.0000 0.60689  0.76725  0.06286  Biso   1.000  H
  H705     1.0000 0.60689  0.76729  0.06290  Biso   1.000  H
  H706     1.0000 0.60689  0.76729  0.06286  Biso   1.000  H
  C448     1.0000 0.41109  0.79752  0.95351  Biso   1.000  C
  C449     1.0000 0.43205  0.85798  0.87730  Biso   1.000  C
  C450     1.0000 0.45353  0.91107  0.79752  Biso   1.000  C
  C451     1.0000 0.49998  0.00000  0.82292  Biso   1.000  C
  C452     1.0000 0.49998  0.00000  0.82288  Biso   1.000  C
  C453     1.0000 0.51145  0.02776  0.73474  Biso   1.000  C
  H707     1.0000 0.52888  0.02120  0.81468  Biso   1.000  H
  C454     1.0000 0.76520  0.01146  0.97220  Biso   1.000  C
  H708     1.0000 0.68530  0.02890  0.97880  Biso   1.000  H
  C455     1.0000 0.67710  0.00000  0.00000  Biso   1.000  C
  C456     1.0000 0.76520  0.98854  0.02776  Biso   1.000  C
  C457     1.0000 0.76520  0.98850  0.02776  Biso   1.000  C
  H709     1.0000 0.68530  0.97106  0.02120  Biso   1.000  H
  C458     1.0000 0.49998  0.82292  0.00000  Biso   1.000  C
  C459     1.0000 0.49998  0.82288  0.00000  Biso   1.000  C
  C460     1.0000 0.52778  0.73474  0.01146  Biso   1.000  C
  H710     1.0000 0.52118  0.81468  0.02890  Biso   1.000  H
  H711     1.0000 0.46158  0.83666  0.86917  Biso   1.000  H
  H712     1.0000 0.39511  0.80309  0.98850  Biso   1.000  H
  N67      1.0000 0.46633  0.78425  0.96062  Biso   1.000  N
  H713     1.0000 0.39311  0.76725  0.93710  Biso   1.000  H
  N68      1.0000 0.46633  0.78425  0.96058  Biso   1.000  N
  H714     1.0000 0.39311  0.76729  0.93710  Biso   1.000  H
  H715     1.0000 0.48848  0.89509  0.80309  Biso   1.000  H
  H716     1.0000 0.43708  0.89305  0.76725  Biso   1.000  H
  N69      1.0000 0.46060  0.96631  0.78425  Biso   1.000  N
  H717     1.0000 0.43708  0.89305  0.76729  Biso   1.000  H
  H718     1.0000 0.43708  0.89309  0.76725  Biso   1.000  H
  H719     1.0000 0.43708  0.89309  0.76729  Biso   1.000  H
  H720     1.0000 0.47108  0.97880  0.81468  Biso   1.000  H
  C461     1.0000 0.53559  0.96678  0.85728  Biso   1.000  C
  C462     1.0000 0.46441  0.03322  0.85728  Biso   1.000  C
  C463     1.0000 0.46441  0.03318  0.85728  Biso   1.000  C
  C464     1.0000 0.48852  0.97220  0.73474  Biso   1.000  C
  C465     1.0000 0.54490  0.03632  0.68601  Biso   1.000  C
  H721     1.0000 0.48180  0.05348  0.73407  Biso   1.000  H
  H722     1.0000 0.76587  0.98178  0.94644  Biso   1.000  H
  H723     1.0000 0.76587  0.98178  0.94648  Biso   1.000  H
  C466     1.0000 0.81397  0.04488  0.96368  Biso   1.000  C
  C467     1.0000 0.81397  0.04488  0.96364  Biso   1.000  C
  C468     1.0000 0.64270  0.96435  0.96678  Biso   1.000  C
  C469     1.0000 0.64270  0.96439  0.96678  Biso   1.000  C
  C470     1.0000 0.64270  0.03561  0.03322  Biso   1.000  C
  C471     1.0000 0.64270  0.03561  0.03318  Biso   1.000  C
  C472     1.0000 0.64270  0.03557  0.03322  Biso   1.000  C
  C473     1.0000 0.64270  0.03557  0.03318  Biso   1.000  C
  C474     1.0000 0.81397  0.95508  0.03632  Biso   1.000  C
  H724     1.0000 0.76587  0.01822  0.05348  Biso   1.000  H
  H725     1.0000 0.76587  0.01818  0.05348  Biso   1.000  H
  H726     1.0000 0.47878  0.81468  0.97106  Biso   1.000  H
  C475     1.0000 0.53320  0.85728  0.96435  Biso   1.000  C
  C476     1.0000 0.53320  0.85728  0.96439  Biso   1.000  C
  C477     1.0000 0.46680  0.85728  0.03561  Biso   1.000  C
  C478     1.0000 0.46680  0.85728  0.03557  Biso   1.000  C
  C479     1.0000 0.47222  0.73474  0.98854  Biso   1.000  C
  C480     1.0000 0.47222  0.73474  0.98850  Biso   1.000  C
  H727     1.0000 0.55350  0.73407  0.98178  Biso   1.000  H
  C481     1.0000 0.53630  0.68601  0.04488  Biso   1.000  C
  H728     1.0000 0.56319  0.98901  0.87251  Biso   1.000  H
  H729     1.0000 0.51498  0.95088  0.88566  Biso   1.000  H
  H730     1.0000 0.56319  0.98901  0.87247  Biso   1.000  H
  H731     1.0000 0.56319  0.98897  0.87251  Biso   1.000  H
  H732     1.0000 0.56319  0.98897  0.87247  Biso   1.000  H
  H733     1.0000 0.55169  0.93898  0.83608  Biso   1.000  H
  H734     1.0000 0.43681  0.01099  0.87251  Biso   1.000  H
  H735     1.0000 0.43681  0.01099  0.87247  Biso   1.000  H
  H736     1.0000 0.48498  0.04908  0.88566  Biso   1.000  H
  H737     1.0000 0.44831  0.06098  0.83608  Biso   1.000  H
  C482     1.0000 0.45510  0.96368  0.68601  Biso   1.000  C
  H738     1.0000 0.51820  0.94644  0.73407  Biso   1.000  H
  C483     1.0000 0.45510  0.96364  0.68601  Biso   1.000  C
  H739     1.0000 0.51820  0.94648  0.73407  Biso   1.000  H
  C484     1.0000 0.51239  0.02729  0.63619  Biso   1.000  C
  C485     1.0000 0.51239  0.02725  0.63619  Biso   1.000  C
  H740     1.0000 0.57509  0.01182  0.68648  Biso   1.000  H
  H741     1.0000 0.55880  0.07260  0.68601  Biso   1.000  H
  H742     1.0000 0.55880  0.07260  0.68597  Biso   1.000  H
  H743     1.0000 0.57509  0.01178  0.68648  Biso   1.000  H
  H744     1.0000 0.81350  0.07511  0.98818  Biso   1.000  H
  H745     1.0000 0.81397  0.05882  0.92736  Biso   1.000  H
  C486     1.0000 0.86380  0.01237  0.97267  Biso   1.000  C
  C487     1.0000 0.86380  0.01237  0.97271  Biso   1.000  C
  H746     1.0000 0.81350  0.07507  0.98818  Biso   1.000  H
  H747     1.0000 0.61428  0.98500  0.95088  Biso   1.000  H
  H748     1.0000 0.61428  0.98496  0.95088  Biso   1.000  H
  H749     1.0000 0.62747  0.93679  0.98901  Biso   1.000  H
  H750     1.0000 0.62747  0.93679  0.98897  Biso   1.000  H
  H751     1.0000 0.66391  0.94829  0.93898  Biso   1.000  H
  H752     1.0000 0.62747  0.06321  0.01099  Biso   1.000  H
  H753     1.0000 0.61428  0.01500  0.04908  Biso   1.000  H
  H754     1.0000 0.62747  0.06317  0.01099  Biso   1.000  H
  H755     1.0000 0.66391  0.05171  0.06098  Biso   1.000  H
  H756     1.0000 0.81397  0.94118  0.07260  Biso   1.000  H
  C488     1.0000 0.86380  0.98763  0.02729  Biso   1.000  C
  C489     1.0000 0.86380  0.98763  0.02725  Biso   1.000  C
  H757     1.0000 0.81350  0.92489  0.01182  Biso   1.000  H
  C490     1.0000 0.86380  0.98759  0.02729  Biso   1.000  C
  H758     1.0000 0.81350  0.92489  0.01178  Biso   1.000  H
  C491     1.0000 0.86380  0.98759  0.02725  Biso   1.000  C
  H759     1.0000 0.51097  0.87251  0.93679  Biso   1.000  H
  H760     1.0000 0.54910  0.88566  0.98500  Biso   1.000  H
  H761     1.0000 0.54910  0.88566  0.98496  Biso   1.000  H
  H762     1.0000 0.51097  0.87247  0.93679  Biso   1.000  H
  H763     1.0000 0.56100  0.83608  0.94829  Biso   1.000  H
  H764     1.0000 0.48899  0.87251  0.06321  Biso   1.000  H
  H765     1.0000 0.48899  0.87251  0.06317  Biso   1.000  H
  H766     1.0000 0.45090  0.88566  0.01500  Biso   1.000  H
  H767     1.0000 0.48899  0.87247  0.06321  Biso   1.000  H
  H768     1.0000 0.48899  0.87247  0.06317  Biso   1.000  H
  H769     1.0000 0.43900  0.83608  0.05171  Biso   1.000  H
  C492     1.0000 0.46366  0.68601  0.95508  Biso   1.000  C
  H770     1.0000 0.44650  0.73407  0.01822  Biso   1.000  H
  H771     1.0000 0.44650  0.73407  0.01818  Biso   1.000  H
  C493     1.0000 0.52727  0.63619  0.01237  Biso   1.000  C
  H772     1.0000 0.51180  0.68648  0.07511  Biso   1.000  H
  H773     1.0000 0.57258  0.68601  0.05882  Biso   1.000  H
  H774     1.0000 0.51180  0.68648  0.07507  Biso   1.000  H
  H775     1.0000 0.57258  0.68597  0.05882  Biso   1.000  H
  H776     1.0000 0.42491  0.98818  0.68648  Biso   1.000  H
  H777     1.0000 0.44120  0.92736  0.68601  Biso   1.000  H
  C494     1.0000 0.48761  0.97267  0.63619  Biso   1.000  C
  H778     1.0000 0.44120  0.92736  0.68597  Biso   1.000  H
  C495     1.0000 0.48761  0.97271  0.63619  Biso   1.000  C
  H779     1.0000 0.48439  0.05418  0.63399  Biso   1.000  H
  H780     1.0000 0.53520  0.03110  0.60497  Biso   1.000  H
  H781     1.0000 0.86599  0.98441  0.94578  Biso   1.000  H
  H782     1.0000 0.86599  0.98437  0.94578  Biso   1.000  H
  H783     1.0000 0.89497  0.03518  0.96886  Biso   1.000  H
  H784     1.0000 0.89497  0.96482  0.03110  Biso   1.000  H
  H785     1.0000 0.89497  0.96478  0.03110  Biso   1.000  H
  H786     1.0000 0.86599  0.01559  0.05418  Biso   1.000  H
  H787     1.0000 0.42738  0.68601  0.94118  Biso   1.000  H
  C496     1.0000 0.47273  0.63619  0.98763  Biso   1.000  C
  H788     1.0000 0.48820  0.68648  0.92489  Biso   1.000  H
  C497     1.0000 0.47273  0.63619  0.98759  Biso   1.000  C
  H789     1.0000 0.42738  0.68597  0.94118  Biso   1.000  H
  H790     1.0000 0.55420  0.63399  0.98441  Biso   1.000  H
  H791     1.0000 0.55420  0.63399  0.98437  Biso   1.000  H
  H792     1.0000 0.53108  0.60497  0.03518  Biso   1.000  H
  H793     1.0000 0.51561  0.94578  0.63399  Biso   1.000  H
  H794     1.0000 0.46480  0.96886  0.60497  Biso   1.000  H
  H795     1.0000 0.46888  0.60497  0.96482  Biso   1.000  H
  H796     1.0000 0.46888  0.60497  0.96478  Biso   1.000  H
  H797     1.0000 0.44580  0.63399  0.01559  Biso   1.000  H
  C498     1.0000 0.09887  0.15407  0.42020  Biso   1.000  C
  C499     1.0000 0.15407  0.07978  0.40112  Biso   1.000  C
  H798     1.0000 0.16330  0.13079  0.46158  Biso   1.000  H
  C500     1.0000 0.06793  0.14198  0.37732  Biso   1.000  C
  C501     1.0000 0.08893  0.20248  0.45353  Biso   1.000  C
  C502     1.0000 0.08893  0.20244  0.45353  Biso   1.000  C
  C503     1.0000 0.14198  0.12266  0.43205  Biso   1.000  C
  C504     1.0000 0.08889  0.20248  0.45353  Biso   1.000  C
  C505     1.0000 0.08889  0.20244  0.45353  Biso   1.000  C
  C506     1.0000 0.12266  0.06793  0.35796  Biso   1.000  C
  C507     1.0000 0.20248  0.04645  0.41109  Biso   1.000  C
  C508     1.0000 0.20244  0.04645  0.41109  Biso   1.000  C
  C509     1.0000 0.07978  0.09887  0.34591  Biso   1.000  C
  H799     1.0000 0.03840  0.16330  0.36919  Biso   1.000  H
  H800     1.0000 0.03836  0.16330  0.36919  Biso   1.000  H
  N70      1.0000 0.03365  0.21575  0.46060  Biso   1.000  N
  H801     1.0000 0.10491  0.19687  0.48848  Biso   1.000  H
  N71      1.0000 0.03365  0.21571  0.46060  Biso   1.000  N
  H802     1.0000 0.10487  0.19687  0.48848  Biso   1.000  H
  H803     1.0000 0.10688  0.23268  0.43708  Biso   1.000  H
  H804     1.0000 0.13079  0.03840  0.33668  Biso   1.000  H
  H805     1.0000 0.13079  0.03836  0.33668  Biso   1.000  H
  N72      1.0000 0.21575  0.03938  0.46633  Biso   1.000  N
  H806     1.0000 0.19687  0.01150  0.39511  Biso   1.000  H
  H807     1.0000 0.23268  0.06290  0.39311  Biso   1.000  H
  N73      1.0000 0.21571  0.03938  0.46633  Biso   1.000  N
  H808     1.0000 0.19687  0.01146  0.39511  Biso   1.000  H
  H809     1.0000 0.23268  0.06286  0.39311  Biso   1.000  H
  C510     1.0000 0.04645  0.08893  0.29754  Biso   1.000  C
  C511     1.0000 0.04645  0.08889  0.29754  Biso   1.000  C
  C512     1.0000 0.02776  0.26522  0.48852  Biso   1.000  C
  C513     1.0000 0.00000  0.17708  0.49998  Biso   1.000  C
  H810     1.0000 0.02120  0.18528  0.47108  Biso   1.000  H
  C514     1.0000 0.26522  0.01146  0.47222  Biso   1.000  C
  C515     1.0000 0.17708  0.00000  0.49998  Biso   1.000  C
  H811     1.0000 0.18528  0.02890  0.47878  Biso   1.000  H
  N74      1.0000 0.03938  0.03365  0.28427  Biso   1.000  N
  H812     1.0000 0.01150  0.10491  0.30311  Biso   1.000  H
  H813     1.0000 0.01150  0.10487  0.30311  Biso   1.000  H
  H814     1.0000 0.06290  0.10688  0.26731  Biso   1.000  H
  H815     1.0000 0.01146  0.10491  0.30311  Biso   1.000  H
  H816     1.0000 0.01146  0.10487  0.30311  Biso   1.000  H
  H817     1.0000 0.06286  0.10688  0.26731  Biso   1.000  H
  C516     1.0000 0.97220  0.26522  0.51145  Biso   1.000  C
  C517     1.0000 0.03632  0.31395  0.45510  Biso   1.000  C
  H818     1.0000 0.05348  0.26589  0.51820  Biso   1.000  H
  C518     1.0000 0.96678  0.14268  0.46441  Biso   1.000  C
  N75      1.0000 0.96631  0.21575  0.53940  Biso   1.000  N
  N76      1.0000 0.96631  0.21571  0.53940  Biso   1.000  N
  H819     1.0000 0.97880  0.18528  0.52888  Biso   1.000  H
  C519     1.0000 0.03322  0.14268  0.53559  Biso   1.000  C
  C520     1.0000 0.03318  0.14268  0.53559  Biso   1.000  C
  H820     1.0000 0.26589  0.98178  0.44650  Biso   1.000  H
  C521     1.0000 0.26522  0.98854  0.52778  Biso   1.000  C
  C522     1.0000 0.26522  0.98850  0.52778  Biso   1.000  C
  C523     1.0000 0.31395  0.04488  0.46366  Biso   1.000  C
  N77      1.0000 0.21575  0.96062  0.53367  Biso   1.000  N
  C524     1.0000 0.14268  0.96435  0.46680  Biso   1.000  C
  N78      1.0000 0.21575  0.96058  0.53367  Biso   1.000  N
  C525     1.0000 0.14268  0.96439  0.46680  Biso   1.000  C
  N79      1.0000 0.21571  0.96062  0.53367  Biso   1.000  N
  N80      1.0000 0.21571  0.96058  0.53367  Biso   1.000  N
  H821     1.0000 0.18528  0.97106  0.52118  Biso   1.000  H
  C526     1.0000 0.14268  0.03561  0.53320  Biso   1.000  C
  C527     1.0000 0.14268  0.03557  0.53320  Biso   1.000  C
  C528     1.0000 0.01146  0.02776  0.23476  Biso   1.000  C
  C529     1.0000 0.00000  0.00000  0.32290  Biso   1.000  C
  H822     1.0000 0.02890  0.02120  0.31470  Biso   1.000  H
  H823     1.0000 0.94644  0.26589  0.48180  Biso   1.000  H
  C530     1.0000 0.96368  0.31395  0.54490  Biso   1.000  C
  H824     1.0000 0.94648  0.26589  0.48180  Biso   1.000  H
  C531     1.0000 0.96364  0.31395  0.54490  Biso   1.000  C
  H825     1.0000 0.01182  0.31348  0.42491  Biso   1.000  H
  H826     1.0000 0.07260  0.31399  0.44120  Biso   1.000  H
  C532     1.0000 0.02729  0.36378  0.48761  Biso   1.000  C
  H827     1.0000 0.01178  0.31348  0.42491  Biso   1.000  H
  C533     1.0000 0.02725  0.36378  0.48761  Biso   1.000  C
  H828     1.0000 0.95088  0.11430  0.48498  Biso   1.000  H
  H829     1.0000 0.98901  0.12749  0.43681  Biso   1.000  H
  H830     1.0000 0.98897  0.12749  0.43681  Biso   1.000  H
  H831     1.0000 0.93898  0.16389  0.44831  Biso   1.000  H
  C534     1.0000 0.91107  0.20248  0.54647  Biso   1.000  C
  C535     1.0000 0.91107  0.20244  0.54647  Biso   1.000  C
  H832     1.0000 0.01099  0.12749  0.56319  Biso   1.000  H
  H833     1.0000 0.04908  0.11430  0.51498  Biso   1.000  H
  H834     1.0000 0.06098  0.16389  0.55169  Biso   1.000  H
  C536     1.0000 0.31395  0.95508  0.53630  Biso   1.000  C
  H835     1.0000 0.26589  0.01822  0.55350  Biso   1.000  H
  H836     1.0000 0.26589  0.01818  0.55350  Biso   1.000  H
  H837     1.0000 0.31348  0.07511  0.48820  Biso   1.000  H
  H838     1.0000 0.31399  0.05882  0.42738  Biso   1.000  H
  C537     1.0000 0.36378  0.01237  0.47273  Biso   1.000  C
  H839     1.0000 0.31348  0.07507  0.48820  Biso   1.000  H
  C538     1.0000 0.20248  0.95351  0.58891  Biso   1.000  C
  C539     1.0000 0.20244  0.95351  0.58891  Biso   1.000  C
  H840     1.0000 0.11430  0.98500  0.45090  Biso   1.000  H
  H841     1.0000 0.11430  0.98496  0.45090  Biso   1.000  H
  H842     1.0000 0.12749  0.93679  0.48899  Biso   1.000  H
  H843     1.0000 0.16389  0.94829  0.43900  Biso   1.000  H
  H844     1.0000 0.11430  0.01500  0.54910  Biso   1.000  H
  H845     1.0000 0.12749  0.06321  0.51097  Biso   1.000  H
  H846     1.0000 0.12749  0.06317  0.51097  Biso   1.000  H
  H847     1.0000 0.16389  0.05171  0.56100  Biso   1.000  H
  C540     1.0000 0.98854  0.97220  0.23476  Biso   1.000  C
  C541     1.0000 0.98850  0.97220  0.23476  Biso   1.000  C
  H848     1.0000 0.98178  0.05348  0.23409  Biso   1.000  H
  C542     1.0000 0.04488  0.03632  0.18599  Biso   1.000  C
  N81      1.0000 0.96062  0.96631  0.28427  Biso   1.000  N
  N82      1.0000 0.96058  0.96631  0.28427  Biso   1.000  N
  H849     1.0000 0.97106  0.97880  0.31470  Biso   1.000  H
  C543     1.0000 0.96435  0.03322  0.35730  Biso   1.000  C
  C544     1.0000 0.96435  0.03318  0.35730  Biso   1.000  C
  C545     1.0000 0.96439  0.03322  0.35730  Biso   1.000  C
  C546     1.0000 0.96439  0.03318  0.35730  Biso   1.000  C
  C547     1.0000 0.03561  0.96678  0.35730  Biso   1.000  C
  C548     1.0000 0.03557  0.96678  0.35730  Biso   1.000  C
  H850     1.0000 0.98818  0.31348  0.57509  Biso   1.000  H
  H851     1.0000 0.92736  0.31399  0.55880  Biso   1.000  H
  C549     1.0000 0.97267  0.36378  0.51239  Biso   1.000  C
  C550     1.0000 0.97271  0.36378  0.51239  Biso   1.000  C
  H852     1.0000 0.05418  0.36597  0.51561  Biso   1.000  H
  H853     1.0000 0.03110  0.39503  0.46480  Biso   1.000  H
  C551     1.0000 0.90110  0.15407  0.57980  Biso   1.000  C
  H854     1.0000 0.89509  0.19687  0.51148  Biso   1.000  H
  H855     1.0000 0.89305  0.23268  0.56288  Biso   1.000  H
  H856     1.0000 0.89309  0.23268  0.56288  Biso   1.000  H
  H857     1.0000 0.31399  0.94118  0.57258  Biso   1.000  H
  C552     1.0000 0.36378  0.98763  0.52727  Biso   1.000  C
  H858     1.0000 0.31348  0.92489  0.51180  Biso   1.000  H
  C553     1.0000 0.36378  0.98759  0.52727  Biso   1.000  C
  H859     1.0000 0.36597  0.98441  0.44580  Biso   1.000  H
  H860     1.0000 0.36597  0.98437  0.44580  Biso   1.000  H
  H861     1.0000 0.39503  0.03518  0.46888  Biso   1.000  H
  C554     1.0000 0.15407  0.92018  0.59888  Biso   1.000  C
  H862     1.0000 0.19687  0.98850  0.60489  Biso   1.000  H
  H863     1.0000 0.23268  0.93710  0.60689  Biso   1.000  H
  C555     1.0000 0.95508  0.96368  0.18599  Biso   1.000  C
  C556     1.0000 0.95508  0.96364  0.18599  Biso   1.000  C
  H864     1.0000 0.01822  0.94644  0.23409  Biso   1.000  H
  H865     1.0000 0.01822  0.94648  0.23409  Biso   1.000  H
  H866     1.0000 0.01818  0.94644  0.23409  Biso   1.000  H
  H867     1.0000 0.01818  0.94648  0.23409  Biso   1.000  H
  H868     1.0000 0.07511  0.01182  0.18650  Biso   1.000  H
  H869     1.0000 0.05882  0.07260  0.18599  Biso   1.000  H
  C557     1.0000 0.01237  0.02729  0.13620  Biso   1.000  C
  H870     1.0000 0.07511  0.01178  0.18650  Biso   1.000  H
  C558     1.0000 0.01237  0.02725  0.13620  Biso   1.000  C
  H871     1.0000 0.07507  0.01182  0.18650  Biso   1.000  H
  H872     1.0000 0.07507  0.01178  0.18650  Biso   1.000  H
  C559     1.0000 0.95351  0.91107  0.29754  Biso   1.000  C
  H873     1.0000 0.98500  0.04908  0.38568  Biso   1.000  H
  H874     1.0000 0.93679  0.01099  0.37249  Biso   1.000  H
  H875     1.0000 0.98496  0.04908  0.38568  Biso   1.000  H
  H876     1.0000 0.94829  0.06098  0.33609  Biso   1.000  H
  H877     1.0000 0.01500  0.95088  0.38568  Biso   1.000  H
  H878     1.0000 0.06321  0.98901  0.37249  Biso   1.000  H
  H879     1.0000 0.06321  0.98897  0.37249  Biso   1.000  H
  H880     1.0000 0.06317  0.98901  0.37249  Biso   1.000  H
  H881     1.0000 0.06317  0.98897  0.37249  Biso   1.000  H
  H882     1.0000 0.05171  0.93898  0.33609  Biso   1.000  H
  H883     1.0000 0.94578  0.36597  0.48439  Biso   1.000  H
  H884     1.0000 0.96886  0.39503  0.53520  Biso   1.000  H
  C560     1.0000 0.93204  0.14198  0.62264  Biso   1.000  C
  C561     1.0000 0.85798  0.12266  0.56795  Biso   1.000  C
  H885     1.0000 0.39503  0.96482  0.53108  Biso   1.000  H
  H886     1.0000 0.39503  0.96478  0.53108  Biso   1.000  H
  H887     1.0000 0.36597  0.01559  0.55420  Biso   1.000  H
  C562     1.0000 0.12266  0.93204  0.64200  Biso   1.000  C
  C563     1.0000 0.14198  0.87730  0.56795  Biso   1.000  C
  H888     1.0000 0.94118  0.92736  0.18599  Biso   1.000  H
  C564     1.0000 0.98763  0.97267  0.13620  Biso   1.000  C
  C565     1.0000 0.98763  0.97271  0.13620  Biso   1.000  C
  H889     1.0000 0.92489  0.98818  0.18650  Biso   1.000  H
  C566     1.0000 0.98759  0.97267  0.13620  Biso   1.000  C
  C567     1.0000 0.98759  0.97271  0.13620  Biso   1.000  C
  H890     1.0000 0.98441  0.05418  0.13401  Biso   1.000  H
  H891     1.0000 0.98437  0.05418  0.13401  Biso   1.000  H
  H892     1.0000 0.03518  0.03110  0.10499  Biso   1.000  H
  C568     1.0000 0.92018  0.90110  0.34591  Biso   1.000  C
  H893     1.0000 0.98850  0.89509  0.30311  Biso   1.000  H
  H894     1.0000 0.93710  0.89305  0.26731  Biso   1.000  H
  H895     1.0000 0.93710  0.89309  0.26731  Biso   1.000  H
  H896     1.0000 0.96160  0.16330  0.63081  Biso   1.000  H
  C569     1.0000 0.92018  0.09887  0.65405  Biso   1.000  C
  H897     1.0000 0.83666  0.13079  0.53838  Biso   1.000  H
  C570     1.0000 0.84589  0.07978  0.59888  Biso   1.000  C
  C571     1.0000 0.09887  0.84589  0.57980  Biso   1.000  C
  H898     1.0000 0.16330  0.86917  0.53838  Biso   1.000  H
  H899     1.0000 0.13079  0.96160  0.66328  Biso   1.000  H
  C572     1.0000 0.07978  0.90110  0.65405  Biso   1.000  C
  H900     1.0000 0.96482  0.96886  0.10499  Biso   1.000  H
  H901     1.0000 0.96478  0.96886  0.10499  Biso   1.000  H
  H902     1.0000 0.01559  0.94578  0.13401  Biso   1.000  H
  C573     1.0000 0.93204  0.85798  0.37732  Biso   1.000  C
  C574     1.0000 0.87730  0.93204  0.35796  Biso   1.000  C
  C575     1.0000 0.95351  0.08893  0.70246  Biso   1.000  C
  C576     1.0000 0.95351  0.08889  0.70246  Biso   1.000  C
  C577     1.0000 0.87730  0.06793  0.64200  Biso   1.000  C
  C578     1.0000 0.79752  0.04645  0.58891  Biso   1.000  C
  C579     1.0000 0.08893  0.79752  0.54647  Biso   1.000  C
  C580     1.0000 0.08889  0.79752  0.54647  Biso   1.000  C
  C581     1.0000 0.06793  0.85798  0.62264  Biso   1.000  C
  C582     1.0000 0.04645  0.91107  0.70246  Biso   1.000  C
  C583     1.0000 0.84589  0.92018  0.40112  Biso   1.000  C
  H903     1.0000 0.86917  0.96160  0.33668  Biso   1.000  H
  H904     1.0000 0.96160  0.83666  0.36919  Biso   1.000  H
  C584     1.0000 0.90110  0.84589  0.42020  Biso   1.000  C
  H905     1.0000 0.86917  0.03840  0.66328  Biso   1.000  H
  H906     1.0000 0.86917  0.03836  0.66328  Biso   1.000  H
  H907     1.0000 0.98850  0.10491  0.69689  Biso   1.000  H
  N83      1.0000 0.96062  0.03365  0.71573  Biso   1.000  N
  H908     1.0000 0.98850  0.10487  0.69689  Biso   1.000  H
  N84      1.0000 0.96058  0.03365  0.71573  Biso   1.000  N
  H909     1.0000 0.93710  0.10688  0.73269  Biso   1.000  H
  N85      1.0000 0.78425  0.03938  0.53367  Biso   1.000  N
  H910     1.0000 0.80309  0.01150  0.60489  Biso   1.000  H
  H911     1.0000 0.76725  0.06290  0.60689  Biso   1.000  H
  H912     1.0000 0.80309  0.01146  0.60489  Biso   1.000  H
  H913     1.0000 0.76725  0.06286  0.60689  Biso   1.000  H
  H914     1.0000 0.76729  0.06290  0.60689  Biso   1.000  H
  H915     1.0000 0.76729  0.06286  0.60689  Biso   1.000  H
  N86      1.0000 0.03365  0.78425  0.53940  Biso   1.000  N
  H916     1.0000 0.10491  0.80309  0.51148  Biso   1.000  H
  H917     1.0000 0.10487  0.80309  0.51148  Biso   1.000  H
  H918     1.0000 0.10688  0.76725  0.56288  Biso   1.000  H
  H919     1.0000 0.10688  0.76729  0.56288  Biso   1.000  H
  H920     1.0000 0.03840  0.83666  0.63081  Biso   1.000  H
  H921     1.0000 0.03836  0.83666  0.63081  Biso   1.000  H
  H922     1.0000 0.01150  0.89509  0.69689  Biso   1.000  H
  H923     1.0000 0.06290  0.89305  0.73269  Biso   1.000  H
  N87      1.0000 0.03938  0.96631  0.71573  Biso   1.000  N
  H924     1.0000 0.06290  0.89309  0.73269  Biso   1.000  H
  H925     1.0000 0.01146  0.89509  0.69689  Biso   1.000  H
  H926     1.0000 0.06286  0.89305  0.73269  Biso   1.000  H
  H927     1.0000 0.06286  0.89309  0.73269  Biso   1.000  H
  C585     1.0000 0.79752  0.95351  0.41109  Biso   1.000  C
  C586     1.0000 0.85798  0.87730  0.43205  Biso   1.000  C
  C587     1.0000 0.91107  0.79752  0.45353  Biso   1.000  C
  C588     1.0000 0.98854  0.02776  0.76520  Biso   1.000  C
  C589     1.0000 0.98850  0.02776  0.76520  Biso   1.000  C
  H928     1.0000 0.97106  0.02120  0.68530  Biso   1.000  H
  C590     1.0000 0.00000  0.00000  0.67710  Biso   1.000  C
  C591     1.0000 0.82292  0.00000  0.49998  Biso   1.000  C
  C592     1.0000 0.82288  0.00000  0.49998  Biso   1.000  C
  C593     1.0000 0.73474  0.01146  0.52778  Biso   1.000  C
  H929     1.0000 0.81468  0.02890  0.52118  Biso   1.000  H
  C594     1.0000 0.00000  0.82292  0.49998  Biso   1.000  C
  C595     1.0000 0.00000  0.82288  0.49998  Biso   1.000  C
  C596     1.0000 0.02776  0.73474  0.51145  Biso   1.000  C
  H930     1.0000 0.02120  0.81468  0.52888  Biso   1.000  H
  C597     1.0000 0.01146  0.97220  0.76520  Biso   1.000  C
  H931     1.0000 0.02890  0.97880  0.68530  Biso   1.000  H
  H932     1.0000 0.83666  0.86917  0.46158  Biso   1.000  H
  H933     1.0000 0.80309  0.98850  0.39511  Biso   1.000  H
  N88      1.0000 0.78425  0.96062  0.46633  Biso   1.000  N
  H934     1.0000 0.76725  0.93710  0.39311  Biso   1.000  H
  N89      1.0000 0.78425  0.96058  0.46633  Biso   1.000  N
  H935     1.0000 0.76729  0.93710  0.39311  Biso   1.000  H
  H936     1.0000 0.89509  0.80309  0.48848  Biso   1.000  H
  H937     1.0000 0.89305  0.76725  0.43708  Biso   1.000  H
  N90      1.0000 0.96631  0.78425  0.46060  Biso   1.000  N
  H938     1.0000 0.89305  0.76729  0.43708  Biso   1.000  H
  H939     1.0000 0.89309  0.76725  0.43708  Biso   1.000  H
  H940     1.0000 0.89309  0.76729  0.43708  Biso   1.000  H
  C598     1.0000 0.95508  0.03632  0.81397  Biso   1.000  C
  H941     1.0000 0.01822  0.05348  0.76587  Biso   1.000  H
  H942     1.0000 0.01818  0.05348  0.76587  Biso   1.000  H
  C599     1.0000 0.96435  0.96678  0.64270  Biso   1.000  C
  C600     1.0000 0.96439  0.96678  0.64270  Biso   1.000  C
  C601     1.0000 0.03561  0.03322  0.64270  Biso   1.000  C
  C602     1.0000 0.03561  0.03318  0.64270  Biso   1.000  C
  C603     1.0000 0.03557  0.03322  0.64270  Biso   1.000  C
  C604     1.0000 0.03557  0.03318  0.64270  Biso   1.000  C
  H943     1.0000 0.81468  0.97106  0.47878  Biso   1.000  H
  C605     1.0000 0.85728  0.96435  0.53320  Biso   1.000  C
  C606     1.0000 0.85728  0.96439  0.53320  Biso   1.000  C
  C607     1.0000 0.85728  0.03561  0.46680  Biso   1.000  C
  C608     1.0000 0.85728  0.03557  0.46680  Biso   1.000  C
  C609     1.0000 0.73474  0.98854  0.47222  Biso   1.000  C
  C610     1.0000 0.73474  0.98850  0.47222  Biso   1.000  C
  H944     1.0000 0.73407  0.98178  0.55350  Biso   1.000  H
  C611     1.0000 0.68601  0.04488  0.53630  Biso   1.000  C
  H945     1.0000 0.97880  0.81468  0.47108  Biso   1.000  H
  C612     1.0000 0.96678  0.85728  0.53559  Biso   1.000  C
  C613     1.0000 0.03322  0.85728  0.46441  Biso   1.000  C
  C614     1.0000 0.03318  0.85728  0.46441  Biso   1.000  C
  C615     1.0000 0.97220  0.73474  0.48852  Biso   1.000  C
  C616     1.0000 0.03632  0.68601  0.54490  Biso   1.000  C
  H946     1.0000 0.05348  0.73407  0.48180  Biso   1.000  H
  H947     1.0000 0.98178  0.94644  0.76587  Biso   1.000  H
  H948     1.0000 0.98178  0.94648  0.76587  Biso   1.000  H
  C617     1.0000 0.04488  0.96368  0.81397  Biso   1.000  C
  C618     1.0000 0.04488  0.96364  0.81397  Biso   1.000  C
  H949     1.0000 0.94118  0.07260  0.81397  Biso   1.000  H
  C619     1.0000 0.98763  0.02729  0.86380  Biso   1.000  C
  C620     1.0000 0.98763  0.02725  0.86380  Biso   1.000  C
  H950     1.0000 0.92489  0.01182  0.81350  Biso   1.000  H
  C621     1.0000 0.98759  0.02729  0.86380  Biso   1.000  C
  H951     1.0000 0.92489  0.01178  0.81350  Biso   1.000  H
  C622     1.0000 0.98759  0.02725  0.86380  Biso   1.000  C
  H952     1.0000 0.98500  0.95088  0.61428  Biso   1.000  H
  H953     1.0000 0.98496  0.95088  0.61428  Biso   1.000  H
  H954     1.0000 0.93679  0.98901  0.62747  Biso   1.000  H
  H955     1.0000 0.93679  0.98897  0.62747  Biso   1.000  H
  H956     1.0000 0.94829  0.93898  0.66391  Biso   1.000  H
  H957     1.0000 0.06321  0.01099  0.62747  Biso   1.000  H
  H958     1.0000 0.01500  0.04908  0.61428  Biso   1.000  H
  H959     1.0000 0.06317  0.01099  0.62747  Biso   1.000  H
  H960     1.0000 0.05171  0.06098  0.66391  Biso   1.000  H
  H961     1.0000 0.87251  0.93679  0.51097  Biso   1.000  H
  H962     1.0000 0.88566  0.98500  0.54910  Biso   1.000  H
  H963     1.0000 0.88566  0.98496  0.54910  Biso   1.000  H
  H964     1.0000 0.87247  0.93679  0.51097  Biso   1.000  H
  H965     1.0000 0.83608  0.94829  0.56100  Biso   1.000  H
  H966     1.0000 0.87251  0.06321  0.48899  Biso   1.000  H
  H967     1.0000 0.87251  0.06317  0.48899  Biso   1.000  H
  H968     1.0000 0.88566  0.01500  0.45090  Biso   1.000  H
  H969     1.0000 0.87247  0.06321  0.48899  Biso   1.000  H
  H970     1.0000 0.87247  0.06317  0.48899  Biso   1.000  H
  H971     1.0000 0.83608  0.05171  0.43900  Biso   1.000  H
  C623     1.0000 0.68601  0.95508  0.46366  Biso   1.000  C
  H972     1.0000 0.73407  0.01822  0.44650  Biso   1.000  H
  H973     1.0000 0.73407  0.01818  0.44650  Biso   1.000  H
  C624     1.0000 0.63619  0.01237  0.52727  Biso   1.000  C
  H974     1.0000 0.68648  0.07511  0.51180  Biso   1.000  H
  H975     1.0000 0.68601  0.05882  0.57258  Biso   1.000  H
  H976     1.0000 0.68648  0.07507  0.51180  Biso   1.000  H
  H977     1.0000 0.68597  0.05882  0.57258  Biso   1.000  H
  H978     1.0000 0.98901  0.87251  0.56319  Biso   1.000  H
  H979     1.0000 0.95088  0.88566  0.51498  Biso   1.000  H
  H980     1.0000 0.98901  0.87247  0.56319  Biso   1.000  H
  H981     1.0000 0.98897  0.87251  0.56319  Biso   1.000  H
  H982     1.0000 0.98897  0.87247  0.56319  Biso   1.000  H
  H983     1.0000 0.93898  0.83608  0.55169  Biso   1.000  H
  H984     1.0000 0.01099  0.87251  0.43681  Biso   1.000  H
  H985     1.0000 0.01099  0.87247  0.43681  Biso   1.000  H
  H986     1.0000 0.04908  0.88566  0.48498  Biso   1.000  H
  H987     1.0000 0.06098  0.83608  0.44831  Biso   1.000  H
  C625     1.0000 0.96368  0.68601  0.45510  Biso   1.000  C
  H988     1.0000 0.94644  0.73407  0.51820  Biso   1.000  H
  C626     1.0000 0.96364  0.68601  0.45510  Biso   1.000  C
  H989     1.0000 0.94648  0.73407  0.51820  Biso   1.000  H
  C627     1.0000 0.02729  0.63619  0.51239  Biso   1.000  C
  C628     1.0000 0.02725  0.63619  0.51239  Biso   1.000  C
  H990     1.0000 0.01182  0.68648  0.57509  Biso   1.000  H
  H991     1.0000 0.07260  0.68601  0.55880  Biso   1.000  H
  H992     1.0000 0.07260  0.68597  0.55880  Biso   1.000  H
  H993     1.0000 0.01178  0.68648  0.57509  Biso   1.000  H
  H994     1.0000 0.07511  0.98818  0.81350  Biso   1.000  H
  H995     1.0000 0.05882  0.92736  0.81397  Biso   1.000  H
  C629     1.0000 0.01237  0.97267  0.86380  Biso   1.000  C
  C630     1.0000 0.01237  0.97271  0.86380  Biso   1.000  C
  H996     1.0000 0.07507  0.98818  0.81350  Biso   1.000  H
  H997     1.0000 0.96482  0.03110  0.89497  Biso   1.000  H
  H998     1.0000 0.96478  0.03110  0.89497  Biso   1.000  H
  H999     1.0000 0.01559  0.05418  0.86599  Biso   1.000  H
  H1000    1.0000 0.68601  0.94118  0.42738  Biso   1.000  H
  C631     1.0000 0.63619  0.98763  0.47273  Biso   1.000  C
  H1001    1.0000 0.68648  0.92489  0.48820  Biso   1.000  H
  C632     1.0000 0.63619  0.98759  0.47273  Biso   1.000  C
  H1002    1.0000 0.68597  0.94118  0.42738  Biso   1.000  H
  H1003    1.0000 0.63399  0.98441  0.55420  Biso   1.000  H
  H1004    1.0000 0.63399  0.98437  0.55420  Biso   1.000  H
  H1005    1.0000 0.60497  0.03518  0.53108  Biso   1.000  H
  H1006    1.0000 0.98818  0.68648  0.42491  Biso   1.000  H
  H1007    1.0000 0.92736  0.68601  0.44120  Biso   1.000  H
  C633     1.0000 0.97267  0.63619  0.48761  Biso   1.000  C
  H1008    1.0000 0.92736  0.68597  0.44120  Biso   1.000  H
  C634     1.0000 0.97271  0.63619  0.48761  Biso   1.000  C
  H1009    1.0000 0.05418  0.63399  0.48439  Biso   1.000  H
  H1010    1.0000 0.03110  0.60497  0.53520  Biso   1.000  H
  H1011    1.0000 0.98441  0.94578  0.86599  Biso   1.000  H
  H1012    1.0000 0.98437  0.94578  0.86599  Biso   1.000  H
  H1013    1.0000 0.03518  0.96886  0.89497  Biso   1.000  H
  H1014    1.0000 0.60497  0.96482  0.46888  Biso   1.000  H
  H1015    1.0000 0.60497  0.96478  0.46888  Biso   1.000  H
  H1016    1.0000 0.63399  0.01559  0.44580  Biso   1.000  H
  H1017    1.0000 0.94578  0.63399  0.51561  Biso   1.000  H
  H1018    1.0000 0.96886  0.60497  0.46480  Biso   1.000  H
  C635     1.0000 0.15407  0.42020  0.09887  Biso   1.000  C
  C636     1.0000 0.07978  0.40112  0.15407  Biso   1.000  C
  H1019    1.0000 0.13079  0.46158  0.16330  Biso   1.000  H
  C637     1.0000 0.14198  0.37732  0.06793  Biso   1.000  C
  C638     1.0000 0.20248  0.45353  0.08893  Biso   1.000  C
  C639     1.0000 0.12266  0.43205  0.14198  Biso   1.000  C
  C640     1.0000 0.20248  0.45353  0.08889  Biso   1.000  C
  C641     1.0000 0.20244  0.45353  0.08893  Biso   1.000  C
  C642     1.0000 0.20244  0.45353  0.08889  Biso   1.000  C
  C643     1.0000 0.06793  0.35796  0.12266  Biso   1.000  C
  C644     1.0000 0.04645  0.41109  0.20248  Biso   1.000  C
  C645     1.0000 0.04645  0.41109  0.20244  Biso   1.000  C
  C646     1.0000 0.09887  0.34591  0.07978  Biso   1.000  C
  H1020    1.0000 0.16330  0.36919  0.03840  Biso   1.000  H
  H1021    1.0000 0.16330  0.36919  0.03836  Biso   1.000  H
  N91      1.0000 0.21575  0.46060  0.03365  Biso   1.000  N
  H1022    1.0000 0.19687  0.48848  0.10491  Biso   1.000  H
  N92      1.0000 0.21571  0.46060  0.03365  Biso   1.000  N
  H1023    1.0000 0.19687  0.48848  0.10487  Biso   1.000  H
  H1024    1.0000 0.23268  0.43708  0.10688  Biso   1.000  H
  H1025    1.0000 0.03840  0.33668  0.13079  Biso   1.000  H
  H1026    1.0000 0.03836  0.33668  0.13079  Biso   1.000  H
  N93      1.0000 0.03938  0.46633  0.21575  Biso   1.000  N
  H1027    1.0000 0.01150  0.39511  0.19687  Biso   1.000  H
  H1028    1.0000 0.06290  0.39311  0.23268  Biso   1.000  H
  N94      1.0000 0.03938  0.46633  0.21571  Biso   1.000  N
  H1029    1.0000 0.01146  0.39511  0.19687  Biso   1.000  H
  H1030    1.0000 0.06286  0.39311  0.23268  Biso   1.000  H
  C647     1.0000 0.08893  0.29754  0.04645  Biso   1.000  C
  C648     1.0000 0.08889  0.29754  0.04645  Biso   1.000  C
  C649     1.0000 0.26522  0.48852  0.02776  Biso   1.000  C
  C650     1.0000 0.17708  0.49998  0.00000  Biso   1.000  C
  H1031    1.0000 0.18528  0.47108  0.02120  Biso   1.000  H
  C651     1.0000 0.01146  0.47222  0.26522  Biso   1.000  C
  C652     1.0000 0.00000  0.49998  0.17708  Biso   1.000  C
  H1032    1.0000 0.02890  0.47878  0.18528  Biso   1.000  H
  N95      1.0000 0.03365  0.28427  0.03938  Biso   1.000  N
  H1033    1.0000 0.10491  0.30311  0.01150  Biso   1.000  H
  H1034    1.0000 0.10491  0.30311  0.01146  Biso   1.000  H
  H1035    1.0000 0.10487  0.30311  0.01150  Biso   1.000  H
  H1036    1.0000 0.10688  0.26731  0.06290  Biso   1.000  H
  H1037    1.0000 0.10487  0.30311  0.01146  Biso   1.000  H
  H1038    1.0000 0.10688  0.26731  0.06286  Biso   1.000  H
  C653     1.0000 0.26522  0.51145  0.97220  Biso   1.000  C
  H1039    1.0000 0.26589  0.51820  0.05348  Biso   1.000  H
  C654     1.0000 0.31395  0.45510  0.03632  Biso   1.000  C
  C655     1.0000 0.14268  0.46441  0.96678  Biso   1.000  C
  N96      1.0000 0.21575  0.53940  0.96631  Biso   1.000  N
  N97      1.0000 0.21571  0.53940  0.96631  Biso   1.000  N
  H1040    1.0000 0.18528  0.52888  0.97880  Biso   1.000  H
  C656     1.0000 0.14268  0.53559  0.03322  Biso   1.000  C
  C657     1.0000 0.14268  0.53559  0.03318  Biso   1.000  C
  H1041    1.0000 0.98178  0.44650  0.26589  Biso   1.000  H
  C658     1.0000 0.98854  0.52778  0.26522  Biso   1.000  C
  C659     1.0000 0.98850  0.52778  0.26522  Biso   1.000  C
  C660     1.0000 0.04488  0.46366  0.31395  Biso   1.000  C
  N98      1.0000 0.96062  0.53367  0.21575  Biso   1.000  N
  C661     1.0000 0.96435  0.46680  0.14268  Biso   1.000  C
  N99      1.0000 0.96062  0.53367  0.21571  Biso   1.000  N
  N100     1.0000 0.96058  0.53367  0.21575  Biso   1.000  N
  C662     1.0000 0.96439  0.46680  0.14268  Biso   1.000  C
  N101     1.0000 0.96058  0.53367  0.21571  Biso   1.000  N
  H1042    1.0000 0.97106  0.52118  0.18528  Biso   1.000  H
  C663     1.0000 0.03561  0.53320  0.14268  Biso   1.000  C
  C664     1.0000 0.03557  0.53320  0.14268  Biso   1.000  C
  C665     1.0000 0.02776  0.23476  0.01146  Biso   1.000  C
  C666     1.0000 0.00000  0.32290  0.00000  Biso   1.000  C
  H1043    1.0000 0.02120  0.31470  0.02890  Biso   1.000  H
  H1044    1.0000 0.26589  0.48180  0.94644  Biso   1.000  H
  H1045    1.0000 0.26589  0.48180  0.94648  Biso   1.000  H
  C667     1.0000 0.31395  0.54490  0.96368  Biso   1.000  C
  C668     1.0000 0.31395  0.54490  0.96364  Biso   1.000  C
  H1046    1.0000 0.31348  0.42491  0.01182  Biso   1.000  H
  H1047    1.0000 0.31399  0.44120  0.07260  Biso   1.000  H
  C669     1.0000 0.36378  0.48761  0.02729  Biso   1.000  C
  H1048    1.0000 0.31348  0.42491  0.01178  Biso   1.000  H
  C670     1.0000 0.36378  0.48761  0.02725  Biso   1.000  C
  H1049    1.0000 0.11430  0.48498  0.95088  Biso   1.000  H
  H1050    1.0000 0.12749  0.43681  0.98901  Biso   1.000  H
  H1051    1.0000 0.12749  0.43681  0.98897  Biso   1.000  H
  H1052    1.0000 0.16389  0.44831  0.93898  Biso   1.000  H
  C671     1.0000 0.20248  0.54647  0.91107  Biso   1.000  C
  C672     1.0000 0.20244  0.54647  0.91107  Biso   1.000  C
  H1053    1.0000 0.12749  0.56319  0.01099  Biso   1.000  H
  H1054    1.0000 0.11430  0.51498  0.04908  Biso   1.000  H
  H1055    1.0000 0.16389  0.55169  0.06098  Biso   1.000  H
  C673     1.0000 0.95508  0.53630  0.31395  Biso   1.000  C
  H1056    1.0000 0.01822  0.55350  0.26589  Biso   1.000  H
  H1057    1.0000 0.01818  0.55350  0.26589  Biso   1.000  H
  H1058    1.0000 0.07511  0.48820  0.31348  Biso   1.000  H
  H1059    1.0000 0.05882  0.42738  0.31399  Biso   1.000  H
  C674     1.0000 0.01237  0.47273  0.36378  Biso   1.000  C
  H1060    1.0000 0.07507  0.48820  0.31348  Biso   1.000  H
  C675     1.0000 0.95351  0.58891  0.20248  Biso   1.000  C
  C676     1.0000 0.95351  0.58891  0.20244  Biso   1.000  C
  H1061    1.0000 0.98500  0.45090  0.11430  Biso   1.000  H
  H1062    1.0000 0.98496  0.45090  0.11430  Biso   1.000  H
  H1063    1.0000 0.93679  0.48899  0.12749  Biso   1.000  H
  H1064    1.0000 0.94829  0.43900  0.16389  Biso   1.000  H
  H1065    1.0000 0.01500  0.54910  0.11430  Biso   1.000  H
  H1066    1.0000 0.06321  0.51097  0.12749  Biso   1.000  H
  H1067    1.0000 0.06317  0.51097  0.12749  Biso   1.000  H
  H1068    1.0000 0.05171  0.56100  0.16389  Biso   1.000  H
  C677     1.0000 0.97220  0.23476  0.98854  Biso   1.000  C
  C678     1.0000 0.97220  0.23476  0.98850  Biso   1.000  C
  H1069    1.0000 0.05348  0.23409  0.98178  Biso   1.000  H
  C679     1.0000 0.03632  0.18599  0.04488  Biso   1.000  C
  N102     1.0000 0.96631  0.28427  0.96062  Biso   1.000  N
  N103     1.0000 0.96631  0.28427  0.96058  Biso   1.000  N
  H1070    1.0000 0.97880  0.31470  0.97106  Biso   1.000  H
  C680     1.0000 0.96678  0.35730  0.03561  Biso   1.000  C
  C681     1.0000 0.96678  0.35730  0.03557  Biso   1.000  C
  C682     1.0000 0.03322  0.35730  0.96435  Biso   1.000  C
  C683     1.0000 0.03322  0.35730  0.96439  Biso   1.000  C
  C684     1.0000 0.03318  0.35730  0.96435  Biso   1.000  C
  C685     1.0000 0.03318  0.35730  0.96439  Biso   1.000  C
  H1071    1.0000 0.31348  0.57509  0.98818  Biso   1.000  H
  H1072    1.0000 0.31399  0.55880  0.92736  Biso   1.000  H
  C686     1.0000 0.36378  0.51239  0.97267  Biso   1.000  C
  C687     1.0000 0.36378  0.51239  0.97271  Biso   1.000  C
  H1073    1.0000 0.36597  0.51561  0.05418  Biso   1.000  H
  H1074    1.0000 0.39503  0.46480  0.03110  Biso   1.000  H
  C688     1.0000 0.15407  0.57980  0.90110  Biso   1.000  C
  H1075    1.0000 0.19687  0.51148  0.89509  Biso   1.000  H
  H1076    1.0000 0.23268  0.56288  0.89305  Biso   1.000  H
  H1077    1.0000 0.23268  0.56288  0.89309  Biso   1.000  H
  H1078    1.0000 0.94118  0.57258  0.31399  Biso   1.000  H
  C689     1.0000 0.98763  0.52727  0.36378  Biso   1.000  C
  H1079    1.0000 0.92489  0.51180  0.31348  Biso   1.000  H
  C690     1.0000 0.98759  0.52727  0.36378  Biso   1.000  C
  H1080    1.0000 0.98441  0.44580  0.36597  Biso   1.000  H
  H1081    1.0000 0.98437  0.44580  0.36597  Biso   1.000  H
  H1082    1.0000 0.03518  0.46888  0.39503  Biso   1.000  H
  C691     1.0000 0.92018  0.59888  0.15407  Biso   1.000  C
  H1083    1.0000 0.98850  0.60489  0.19687  Biso   1.000  H
  H1084    1.0000 0.93710  0.60689  0.23268  Biso   1.000  H
  C692     1.0000 0.96368  0.18599  0.95508  Biso   1.000  C
  C693     1.0000 0.96364  0.18599  0.95508  Biso   1.000  C
  H1085    1.0000 0.94644  0.23409  0.01822  Biso   1.000  H
  H1086    1.0000 0.94644  0.23409  0.01818  Biso   1.000  H
  H1087    1.0000 0.94648  0.23409  0.01822  Biso   1.000  H
  H1088    1.0000 0.94648  0.23409  0.01818  Biso   1.000  H
  H1089    1.0000 0.01182  0.18650  0.07511  Biso   1.000  H
  H1090    1.0000 0.07260  0.18599  0.05882  Biso   1.000  H
  C694     1.0000 0.02729  0.13620  0.01237  Biso   1.000  C
  H1091    1.0000 0.01182  0.18650  0.07507  Biso   1.000  H
  H1092    1.0000 0.01178  0.18650  0.07511  Biso   1.000  H
  C695     1.0000 0.02725  0.13620  0.01237  Biso   1.000  C
  H1093    1.0000 0.01178  0.18650  0.07507  Biso   1.000  H
  C696     1.0000 0.91107  0.29754  0.95351  Biso   1.000  C
  H1094    1.0000 0.95088  0.38568  0.01500  Biso   1.000  H
  H1095    1.0000 0.98901  0.37249  0.06321  Biso   1.000  H
  H1096    1.0000 0.98901  0.37249  0.06317  Biso   1.000  H
  H1097    1.0000 0.98897  0.37249  0.06321  Biso   1.000  H
  H1098    1.0000 0.98897  0.37249  0.06317  Biso   1.000  H
  H1099    1.0000 0.93898  0.33609  0.05171  Biso   1.000  H
  H1100    1.0000 0.01099  0.37249  0.93679  Biso   1.000  H
  H1101    1.0000 0.04908  0.38568  0.98500  Biso   1.000  H
  H1102    1.0000 0.04908  0.38568  0.98496  Biso   1.000  H
  H1103    1.0000 0.06098  0.33609  0.94829  Biso   1.000  H
  H1104    1.0000 0.36597  0.48439  0.94578  Biso   1.000  H
  H1105    1.0000 0.39503  0.53520  0.96886  Biso   1.000  H
  C697     1.0000 0.12266  0.56795  0.85798  Biso   1.000  C
  C698     1.0000 0.14198  0.62264  0.93204  Biso   1.000  C
  H1106    1.0000 0.96482  0.53108  0.39503  Biso   1.000  H
  H1107    1.0000 0.96478  0.53108  0.39503  Biso   1.000  H
  H1108    1.0000 0.01559  0.55420  0.36597  Biso   1.000  H
  C699     1.0000 0.93204  0.64200  0.12266  Biso   1.000  C
  C700     1.0000 0.87730  0.56795  0.14198  Biso   1.000  C
  H1109    1.0000 0.92736  0.18599  0.94118  Biso   1.000  H
  C701     1.0000 0.97267  0.13620  0.98763  Biso   1.000  C
  H1110    1.0000 0.98818  0.18650  0.92489  Biso   1.000  H
  C702     1.0000 0.97267  0.13620  0.98759  Biso   1.000  C
  C703     1.0000 0.97271  0.13620  0.98763  Biso   1.000  C
  C704     1.0000 0.97271  0.13620  0.98759  Biso   1.000  C
  H1111    1.0000 0.05418  0.13401  0.98441  Biso   1.000  H
  H1112    1.0000 0.05418  0.13401  0.98437  Biso   1.000  H
  H1113    1.0000 0.03110  0.10499  0.03518  Biso   1.000  H
  C705     1.0000 0.90110  0.34591  0.92018  Biso   1.000  C
  H1114    1.0000 0.89509  0.30311  0.98850  Biso   1.000  H
  H1115    1.0000 0.89305  0.26731  0.93710  Biso   1.000  H
  H1116    1.0000 0.89309  0.26731  0.93710  Biso   1.000  H
  H1117    1.0000 0.16330  0.63081  0.96160  Biso   1.000  H
  C706     1.0000 0.09887  0.65405  0.92018  Biso   1.000  C
  H1118    1.0000 0.13079  0.53838  0.83666  Biso   1.000  H
  C707     1.0000 0.07978  0.59888  0.84589  Biso   1.000  C
  C708     1.0000 0.84589  0.57980  0.09887  Biso   1.000  C
  H1119    1.0000 0.86917  0.53838  0.16330  Biso   1.000  H
  H1120    1.0000 0.96160  0.66328  0.13079  Biso   1.000  H
  C709     1.0000 0.90110  0.65405  0.07978  Biso   1.000  C
  H1121    1.0000 0.96886  0.10499  0.96482  Biso   1.000  H
  H1122    1.0000 0.96886  0.10499  0.96478  Biso   1.000  H
  H1123    1.0000 0.94578  0.13401  0.01559  Biso   1.000  H
  C710     1.0000 0.93204  0.35796  0.87730  Biso   1.000  C
  C711     1.0000 0.85798  0.37732  0.93204  Biso   1.000  C
  C712     1.0000 0.08893  0.70246  0.95351  Biso   1.000  C
  C713     1.0000 0.06793  0.64200  0.87730  Biso   1.000  C
  C714     1.0000 0.08889  0.70246  0.95351  Biso   1.000  C
  C715     1.0000 0.04645  0.58891  0.79752  Biso   1.000  C
  C716     1.0000 0.79752  0.54647  0.08893  Biso   1.000  C
  C717     1.0000 0.79752  0.54647  0.08889  Biso   1.000  C
  C718     1.0000 0.85798  0.62264  0.06793  Biso   1.000  C
  C719     1.0000 0.91107  0.70246  0.04645  Biso   1.000  C
  C720     1.0000 0.92018  0.40112  0.84589  Biso   1.000  C
  H1124    1.0000 0.96160  0.33668  0.86917  Biso   1.000  H
  H1125    1.0000 0.83666  0.36919  0.96160  Biso   1.000  H
  C721     1.0000 0.84589  0.42020  0.90110  Biso   1.000  C
  H1126    1.0000 0.03840  0.66328  0.86917  Biso   1.000  H
  H1127    1.0000 0.03836  0.66328  0.86917  Biso   1.000  H
  H1128    1.0000 0.10491  0.69689  0.98850  Biso   1.000  H
  N104     1.0000 0.03365  0.71573  0.96062  Biso   1.000  N
  N105     1.0000 0.03365  0.71573  0.96058  Biso   1.000  N
  H1129    1.0000 0.10487  0.69689  0.98850  Biso   1.000  H
  H1130    1.0000 0.10688  0.73269  0.93710  Biso   1.000  H
  N106     1.0000 0.03938  0.53367  0.78425  Biso   1.000  N
  H1131    1.0000 0.01150  0.60489  0.80309  Biso   1.000  H
  H1132    1.0000 0.06290  0.60689  0.76725  Biso   1.000  H
  H1133    1.0000 0.06290  0.60689  0.76729  Biso   1.000  H
  H1134    1.0000 0.01146  0.60489  0.80309  Biso   1.000  H
  H1135    1.0000 0.06286  0.60689  0.76725  Biso   1.000  H
  H1136    1.0000 0.06286  0.60689  0.76729  Biso   1.000  H
  N107     1.0000 0.78425  0.53940  0.03365  Biso   1.000  N
  H1137    1.0000 0.80309  0.51148  0.10491  Biso   1.000  H
  H1138    1.0000 0.80309  0.51148  0.10487  Biso   1.000  H
  H1139    1.0000 0.76725  0.56288  0.10688  Biso   1.000  H
  H1140    1.0000 0.76729  0.56288  0.10688  Biso   1.000  H
  H1141    1.0000 0.83666  0.63081  0.03840  Biso   1.000  H
  H1142    1.0000 0.83666  0.63081  0.03836  Biso   1.000  H
  H1143    1.0000 0.89509  0.69689  0.01150  Biso   1.000  H
  H1144    1.0000 0.89305  0.73269  0.06290  Biso   1.000  H
  N108     1.0000 0.96631  0.71573  0.03938  Biso   1.000  N
  H1145    1.0000 0.89509  0.69689  0.01146  Biso   1.000  H
  H1146    1.0000 0.89305  0.73269  0.06286  Biso   1.000  H
  H1147    1.0000 0.89309  0.73269  0.06290  Biso   1.000  H
  H1148    1.0000 0.89309  0.73269  0.06286  Biso   1.000  H
  C722     1.0000 0.95351  0.41109  0.79752  Biso   1.000  C
  C723     1.0000 0.87730  0.43205  0.85798  Biso   1.000  C
  C724     1.0000 0.79752  0.45353  0.91107  Biso   1.000  C
  C725     1.0000 0.02776  0.76520  0.98854  Biso   1.000  C
  C726     1.0000 0.02776  0.76520  0.98850  Biso   1.000  C
  H1149    1.0000 0.02120  0.68530  0.97106  Biso   1.000  H
  C727     1.0000 0.00000  0.67710  0.00000  Biso   1.000  C
  C728     1.0000 0.00000  0.49998  0.82292  Biso   1.000  C
  C729     1.0000 0.00000  0.49998  0.82288  Biso   1.000  C
  C730     1.0000 0.01146  0.52778  0.73474  Biso   1.000  C
  H1150    1.0000 0.02890  0.52118  0.81468  Biso   1.000  H
  C731     1.0000 0.82292  0.49998  0.00000  Biso   1.000  C
  C732     1.0000 0.82288  0.49998  0.00000  Biso   1.000  C
  C733     1.0000 0.73474  0.51145  0.02776  Biso   1.000  C
  H1151    1.0000 0.81468  0.52888  0.02120  Biso   1.000  H
  C734     1.0000 0.97220  0.76520  0.01146  Biso   1.000  C
  H1152    1.0000 0.97880  0.68530  0.02890  Biso   1.000  H
  H1153    1.0000 0.86917  0.46158  0.83666  Biso   1.000  H
  H1154    1.0000 0.98850  0.39511  0.80309  Biso   1.000  H
  N109     1.0000 0.96062  0.46633  0.78425  Biso   1.000  N
  H1155    1.0000 0.93710  0.39311  0.76725  Biso   1.000  H
  N110     1.0000 0.96058  0.46633  0.78425  Biso   1.000  N
  H1156    1.0000 0.93710  0.39311  0.76729  Biso   1.000  H
  H1157    1.0000 0.80309  0.48848  0.89509  Biso   1.000  H
  H1158    1.0000 0.76725  0.43708  0.89305  Biso   1.000  H
  N111     1.0000 0.78425  0.46060  0.96631  Biso   1.000  N
  H1159    1.0000 0.76725  0.43708  0.89309  Biso   1.000  H
  H1160    1.0000 0.76729  0.43708  0.89305  Biso   1.000  H
  H1161    1.0000 0.76729  0.43708  0.89309  Biso   1.000  H
  C735     1.0000 0.03632  0.81397  0.95508  Biso   1.000  C
  H1162    1.0000 0.05348  0.76587  0.01822  Biso   1.000  H
  H1163    1.0000 0.05348  0.76587  0.01818  Biso   1.000  H
  C736     1.0000 0.96678  0.64270  0.96435  Biso   1.000  C
  C737     1.0000 0.96678  0.64270  0.96439  Biso   1.000  C
  C738     1.0000 0.03322  0.64270  0.03561  Biso   1.000  C
  C739     1.0000 0.03322  0.64270  0.03557  Biso   1.000  C
  C740     1.0000 0.03318  0.64270  0.03561  Biso   1.000  C
  C741     1.0000 0.03318  0.64270  0.03557  Biso   1.000  C
  H1164    1.0000 0.97106  0.47878  0.81468  Biso   1.000  H
  C742     1.0000 0.96435  0.53320  0.85728  Biso   1.000  C
  C743     1.0000 0.96439  0.53320  0.85728  Biso   1.000  C
  C744     1.0000 0.03561  0.46680  0.85728  Biso   1.000  C
  C745     1.0000 0.03557  0.46680  0.85728  Biso   1.000  C
  C746     1.0000 0.98854  0.47222  0.73474  Biso   1.000  C
  C747     1.0000 0.98850  0.47222  0.73474  Biso   1.000  C
  H1165    1.0000 0.98178  0.55350  0.73407  Biso   1.000  H
  C748     1.0000 0.04488  0.53630  0.68601  Biso   1.000  C
  H1166    1.0000 0.81468  0.47108  0.97880  Biso   1.000  H
  C749     1.0000 0.85728  0.53559  0.96678  Biso   1.000  C
  C750     1.0000 0.85728  0.46441  0.03322  Biso   1.000  C
  C751     1.0000 0.85728  0.46441  0.03318  Biso   1.000  C
  C752     1.0000 0.73474  0.48852  0.97220  Biso   1.000  C
  C753     1.0000 0.68601  0.54490  0.03632  Biso   1.000  C
  H1167    1.0000 0.73407  0.48180  0.05348  Biso   1.000  H
  H1168    1.0000 0.94644  0.76587  0.98178  Biso   1.000  H
  H1169    1.0000 0.94648  0.76587  0.98178  Biso   1.000  H
  C754     1.0000 0.96368  0.81397  0.04488  Biso   1.000  C
  C755     1.0000 0.96364  0.81397  0.04488  Biso   1.000  C
  H1170    1.0000 0.07260  0.81397  0.94118  Biso   1.000  H
  C756     1.0000 0.02729  0.86380  0.98763  Biso   1.000  C
  H1171    1.0000 0.01182  0.81350  0.92489  Biso   1.000  H
  C757     1.0000 0.02729  0.86380  0.98759  Biso   1.000  C
  C758     1.0000 0.02725  0.86380  0.98763  Biso   1.000  C
  H1172    1.0000 0.01178  0.81350  0.92489  Biso   1.000  H
  C759     1.0000 0.02725  0.86380  0.98759  Biso   1.000  C
  H1173    1.0000 0.95088  0.61428  0.98500  Biso   1.000  H
  H1174    1.0000 0.95088  0.61428  0.98496  Biso   1.000  H
  H1175    1.0000 0.98901  0.62747  0.93679  Biso   1.000  H
  H1176    1.0000 0.98897  0.62747  0.93679  Biso   1.000  H
  H1177    1.0000 0.93898  0.66391  0.94829  Biso   1.000  H
  H1178    1.0000 0.01099  0.62747  0.06321  Biso   1.000  H
  H1179    1.0000 0.01099  0.62747  0.06317  Biso   1.000  H
  H1180    1.0000 0.04908  0.61428  0.01500  Biso   1.000  H
  H1181    1.0000 0.06098  0.66391  0.05171  Biso   1.000  H
  H1182    1.0000 0.98500  0.54910  0.88566  Biso   1.000  H
  H1183    1.0000 0.93679  0.51097  0.87251  Biso   1.000  H
  H1184    1.0000 0.98496  0.54910  0.88566  Biso   1.000  H
  H1185    1.0000 0.93679  0.51097  0.87247  Biso   1.000  H
  H1186    1.0000 0.94829  0.56100  0.83608  Biso   1.000  H
  H1187    1.0000 0.06321  0.48899  0.87251  Biso   1.000  H
  H1188    1.0000 0.01500  0.45090  0.88566  Biso   1.000  H
  H1189    1.0000 0.06321  0.48899  0.87247  Biso   1.000  H
  H1190    1.0000 0.06317  0.48899  0.87251  Biso   1.000  H
  H1191    1.0000 0.06317  0.48899  0.87247  Biso   1.000  H
  H1192    1.0000 0.05171  0.43900  0.83608  Biso   1.000  H
  C760     1.0000 0.95508  0.46366  0.68601  Biso   1.000  C
  H1193    1.0000 0.01822  0.44650  0.73407  Biso   1.000  H
  H1194    1.0000 0.01818  0.44650  0.73407  Biso   1.000  H
  C761     1.0000 0.01237  0.52727  0.63619  Biso   1.000  C
  H1195    1.0000 0.07511  0.51180  0.68648  Biso   1.000  H
  H1196    1.0000 0.05882  0.57258  0.68601  Biso   1.000  H
  H1197    1.0000 0.05882  0.57258  0.68597  Biso   1.000  H
  H1198    1.0000 0.07507  0.51180  0.68648  Biso   1.000  H
  H1199    1.0000 0.87251  0.56319  0.98901  Biso   1.000  H
  H1200    1.0000 0.87251  0.56319  0.98897  Biso   1.000  H
  H1201    1.0000 0.88566  0.51498  0.95088  Biso   1.000  H
  H1202    1.0000 0.87247  0.56319  0.98901  Biso   1.000  H
  H1203    1.0000 0.87247  0.56319  0.98897  Biso   1.000  H
  H1204    1.0000 0.83608  0.55169  0.93898  Biso   1.000  H
  H1205    1.0000 0.87251  0.43681  0.01099  Biso   1.000  H
  H1206    1.0000 0.87247  0.43681  0.01099  Biso   1.000  H
  H1207    1.0000 0.88566  0.48498  0.04908  Biso   1.000  H
  H1208    1.0000 0.83608  0.44831  0.06098  Biso   1.000  H
  C762     1.0000 0.68601  0.45510  0.96368  Biso   1.000  C
  C763     1.0000 0.68601  0.45510  0.96364  Biso   1.000  C
  H1209    1.0000 0.73407  0.51820  0.94644  Biso   1.000  H
  H1210    1.0000 0.73407  0.51820  0.94648  Biso   1.000  H
  C764     1.0000 0.63619  0.51239  0.02729  Biso   1.000  C
  C765     1.0000 0.63619  0.51239  0.02725  Biso   1.000  C
  H1211    1.0000 0.68648  0.57509  0.01182  Biso   1.000  H
  H1212    1.0000 0.68601  0.55880  0.07260  Biso   1.000  H
  H1213    1.0000 0.68648  0.57509  0.01178  Biso   1.000  H
  H1214    1.0000 0.68597  0.55880  0.07260  Biso   1.000  H
  H1215    1.0000 0.98818  0.81350  0.07511  Biso   1.000  H
  H1216    1.0000 0.92736  0.81397  0.05882  Biso   1.000  H
  C766     1.0000 0.97267  0.86380  0.01237  Biso   1.000  C
  H1217    1.0000 0.98818  0.81350  0.07507  Biso   1.000  H
  C767     1.0000 0.97271  0.86380  0.01237  Biso   1.000  C
  H1218    1.0000 0.03110  0.89497  0.96482  Biso   1.000  H
  H1219    1.0000 0.03110  0.89497  0.96478  Biso   1.000  H
  H1220    1.0000 0.05418  0.86599  0.01559  Biso   1.000  H
  H1221    1.0000 0.94118  0.42738  0.68601  Biso   1.000  H
  C768     1.0000 0.98763  0.47273  0.63619  Biso   1.000  C
  H1222    1.0000 0.94118  0.42738  0.68597  Biso   1.000  H
  H1223    1.0000 0.92489  0.48820  0.68648  Biso   1.000  H
  C769     1.0000 0.98759  0.47273  0.63619  Biso   1.000  C
  H1224    1.0000 0.98441  0.55420  0.63399  Biso   1.000  H
  H1225    1.0000 0.98437  0.55420  0.63399  Biso   1.000  H
  H1226    1.0000 0.03518  0.53108  0.60497  Biso   1.000  H
  H1227    1.0000 0.68648  0.42491  0.98818  Biso   1.000  H
  H1228    1.0000 0.68601  0.44120  0.92736  Biso   1.000  H
  C770     1.0000 0.63619  0.48761  0.97267  Biso   1.000  C
  C771     1.0000 0.63619  0.48761  0.97271  Biso   1.000  C
  H1229    1.0000 0.68597  0.44120  0.92736  Biso   1.000  H
  H1230    1.0000 0.63399  0.48439  0.05418  Biso   1.000  H
  H1231    1.0000 0.60497  0.53520  0.03110  Biso   1.000  H
  H1232    1.0000 0.94578  0.86599  0.98441  Biso   1.000  H
  H1233    1.0000 0.94578  0.86599  0.98437  Biso   1.000  H
  H1234    1.0000 0.96886  0.89497  0.03518  Biso   1.000  H
  H1235    1.0000 0.96482  0.46888  0.60497  Biso   1.000  H
  H1236    1.0000 0.96478  0.46888  0.60497  Biso   1.000  H
  H1237    1.0000 0.01559  0.44580  0.63399  Biso   1.000  H
  H1238    1.0000 0.63399  0.51561  0.94578  Biso   1.000  H
  H1239    1.0000 0.60497  0.46480  0.96886  Biso   1.000  H
  C772     1.0000 0.76238  0.38619  0.72272  Biso   1.000  C
  C773     1.0000 0.79489  0.43602  0.71365  Biso   1.000  C
  H1240    1.0000 0.73438  0.38400  0.69579  Biso   1.000  H
  H1241    1.0000 0.78519  0.35498  0.71887  Biso   1.000  H
  C774     1.0000 0.73760  0.38619  0.77726  Biso   1.000  C
  C775     1.0000 0.76144  0.48475  0.72221  Biso   1.000  C
  H1242    1.0000 0.82508  0.43649  0.73819  Biso   1.000  H
  H1243    1.0000 0.80879  0.43598  0.67737  Biso   1.000  H
  C776     1.0000 0.70509  0.43602  0.78629  Biso   1.000  C
  H1244    1.0000 0.76560  0.38400  0.80419  Biso   1.000  H
  H1245    1.0000 0.71479  0.35498  0.78107  Biso   1.000  H
  N112     1.0000 0.78939  0.53426  0.71632  Biso   1.000  N
  H1246    1.0000 0.73179  0.48408  0.69649  Biso   1.000  H
  C777     1.0000 0.73851  0.48475  0.77777  Biso   1.000  C
  H1247    1.0000 0.67490  0.43649  0.76179  Biso   1.000  H
  H1248    1.0000 0.69119  0.43598  0.82257  Biso   1.000  H
  C778     1.0000 0.79646  0.54753  0.66108  Biso   1.000  C
  C779     1.0000 0.74997  0.57289  0.74997  Biso   1.000  C
  H1249    1.0000 0.77887  0.56469  0.72877  Biso   1.000  H
  N113     1.0000 0.71059  0.53426  0.78366  Biso   1.000  N
  H1250    1.0000 0.76819  0.48408  0.80349  Biso   1.000  H
  C780     1.0000 0.82979  0.59590  0.65111  Biso   1.000  C
  H1251    1.0000 0.76147  0.55310  0.64510  Biso   1.000  H
  H1252    1.0000 0.81287  0.51730  0.64310  Biso   1.000  H
  C781     1.0000 0.78558  0.60729  0.78319  Biso   1.000  C
  C782     1.0000 0.71440  0.60729  0.71679  Biso   1.000  C
  H1253    1.0000 0.72107  0.56469  0.77117  Biso   1.000  H
  C783     1.0000 0.70352  0.54753  0.83890  Biso   1.000  C
  C784     1.0000 0.81794  0.62731  0.60799  Biso   1.000  C
  C785     1.0000 0.87267  0.60799  0.68204  Biso   1.000  C
  H1254    1.0000 0.76497  0.63567  0.79909  Biso   1.000  H
  H1255    1.0000 0.81318  0.62248  0.76100  Biso   1.000  H
  H1256    1.0000 0.80168  0.58609  0.81099  Biso   1.000  H
  H1257    1.0000 0.73497  0.63567  0.70089  Biso   1.000  H
  H1258    1.0000 0.68680  0.62248  0.73898  Biso   1.000  H
  H1259    1.0000 0.69830  0.58609  0.68899  Biso   1.000  H
  H1260    1.0000 0.73847  0.55310  0.85488  Biso   1.000  H
  H1261    1.0000 0.68707  0.51730  0.85688  Biso   1.000  H
  C786     1.0000 0.67019  0.59590  0.84888  Biso   1.000  C
  C787     1.0000 0.84888  0.67019  0.59590  Biso   1.000  C
  H1262    1.0000 0.78837  0.61918  0.58667  Biso   1.000  H
  C788     1.0000 0.90408  0.65111  0.67019  Biso   1.000  C
  H1263    1.0000 0.88080  0.58667  0.71157  Biso   1.000  H
  C789     1.0000 0.62731  0.60799  0.81794  Biso   1.000  C
  C790     1.0000 0.68204  0.62731  0.89199  Biso   1.000  C
  C791     1.0000 0.83890  0.70352  0.54753  Biso   1.000  C
  C792     1.0000 0.89199  0.68204  0.62731  Biso   1.000  C
  C793     1.0000 0.95245  0.66108  0.70352  Biso   1.000  C
  H1264    1.0000 0.61918  0.58667  0.78837  Biso   1.000  H
  C794     1.0000 0.59590  0.65111  0.82979  Biso   1.000  C
  H1265    1.0000 0.71157  0.61918  0.91327  Biso   1.000  H
  C795     1.0000 0.65111  0.67019  0.90408  Biso   1.000  C
  N114     1.0000 0.78366  0.71059  0.53426  Biso   1.000  N
  H1266    1.0000 0.85488  0.73847  0.55310  Biso   1.000  H
  H1267    1.0000 0.85688  0.68707  0.51730  Biso   1.000  H
  H1268    1.0000 0.91327  0.71157  0.61918  Biso   1.000  H
  H1269    1.0000 0.94688  0.64510  0.73847  Biso   1.000  H
  H1270    1.0000 0.98268  0.64310  0.68707  Biso   1.000  H
  N115     1.0000 0.96572  0.71632  0.71059  Biso   1.000  N
  C796     1.0000 0.54753  0.66108  0.79646  Biso   1.000  C
  C797     1.0000 0.60799  0.68204  0.87267  Biso   1.000  C
  C798     1.0000 0.66108  0.70352  0.95245  Biso   1.000  C
  C799     1.0000 0.77777  0.73851  0.48475  Biso   1.000  C
  C800     1.0000 0.74997  0.74997  0.57289  Biso   1.000  C
  H1271    1.0000 0.77117  0.72107  0.56469  Biso   1.000  H
  C801     1.0000 0.92709  0.74997  0.74997  Biso   1.000  C
  H1272    1.0000 0.93529  0.72877  0.72107  Biso   1.000  H
  C802     1.0000 0.01519  0.72221  0.73851  Biso   1.000  C
  N116     1.0000 0.53426  0.71632  0.78939  Biso   1.000  N
  H1273    1.0000 0.55310  0.64510  0.76147  Biso   1.000  H
  H1274    1.0000 0.51730  0.64310  0.81287  Biso   1.000  H
  H1275    1.0000 0.58667  0.71157  0.88080  Biso   1.000  H
  H1276    1.0000 0.64510  0.73847  0.94688  Biso   1.000  H
  H1277    1.0000 0.64310  0.68707  0.98268  Biso   1.000  H
  N117     1.0000 0.71632  0.71059  0.96572  Biso   1.000  N
  H1278    1.0000 0.80349  0.76819  0.48408  Biso   1.000  H
  C803     1.0000 0.78629  0.70509  0.43602  Biso   1.000  C
  C804     1.0000 0.72221  0.76144  0.48475  Biso   1.000  C
  N118     1.0000 0.71632  0.78939  0.53426  Biso   1.000  N
  C805     1.0000 0.71679  0.71440  0.60729  Biso   1.000  C
  C806     1.0000 0.78319  0.78558  0.60729  Biso   1.000  C
  H1279    1.0000 0.72877  0.77887  0.56469  Biso   1.000  H
  N119     1.0000 0.96572  0.78366  0.78939  Biso   1.000  N
  C807     1.0000 0.89269  0.71679  0.78558  Biso   1.000  C
  C808     1.0000 0.89269  0.78319  0.71440  Biso   1.000  C
  H1280    1.0000 0.93529  0.77117  0.77887  Biso   1.000  H
  C809     1.0000 0.01519  0.77777  0.76144  Biso   1.000  C
  C810     1.0000 0.06396  0.71365  0.70509  Biso   1.000  C
  H1281    1.0000 0.01586  0.69649  0.76819  Biso   1.000  H
  C811     1.0000 0.57289  0.74997  0.74997  Biso   1.000  C
  C812     1.0000 0.48475  0.72221  0.76144  Biso   1.000  C
  H1282    1.0000 0.56469  0.72877  0.77887  Biso   1.000  H
  C813     1.0000 0.74997  0.74997  0.92709  Biso   1.000  C
  H1283    1.0000 0.72877  0.72107  0.93529  Biso   1.000  H
  C814     1.0000 0.72221  0.73851  0.01519  Biso   1.000  C
  H1284    1.0000 0.76179  0.67490  0.43649  Biso   1.000  H
  H1285    1.0000 0.82257  0.69119  0.43598  Biso   1.000  H
  C815     1.0000 0.77726  0.73760  0.38619  Biso   1.000  C
  H1286    1.0000 0.69649  0.73179  0.48408  Biso   1.000  H
  C816     1.0000 0.71365  0.79489  0.43602  Biso   1.000  C
  C817     1.0000 0.66108  0.79646  0.54753  Biso   1.000  C
  H1287    1.0000 0.70089  0.73497  0.63567  Biso   1.000  H
  H1288    1.0000 0.73898  0.68680  0.62248  Biso   1.000  H
  H1289    1.0000 0.68899  0.69830  0.58609  Biso   1.000  H
  H1290    1.0000 0.79909  0.76497  0.63567  Biso   1.000  H
  H1291    1.0000 0.76100  0.81318  0.62248  Biso   1.000  H
  H1292    1.0000 0.81099  0.80168  0.58609  Biso   1.000  H
  C818     1.0000 0.95245  0.83890  0.79646  Biso   1.000  C
  H1293    1.0000 0.86427  0.70089  0.76497  Biso   1.000  H
  H1294    1.0000 0.87750  0.73898  0.81318  Biso   1.000  H
  H1295    1.0000 0.91390  0.68899  0.80168  Biso   1.000  H
  H1296    1.0000 0.86427  0.79909  0.73497  Biso   1.000  H
  H1297    1.0000 0.87750  0.76100  0.68680  Biso   1.000  H
  H1298    1.0000 0.91390  0.81099  0.69830  Biso   1.000  H
  C819     1.0000 0.06396  0.78629  0.79489  Biso   1.000  C
  H1299    1.0000 0.01586  0.80349  0.73179  Biso   1.000  H
  H1300    1.0000 0.06349  0.73819  0.67490  Biso   1.000  H
  H1301    1.0000 0.06396  0.67737  0.69119  Biso   1.000  H
  C820     1.0000 0.11379  0.72272  0.73760  Biso   1.000  C
  N120     1.0000 0.53426  0.78366  0.71059  Biso   1.000  N
  H1302    1.0000 0.56469  0.77117  0.72107  Biso   1.000  H
  C821     1.0000 0.60729  0.71679  0.71440  Biso   1.000  C
  C822     1.0000 0.60729  0.78319  0.78558  Biso   1.000  C
  C823     1.0000 0.48475  0.77777  0.73851  Biso   1.000  C
  H1303    1.0000 0.48408  0.69649  0.73179  Biso   1.000  H
  C824     1.0000 0.43602  0.71365  0.79489  Biso   1.000  C
  N121     1.0000 0.78366  0.78939  0.96572  Biso   1.000  N
  H1304    1.0000 0.77117  0.77887  0.93529  Biso   1.000  H
  C825     1.0000 0.71679  0.78558  0.89269  Biso   1.000  C
  C826     1.0000 0.78319  0.71440  0.89269  Biso   1.000  C
  C827     1.0000 0.77777  0.76144  0.01519  Biso   1.000  C
  C828     1.0000 0.71365  0.70509  0.06396  Biso   1.000  C
  H1305    1.0000 0.69649  0.76819  0.01586  Biso   1.000  H
  H1306    1.0000 0.80419  0.76560  0.38400  Biso   1.000  H
  H1307    1.0000 0.78107  0.71479  0.35498  Biso   1.000  H
  C829     1.0000 0.72272  0.76238  0.38619  Biso   1.000  C
  H1308    1.0000 0.73819  0.82508  0.43649  Biso   1.000  H
  H1309    1.0000 0.67737  0.80879  0.43598  Biso   1.000  H
  H1310    1.0000 0.64510  0.76147  0.55310  Biso   1.000  H
  H1311    1.0000 0.64310  0.81287  0.51730  Biso   1.000  H
  C830     1.0000 0.65111  0.82979  0.59590  Biso   1.000  C
  H1312    1.0000 0.94688  0.85488  0.76147  Biso   1.000  H
  H1313    1.0000 0.98268  0.85688  0.81287  Biso   1.000  H
  C831     1.0000 0.90408  0.84888  0.82979  Biso   1.000  C
  H1314    1.0000 0.06349  0.76179  0.82508  Biso   1.000  H
  H1315    1.0000 0.06396  0.82257  0.80879  Biso   1.000  H
  C832     1.0000 0.11379  0.77726  0.76238  Biso   1.000  C
  H1316    1.0000 0.11598  0.69579  0.76560  Biso   1.000  H
  H1317    1.0000 0.14496  0.71887  0.71479  Biso   1.000  H
  C833     1.0000 0.54753  0.83890  0.70352  Biso   1.000  C
  H1318    1.0000 0.63567  0.70089  0.73497  Biso   1.000  H
  H1319    1.0000 0.62248  0.73898  0.68680  Biso   1.000  H
  H1320    1.0000 0.58609  0.68899  0.69830  Biso   1.000  H
  H1321    1.0000 0.63567  0.79909  0.76497  Biso   1.000  H
  H1322    1.0000 0.62248  0.76100  0.81318  Biso   1.000  H
  H1323    1.0000 0.58609  0.81099  0.80168  Biso   1.000  H
  H1324    1.0000 0.48408  0.80349  0.76819  Biso   1.000  H
  C834     1.0000 0.43602  0.78629  0.70509  Biso   1.000  C
  C835     1.0000 0.38619  0.72272  0.76238  Biso   1.000  C
  H1325    1.0000 0.43649  0.73819  0.82508  Biso   1.000  H
  H1326    1.0000 0.43598  0.67737  0.80879  Biso   1.000  H
  C836     1.0000 0.83890  0.79646  0.95245  Biso   1.000  C
  H1327    1.0000 0.70089  0.76497  0.86427  Biso   1.000  H
  H1328    1.0000 0.73898  0.81318  0.87750  Biso   1.000  H
  H1329    1.0000 0.68899  0.80168  0.91390  Biso   1.000  H
  H1330    1.0000 0.79909  0.73497  0.86427  Biso   1.000  H
  H1331    1.0000 0.76100  0.68680  0.87750  Biso   1.000  H
  H1332    1.0000 0.81099  0.69830  0.91390  Biso   1.000  H
  C837     1.0000 0.78629  0.79489  0.06396  Biso   1.000  C
  H1333    1.0000 0.80349  0.73179  0.01586  Biso   1.000  H
  H1334    1.0000 0.73819  0.67490  0.06349  Biso   1.000  H
  H1335    1.0000 0.67737  0.69119  0.06396  Biso   1.000  H
  C838     1.0000 0.72272  0.73760  0.11379  Biso   1.000  C
  H1336    1.0000 0.69579  0.73438  0.38400  Biso   1.000  H
  H1337    1.0000 0.71887  0.78519  0.35498  Biso   1.000  H
  C839     1.0000 0.60799  0.81794  0.62731  Biso   1.000  C
  C840     1.0000 0.68204  0.87267  0.60799  Biso   1.000  C
  C841     1.0000 0.87267  0.89199  0.81794  Biso   1.000  C
  C842     1.0000 0.89199  0.81794  0.87267  Biso   1.000  C
  H1338    1.0000 0.11598  0.80419  0.73438  Biso   1.000  H
  H1339    1.0000 0.14496  0.78107  0.78519  Biso   1.000  H
  C843     1.0000 0.59590  0.84888  0.67019  Biso   1.000  C
  H1340    1.0000 0.55310  0.85488  0.73847  Biso   1.000  H
  H1341    1.0000 0.51730  0.85688  0.68707  Biso   1.000  H
  H1342    1.0000 0.43649  0.76179  0.67490  Biso   1.000  H
  H1343    1.0000 0.43598  0.82257  0.69119  Biso   1.000  H
  C844     1.0000 0.38619  0.77726  0.73760  Biso   1.000  C
  H1344    1.0000 0.38400  0.69579  0.73438  Biso   1.000  H
  H1345    1.0000 0.35498  0.71887  0.78519  Biso   1.000  H
  C845     1.0000 0.84888  0.82979  0.90408  Biso   1.000  C
  H1346    1.0000 0.85488  0.76147  0.94688  Biso   1.000  H
  H1347    1.0000 0.85688  0.81287  0.98268  Biso   1.000  H
  H1348    1.0000 0.76179  0.82508  0.06349  Biso   1.000  H
  H1349    1.0000 0.82257  0.80879  0.06396  Biso   1.000  H
  C846     1.0000 0.77726  0.76238  0.11379  Biso   1.000  C
  H1350    1.0000 0.69579  0.76560  0.11598  Biso   1.000  H
  H1351    1.0000 0.71887  0.71479  0.14496  Biso   1.000  H
  H1352    1.0000 0.58667  0.78837  0.61918  Biso   1.000  H
  C847     1.0000 0.67019  0.90408  0.65111  Biso   1.000  C
  H1353    1.0000 0.71157  0.88080  0.58667  Biso   1.000  H
  H1354    1.0000 0.88080  0.91327  0.78837  Biso   1.000  H
  C848     1.0000 0.82979  0.90408  0.84888  Biso   1.000  C
  H1355    1.0000 0.91327  0.78837  0.88080  Biso   1.000  H
  C849     1.0000 0.62731  0.89199  0.68204  Biso   1.000  C
  H1356    1.0000 0.38400  0.80419  0.76560  Biso   1.000  H
  H1357    1.0000 0.35498  0.78107  0.71479  Biso   1.000  H
  C850     1.0000 0.81794  0.87267  0.89199  Biso   1.000  C
  H1358    1.0000 0.80419  0.73438  0.11598  Biso   1.000  H
  H1359    1.0000 0.78107  0.78519  0.14496  Biso   1.000  H
  C851     1.0000 0.70352  0.95245  0.66108  Biso   1.000  C
  C852     1.0000 0.79646  0.95245  0.83890  Biso   1.000  C
  H1360    1.0000 0.61918  0.91327  0.71157  Biso   1.000  H
  H1361    1.0000 0.78837  0.88080  0.91327  Biso   1.000  H
  H1362    1.0000 0.73847  0.94688  0.64510  Biso   1.000  H
  H1363    1.0000 0.68707  0.98268  0.64310  Biso   1.000  H
  N122     1.0000 0.71059  0.96572  0.71632  Biso   1.000  N
  N123     1.0000 0.78939  0.96572  0.78366  Biso   1.000  N
  H1364    1.0000 0.76147  0.94688  0.85488  Biso   1.000  H
  H1365    1.0000 0.81287  0.98268  0.85688  Biso   1.000  H
  C853     1.0000 0.74997  0.92709  0.74997  Biso   1.000  C
  H1366    1.0000 0.72107  0.93529  0.72877  Biso   1.000  H
  C854     1.0000 0.73851  0.01519  0.72221  Biso   1.000  C
  H1367    1.0000 0.77887  0.93529  0.77117  Biso   1.000  H
  C855     1.0000 0.76144  0.01519  0.77777  Biso   1.000  C
  C856     1.0000 0.78558  0.89269  0.71679  Biso   1.000  C
  C857     1.0000 0.71440  0.89269  0.78319  Biso   1.000  C
  C858     1.0000 0.70509  0.06396  0.71365  Biso   1.000  C
  H1368    1.0000 0.76819  0.01586  0.69649  Biso   1.000  H
  C859     1.0000 0.79489  0.06396  0.78629  Biso   1.000  C
  H1369    1.0000 0.73179  0.01586  0.80349  Biso   1.000  H
  H1370    1.0000 0.76497  0.86427  0.70089  Biso   1.000  H
  H1371    1.0000 0.81318  0.87750  0.73898  Biso   1.000  H
  H1372    1.0000 0.80168  0.91390  0.68899  Biso   1.000  H
  H1373    1.0000 0.73497  0.86427  0.79909  Biso   1.000  H
  H1374    1.0000 0.68680  0.87750  0.76100  Biso   1.000  H
  H1375    1.0000 0.69830  0.91390  0.81099  Biso   1.000  H
  H1376    1.0000 0.67490  0.06349  0.73819  Biso   1.000  H
  H1377    1.0000 0.69119  0.06396  0.67737  Biso   1.000  H
  C860     1.0000 0.73760  0.11379  0.72272  Biso   1.000  C
  H1378    1.0000 0.82508  0.06349  0.76179  Biso   1.000  H
  H1379    1.0000 0.80879  0.06396  0.82257  Biso   1.000  H
  C861     1.0000 0.76238  0.11379  0.77726  Biso   1.000  C
  H1380    1.0000 0.76560  0.11598  0.69579  Biso   1.000  H
  H1381    1.0000 0.71479  0.14496  0.71887  Biso   1.000  H
  H1382    1.0000 0.73438  0.11598  0.80419  Biso   1.000  H
  H1383    1.0000 0.78519  0.14496  0.78107  Biso   1.000  H
