data_image0
_cell_length_a       25.469
_cell_length_b       25.469
_cell_length_c       25.469
_cell_angle_alpha    90
_cell_angle_beta     90
_cell_angle_gamma    90

_symmetry_space_group_name_H-M    "P 1"
_symmetry_int_tables_number       1

loop_
  _symmetry_equiv_pos_as_xyz
  'x, y, z'

loop_
  _atom_site_label
  _atom_site_occupancy
  _atom_site_fract_x
  _atom_site_fract_y
  _atom_site_fract_z
  _atom_site_thermal_displace_type
  _atom_site_B_iso_or_equiv
  _atom_site_type_symbol
  C1       1.0000 0.38619  0.27728  0.23762  Biso   1.000  C
  C2       1.0000 0.38619  0.22274  0.26236  Biso   1.000  C
  C3       1.0000 0.43602  0.28631  0.20511  Biso   1.000  C
  H1       1.0000 0.38400  0.30421  0.26558  Biso   1.000  H
  H2       1.0000 0.35498  0.28109  0.21481  Biso   1.000  H
  C4       1.0000 0.43602  0.21367  0.29491  Biso   1.000  C
  H3       1.0000 0.38400  0.19581  0.23440  Biso   1.000  H
  H4       1.0000 0.35498  0.21889  0.28521  Biso   1.000  H
  C5       1.0000 0.48475  0.27775  0.23853  Biso   1.000  C
  H5       1.0000 0.43649  0.26181  0.17488  Biso   1.000  H
  H6       1.0000 0.43598  0.32259  0.19121  Biso   1.000  H
  C6       1.0000 0.48475  0.22223  0.26146  Biso   1.000  C
  H7       1.0000 0.43649  0.23821  0.32510  Biso   1.000  H
  H8       1.0000 0.43598  0.17739  0.30881  Biso   1.000  H
  H9       1.0000 0.48408  0.30351  0.26821  Biso   1.000  H
  N1       1.0000 0.53426  0.28364  0.21061  Biso   1.000  N
  H10      1.0000 0.48408  0.19651  0.23181  Biso   1.000  H
  N2       1.0000 0.53426  0.21634  0.28941  Biso   1.000  N
  C7       1.0000 0.57289  0.24999  0.24999  Biso   1.000  C
  H11      1.0000 0.56469  0.27119  0.22109  Biso   1.000  H
  C8       1.0000 0.54753  0.33892  0.20354  Biso   1.000  C
  C9       1.0000 0.54753  0.16106  0.29644  Biso   1.000  C
  H12      1.0000 0.56469  0.22879  0.27889  Biso   1.000  H
  C10      1.0000 0.60729  0.28321  0.28560  Biso   1.000  C
  C11      1.0000 0.60729  0.21681  0.21438  Biso   1.000  C
  C12      1.0000 0.59590  0.34886  0.17017  Biso   1.000  C
  H13      1.0000 0.55310  0.35490  0.23849  Biso   1.000  H
  H14      1.0000 0.51730  0.35690  0.18709  Biso   1.000  H
  C13      1.0000 0.59590  0.15112  0.32981  Biso   1.000  C
  H15      1.0000 0.55310  0.14508  0.26149  Biso   1.000  H
  H16      1.0000 0.51730  0.14312  0.31289  Biso   1.000  H
  H17      1.0000 0.63567  0.29911  0.26499  Biso   1.000  H
  H18      1.0000 0.62248  0.26098  0.31320  Biso   1.000  H
  H19      1.0000 0.58609  0.31101  0.30170  Biso   1.000  H
  H20      1.0000 0.63567  0.20091  0.23499  Biso   1.000  H
  H21      1.0000 0.62248  0.23900  0.18682  Biso   1.000  H
  H22      1.0000 0.58609  0.18901  0.19828  Biso   1.000  H
  C14      1.0000 0.62731  0.39201  0.18206  Biso   1.000  C
  C15      1.0000 0.60799  0.31792  0.12733  Biso   1.000  C
  C16      1.0000 0.62731  0.10797  0.31792  Biso   1.000  C
  C17      1.0000 0.60799  0.18206  0.37265  Biso   1.000  C
  H23      1.0000 0.61918  0.41329  0.21159  Biso   1.000  H
  C18      1.0000 0.67019  0.40406  0.15112  Biso   1.000  C
  C19      1.0000 0.65111  0.32981  0.09592  Biso   1.000  C
  H24      1.0000 0.58667  0.28839  0.11920  Biso   1.000  H
  H25      1.0000 0.61918  0.08669  0.28839  Biso   1.000  H
  C20      1.0000 0.67019  0.09592  0.34886  Biso   1.000  C
  H26      1.0000 0.58667  0.21159  0.38078  Biso   1.000  H
  C21      1.0000 0.65111  0.17017  0.40406  Biso   1.000  C
  C22      1.0000 0.70352  0.45247  0.16106  Biso   1.000  C
  C23      1.0000 0.68204  0.37265  0.10797  Biso   1.000  C
  C24      1.0000 0.66108  0.29644  0.04755  Biso   1.000  C
  C25      1.0000 0.70352  0.04755  0.33892  Biso   1.000  C
  C26      1.0000 0.68204  0.12733  0.39201  Biso   1.000  C
  C27      1.0000 0.66108  0.20354  0.45247  Biso   1.000  C
  H27      1.0000 0.73847  0.44690  0.14508  Biso   1.000  H
  H28      1.0000 0.68707  0.48270  0.14312  Biso   1.000  H
  N3       1.0000 0.71059  0.46574  0.21634  Biso   1.000  N
  H29      1.0000 0.71157  0.38078  0.08669  Biso   1.000  H
  H30      1.0000 0.64510  0.26149  0.05308  Biso   1.000  H
  H31      1.0000 0.64310  0.31289  0.01732  Biso   1.000  H
  N4       1.0000 0.71632  0.28941  0.03428  Biso   1.000  N
  H32      1.0000 0.73847  0.05308  0.35490  Biso   1.000  H
  H33      1.0000 0.68707  0.01732  0.35690  Biso   1.000  H
  N5       1.0000 0.71059  0.03428  0.28364  Biso   1.000  N
  H34      1.0000 0.71157  0.11920  0.41329  Biso   1.000  H
  H35      1.0000 0.64510  0.23849  0.44690  Biso   1.000  H
  H36      1.0000 0.64310  0.18709  0.48270  Biso   1.000  H
  N6       1.0000 0.71632  0.21061  0.46574  Biso   1.000  N
  C28      1.0000 0.74997  0.42711  0.24999  Biso   1.000  C
  C29      1.0000 0.73851  0.51521  0.22223  Biso   1.000  C
  H37      1.0000 0.72107  0.43527  0.22879  Biso   1.000  H
  C30      1.0000 0.74997  0.24999  0.07291  Biso   1.000  C
  H38      1.0000 0.72877  0.27889  0.06471  Biso   1.000  H
  C31      1.0000 0.72221  0.26146  0.98477  Biso   1.000  C
  C32      1.0000 0.74997  0.07291  0.24999  Biso   1.000  C
  H39      1.0000 0.72107  0.06471  0.27119  Biso   1.000  H
  C33      1.0000 0.73851  0.98477  0.27775  Biso   1.000  C
  C34      1.0000 0.74997  0.24999  0.42711  Biso   1.000  C
  C35      1.0000 0.72221  0.23853  0.51521  Biso   1.000  C
  H40      1.0000 0.72877  0.22109  0.43527  Biso   1.000  H
  N7       1.0000 0.78939  0.46574  0.28364  Biso   1.000  N
  C36      1.0000 0.78558  0.39267  0.21681  Biso   1.000  C
  C37      1.0000 0.71440  0.39267  0.28321  Biso   1.000  C
  H41      1.0000 0.77887  0.43527  0.27119  Biso   1.000  H
  C38      1.0000 0.76144  0.51521  0.27775  Biso   1.000  C
  C39      1.0000 0.70509  0.56398  0.21367  Biso   1.000  C
  H42      1.0000 0.76819  0.51588  0.19651  Biso   1.000  H
  N8       1.0000 0.78366  0.21061  0.03428  Biso   1.000  N
  C40      1.0000 0.71679  0.21438  0.10731  Biso   1.000  C
  C41      1.0000 0.78319  0.28560  0.10731  Biso   1.000  C
  H43      1.0000 0.77117  0.22109  0.06471  Biso   1.000  H
  C42      1.0000 0.77777  0.23853  0.98477  Biso   1.000  C
  C43      1.0000 0.71365  0.29491  0.93596  Biso   1.000  C
  H44      1.0000 0.69649  0.23181  0.98410  Biso   1.000  H
  N9       1.0000 0.78939  0.03428  0.21634  Biso   1.000  N
  C44      1.0000 0.78558  0.10731  0.28321  Biso   1.000  C
  C45      1.0000 0.71440  0.10731  0.21681  Biso   1.000  C
  H45      1.0000 0.77887  0.06471  0.22879  Biso   1.000  H
  C46      1.0000 0.76144  0.98477  0.22223  Biso   1.000  C
  C47      1.0000 0.70509  0.93596  0.28631  Biso   1.000  C
  H46      1.0000 0.76819  0.98410  0.30351  Biso   1.000  H
  N10      1.0000 0.78366  0.28941  0.46574  Biso   1.000  N
  C48      1.0000 0.71679  0.28560  0.39267  Biso   1.000  C
  C49      1.0000 0.78319  0.21438  0.39267  Biso   1.000  C
  H47      1.0000 0.77117  0.27889  0.43527  Biso   1.000  H
  C50      1.0000 0.77777  0.26146  0.51521  Biso   1.000  C
  C51      1.0000 0.71365  0.20511  0.56398  Biso   1.000  C
  H48      1.0000 0.69649  0.26821  0.51588  Biso   1.000  H
  C52      1.0000 0.79646  0.45247  0.33892  Biso   1.000  C
  H49      1.0000 0.76497  0.36429  0.20091  Biso   1.000  H
  H50      1.0000 0.81318  0.37748  0.23900  Biso   1.000  H
  H51      1.0000 0.80168  0.41388  0.18901  Biso   1.000  H
  H52      1.0000 0.73497  0.36429  0.29911  Biso   1.000  H
  H53      1.0000 0.68680  0.37748  0.26098  Biso   1.000  H
  H54      1.0000 0.69830  0.41388  0.31101  Biso   1.000  H
  C53      1.0000 0.79489  0.56398  0.28631  Biso   1.000  C
  H55      1.0000 0.73179  0.51588  0.30351  Biso   1.000  H
  H56      1.0000 0.67490  0.56347  0.23821  Biso   1.000  H
  H57      1.0000 0.69119  0.56398  0.17739  Biso   1.000  H
  C54      1.0000 0.73760  0.61381  0.22274  Biso   1.000  C
  C55      1.0000 0.83890  0.20354  0.04755  Biso   1.000  C
  H58      1.0000 0.70089  0.23499  0.13569  Biso   1.000  H
  H59      1.0000 0.73898  0.18682  0.12250  Biso   1.000  H
  H60      1.0000 0.68899  0.19828  0.08610  Biso   1.000  H
  H61      1.0000 0.79909  0.26499  0.13569  Biso   1.000  H
  H62      1.0000 0.76100  0.31320  0.12250  Biso   1.000  H
  H63      1.0000 0.81099  0.30170  0.08610  Biso   1.000  H
  C56      1.0000 0.78629  0.20511  0.93596  Biso   1.000  C
  H64      1.0000 0.80349  0.26821  0.98410  Biso   1.000  H
  H65      1.0000 0.73819  0.32510  0.93647  Biso   1.000  H
  H66      1.0000 0.67737  0.30881  0.93596  Biso   1.000  H
  C57      1.0000 0.72272  0.26236  0.88621  Biso   1.000  C
  C58      1.0000 0.79646  0.04755  0.16106  Biso   1.000  C
  H67      1.0000 0.76497  0.13569  0.29911  Biso   1.000  H
  H68      1.0000 0.81318  0.12250  0.26098  Biso   1.000  H
  H69      1.0000 0.80168  0.08610  0.31101  Biso   1.000  H
  H70      1.0000 0.73497  0.13569  0.20091  Biso   1.000  H
  H71      1.0000 0.68680  0.12250  0.23900  Biso   1.000  H
  H72      1.0000 0.69830  0.08610  0.18901  Biso   1.000  H
  C59      1.0000 0.79489  0.93596  0.21367  Biso   1.000  C
  H73      1.0000 0.73179  0.98410  0.19651  Biso   1.000  H
  H74      1.0000 0.67490  0.93647  0.26181  Biso   1.000  H
  H75      1.0000 0.69119  0.93596  0.32259  Biso   1.000  H
  C60      1.0000 0.73760  0.88621  0.27728  Biso   1.000  C
  C61      1.0000 0.83890  0.29644  0.45247  Biso   1.000  C
  H76      1.0000 0.70089  0.26499  0.36429  Biso   1.000  H
  H77      1.0000 0.73898  0.31320  0.37748  Biso   1.000  H
  H78      1.0000 0.68899  0.30170  0.41388  Biso   1.000  H
  H79      1.0000 0.79909  0.23499  0.36429  Biso   1.000  H
  H80      1.0000 0.76100  0.18682  0.37748  Biso   1.000  H
  H81      1.0000 0.81099  0.19828  0.41388  Biso   1.000  H
  C62      1.0000 0.78629  0.29491  0.56398  Biso   1.000  C
  H82      1.0000 0.80349  0.23181  0.51588  Biso   1.000  H
  H83      1.0000 0.73819  0.17488  0.56347  Biso   1.000  H
  H84      1.0000 0.67737  0.19121  0.56398  Biso   1.000  H
  C63      1.0000 0.72272  0.23762  0.61381  Biso   1.000  C
  C64      1.0000 0.82979  0.40406  0.34886  Biso   1.000  C
  H85      1.0000 0.76147  0.44690  0.35490  Biso   1.000  H
  H86      1.0000 0.81287  0.48270  0.35690  Biso   1.000  H
  H87      1.0000 0.82508  0.56347  0.26181  Biso   1.000  H
  H88      1.0000 0.80879  0.56398  0.32259  Biso   1.000  H
  C65      1.0000 0.76238  0.61381  0.27728  Biso   1.000  C
  H89      1.0000 0.76560  0.61600  0.19581  Biso   1.000  H
  H90      1.0000 0.71479  0.64498  0.21889  Biso   1.000  H
  C66      1.0000 0.84888  0.17017  0.09592  Biso   1.000  C
  H91      1.0000 0.85488  0.23849  0.05308  Biso   1.000  H
  H92      1.0000 0.85688  0.18709  0.01732  Biso   1.000  H
  H93      1.0000 0.76179  0.17488  0.93647  Biso   1.000  H
  H94      1.0000 0.82257  0.19121  0.93596  Biso   1.000  H
  C67      1.0000 0.77726  0.23762  0.88621  Biso   1.000  C
  H95      1.0000 0.69579  0.23440  0.88402  Biso   1.000  H
  H96      1.0000 0.71887  0.28521  0.85500  Biso   1.000  H
  C68      1.0000 0.82979  0.09592  0.15112  Biso   1.000  C
  H97      1.0000 0.76147  0.05308  0.14508  Biso   1.000  H
  H98      1.0000 0.81287  0.01732  0.14312  Biso   1.000  H
  H99      1.0000 0.82508  0.93647  0.23821  Biso   1.000  H
  H100     1.0000 0.80879  0.93596  0.17739  Biso   1.000  H
  C69      1.0000 0.76238  0.88621  0.22274  Biso   1.000  C
  H101     1.0000 0.76560  0.88402  0.30421  Biso   1.000  H
  H102     1.0000 0.71479  0.85500  0.28109  Biso   1.000  H
  C70      1.0000 0.84888  0.32981  0.40406  Biso   1.000  C
  H103     1.0000 0.85488  0.26149  0.44690  Biso   1.000  H
  H104     1.0000 0.85688  0.31289  0.48270  Biso   1.000  H
  H105     1.0000 0.76179  0.32510  0.56347  Biso   1.000  H
  H106     1.0000 0.82257  0.30881  0.56398  Biso   1.000  H
  C71      1.0000 0.77726  0.26236  0.61381  Biso   1.000  C
  H107     1.0000 0.69579  0.26558  0.61600  Biso   1.000  H
  H108     1.0000 0.71887  0.21481  0.64498  Biso   1.000  H
  C72      1.0000 0.81794  0.37265  0.39201  Biso   1.000  C
  C73      1.0000 0.87267  0.39201  0.31792  Biso   1.000  C
  H109     1.0000 0.73438  0.61600  0.30421  Biso   1.000  H
  H110     1.0000 0.78519  0.64498  0.28109  Biso   1.000  H
  C74      1.0000 0.81794  0.12733  0.10797  Biso   1.000  C
  C75      1.0000 0.89199  0.18206  0.12733  Biso   1.000  C
  H111     1.0000 0.80419  0.26558  0.88402  Biso   1.000  H
  H112     1.0000 0.78107  0.21481  0.85500  Biso   1.000  H
  C76      1.0000 0.87267  0.10797  0.18206  Biso   1.000  C
  H113     1.0000 0.73438  0.88402  0.19581  Biso   1.000  H
  H114     1.0000 0.78519  0.85500  0.21889  Biso   1.000  H
  C77      1.0000 0.89199  0.31792  0.37265  Biso   1.000  C
  H115     1.0000 0.80419  0.23440  0.61600  Biso   1.000  H
  H116     1.0000 0.78107  0.28521  0.64498  Biso   1.000  H
  H117     1.0000 0.78837  0.38078  0.41329  Biso   1.000  H
  C78      1.0000 0.90408  0.34886  0.32981  Biso   1.000  C
  H118     1.0000 0.88080  0.41329  0.28839  Biso   1.000  H
  H119     1.0000 0.78837  0.11920  0.08669  Biso   1.000  H
  C79      1.0000 0.90408  0.15112  0.17017  Biso   1.000  C
  H120     1.0000 0.91327  0.21159  0.11920  Biso   1.000  H
  H121     1.0000 0.88080  0.08669  0.21159  Biso   1.000  H
  H122     1.0000 0.91327  0.28839  0.38078  Biso   1.000  H
  C80      1.0000 0.95245  0.33892  0.29644  Biso   1.000  C
  C81      1.0000 0.95245  0.16106  0.20354  Biso   1.000  C
  H123     1.0000 0.94688  0.35490  0.26149  Biso   1.000  H
  H124     1.0000 0.98268  0.35690  0.31289  Biso   1.000  H
  N11      1.0000 0.96572  0.28364  0.28941  Biso   1.000  N
  H125     1.0000 0.94688  0.14508  0.23849  Biso   1.000  H
  H126     1.0000 0.98268  0.14312  0.18709  Biso   1.000  H
  N12      1.0000 0.96572  0.21634  0.21061  Biso   1.000  N
  C82      1.0000 0.92709  0.24999  0.24999  Biso   1.000  C
  H127     1.0000 0.93529  0.27119  0.27889  Biso   1.000  H
  C83      1.0000 0.01519  0.27775  0.26146  Biso   1.000  C
  H128     1.0000 0.93529  0.22879  0.22109  Biso   1.000  H
  C84      1.0000 0.01519  0.22223  0.23853  Biso   1.000  C
  C85      1.0000 0.89269  0.28321  0.21438  Biso   1.000  C
  C86      1.0000 0.89269  0.21681  0.28560  Biso   1.000  C
  C87      1.0000 0.06396  0.28631  0.29491  Biso   1.000  C
  H129     1.0000 0.01586  0.30351  0.23181  Biso   1.000  H
  C88      1.0000 0.06396  0.21367  0.20511  Biso   1.000  C
  H130     1.0000 0.01586  0.19651  0.26821  Biso   1.000  H
  H131     1.0000 0.86427  0.29911  0.23499  Biso   1.000  H
  H132     1.0000 0.87750  0.26098  0.18682  Biso   1.000  H
  H133     1.0000 0.91390  0.31101  0.19828  Biso   1.000  H
  H134     1.0000 0.86427  0.20091  0.26499  Biso   1.000  H
  H135     1.0000 0.87750  0.23900  0.31320  Biso   1.000  H
  H136     1.0000 0.91390  0.18901  0.30170  Biso   1.000  H
  H137     1.0000 0.06349  0.26181  0.32510  Biso   1.000  H
  H138     1.0000 0.06396  0.32259  0.30881  Biso   1.000  H
  C89      1.0000 0.11379  0.27728  0.26236  Biso   1.000  C
  H139     1.0000 0.06349  0.23821  0.17488  Biso   1.000  H
  H140     1.0000 0.06396  0.17739  0.19121  Biso   1.000  H
  C90      1.0000 0.11379  0.22274  0.23762  Biso   1.000  C
  H141     1.0000 0.11598  0.30421  0.23440  Biso   1.000  H
  H142     1.0000 0.14496  0.28109  0.28521  Biso   1.000  H
  H143     1.0000 0.11598  0.19581  0.26558  Biso   1.000  H
  H144     1.0000 0.14496  0.21889  0.21481  Biso   1.000  H
  C91      1.0000 0.38619  0.27728  0.23762  Biso   1.000  C
  C92      1.0000 0.43602  0.28631  0.20511  Biso   1.000  C
  C93      1.0000 0.38619  0.22274  0.26236  Biso   1.000  C
  H145     1.0000 0.38400  0.30421  0.26558  Biso   1.000  H
  H146     1.0000 0.35498  0.28109  0.21481  Biso   1.000  H
  C94      1.0000 0.48475  0.27775  0.23853  Biso   1.000  C
  H147     1.0000 0.43649  0.26181  0.17488  Biso   1.000  H
  H148     1.0000 0.43598  0.32259  0.19121  Biso   1.000  H
  C95      1.0000 0.43602  0.21367  0.29491  Biso   1.000  C
  H149     1.0000 0.38400  0.19581  0.23440  Biso   1.000  H
  H150     1.0000 0.35498  0.21889  0.28521  Biso   1.000  H
  N13      1.0000 0.53426  0.28364  0.21061  Biso   1.000  N
  H151     1.0000 0.48408  0.30351  0.26821  Biso   1.000  H
  C96      1.0000 0.48475  0.22223  0.26146  Biso   1.000  C
  H152     1.0000 0.43649  0.23821  0.32510  Biso   1.000  H
  H153     1.0000 0.43598  0.17739  0.30881  Biso   1.000  H
  C97      1.0000 0.57289  0.24999  0.24999  Biso   1.000  C
  C98      1.0000 0.54753  0.33892  0.20354  Biso   1.000  C
  H154     1.0000 0.56469  0.27119  0.22109  Biso   1.000  H
  N14      1.0000 0.53426  0.21634  0.28941  Biso   1.000  N
  H155     1.0000 0.48408  0.19651  0.23181  Biso   1.000  H
  C99      1.0000 0.60729  0.28321  0.28560  Biso   1.000  C
  C100     1.0000 0.60729  0.21681  0.21438  Biso   1.000  C
  H156     1.0000 0.56469  0.22879  0.27889  Biso   1.000  H
  H157     1.0000 0.55310  0.35490  0.23849  Biso   1.000  H
  H158     1.0000 0.51730  0.35690  0.18709  Biso   1.000  H
  C101     1.0000 0.59590  0.34886  0.17017  Biso   1.000  C
  C102     1.0000 0.54753  0.16106  0.29644  Biso   1.000  C
  H159     1.0000 0.63567  0.29911  0.26499  Biso   1.000  H
  H160     1.0000 0.62248  0.26098  0.31320  Biso   1.000  H
  H161     1.0000 0.58609  0.31101  0.30170  Biso   1.000  H
  H162     1.0000 0.63567  0.20091  0.23499  Biso   1.000  H
  H163     1.0000 0.62248  0.23900  0.18682  Biso   1.000  H
  H164     1.0000 0.58609  0.18901  0.19828  Biso   1.000  H
  C103     1.0000 0.62731  0.39201  0.18206  Biso   1.000  C
  C104     1.0000 0.60799  0.31792  0.12733  Biso   1.000  C
  H165     1.0000 0.55310  0.14508  0.26149  Biso   1.000  H
  H166     1.0000 0.51730  0.14312  0.31289  Biso   1.000  H
  C105     1.0000 0.59590  0.15112  0.32981  Biso   1.000  C
  H167     1.0000 0.61918  0.41329  0.21159  Biso   1.000  H
  C106     1.0000 0.67019  0.40406  0.15112  Biso   1.000  C
  C107     1.0000 0.65111  0.32981  0.09592  Biso   1.000  C
  H168     1.0000 0.58667  0.28839  0.11920  Biso   1.000  H
  C108     1.0000 0.62731  0.10797  0.31792  Biso   1.000  C
  C109     1.0000 0.60799  0.18206  0.37265  Biso   1.000  C
  C110     1.0000 0.70352  0.45247  0.16106  Biso   1.000  C
  C111     1.0000 0.68204  0.37265  0.10797  Biso   1.000  C
  C112     1.0000 0.66108  0.29644  0.04755  Biso   1.000  C
  H169     1.0000 0.61918  0.08669  0.28839  Biso   1.000  H
  C113     1.0000 0.67019  0.09592  0.34886  Biso   1.000  C
  H170     1.0000 0.58667  0.21159  0.38078  Biso   1.000  H
  C114     1.0000 0.65111  0.17017  0.40406  Biso   1.000  C
  H171     1.0000 0.73847  0.44690  0.14508  Biso   1.000  H
  H172     1.0000 0.68707  0.48270  0.14312  Biso   1.000  H
  N15      1.0000 0.71059  0.46574  0.21634  Biso   1.000  N
  H173     1.0000 0.71157  0.38078  0.08669  Biso   1.000  H
  H174     1.0000 0.64510  0.26149  0.05308  Biso   1.000  H
  H175     1.0000 0.64310  0.31289  0.01732  Biso   1.000  H
  N16      1.0000 0.71632  0.28941  0.03428  Biso   1.000  N
  C115     1.0000 0.70352  0.04755  0.33892  Biso   1.000  C
  C116     1.0000 0.68204  0.12733  0.39201  Biso   1.000  C
  C117     1.0000 0.66108  0.20354  0.45247  Biso   1.000  C
  C118     1.0000 0.74997  0.42711  0.24999  Biso   1.000  C
  C119     1.0000 0.73851  0.51521  0.22223  Biso   1.000  C
  H176     1.0000 0.72107  0.43527  0.22879  Biso   1.000  H
  C120     1.0000 0.72221  0.26146  0.98477  Biso   1.000  C
  C121     1.0000 0.74997  0.24999  0.07291  Biso   1.000  C
  H177     1.0000 0.72877  0.27889  0.06471  Biso   1.000  H
  H178     1.0000 0.73847  0.05308  0.35490  Biso   1.000  H
  H179     1.0000 0.68707  0.01732  0.35690  Biso   1.000  H
  N17      1.0000 0.71059  0.03428  0.28364  Biso   1.000  N
  H180     1.0000 0.71157  0.11920  0.41329  Biso   1.000  H
  H181     1.0000 0.64510  0.23849  0.44690  Biso   1.000  H
  H182     1.0000 0.64310  0.18709  0.48270  Biso   1.000  H
  N18      1.0000 0.71632  0.21061  0.46574  Biso   1.000  N
  N19      1.0000 0.78939  0.46574  0.28364  Biso   1.000  N
  C122     1.0000 0.78558  0.39267  0.21681  Biso   1.000  C
  C123     1.0000 0.71440  0.39267  0.28321  Biso   1.000  C
  H183     1.0000 0.77887  0.43527  0.27119  Biso   1.000  H
  H184     1.0000 0.76819  0.51588  0.19651  Biso   1.000  H
  C124     1.0000 0.76144  0.51521  0.27775  Biso   1.000  C
  C125     1.0000 0.70509  0.56398  0.21367  Biso   1.000  C
  C126     1.0000 0.77777  0.23853  0.98477  Biso   1.000  C
  C127     1.0000 0.71365  0.29491  0.93596  Biso   1.000  C
  H185     1.0000 0.69649  0.23181  0.98410  Biso   1.000  H
  N20      1.0000 0.78366  0.21061  0.03428  Biso   1.000  N
  C128     1.0000 0.71679  0.21438  0.10731  Biso   1.000  C
  C129     1.0000 0.78319  0.28560  0.10731  Biso   1.000  C
  H186     1.0000 0.77117  0.22109  0.06471  Biso   1.000  H
  C130     1.0000 0.73851  0.98477  0.27775  Biso   1.000  C
  C131     1.0000 0.74997  0.07291  0.24999  Biso   1.000  C
  H187     1.0000 0.72107  0.06471  0.27119  Biso   1.000  H
  C132     1.0000 0.74997  0.24999  0.42711  Biso   1.000  C
  C133     1.0000 0.72221  0.23853  0.51521  Biso   1.000  C
  H188     1.0000 0.72877  0.22109  0.43527  Biso   1.000  H
  C134     1.0000 0.79646  0.45247  0.33892  Biso   1.000  C
  H189     1.0000 0.76497  0.36429  0.20091  Biso   1.000  H
  H190     1.0000 0.81318  0.37748  0.23900  Biso   1.000  H
  H191     1.0000 0.80168  0.41388  0.18901  Biso   1.000  H
  H192     1.0000 0.73497  0.36429  0.29911  Biso   1.000  H
  H193     1.0000 0.68680  0.37748  0.26098  Biso   1.000  H
  H194     1.0000 0.69830  0.41388  0.31101  Biso   1.000  H
  H195     1.0000 0.73179  0.51588  0.30351  Biso   1.000  H
  C135     1.0000 0.79489  0.56398  0.28631  Biso   1.000  C
  H196     1.0000 0.67490  0.56347  0.23821  Biso   1.000  H
  H197     1.0000 0.69119  0.56398  0.17739  Biso   1.000  H
  C136     1.0000 0.73760  0.61381  0.22274  Biso   1.000  C
  C137     1.0000 0.78629  0.20511  0.93596  Biso   1.000  C
  H198     1.0000 0.80349  0.26821  0.98410  Biso   1.000  H
  H199     1.0000 0.73819  0.32510  0.93647  Biso   1.000  H
  H200     1.0000 0.67737  0.30881  0.93596  Biso   1.000  H
  C138     1.0000 0.72272  0.26236  0.88621  Biso   1.000  C
  C139     1.0000 0.83890  0.20354  0.04755  Biso   1.000  C
  H201     1.0000 0.70089  0.23499  0.13569  Biso   1.000  H
  H202     1.0000 0.73898  0.18682  0.12250  Biso   1.000  H
  H203     1.0000 0.68899  0.19828  0.08610  Biso   1.000  H
  H204     1.0000 0.79909  0.26499  0.13569  Biso   1.000  H
  H205     1.0000 0.76100  0.31320  0.12250  Biso   1.000  H
  H206     1.0000 0.81099  0.30170  0.08610  Biso   1.000  H
  C140     1.0000 0.76144  0.98477  0.22223  Biso   1.000  C
  C141     1.0000 0.70509  0.93596  0.28631  Biso   1.000  C
  H207     1.0000 0.76819  0.98410  0.30351  Biso   1.000  H
  N21      1.0000 0.78939  0.03428  0.21634  Biso   1.000  N
  C142     1.0000 0.78558  0.10731  0.28321  Biso   1.000  C
  C143     1.0000 0.71440  0.10731  0.21681  Biso   1.000  C
  H208     1.0000 0.77887  0.06471  0.22879  Biso   1.000  H
  N22      1.0000 0.78366  0.28941  0.46574  Biso   1.000  N
  C144     1.0000 0.71679  0.28560  0.39267  Biso   1.000  C
  C145     1.0000 0.78319  0.21438  0.39267  Biso   1.000  C
  H209     1.0000 0.77117  0.27889  0.43527  Biso   1.000  H
  H210     1.0000 0.69649  0.26821  0.51588  Biso   1.000  H
  C146     1.0000 0.77777  0.26146  0.51521  Biso   1.000  C
  C147     1.0000 0.71365  0.20511  0.56398  Biso   1.000  C
  H211     1.0000 0.76147  0.44690  0.35490  Biso   1.000  H
  H212     1.0000 0.81287  0.48270  0.35690  Biso   1.000  H
  C148     1.0000 0.82979  0.40406  0.34886  Biso   1.000  C
  H213     1.0000 0.82508  0.56347  0.26181  Biso   1.000  H
  H214     1.0000 0.80879  0.56398  0.32259  Biso   1.000  H
  C149     1.0000 0.76238  0.61381  0.27728  Biso   1.000  C
  H215     1.0000 0.76560  0.61600  0.19581  Biso   1.000  H
  H216     1.0000 0.71479  0.64498  0.21889  Biso   1.000  H
  H217     1.0000 0.76179  0.17488  0.93647  Biso   1.000  H
  H218     1.0000 0.82257  0.19121  0.93596  Biso   1.000  H
  C150     1.0000 0.77726  0.23762  0.88621  Biso   1.000  C
  H219     1.0000 0.69579  0.23440  0.88402  Biso   1.000  H
  H220     1.0000 0.71887  0.28521  0.85500  Biso   1.000  H
  H221     1.0000 0.85488  0.23849  0.05308  Biso   1.000  H
  H222     1.0000 0.85688  0.18709  0.01732  Biso   1.000  H
  C151     1.0000 0.84888  0.17017  0.09592  Biso   1.000  C
  C152     1.0000 0.79489  0.93596  0.21367  Biso   1.000  C
  H223     1.0000 0.73179  0.98410  0.19651  Biso   1.000  H
  H224     1.0000 0.67490  0.93647  0.26181  Biso   1.000  H
  H225     1.0000 0.69119  0.93596  0.32259  Biso   1.000  H
  C153     1.0000 0.73760  0.88621  0.27728  Biso   1.000  C
  C154     1.0000 0.79646  0.04755  0.16106  Biso   1.000  C
  H226     1.0000 0.76497  0.13569  0.29911  Biso   1.000  H
  H227     1.0000 0.81318  0.12250  0.26098  Biso   1.000  H
  H228     1.0000 0.80168  0.08610  0.31101  Biso   1.000  H
  H229     1.0000 0.73497  0.13569  0.20091  Biso   1.000  H
  H230     1.0000 0.68680  0.12250  0.23900  Biso   1.000  H
  H231     1.0000 0.69830  0.08610  0.18901  Biso   1.000  H
  C155     1.0000 0.83890  0.29644  0.45247  Biso   1.000  C
  H232     1.0000 0.70089  0.26499  0.36429  Biso   1.000  H
  H233     1.0000 0.73898  0.31320  0.37748  Biso   1.000  H
  H234     1.0000 0.68899  0.30170  0.41388  Biso   1.000  H
  H235     1.0000 0.79909  0.23499  0.36429  Biso   1.000  H
  H236     1.0000 0.76100  0.18682  0.37748  Biso   1.000  H
  H237     1.0000 0.81099  0.19828  0.41388  Biso   1.000  H
  H238     1.0000 0.80349  0.23181  0.51588  Biso   1.000  H
  C156     1.0000 0.78629  0.29491  0.56398  Biso   1.000  C
  H239     1.0000 0.73819  0.17488  0.56347  Biso   1.000  H
  H240     1.0000 0.67737  0.19121  0.56398  Biso   1.000  H
  C157     1.0000 0.72272  0.23762  0.61381  Biso   1.000  C
  C158     1.0000 0.87267  0.39201  0.31792  Biso   1.000  C
  C159     1.0000 0.81794  0.37265  0.39201  Biso   1.000  C
  H241     1.0000 0.73438  0.61600  0.30421  Biso   1.000  H
  H242     1.0000 0.78519  0.64498  0.28109  Biso   1.000  H
  H243     1.0000 0.80419  0.26558  0.88402  Biso   1.000  H
  H244     1.0000 0.78107  0.21481  0.85500  Biso   1.000  H
  C160     1.0000 0.89199  0.18206  0.12733  Biso   1.000  C
  C161     1.0000 0.81794  0.12733  0.10797  Biso   1.000  C
  H245     1.0000 0.82508  0.93647  0.23821  Biso   1.000  H
  H246     1.0000 0.80879  0.93596  0.17739  Biso   1.000  H
  C162     1.0000 0.76238  0.88621  0.22274  Biso   1.000  C
  H247     1.0000 0.76560  0.88402  0.30421  Biso   1.000  H
  H248     1.0000 0.71479  0.85500  0.28109  Biso   1.000  H
  H249     1.0000 0.76147  0.05308  0.14508  Biso   1.000  H
  H250     1.0000 0.81287  0.01732  0.14312  Biso   1.000  H
  C163     1.0000 0.82979  0.09592  0.15112  Biso   1.000  C
  H251     1.0000 0.85488  0.26149  0.44690  Biso   1.000  H
  H252     1.0000 0.85688  0.31289  0.48270  Biso   1.000  H
  C164     1.0000 0.84888  0.32981  0.40406  Biso   1.000  C
  H253     1.0000 0.76179  0.32510  0.56347  Biso   1.000  H
  H254     1.0000 0.82257  0.30881  0.56398  Biso   1.000  H
  C165     1.0000 0.77726  0.26236  0.61381  Biso   1.000  C
  H255     1.0000 0.69579  0.26558  0.61600  Biso   1.000  H
  H256     1.0000 0.71887  0.21481  0.64498  Biso   1.000  H
  C166     1.0000 0.90408  0.34886  0.32981  Biso   1.000  C
  H257     1.0000 0.88080  0.41329  0.28839  Biso   1.000  H
  H258     1.0000 0.78837  0.38078  0.41329  Biso   1.000  H
  H259     1.0000 0.91327  0.21159  0.11920  Biso   1.000  H
  C167     1.0000 0.90408  0.15112  0.17017  Biso   1.000  C
  H260     1.0000 0.78837  0.11920  0.08669  Biso   1.000  H
  H261     1.0000 0.73438  0.88402  0.19581  Biso   1.000  H
  H262     1.0000 0.78519  0.85500  0.21889  Biso   1.000  H
  C168     1.0000 0.87267  0.10797  0.18206  Biso   1.000  C
  C169     1.0000 0.89199  0.31792  0.37265  Biso   1.000  C
  H263     1.0000 0.80419  0.23440  0.61600  Biso   1.000  H
  H264     1.0000 0.78107  0.28521  0.64498  Biso   1.000  H
  C170     1.0000 0.95245  0.33892  0.29644  Biso   1.000  C
  C171     1.0000 0.95245  0.16106  0.20354  Biso   1.000  C
  H265     1.0000 0.88080  0.08669  0.21159  Biso   1.000  H
  H266     1.0000 0.91327  0.28839  0.38078  Biso   1.000  H
  H267     1.0000 0.94688  0.35490  0.26149  Biso   1.000  H
  H268     1.0000 0.98268  0.35690  0.31289  Biso   1.000  H
  N23      1.0000 0.96572  0.28364  0.28941  Biso   1.000  N
  H269     1.0000 0.94688  0.14508  0.23849  Biso   1.000  H
  H270     1.0000 0.98268  0.14312  0.18709  Biso   1.000  H
  N24      1.0000 0.96572  0.21634  0.21061  Biso   1.000  N
  C172     1.0000 0.92709  0.24999  0.24999  Biso   1.000  C
  H271     1.0000 0.93529  0.27119  0.27889  Biso   1.000  H
  C173     1.0000 0.01519  0.27775  0.26146  Biso   1.000  C
  H272     1.0000 0.93529  0.22879  0.22109  Biso   1.000  H
  C174     1.0000 0.01519  0.22223  0.23853  Biso   1.000  C
  C175     1.0000 0.89269  0.28321  0.21438  Biso   1.000  C
  C176     1.0000 0.89269  0.21681  0.28560  Biso   1.000  C
  C177     1.0000 0.06396  0.28631  0.29491  Biso   1.000  C
  H273     1.0000 0.01586  0.30351  0.23181  Biso   1.000  H
  C178     1.0000 0.06396  0.21367  0.20511  Biso   1.000  C
  H274     1.0000 0.01586  0.19651  0.26821  Biso   1.000  H
  H275     1.0000 0.86427  0.29911  0.23499  Biso   1.000  H
  H276     1.0000 0.87750  0.26098  0.18682  Biso   1.000  H
  H277     1.0000 0.91390  0.31101  0.19828  Biso   1.000  H
  H278     1.0000 0.86427  0.20091  0.26499  Biso   1.000  H
  H279     1.0000 0.87750  0.23900  0.31320  Biso   1.000  H
  H280     1.0000 0.91390  0.18901  0.30170  Biso   1.000  H
  H281     1.0000 0.06349  0.26181  0.32510  Biso   1.000  H
  H282     1.0000 0.06396  0.32259  0.30881  Biso   1.000  H
  C179     1.0000 0.11379  0.27728  0.26236  Biso   1.000  C
  H283     1.0000 0.06349  0.23821  0.17488  Biso   1.000  H
  H284     1.0000 0.06396  0.17739  0.19121  Biso   1.000  H
  C180     1.0000 0.11379  0.22274  0.23762  Biso   1.000  C
  H285     1.0000 0.11598  0.30421  0.23440  Biso   1.000  H
  H286     1.0000 0.14496  0.28109  0.28521  Biso   1.000  H
  H287     1.0000 0.11598  0.19581  0.26558  Biso   1.000  H
  H288     1.0000 0.14496  0.21889  0.21481  Biso   1.000  H
  C181     1.0000 0.27728  0.23762  0.38619  Biso   1.000  C
  C182     1.0000 0.22274  0.26236  0.38619  Biso   1.000  C
  C183     1.0000 0.28631  0.20511  0.43602  Biso   1.000  C
  H289     1.0000 0.30421  0.26558  0.38400  Biso   1.000  H
  H290     1.0000 0.28109  0.21481  0.35498  Biso   1.000  H
  C184     1.0000 0.21367  0.29491  0.43602  Biso   1.000  C
  H291     1.0000 0.19581  0.23440  0.38400  Biso   1.000  H
  H292     1.0000 0.21889  0.28521  0.35498  Biso   1.000  H
  C185     1.0000 0.27775  0.23853  0.48475  Biso   1.000  C
  H293     1.0000 0.26181  0.17488  0.43649  Biso   1.000  H
  H294     1.0000 0.32259  0.19121  0.43598  Biso   1.000  H
  C186     1.0000 0.22223  0.26146  0.48475  Biso   1.000  C
  H295     1.0000 0.23821  0.32510  0.43649  Biso   1.000  H
  H296     1.0000 0.17739  0.30881  0.43598  Biso   1.000  H
  H297     1.0000 0.30351  0.26821  0.48408  Biso   1.000  H
  N25      1.0000 0.28364  0.21061  0.53426  Biso   1.000  N
  H298     1.0000 0.19651  0.23181  0.48408  Biso   1.000  H
  N26      1.0000 0.21634  0.28941  0.53426  Biso   1.000  N
  C187     1.0000 0.24999  0.24999  0.57289  Biso   1.000  C
  C188     1.0000 0.33892  0.20354  0.54753  Biso   1.000  C
  H299     1.0000 0.27119  0.22109  0.56469  Biso   1.000  H
  C189     1.0000 0.16106  0.29644  0.54753  Biso   1.000  C
  H300     1.0000 0.22879  0.27889  0.56469  Biso   1.000  H
  C190     1.0000 0.28321  0.28560  0.60729  Biso   1.000  C
  C191     1.0000 0.21681  0.21438  0.60729  Biso   1.000  C
  C192     1.0000 0.34886  0.17017  0.59590  Biso   1.000  C
  H301     1.0000 0.35490  0.23849  0.55310  Biso   1.000  H
  H302     1.0000 0.35690  0.18709  0.51730  Biso   1.000  H
  C193     1.0000 0.15112  0.32981  0.59590  Biso   1.000  C
  H303     1.0000 0.14508  0.26149  0.55310  Biso   1.000  H
  H304     1.0000 0.14312  0.31289  0.51730  Biso   1.000  H
  H305     1.0000 0.29911  0.26499  0.63567  Biso   1.000  H
  H306     1.0000 0.26098  0.31320  0.62248  Biso   1.000  H
  H307     1.0000 0.31101  0.30170  0.58609  Biso   1.000  H
  H308     1.0000 0.20091  0.23499  0.63567  Biso   1.000  H
  H309     1.0000 0.23900  0.18682  0.62248  Biso   1.000  H
  H310     1.0000 0.18901  0.19828  0.58609  Biso   1.000  H
  C194     1.0000 0.39201  0.18206  0.62731  Biso   1.000  C
  C195     1.0000 0.31792  0.12733  0.60799  Biso   1.000  C
  C196     1.0000 0.10797  0.31792  0.62731  Biso   1.000  C
  C197     1.0000 0.18206  0.37265  0.60799  Biso   1.000  C
  H311     1.0000 0.41329  0.21159  0.61918  Biso   1.000  H
  C198     1.0000 0.40406  0.15112  0.67019  Biso   1.000  C
  C199     1.0000 0.32981  0.09592  0.65111  Biso   1.000  C
  H312     1.0000 0.28839  0.11920  0.58667  Biso   1.000  H
  H313     1.0000 0.08669  0.28839  0.61918  Biso   1.000  H
  C200     1.0000 0.09592  0.34886  0.67019  Biso   1.000  C
  C201     1.0000 0.17017  0.40406  0.65111  Biso   1.000  C
  H314     1.0000 0.21159  0.38078  0.58667  Biso   1.000  H
  C202     1.0000 0.37265  0.10797  0.68204  Biso   1.000  C
  C203     1.0000 0.45247  0.16106  0.70352  Biso   1.000  C
  C204     1.0000 0.29644  0.04755  0.66108  Biso   1.000  C
  C205     1.0000 0.04755  0.33892  0.70352  Biso   1.000  C
  C206     1.0000 0.12733  0.39201  0.68204  Biso   1.000  C
  C207     1.0000 0.20354  0.45247  0.66108  Biso   1.000  C
  H315     1.0000 0.38078  0.08669  0.71157  Biso   1.000  H
  H316     1.0000 0.44690  0.14508  0.73847  Biso   1.000  H
  H317     1.0000 0.48270  0.14312  0.68707  Biso   1.000  H
  N27      1.0000 0.46574  0.21634  0.71059  Biso   1.000  N
  H318     1.0000 0.26149  0.05308  0.64510  Biso   1.000  H
  H319     1.0000 0.31289  0.01732  0.64310  Biso   1.000  H
  N28      1.0000 0.28941  0.03428  0.71632  Biso   1.000  N
  H320     1.0000 0.05308  0.35490  0.73847  Biso   1.000  H
  H321     1.0000 0.01732  0.35690  0.68707  Biso   1.000  H
  N29      1.0000 0.03428  0.28364  0.71059  Biso   1.000  N
  H322     1.0000 0.11920  0.41329  0.71157  Biso   1.000  H
  H323     1.0000 0.23849  0.44690  0.64510  Biso   1.000  H
  H324     1.0000 0.18709  0.48270  0.64310  Biso   1.000  H
  N30      1.0000 0.21061  0.46574  0.71632  Biso   1.000  N
  C208     1.0000 0.51521  0.22223  0.73851  Biso   1.000  C
  C209     1.0000 0.42711  0.24999  0.74997  Biso   1.000  C
  H325     1.0000 0.43527  0.22879  0.72107  Biso   1.000  H
  C210     1.0000 0.24999  0.07291  0.74997  Biso   1.000  C
  H326     1.0000 0.27889  0.06471  0.72877  Biso   1.000  H
  C211     1.0000 0.26146  0.98477  0.72221  Biso   1.000  C
  C212     1.0000 0.07291  0.24999  0.74997  Biso   1.000  C
  H327     1.0000 0.06471  0.27119  0.72107  Biso   1.000  H
  C213     1.0000 0.98477  0.27775  0.73851  Biso   1.000  C
  C214     1.0000 0.23853  0.51521  0.72221  Biso   1.000  C
  C215     1.0000 0.24999  0.42711  0.74997  Biso   1.000  C
  H328     1.0000 0.22109  0.43527  0.72877  Biso   1.000  H
  C216     1.0000 0.56398  0.21367  0.70509  Biso   1.000  C
  H329     1.0000 0.51588  0.19651  0.76819  Biso   1.000  H
  C217     1.0000 0.51521  0.27775  0.76144  Biso   1.000  C
  C218     1.0000 0.39267  0.28321  0.71440  Biso   1.000  C
  N31      1.0000 0.46574  0.28364  0.78939  Biso   1.000  N
  C219     1.0000 0.39267  0.21681  0.78558  Biso   1.000  C
  H330     1.0000 0.43527  0.27119  0.77887  Biso   1.000  H
  N32      1.0000 0.21061  0.03428  0.78366  Biso   1.000  N
  C220     1.0000 0.21438  0.10731  0.71679  Biso   1.000  C
  C221     1.0000 0.28560  0.10731  0.78319  Biso   1.000  C
  H331     1.0000 0.22109  0.06471  0.77117  Biso   1.000  H
  C222     1.0000 0.23853  0.98477  0.77777  Biso   1.000  C
  C223     1.0000 0.29491  0.93596  0.71365  Biso   1.000  C
  H332     1.0000 0.23181  0.98410  0.69649  Biso   1.000  H
  N33      1.0000 0.03428  0.21634  0.78939  Biso   1.000  N
  C224     1.0000 0.10731  0.28321  0.78558  Biso   1.000  C
  C225     1.0000 0.10731  0.21681  0.71440  Biso   1.000  C
  H333     1.0000 0.06471  0.22879  0.77887  Biso   1.000  H
  C226     1.0000 0.98477  0.22223  0.76144  Biso   1.000  C
  C227     1.0000 0.93596  0.28631  0.70509  Biso   1.000  C
  H334     1.0000 0.98410  0.30351  0.76819  Biso   1.000  H
  C228     1.0000 0.20511  0.56398  0.71365  Biso   1.000  C
  H335     1.0000 0.26821  0.51588  0.69649  Biso   1.000  H
  C229     1.0000 0.26146  0.51521  0.77777  Biso   1.000  C
  C230     1.0000 0.21438  0.39267  0.78319  Biso   1.000  C
  N34      1.0000 0.28941  0.46574  0.78366  Biso   1.000  N
  C231     1.0000 0.28560  0.39267  0.71679  Biso   1.000  C
  H336     1.0000 0.27889  0.43527  0.77117  Biso   1.000  H
  H337     1.0000 0.56347  0.23821  0.67490  Biso   1.000  H
  H338     1.0000 0.56398  0.17739  0.69119  Biso   1.000  H
  C232     1.0000 0.61381  0.22274  0.73760  Biso   1.000  C
  C233     1.0000 0.56398  0.28631  0.79489  Biso   1.000  C
  H339     1.0000 0.51588  0.30351  0.73179  Biso   1.000  H
  H340     1.0000 0.36429  0.29911  0.73497  Biso   1.000  H
  H341     1.0000 0.37748  0.26098  0.68680  Biso   1.000  H
  H342     1.0000 0.41388  0.31101  0.69830  Biso   1.000  H
  C234     1.0000 0.45247  0.33892  0.79646  Biso   1.000  C
  H343     1.0000 0.36429  0.20091  0.76497  Biso   1.000  H
  H344     1.0000 0.37748  0.23900  0.81318  Biso   1.000  H
  H345     1.0000 0.41388  0.18901  0.80168  Biso   1.000  H
  C235     1.0000 0.20354  0.04755  0.83890  Biso   1.000  C
  H346     1.0000 0.23499  0.13569  0.70089  Biso   1.000  H
  H347     1.0000 0.18682  0.12250  0.73898  Biso   1.000  H
  H348     1.0000 0.19828  0.08610  0.68899  Biso   1.000  H
  H349     1.0000 0.26499  0.13569  0.79909  Biso   1.000  H
  H350     1.0000 0.31320  0.12250  0.76100  Biso   1.000  H
  H351     1.0000 0.30170  0.08610  0.81099  Biso   1.000  H
  C236     1.0000 0.20511  0.93596  0.78629  Biso   1.000  C
  H352     1.0000 0.26821  0.98410  0.80349  Biso   1.000  H
  H353     1.0000 0.32510  0.93647  0.73819  Biso   1.000  H
  H354     1.0000 0.30881  0.93596  0.67737  Biso   1.000  H
  C237     1.0000 0.26236  0.88621  0.72272  Biso   1.000  C
  C238     1.0000 0.04755  0.16106  0.79646  Biso   1.000  C
  H355     1.0000 0.13569  0.29911  0.76497  Biso   1.000  H
  H356     1.0000 0.12250  0.26098  0.81318  Biso   1.000  H
  H357     1.0000 0.08610  0.31101  0.80168  Biso   1.000  H
  H358     1.0000 0.13569  0.20091  0.73497  Biso   1.000  H
  H359     1.0000 0.12250  0.23900  0.68680  Biso   1.000  H
  H360     1.0000 0.08610  0.18901  0.69830  Biso   1.000  H
  C239     1.0000 0.93596  0.21367  0.79489  Biso   1.000  C
  H361     1.0000 0.98410  0.19651  0.73179  Biso   1.000  H
  H362     1.0000 0.93647  0.26181  0.67490  Biso   1.000  H
  H363     1.0000 0.93596  0.32259  0.69119  Biso   1.000  H
  C240     1.0000 0.88621  0.27728  0.73760  Biso   1.000  C
  H364     1.0000 0.17488  0.56347  0.73819  Biso   1.000  H
  H365     1.0000 0.19121  0.56398  0.67737  Biso   1.000  H
  C241     1.0000 0.23762  0.61381  0.72272  Biso   1.000  C
  C242     1.0000 0.29491  0.56398  0.78629  Biso   1.000  C
  H366     1.0000 0.23181  0.51588  0.80349  Biso   1.000  H
  H367     1.0000 0.23499  0.36429  0.79909  Biso   1.000  H
  H368     1.0000 0.18682  0.37748  0.76100  Biso   1.000  H
  H369     1.0000 0.19828  0.41388  0.81099  Biso   1.000  H
  C243     1.0000 0.29644  0.45247  0.83890  Biso   1.000  C
  H370     1.0000 0.26499  0.36429  0.70089  Biso   1.000  H
  H371     1.0000 0.31320  0.37748  0.73898  Biso   1.000  H
  H372     1.0000 0.30170  0.41388  0.68899  Biso   1.000  H
  H373     1.0000 0.61600  0.19581  0.76560  Biso   1.000  H
  H374     1.0000 0.64498  0.21889  0.71479  Biso   1.000  H
  C244     1.0000 0.61381  0.27728  0.76238  Biso   1.000  C
  H375     1.0000 0.56347  0.26181  0.82508  Biso   1.000  H
  H376     1.0000 0.56398  0.32259  0.80879  Biso   1.000  H
  C245     1.0000 0.40406  0.34886  0.82979  Biso   1.000  C
  H377     1.0000 0.44690  0.35490  0.76147  Biso   1.000  H
  H378     1.0000 0.48270  0.35690  0.81287  Biso   1.000  H
  C246     1.0000 0.17017  0.09592  0.84888  Biso   1.000  C
  H379     1.0000 0.23849  0.05308  0.85488  Biso   1.000  H
  H380     1.0000 0.18709  0.01732  0.85688  Biso   1.000  H
  H381     1.0000 0.17488  0.93647  0.76179  Biso   1.000  H
  H382     1.0000 0.19121  0.93596  0.82257  Biso   1.000  H
  C247     1.0000 0.23762  0.88621  0.77726  Biso   1.000  C
  H383     1.0000 0.23440  0.88402  0.69579  Biso   1.000  H
  H384     1.0000 0.28521  0.85500  0.71887  Biso   1.000  H
  C248     1.0000 0.09592  0.15112  0.82979  Biso   1.000  C
  H385     1.0000 0.05308  0.14508  0.76147  Biso   1.000  H
  H386     1.0000 0.01732  0.14312  0.81287  Biso   1.000  H
  H387     1.0000 0.93647  0.23821  0.82508  Biso   1.000  H
  H388     1.0000 0.93596  0.17739  0.80879  Biso   1.000  H
  C249     1.0000 0.88621  0.22274  0.76238  Biso   1.000  C
  H389     1.0000 0.88402  0.30421  0.76560  Biso   1.000  H
  H390     1.0000 0.85500  0.28109  0.71479  Biso   1.000  H
  H391     1.0000 0.26558  0.61600  0.69579  Biso   1.000  H
  H392     1.0000 0.21481  0.64498  0.71887  Biso   1.000  H
  C250     1.0000 0.26236  0.61381  0.77726  Biso   1.000  C
  H393     1.0000 0.32510  0.56347  0.76179  Biso   1.000  H
  H394     1.0000 0.30881  0.56398  0.82257  Biso   1.000  H
  C251     1.0000 0.32981  0.40406  0.84888  Biso   1.000  C
  H395     1.0000 0.26149  0.44690  0.85488  Biso   1.000  H
  H396     1.0000 0.31289  0.48270  0.85688  Biso   1.000  H
  H397     1.0000 0.61600  0.30421  0.73438  Biso   1.000  H
  H398     1.0000 0.64498  0.28109  0.78519  Biso   1.000  H
  C252     1.0000 0.37265  0.39201  0.81794  Biso   1.000  C
  C253     1.0000 0.39201  0.31792  0.87267  Biso   1.000  C
  C254     1.0000 0.12733  0.10797  0.81794  Biso   1.000  C
  C255     1.0000 0.18206  0.12733  0.89199  Biso   1.000  C
  H399     1.0000 0.26558  0.88402  0.80419  Biso   1.000  H
  H400     1.0000 0.21481  0.85500  0.78107  Biso   1.000  H
  C256     1.0000 0.10797  0.18206  0.87267  Biso   1.000  C
  H401     1.0000 0.88402  0.19581  0.73438  Biso   1.000  H
  H402     1.0000 0.85500  0.21889  0.78519  Biso   1.000  H
  H403     1.0000 0.23440  0.61600  0.80419  Biso   1.000  H
  H404     1.0000 0.28521  0.64498  0.78107  Biso   1.000  H
  C257     1.0000 0.31792  0.37265  0.89199  Biso   1.000  C
  H405     1.0000 0.38078  0.41329  0.78837  Biso   1.000  H
  C258     1.0000 0.34886  0.32981  0.90408  Biso   1.000  C
  H406     1.0000 0.41329  0.28839  0.88080  Biso   1.000  H
  H407     1.0000 0.11920  0.08669  0.78837  Biso   1.000  H
  H408     1.0000 0.21159  0.11920  0.91327  Biso   1.000  H
  C259     1.0000 0.15112  0.17017  0.90408  Biso   1.000  C
  H409     1.0000 0.08669  0.21159  0.88080  Biso   1.000  H
  H410     1.0000 0.28839  0.38078  0.91327  Biso   1.000  H
  C260     1.0000 0.33892  0.29644  0.95245  Biso   1.000  C
  C261     1.0000 0.16106  0.20354  0.95245  Biso   1.000  C
  H411     1.0000 0.35490  0.26149  0.94688  Biso   1.000  H
  H412     1.0000 0.35690  0.31289  0.98268  Biso   1.000  H
  N35      1.0000 0.28364  0.28941  0.96572  Biso   1.000  N
  H413     1.0000 0.14508  0.23849  0.94688  Biso   1.000  H
  H414     1.0000 0.14312  0.18709  0.98268  Biso   1.000  H
  N36      1.0000 0.21634  0.21061  0.96572  Biso   1.000  N
  C262     1.0000 0.24999  0.24999  0.92709  Biso   1.000  C
  H415     1.0000 0.27119  0.27889  0.93529  Biso   1.000  H
  C263     1.0000 0.27775  0.26146  0.01519  Biso   1.000  C
  H416     1.0000 0.22879  0.22109  0.93529  Biso   1.000  H
  C264     1.0000 0.22223  0.23853  0.01519  Biso   1.000  C
  C265     1.0000 0.28321  0.21438  0.89269  Biso   1.000  C
  C266     1.0000 0.21681  0.28560  0.89269  Biso   1.000  C
  C267     1.0000 0.28631  0.29491  0.06396  Biso   1.000  C
  H417     1.0000 0.30351  0.23181  0.01586  Biso   1.000  H
  C268     1.0000 0.21367  0.20511  0.06396  Biso   1.000  C
  H418     1.0000 0.19651  0.26821  0.01586  Biso   1.000  H
  H419     1.0000 0.29911  0.23499  0.86427  Biso   1.000  H
  H420     1.0000 0.26098  0.18682  0.87750  Biso   1.000  H
  H421     1.0000 0.31101  0.19828  0.91390  Biso   1.000  H
  H422     1.0000 0.20091  0.26499  0.86427  Biso   1.000  H
  H423     1.0000 0.23900  0.31320  0.87750  Biso   1.000  H
  H424     1.0000 0.18901  0.30170  0.91390  Biso   1.000  H
  H425     1.0000 0.26181  0.32510  0.06349  Biso   1.000  H
  H426     1.0000 0.32259  0.30881  0.06396  Biso   1.000  H
  C269     1.0000 0.27728  0.26236  0.11379  Biso   1.000  C
  H427     1.0000 0.23821  0.17488  0.06349  Biso   1.000  H
  H428     1.0000 0.17739  0.19121  0.06396  Biso   1.000  H
  C270     1.0000 0.22274  0.23762  0.11379  Biso   1.000  C
  H429     1.0000 0.30421  0.23440  0.11598  Biso   1.000  H
  H430     1.0000 0.28109  0.28521  0.14496  Biso   1.000  H
  H431     1.0000 0.19581  0.26558  0.11598  Biso   1.000  H
  H432     1.0000 0.21889  0.21481  0.14496  Biso   1.000  H
  C271     1.0000 0.27728  0.23762  0.38619  Biso   1.000  C
  C272     1.0000 0.28631  0.20511  0.43602  Biso   1.000  C
  C273     1.0000 0.22274  0.26236  0.38619  Biso   1.000  C
  H433     1.0000 0.30421  0.26558  0.38400  Biso   1.000  H
  H434     1.0000 0.28109  0.21481  0.35498  Biso   1.000  H
  C274     1.0000 0.27775  0.23853  0.48475  Biso   1.000  C
  H435     1.0000 0.26181  0.17488  0.43649  Biso   1.000  H
  H436     1.0000 0.32259  0.19121  0.43598  Biso   1.000  H
  C275     1.0000 0.21367  0.29491  0.43602  Biso   1.000  C
  H437     1.0000 0.19581  0.23440  0.38400  Biso   1.000  H
  H438     1.0000 0.21889  0.28521  0.35498  Biso   1.000  H
  N37      1.0000 0.28364  0.21061  0.53426  Biso   1.000  N
  H439     1.0000 0.30351  0.26821  0.48408  Biso   1.000  H
  C276     1.0000 0.22223  0.26146  0.48475  Biso   1.000  C
  H440     1.0000 0.23821  0.32510  0.43649  Biso   1.000  H
  H441     1.0000 0.17739  0.30881  0.43598  Biso   1.000  H
  C277     1.0000 0.24999  0.24999  0.57289  Biso   1.000  C
  C278     1.0000 0.33892  0.20354  0.54753  Biso   1.000  C
  H442     1.0000 0.27119  0.22109  0.56469  Biso   1.000  H
  N38      1.0000 0.21634  0.28941  0.53426  Biso   1.000  N
  H443     1.0000 0.19651  0.23181  0.48408  Biso   1.000  H
  C279     1.0000 0.28321  0.28560  0.60729  Biso   1.000  C
  C280     1.0000 0.21681  0.21438  0.60729  Biso   1.000  C
  H444     1.0000 0.22879  0.27889  0.56469  Biso   1.000  H
  H445     1.0000 0.35490  0.23849  0.55310  Biso   1.000  H
  H446     1.0000 0.35690  0.18709  0.51730  Biso   1.000  H
  C281     1.0000 0.34886  0.17017  0.59590  Biso   1.000  C
  C282     1.0000 0.16106  0.29644  0.54753  Biso   1.000  C
  H447     1.0000 0.29911  0.26499  0.63567  Biso   1.000  H
  H448     1.0000 0.26098  0.31320  0.62248  Biso   1.000  H
  H449     1.0000 0.31101  0.30170  0.58609  Biso   1.000  H
  H450     1.0000 0.20091  0.23499  0.63567  Biso   1.000  H
  H451     1.0000 0.23900  0.18682  0.62248  Biso   1.000  H
  H452     1.0000 0.18901  0.19828  0.58609  Biso   1.000  H
  C283     1.0000 0.39201  0.18206  0.62731  Biso   1.000  C
  C284     1.0000 0.31792  0.12733  0.60799  Biso   1.000  C
  H453     1.0000 0.14508  0.26149  0.55310  Biso   1.000  H
  H454     1.0000 0.14312  0.31289  0.51730  Biso   1.000  H
  C285     1.0000 0.15112  0.32981  0.59590  Biso   1.000  C
  H455     1.0000 0.41329  0.21159  0.61918  Biso   1.000  H
  C286     1.0000 0.40406  0.15112  0.67019  Biso   1.000  C
  C287     1.0000 0.32981  0.09592  0.65111  Biso   1.000  C
  H456     1.0000 0.28839  0.11920  0.58667  Biso   1.000  H
  C288     1.0000 0.10797  0.31792  0.62731  Biso   1.000  C
  C289     1.0000 0.18206  0.37265  0.60799  Biso   1.000  C
  C290     1.0000 0.37265  0.10797  0.68204  Biso   1.000  C
  C291     1.0000 0.45247  0.16106  0.70352  Biso   1.000  C
  C292     1.0000 0.29644  0.04755  0.66108  Biso   1.000  C
  H457     1.0000 0.08669  0.28839  0.61918  Biso   1.000  H
  C293     1.0000 0.09592  0.34886  0.67019  Biso   1.000  C
  C294     1.0000 0.17017  0.40406  0.65111  Biso   1.000  C
  H458     1.0000 0.21159  0.38078  0.58667  Biso   1.000  H
  H459     1.0000 0.38078  0.08669  0.71157  Biso   1.000  H
  H460     1.0000 0.44690  0.14508  0.73847  Biso   1.000  H
  H461     1.0000 0.48270  0.14312  0.68707  Biso   1.000  H
  N39      1.0000 0.46574  0.21634  0.71059  Biso   1.000  N
  H462     1.0000 0.26149  0.05308  0.64510  Biso   1.000  H
  H463     1.0000 0.31289  0.01732  0.64310  Biso   1.000  H
  N40      1.0000 0.28941  0.03428  0.71632  Biso   1.000  N
  C295     1.0000 0.04755  0.33892  0.70352  Biso   1.000  C
  C296     1.0000 0.12733  0.39201  0.68204  Biso   1.000  C
  C297     1.0000 0.20354  0.45247  0.66108  Biso   1.000  C
  C298     1.0000 0.51521  0.22223  0.73851  Biso   1.000  C
  C299     1.0000 0.42711  0.24999  0.74997  Biso   1.000  C
  H464     1.0000 0.43527  0.22879  0.72107  Biso   1.000  H
  C300     1.0000 0.26146  0.98477  0.72221  Biso   1.000  C
  C301     1.0000 0.24999  0.07291  0.74997  Biso   1.000  C
  H465     1.0000 0.27889  0.06471  0.72877  Biso   1.000  H
  H466     1.0000 0.05308  0.35490  0.73847  Biso   1.000  H
  H467     1.0000 0.01732  0.35690  0.68707  Biso   1.000  H
  N41      1.0000 0.03428  0.28364  0.71059  Biso   1.000  N
  H468     1.0000 0.11920  0.41329  0.71157  Biso   1.000  H
  H469     1.0000 0.23849  0.44690  0.64510  Biso   1.000  H
  H470     1.0000 0.18709  0.48270  0.64310  Biso   1.000  H
  N42      1.0000 0.21061  0.46574  0.71632  Biso   1.000  N
  H471     1.0000 0.51588  0.19651  0.76819  Biso   1.000  H
  C302     1.0000 0.56398  0.21367  0.70509  Biso   1.000  C
  C303     1.0000 0.51521  0.27775  0.76144  Biso   1.000  C
  N43      1.0000 0.46574  0.28364  0.78939  Biso   1.000  N
  C304     1.0000 0.39267  0.28321  0.71440  Biso   1.000  C
  C305     1.0000 0.39267  0.21681  0.78558  Biso   1.000  C
  H472     1.0000 0.43527  0.27119  0.77887  Biso   1.000  H
  C306     1.0000 0.23853  0.98477  0.77777  Biso   1.000  C
  C307     1.0000 0.29491  0.93596  0.71365  Biso   1.000  C
  H473     1.0000 0.23181  0.98410  0.69649  Biso   1.000  H
  N44      1.0000 0.21061  0.03428  0.78366  Biso   1.000  N
  C308     1.0000 0.21438  0.10731  0.71679  Biso   1.000  C
  C309     1.0000 0.28560  0.10731  0.78319  Biso   1.000  C
  H474     1.0000 0.22109  0.06471  0.77117  Biso   1.000  H
  C310     1.0000 0.98477  0.27775  0.73851  Biso   1.000  C
  C311     1.0000 0.07291  0.24999  0.74997  Biso   1.000  C
  H475     1.0000 0.06471  0.27119  0.72107  Biso   1.000  H
  C312     1.0000 0.23853  0.51521  0.72221  Biso   1.000  C
  C313     1.0000 0.24999  0.42711  0.74997  Biso   1.000  C
  H476     1.0000 0.22109  0.43527  0.72877  Biso   1.000  H
  H477     1.0000 0.56347  0.23821  0.67490  Biso   1.000  H
  H478     1.0000 0.56398  0.17739  0.69119  Biso   1.000  H
  C314     1.0000 0.61381  0.22274  0.73760  Biso   1.000  C
  H479     1.0000 0.51588  0.30351  0.73179  Biso   1.000  H
  C315     1.0000 0.56398  0.28631  0.79489  Biso   1.000  C
  C316     1.0000 0.45247  0.33892  0.79646  Biso   1.000  C
  H480     1.0000 0.36429  0.29911  0.73497  Biso   1.000  H
  H481     1.0000 0.37748  0.26098  0.68680  Biso   1.000  H
  H482     1.0000 0.41388  0.31101  0.69830  Biso   1.000  H
  H483     1.0000 0.36429  0.20091  0.76497  Biso   1.000  H
  H484     1.0000 0.37748  0.23900  0.81318  Biso   1.000  H
  H485     1.0000 0.41388  0.18901  0.80168  Biso   1.000  H
  C317     1.0000 0.20511  0.93596  0.78629  Biso   1.000  C
  H486     1.0000 0.26821  0.98410  0.80349  Biso   1.000  H
  H487     1.0000 0.32510  0.93647  0.73819  Biso   1.000  H
  H488     1.0000 0.30881  0.93596  0.67737  Biso   1.000  H
  C318     1.0000 0.26236  0.88621  0.72272  Biso   1.000  C
  C319     1.0000 0.20354  0.04755  0.83890  Biso   1.000  C
  H489     1.0000 0.23499  0.13569  0.70089  Biso   1.000  H
  H490     1.0000 0.18682  0.12250  0.73898  Biso   1.000  H
  H491     1.0000 0.19828  0.08610  0.68899  Biso   1.000  H
  H492     1.0000 0.26499  0.13569  0.79909  Biso   1.000  H
  H493     1.0000 0.31320  0.12250  0.76100  Biso   1.000  H
  H494     1.0000 0.30170  0.08610  0.81099  Biso   1.000  H
  C320     1.0000 0.98477  0.22223  0.76144  Biso   1.000  C
  C321     1.0000 0.93596  0.28631  0.70509  Biso   1.000  C
  H495     1.0000 0.98410  0.30351  0.76819  Biso   1.000  H
  N45      1.0000 0.03428  0.21634  0.78939  Biso   1.000  N
  C322     1.0000 0.10731  0.28321  0.78558  Biso   1.000  C
  C323     1.0000 0.10731  0.21681  0.71440  Biso   1.000  C
  H496     1.0000 0.06471  0.22879  0.77887  Biso   1.000  H
  H497     1.0000 0.26821  0.51588  0.69649  Biso   1.000  H
  C324     1.0000 0.20511  0.56398  0.71365  Biso   1.000  C
  C325     1.0000 0.26146  0.51521  0.77777  Biso   1.000  C
  N46      1.0000 0.28941  0.46574  0.78366  Biso   1.000  N
  C326     1.0000 0.21438  0.39267  0.78319  Biso   1.000  C
  C327     1.0000 0.28560  0.39267  0.71679  Biso   1.000  C
  H498     1.0000 0.27889  0.43527  0.77117  Biso   1.000  H
  H499     1.0000 0.61600  0.19581  0.76560  Biso   1.000  H
  H500     1.0000 0.64498  0.21889  0.71479  Biso   1.000  H
  C328     1.0000 0.61381  0.27728  0.76238  Biso   1.000  C
  H501     1.0000 0.56347  0.26181  0.82508  Biso   1.000  H
  H502     1.0000 0.56398  0.32259  0.80879  Biso   1.000  H
  H503     1.0000 0.44690  0.35490  0.76147  Biso   1.000  H
  H504     1.0000 0.48270  0.35690  0.81287  Biso   1.000  H
  C329     1.0000 0.40406  0.34886  0.82979  Biso   1.000  C
  H505     1.0000 0.17488  0.93647  0.76179  Biso   1.000  H
  H506     1.0000 0.19121  0.93596  0.82257  Biso   1.000  H
  C330     1.0000 0.23762  0.88621  0.77726  Biso   1.000  C
  H507     1.0000 0.23440  0.88402  0.69579  Biso   1.000  H
  H508     1.0000 0.28521  0.85500  0.71887  Biso   1.000  H
  H509     1.0000 0.23849  0.05308  0.85488  Biso   1.000  H
  H510     1.0000 0.18709  0.01732  0.85688  Biso   1.000  H
  C331     1.0000 0.17017  0.09592  0.84888  Biso   1.000  C
  C332     1.0000 0.93596  0.21367  0.79489  Biso   1.000  C
  H511     1.0000 0.98410  0.19651  0.73179  Biso   1.000  H
  H512     1.0000 0.93647  0.26181  0.67490  Biso   1.000  H
  H513     1.0000 0.93596  0.32259  0.69119  Biso   1.000  H
  C333     1.0000 0.88621  0.27728  0.73760  Biso   1.000  C
  C334     1.0000 0.04755  0.16106  0.79646  Biso   1.000  C
  H514     1.0000 0.13569  0.29911  0.76497  Biso   1.000  H
  H515     1.0000 0.12250  0.26098  0.81318  Biso   1.000  H
  H516     1.0000 0.08610  0.31101  0.80168  Biso   1.000  H
  H517     1.0000 0.13569  0.20091  0.73497  Biso   1.000  H
  H518     1.0000 0.12250  0.23900  0.68680  Biso   1.000  H
  H519     1.0000 0.08610  0.18901  0.69830  Biso   1.000  H
  H520     1.0000 0.17488  0.56347  0.73819  Biso   1.000  H
  H521     1.0000 0.19121  0.56398  0.67737  Biso   1.000  H
  C335     1.0000 0.23762  0.61381  0.72272  Biso   1.000  C
  H522     1.0000 0.23181  0.51588  0.80349  Biso   1.000  H
  C336     1.0000 0.29491  0.56398  0.78629  Biso   1.000  C
  C337     1.0000 0.29644  0.45247  0.83890  Biso   1.000  C
  H523     1.0000 0.23499  0.36429  0.79909  Biso   1.000  H
  H524     1.0000 0.18682  0.37748  0.76100  Biso   1.000  H
  H525     1.0000 0.19828  0.41388  0.81099  Biso   1.000  H
  H526     1.0000 0.26499  0.36429  0.70089  Biso   1.000  H
  H527     1.0000 0.31320  0.37748  0.73898  Biso   1.000  H
  H528     1.0000 0.30170  0.41388  0.68899  Biso   1.000  H
  H529     1.0000 0.61600  0.30421  0.73438  Biso   1.000  H
  H530     1.0000 0.64498  0.28109  0.78519  Biso   1.000  H
  C338     1.0000 0.37265  0.39201  0.81794  Biso   1.000  C
  C339     1.0000 0.39201  0.31792  0.87267  Biso   1.000  C
  H531     1.0000 0.26558  0.88402  0.80419  Biso   1.000  H
  H532     1.0000 0.21481  0.85500  0.78107  Biso   1.000  H
  C340     1.0000 0.12733  0.10797  0.81794  Biso   1.000  C
  C341     1.0000 0.18206  0.12733  0.89199  Biso   1.000  C
  H533     1.0000 0.93647  0.23821  0.82508  Biso   1.000  H
  H534     1.0000 0.93596  0.17739  0.80879  Biso   1.000  H
  C342     1.0000 0.88621  0.22274  0.76238  Biso   1.000  C
  H535     1.0000 0.88402  0.30421  0.76560  Biso   1.000  H
  H536     1.0000 0.85500  0.28109  0.71479  Biso   1.000  H
  H537     1.0000 0.05308  0.14508  0.76147  Biso   1.000  H
  H538     1.0000 0.01732  0.14312  0.81287  Biso   1.000  H
  C343     1.0000 0.09592  0.15112  0.82979  Biso   1.000  C
  H539     1.0000 0.26558  0.61600  0.69579  Biso   1.000  H
  H540     1.0000 0.21481  0.64498  0.71887  Biso   1.000  H
  C344     1.0000 0.26236  0.61381  0.77726  Biso   1.000  C
  H541     1.0000 0.32510  0.56347  0.76179  Biso   1.000  H
  H542     1.0000 0.30881  0.56398  0.82257  Biso   1.000  H
  H543     1.0000 0.26149  0.44690  0.85488  Biso   1.000  H
  H544     1.0000 0.31289  0.48270  0.85688  Biso   1.000  H
  C345     1.0000 0.32981  0.40406  0.84888  Biso   1.000  C
  H545     1.0000 0.38078  0.41329  0.78837  Biso   1.000  H
  C346     1.0000 0.34886  0.32981  0.90408  Biso   1.000  C
  H546     1.0000 0.41329  0.28839  0.88080  Biso   1.000  H
  H547     1.0000 0.11920  0.08669  0.78837  Biso   1.000  H
  H548     1.0000 0.21159  0.11920  0.91327  Biso   1.000  H
  C347     1.0000 0.15112  0.17017  0.90408  Biso   1.000  C
  H549     1.0000 0.88402  0.19581  0.73438  Biso   1.000  H
  H550     1.0000 0.85500  0.21889  0.78519  Biso   1.000  H
  C348     1.0000 0.10797  0.18206  0.87267  Biso   1.000  C
  H551     1.0000 0.23440  0.61600  0.80419  Biso   1.000  H
  H552     1.0000 0.28521  0.64498  0.78107  Biso   1.000  H
  C349     1.0000 0.31792  0.37265  0.89199  Biso   1.000  C
  C350     1.0000 0.33892  0.29644  0.95245  Biso   1.000  C
  C351     1.0000 0.16106  0.20354  0.95245  Biso   1.000  C
  H553     1.0000 0.08669  0.21159  0.88080  Biso   1.000  H
  H554     1.0000 0.28839  0.38078  0.91327  Biso   1.000  H
  H555     1.0000 0.35490  0.26149  0.94688  Biso   1.000  H
  H556     1.0000 0.35690  0.31289  0.98268  Biso   1.000  H
  N47      1.0000 0.28364  0.28941  0.96572  Biso   1.000  N
  H557     1.0000 0.14508  0.23849  0.94688  Biso   1.000  H
  H558     1.0000 0.14312  0.18709  0.98268  Biso   1.000  H
  N48      1.0000 0.21634  0.21061  0.96572  Biso   1.000  N
  C352     1.0000 0.24999  0.24999  0.92709  Biso   1.000  C
  H559     1.0000 0.27119  0.27889  0.93529  Biso   1.000  H
  C353     1.0000 0.27775  0.26146  0.01519  Biso   1.000  C
  H560     1.0000 0.22879  0.22109  0.93529  Biso   1.000  H
  C354     1.0000 0.22223  0.23853  0.01519  Biso   1.000  C
  C355     1.0000 0.28321  0.21438  0.89269  Biso   1.000  C
  C356     1.0000 0.21681  0.28560  0.89269  Biso   1.000  C
  C357     1.0000 0.28631  0.29491  0.06396  Biso   1.000  C
  H561     1.0000 0.30351  0.23181  0.01586  Biso   1.000  H
  C358     1.0000 0.21367  0.20511  0.06396  Biso   1.000  C
  H562     1.0000 0.19651  0.26821  0.01586  Biso   1.000  H
  H563     1.0000 0.29911  0.23499  0.86427  Biso   1.000  H
  H564     1.0000 0.26098  0.18682  0.87750  Biso   1.000  H
  H565     1.0000 0.31101  0.19828  0.91390  Biso   1.000  H
  H566     1.0000 0.20091  0.26499  0.86427  Biso   1.000  H
  H567     1.0000 0.23900  0.31320  0.87750  Biso   1.000  H
  H568     1.0000 0.18901  0.30170  0.91390  Biso   1.000  H
  H569     1.0000 0.26181  0.32510  0.06349  Biso   1.000  H
  H570     1.0000 0.32259  0.30881  0.06396  Biso   1.000  H
  C359     1.0000 0.27728  0.26236  0.11379  Biso   1.000  C
  H571     1.0000 0.23821  0.17488  0.06349  Biso   1.000  H
  H572     1.0000 0.17739  0.19121  0.06396  Biso   1.000  H
  C360     1.0000 0.22274  0.23762  0.11379  Biso   1.000  C
  H573     1.0000 0.30421  0.23440  0.11598  Biso   1.000  H
  H574     1.0000 0.28109  0.28521  0.14496  Biso   1.000  H
  H575     1.0000 0.19581  0.26558  0.11598  Biso   1.000  H
  H576     1.0000 0.21889  0.21481  0.14496  Biso   1.000  H
  C361     1.0000 0.23762  0.38619  0.27728  Biso   1.000  C
  C362     1.0000 0.26236  0.38619  0.22274  Biso   1.000  C
  C363     1.0000 0.20511  0.43602  0.28631  Biso   1.000  C
  H577     1.0000 0.26558  0.38400  0.30421  Biso   1.000  H
  H578     1.0000 0.21481  0.35498  0.28109  Biso   1.000  H
  C364     1.0000 0.29491  0.43602  0.21367  Biso   1.000  C
  H579     1.0000 0.23440  0.38400  0.19581  Biso   1.000  H
  H580     1.0000 0.28521  0.35498  0.21889  Biso   1.000  H
  C365     1.0000 0.23853  0.48475  0.27775  Biso   1.000  C
  H581     1.0000 0.17488  0.43649  0.26181  Biso   1.000  H
  H582     1.0000 0.19121  0.43598  0.32259  Biso   1.000  H
  C366     1.0000 0.26146  0.48475  0.22223  Biso   1.000  C
  H583     1.0000 0.32510  0.43649  0.23821  Biso   1.000  H
  H584     1.0000 0.30881  0.43598  0.17739  Biso   1.000  H
  H585     1.0000 0.26821  0.48408  0.30351  Biso   1.000  H
  N49      1.0000 0.21061  0.53426  0.28364  Biso   1.000  N
  H586     1.0000 0.23181  0.48408  0.19651  Biso   1.000  H
  N50      1.0000 0.28941  0.53426  0.21634  Biso   1.000  N
  C367     1.0000 0.24999  0.57289  0.24999  Biso   1.000  C
  C368     1.0000 0.20354  0.54753  0.33892  Biso   1.000  C
  H587     1.0000 0.22109  0.56469  0.27119  Biso   1.000  H
  C369     1.0000 0.29644  0.54753  0.16106  Biso   1.000  C
  H588     1.0000 0.27889  0.56469  0.22879  Biso   1.000  H
  C370     1.0000 0.21438  0.60729  0.21681  Biso   1.000  C
  C371     1.0000 0.28560  0.60729  0.28321  Biso   1.000  C
  C372     1.0000 0.17017  0.59590  0.34886  Biso   1.000  C
  H589     1.0000 0.23849  0.55310  0.35490  Biso   1.000  H
  H590     1.0000 0.18709  0.51730  0.35690  Biso   1.000  H
  C373     1.0000 0.32981  0.59590  0.15112  Biso   1.000  C
  H591     1.0000 0.26149  0.55310  0.14508  Biso   1.000  H
  H592     1.0000 0.31289  0.51730  0.14312  Biso   1.000  H
  H593     1.0000 0.23499  0.63567  0.20091  Biso   1.000  H
  H594     1.0000 0.18682  0.62248  0.23900  Biso   1.000  H
  H595     1.0000 0.19828  0.58609  0.18901  Biso   1.000  H
  H596     1.0000 0.26499  0.63567  0.29911  Biso   1.000  H
  H597     1.0000 0.31320  0.62248  0.26098  Biso   1.000  H
  H598     1.0000 0.30170  0.58609  0.31101  Biso   1.000  H
  C374     1.0000 0.12733  0.60799  0.31792  Biso   1.000  C
  C375     1.0000 0.18206  0.62731  0.39201  Biso   1.000  C
  C376     1.0000 0.37265  0.60799  0.18206  Biso   1.000  C
  C377     1.0000 0.31792  0.62731  0.10797  Biso   1.000  C
  C378     1.0000 0.09592  0.65111  0.32981  Biso   1.000  C
  H599     1.0000 0.11920  0.58667  0.28839  Biso   1.000  H
  H600     1.0000 0.21159  0.61918  0.41329  Biso   1.000  H
  C379     1.0000 0.15112  0.67019  0.40406  Biso   1.000  C
  H601     1.0000 0.38078  0.58667  0.21159  Biso   1.000  H
  C380     1.0000 0.40406  0.65111  0.17017  Biso   1.000  C
  H602     1.0000 0.28839  0.61918  0.08669  Biso   1.000  H
  C381     1.0000 0.34886  0.67019  0.09592  Biso   1.000  C
  C382     1.0000 0.10797  0.68204  0.37265  Biso   1.000  C
  C383     1.0000 0.04755  0.66108  0.29644  Biso   1.000  C
  C384     1.0000 0.16106  0.70352  0.45247  Biso   1.000  C
  C385     1.0000 0.39201  0.68204  0.12733  Biso   1.000  C
  C386     1.0000 0.45247  0.66108  0.20354  Biso   1.000  C
  C387     1.0000 0.33892  0.70352  0.04755  Biso   1.000  C
  H603     1.0000 0.08669  0.71157  0.38078  Biso   1.000  H
  H604     1.0000 0.05308  0.64510  0.26149  Biso   1.000  H
  H605     1.0000 0.01732  0.64310  0.31289  Biso   1.000  H
  N51      1.0000 0.03428  0.71632  0.28941  Biso   1.000  N
  H606     1.0000 0.14508  0.73847  0.44690  Biso   1.000  H
  H607     1.0000 0.14312  0.68707  0.48270  Biso   1.000  H
  N52      1.0000 0.21634  0.71059  0.46574  Biso   1.000  N
  H608     1.0000 0.41329  0.71157  0.11920  Biso   1.000  H
  H609     1.0000 0.44690  0.64510  0.23849  Biso   1.000  H
  H610     1.0000 0.48270  0.64310  0.18709  Biso   1.000  H
  N53      1.0000 0.46574  0.71632  0.21061  Biso   1.000  N
  H611     1.0000 0.35490  0.73847  0.05308  Biso   1.000  H
  H612     1.0000 0.35690  0.68707  0.01732  Biso   1.000  H
  N54      1.0000 0.28364  0.71059  0.03428  Biso   1.000  N
  C388     1.0000 0.07291  0.74997  0.24999  Biso   1.000  C
  H613     1.0000 0.06471  0.72877  0.27889  Biso   1.000  H
  C389     1.0000 0.98477  0.72221  0.26146  Biso   1.000  C
  C390     1.0000 0.22223  0.73851  0.51521  Biso   1.000  C
  C391     1.0000 0.24999  0.74997  0.42711  Biso   1.000  C
  H614     1.0000 0.22879  0.72107  0.43527  Biso   1.000  H
  C392     1.0000 0.42711  0.74997  0.24999  Biso   1.000  C
  C393     1.0000 0.51521  0.72221  0.23853  Biso   1.000  C
  H615     1.0000 0.43527  0.72877  0.22109  Biso   1.000  H
  C394     1.0000 0.24999  0.74997  0.07291  Biso   1.000  C
  H616     1.0000 0.27119  0.72107  0.06471  Biso   1.000  H
  C395     1.0000 0.27775  0.73851  0.98477  Biso   1.000  C
  N55      1.0000 0.03428  0.78366  0.21061  Biso   1.000  N
  C396     1.0000 0.10731  0.71679  0.21438  Biso   1.000  C
  C397     1.0000 0.10731  0.78319  0.28560  Biso   1.000  C
  H617     1.0000 0.06471  0.77117  0.22109  Biso   1.000  H
  C398     1.0000 0.98477  0.77777  0.23853  Biso   1.000  C
  C399     1.0000 0.93596  0.71365  0.29491  Biso   1.000  C
  H618     1.0000 0.98410  0.69649  0.23181  Biso   1.000  H
  C400     1.0000 0.21367  0.70509  0.56398  Biso   1.000  C
  H619     1.0000 0.19651  0.76819  0.51588  Biso   1.000  H
  C401     1.0000 0.27775  0.76144  0.51521  Biso   1.000  C
  C402     1.0000 0.28321  0.71440  0.39267  Biso   1.000  C
  N56      1.0000 0.28364  0.78939  0.46574  Biso   1.000  N
  C403     1.0000 0.21681  0.78558  0.39267  Biso   1.000  C
  H620     1.0000 0.27119  0.77887  0.43527  Biso   1.000  H
  N57      1.0000 0.46574  0.78366  0.28941  Biso   1.000  N
  C404     1.0000 0.39267  0.71679  0.28560  Biso   1.000  C
  C405     1.0000 0.39267  0.78319  0.21438  Biso   1.000  C
  H621     1.0000 0.43527  0.77117  0.27889  Biso   1.000  H
  C406     1.0000 0.51521  0.77777  0.26146  Biso   1.000  C
  C407     1.0000 0.56398  0.71365  0.20511  Biso   1.000  C
  H622     1.0000 0.51588  0.69649  0.26821  Biso   1.000  H
  N58      1.0000 0.21634  0.78939  0.03428  Biso   1.000  N
  C408     1.0000 0.28321  0.78558  0.10731  Biso   1.000  C
  C409     1.0000 0.21681  0.71440  0.10731  Biso   1.000  C
  H623     1.0000 0.22879  0.77887  0.06471  Biso   1.000  H
  C410     1.0000 0.22223  0.76144  0.98477  Biso   1.000  C
  C411     1.0000 0.28631  0.70509  0.93596  Biso   1.000  C
  H624     1.0000 0.30351  0.76819  0.98410  Biso   1.000  H
  C412     1.0000 0.04755  0.83890  0.20354  Biso   1.000  C
  H625     1.0000 0.13569  0.70089  0.23499  Biso   1.000  H
  H626     1.0000 0.12250  0.73898  0.18682  Biso   1.000  H
  H627     1.0000 0.08610  0.68899  0.19828  Biso   1.000  H
  H628     1.0000 0.13569  0.79909  0.26499  Biso   1.000  H
  H629     1.0000 0.12250  0.76100  0.31320  Biso   1.000  H
  H630     1.0000 0.08610  0.81099  0.30170  Biso   1.000  H
  C413     1.0000 0.93596  0.78629  0.20511  Biso   1.000  C
  H631     1.0000 0.98410  0.80349  0.26821  Biso   1.000  H
  H632     1.0000 0.93647  0.73819  0.32510  Biso   1.000  H
  H633     1.0000 0.93596  0.67737  0.30881  Biso   1.000  H
  C414     1.0000 0.88621  0.72272  0.26236  Biso   1.000  C
  H634     1.0000 0.23821  0.67490  0.56347  Biso   1.000  H
  H635     1.0000 0.17739  0.69119  0.56398  Biso   1.000  H
  C415     1.0000 0.22274  0.73760  0.61381  Biso   1.000  C
  C416     1.0000 0.28631  0.79489  0.56398  Biso   1.000  C
  H636     1.0000 0.30351  0.73179  0.51588  Biso   1.000  H
  H637     1.0000 0.29911  0.73497  0.36429  Biso   1.000  H
  H638     1.0000 0.26098  0.68680  0.37748  Biso   1.000  H
  H639     1.0000 0.31101  0.69830  0.41388  Biso   1.000  H
  C417     1.0000 0.33892  0.79646  0.45247  Biso   1.000  C
  H640     1.0000 0.20091  0.76497  0.36429  Biso   1.000  H
  H641     1.0000 0.23900  0.81318  0.37748  Biso   1.000  H
  H642     1.0000 0.18901  0.80168  0.41388  Biso   1.000  H
  C418     1.0000 0.45247  0.83890  0.29644  Biso   1.000  C
  H643     1.0000 0.36429  0.70089  0.26499  Biso   1.000  H
  H644     1.0000 0.37748  0.73898  0.31320  Biso   1.000  H
  H645     1.0000 0.41388  0.68899  0.30170  Biso   1.000  H
  H646     1.0000 0.36429  0.79909  0.23499  Biso   1.000  H
  H647     1.0000 0.37748  0.76100  0.18682  Biso   1.000  H
  H648     1.0000 0.41388  0.81099  0.19828  Biso   1.000  H
  C419     1.0000 0.56398  0.78629  0.29491  Biso   1.000  C
  H649     1.0000 0.51588  0.80349  0.23181  Biso   1.000  H
  H650     1.0000 0.56347  0.73819  0.17488  Biso   1.000  H
  H651     1.0000 0.56398  0.67737  0.19121  Biso   1.000  H
  C420     1.0000 0.61381  0.72272  0.23762  Biso   1.000  C
  C421     1.0000 0.16106  0.79646  0.04755  Biso   1.000  C
  H652     1.0000 0.29911  0.76497  0.13569  Biso   1.000  H
  H653     1.0000 0.26098  0.81318  0.12250  Biso   1.000  H
  H654     1.0000 0.31101  0.80168  0.08610  Biso   1.000  H
  H655     1.0000 0.20091  0.73497  0.13569  Biso   1.000  H
  H656     1.0000 0.23900  0.68680  0.12250  Biso   1.000  H
  H657     1.0000 0.18901  0.69830  0.08610  Biso   1.000  H
  C422     1.0000 0.21367  0.79489  0.93596  Biso   1.000  C
  H658     1.0000 0.19651  0.73179  0.98410  Biso   1.000  H
  H659     1.0000 0.26181  0.67490  0.93647  Biso   1.000  H
  H660     1.0000 0.32259  0.69119  0.93596  Biso   1.000  H
  C423     1.0000 0.27728  0.73760  0.88621  Biso   1.000  C
  C424     1.0000 0.09592  0.84888  0.17017  Biso   1.000  C
  H661     1.0000 0.05308  0.85488  0.23849  Biso   1.000  H
  H662     1.0000 0.01732  0.85688  0.18709  Biso   1.000  H
  H663     1.0000 0.93647  0.76179  0.17488  Biso   1.000  H
  H664     1.0000 0.93596  0.82257  0.19121  Biso   1.000  H
  C425     1.0000 0.88621  0.77726  0.23762  Biso   1.000  C
  H665     1.0000 0.88402  0.69579  0.23440  Biso   1.000  H
  H666     1.0000 0.85500  0.71887  0.28521  Biso   1.000  H
  H667     1.0000 0.19581  0.76560  0.61600  Biso   1.000  H
  H668     1.0000 0.21889  0.71479  0.64498  Biso   1.000  H
  C426     1.0000 0.27728  0.76238  0.61381  Biso   1.000  C
  H669     1.0000 0.26181  0.82508  0.56347  Biso   1.000  H
  H670     1.0000 0.32259  0.80879  0.56398  Biso   1.000  H
  C427     1.0000 0.34886  0.82979  0.40406  Biso   1.000  C
  H671     1.0000 0.35490  0.76147  0.44690  Biso   1.000  H
  H672     1.0000 0.35690  0.81287  0.48270  Biso   1.000  H
  C428     1.0000 0.40406  0.84888  0.32981  Biso   1.000  C
  H673     1.0000 0.44690  0.85488  0.26149  Biso   1.000  H
  H674     1.0000 0.48270  0.85688  0.31289  Biso   1.000  H
  H675     1.0000 0.56347  0.76179  0.32510  Biso   1.000  H
  H676     1.0000 0.56398  0.82257  0.30881  Biso   1.000  H
  C429     1.0000 0.61381  0.77726  0.26236  Biso   1.000  C
  H677     1.0000 0.61600  0.69579  0.26558  Biso   1.000  H
  H678     1.0000 0.64498  0.71887  0.21481  Biso   1.000  H
  C430     1.0000 0.15112  0.82979  0.09592  Biso   1.000  C
  H679     1.0000 0.14508  0.76147  0.05308  Biso   1.000  H
  H680     1.0000 0.14312  0.81287  0.01732  Biso   1.000  H
  H681     1.0000 0.23821  0.82508  0.93647  Biso   1.000  H
  H682     1.0000 0.17739  0.80879  0.93596  Biso   1.000  H
  C431     1.0000 0.22274  0.76238  0.88621  Biso   1.000  C
  H683     1.0000 0.30421  0.76560  0.88402  Biso   1.000  H
  H684     1.0000 0.28109  0.71479  0.85500  Biso   1.000  H
  C432     1.0000 0.10797  0.81794  0.12733  Biso   1.000  C
  C433     1.0000 0.12733  0.89199  0.18206  Biso   1.000  C
  H685     1.0000 0.88402  0.80419  0.26558  Biso   1.000  H
  H686     1.0000 0.85500  0.78107  0.21481  Biso   1.000  H
  H687     1.0000 0.30421  0.73438  0.61600  Biso   1.000  H
  H688     1.0000 0.28109  0.78519  0.64498  Biso   1.000  H
  C434     1.0000 0.39201  0.81794  0.37265  Biso   1.000  C
  C435     1.0000 0.31792  0.87267  0.39201  Biso   1.000  C
  C436     1.0000 0.37265  0.89199  0.31792  Biso   1.000  C
  H689     1.0000 0.61600  0.80419  0.23440  Biso   1.000  H
  H690     1.0000 0.64498  0.78107  0.28521  Biso   1.000  H
  C437     1.0000 0.18206  0.87267  0.10797  Biso   1.000  C
  H691     1.0000 0.19581  0.73438  0.88402  Biso   1.000  H
  H692     1.0000 0.21889  0.78519  0.85500  Biso   1.000  H
  H693     1.0000 0.08669  0.78837  0.11920  Biso   1.000  H
  C438     1.0000 0.17017  0.90408  0.15112  Biso   1.000  C
  H694     1.0000 0.11920  0.91327  0.21159  Biso   1.000  H
  H695     1.0000 0.41329  0.78837  0.38078  Biso   1.000  H
  C439     1.0000 0.32981  0.90408  0.34886  Biso   1.000  C
  H696     1.0000 0.28839  0.88080  0.41329  Biso   1.000  H
  H697     1.0000 0.38078  0.91327  0.28839  Biso   1.000  H
  H698     1.0000 0.21159  0.88080  0.08669  Biso   1.000  H
  C440     1.0000 0.20354  0.95245  0.16106  Biso   1.000  C
  C441     1.0000 0.29644  0.95245  0.33892  Biso   1.000  C
  H699     1.0000 0.23849  0.94688  0.14508  Biso   1.000  H
  H700     1.0000 0.18709  0.98268  0.14312  Biso   1.000  H
  N59      1.0000 0.21061  0.96572  0.21634  Biso   1.000  N
  H701     1.0000 0.26149  0.94688  0.35490  Biso   1.000  H
  H702     1.0000 0.31289  0.98268  0.35690  Biso   1.000  H
  N60      1.0000 0.28941  0.96572  0.28364  Biso   1.000  N
  C442     1.0000 0.24999  0.92709  0.24999  Biso   1.000  C
  H703     1.0000 0.22109  0.93529  0.22879  Biso   1.000  H
  C443     1.0000 0.23853  0.01519  0.22223  Biso   1.000  C
  H704     1.0000 0.27889  0.93529  0.27119  Biso   1.000  H
  C444     1.0000 0.26146  0.01519  0.27775  Biso   1.000  C
  C445     1.0000 0.21438  0.89269  0.28321  Biso   1.000  C
  C446     1.0000 0.28560  0.89269  0.21681  Biso   1.000  C
  C447     1.0000 0.20511  0.06396  0.21367  Biso   1.000  C
  H705     1.0000 0.26821  0.01586  0.19651  Biso   1.000  H
  C448     1.0000 0.29491  0.06396  0.28631  Biso   1.000  C
  H706     1.0000 0.23181  0.01586  0.30351  Biso   1.000  H
  H707     1.0000 0.23499  0.86427  0.29911  Biso   1.000  H
  H708     1.0000 0.18682  0.87750  0.26098  Biso   1.000  H
  H709     1.0000 0.19828  0.91390  0.31101  Biso   1.000  H
  H710     1.0000 0.26499  0.86427  0.20091  Biso   1.000  H
  H711     1.0000 0.31320  0.87750  0.23900  Biso   1.000  H
  H712     1.0000 0.30170  0.91390  0.18901  Biso   1.000  H
  H713     1.0000 0.17488  0.06349  0.23821  Biso   1.000  H
  H714     1.0000 0.19121  0.06396  0.17739  Biso   1.000  H
  C449     1.0000 0.23762  0.11379  0.22274  Biso   1.000  C
  H715     1.0000 0.32510  0.06349  0.26181  Biso   1.000  H
  H716     1.0000 0.30881  0.06396  0.32259  Biso   1.000  H
  C450     1.0000 0.26236  0.11379  0.27728  Biso   1.000  C
  H717     1.0000 0.26558  0.11598  0.19581  Biso   1.000  H
  H718     1.0000 0.21481  0.14496  0.21889  Biso   1.000  H
  H719     1.0000 0.23440  0.11598  0.30421  Biso   1.000  H
  H720     1.0000 0.28521  0.14496  0.28109  Biso   1.000  H
  C451     1.0000 0.23762  0.38619  0.27728  Biso   1.000  C
  C452     1.0000 0.20511  0.43602  0.28631  Biso   1.000  C
  C453     1.0000 0.26236  0.38619  0.22274  Biso   1.000  C
  H721     1.0000 0.26558  0.38400  0.30421  Biso   1.000  H
  H722     1.0000 0.21481  0.35498  0.28109  Biso   1.000  H
  C454     1.0000 0.23853  0.48475  0.27775  Biso   1.000  C
  H723     1.0000 0.17488  0.43649  0.26181  Biso   1.000  H
  H724     1.0000 0.19121  0.43598  0.32259  Biso   1.000  H
  C455     1.0000 0.29491  0.43602  0.21367  Biso   1.000  C
  H725     1.0000 0.23440  0.38400  0.19581  Biso   1.000  H
  H726     1.0000 0.28521  0.35498  0.21889  Biso   1.000  H
  C456     1.0000 0.26146  0.48475  0.22223  Biso   1.000  C
  N61      1.0000 0.21061  0.53426  0.28364  Biso   1.000  N
  H727     1.0000 0.26821  0.48408  0.30351  Biso   1.000  H
  H728     1.0000 0.32510  0.43649  0.23821  Biso   1.000  H
  H729     1.0000 0.30881  0.43598  0.17739  Biso   1.000  H
  N62      1.0000 0.28941  0.53426  0.21634  Biso   1.000  N
  H730     1.0000 0.23181  0.48408  0.19651  Biso   1.000  H
  C457     1.0000 0.24999  0.57289  0.24999  Biso   1.000  C
  H731     1.0000 0.22109  0.56469  0.27119  Biso   1.000  H
  C458     1.0000 0.20354  0.54753  0.33892  Biso   1.000  C
  C459     1.0000 0.29644  0.54753  0.16106  Biso   1.000  C
  H732     1.0000 0.27889  0.56469  0.22879  Biso   1.000  H
  C460     1.0000 0.21438  0.60729  0.21681  Biso   1.000  C
  C461     1.0000 0.28560  0.60729  0.28321  Biso   1.000  C
  H733     1.0000 0.23849  0.55310  0.35490  Biso   1.000  H
  H734     1.0000 0.18709  0.51730  0.35690  Biso   1.000  H
  C462     1.0000 0.17017  0.59590  0.34886  Biso   1.000  C
  H735     1.0000 0.26149  0.55310  0.14508  Biso   1.000  H
  H736     1.0000 0.31289  0.51730  0.14312  Biso   1.000  H
  C463     1.0000 0.32981  0.59590  0.15112  Biso   1.000  C
  H737     1.0000 0.23499  0.63567  0.20091  Biso   1.000  H
  H738     1.0000 0.18682  0.62248  0.23900  Biso   1.000  H
  H739     1.0000 0.19828  0.58609  0.18901  Biso   1.000  H
  H740     1.0000 0.26499  0.63567  0.29911  Biso   1.000  H
  H741     1.0000 0.31320  0.62248  0.26098  Biso   1.000  H
  H742     1.0000 0.30170  0.58609  0.31101  Biso   1.000  H
  C464     1.0000 0.12733  0.60799  0.31792  Biso   1.000  C
  C465     1.0000 0.18206  0.62731  0.39201  Biso   1.000  C
  C466     1.0000 0.37265  0.60799  0.18206  Biso   1.000  C
  C467     1.0000 0.31792  0.62731  0.10797  Biso   1.000  C
  C468     1.0000 0.09592  0.65111  0.32981  Biso   1.000  C
  H743     1.0000 0.11920  0.58667  0.28839  Biso   1.000  H
  H744     1.0000 0.21159  0.61918  0.41329  Biso   1.000  H
  C469     1.0000 0.15112  0.67019  0.40406  Biso   1.000  C
  H745     1.0000 0.38078  0.58667  0.21159  Biso   1.000  H
  C470     1.0000 0.40406  0.65111  0.17017  Biso   1.000  C
  H746     1.0000 0.28839  0.61918  0.08669  Biso   1.000  H
  C471     1.0000 0.34886  0.67019  0.09592  Biso   1.000  C
  C472     1.0000 0.10797  0.68204  0.37265  Biso   1.000  C
  C473     1.0000 0.04755  0.66108  0.29644  Biso   1.000  C
  C474     1.0000 0.16106  0.70352  0.45247  Biso   1.000  C
  C475     1.0000 0.39201  0.68204  0.12733  Biso   1.000  C
  C476     1.0000 0.45247  0.66108  0.20354  Biso   1.000  C
  C477     1.0000 0.33892  0.70352  0.04755  Biso   1.000  C
  H747     1.0000 0.08669  0.71157  0.38078  Biso   1.000  H
  H748     1.0000 0.05308  0.64510  0.26149  Biso   1.000  H
  H749     1.0000 0.01732  0.64310  0.31289  Biso   1.000  H
  N63      1.0000 0.03428  0.71632  0.28941  Biso   1.000  N
  H750     1.0000 0.14508  0.73847  0.44690  Biso   1.000  H
  H751     1.0000 0.14312  0.68707  0.48270  Biso   1.000  H
  N64      1.0000 0.21634  0.71059  0.46574  Biso   1.000  N
  H752     1.0000 0.41329  0.71157  0.11920  Biso   1.000  H
  H753     1.0000 0.44690  0.64510  0.23849  Biso   1.000  H
  H754     1.0000 0.48270  0.64310  0.18709  Biso   1.000  H
  N65      1.0000 0.46574  0.71632  0.21061  Biso   1.000  N
  H755     1.0000 0.35490  0.73847  0.05308  Biso   1.000  H
  H756     1.0000 0.35690  0.68707  0.01732  Biso   1.000  H
  N66      1.0000 0.28364  0.71059  0.03428  Biso   1.000  N
  C478     1.0000 0.98477  0.72221  0.26146  Biso   1.000  C
  C479     1.0000 0.07291  0.74997  0.24999  Biso   1.000  C
  H757     1.0000 0.06471  0.72877  0.27889  Biso   1.000  H
  C480     1.0000 0.22223  0.73851  0.51521  Biso   1.000  C
  C481     1.0000 0.24999  0.74997  0.42711  Biso   1.000  C
  H758     1.0000 0.22879  0.72107  0.43527  Biso   1.000  H
  C482     1.0000 0.42711  0.74997  0.24999  Biso   1.000  C
  C483     1.0000 0.51521  0.72221  0.23853  Biso   1.000  C
  H759     1.0000 0.43527  0.72877  0.22109  Biso   1.000  H
  C484     1.0000 0.27775  0.73851  0.98477  Biso   1.000  C
  C485     1.0000 0.24999  0.74997  0.07291  Biso   1.000  C
  H760     1.0000 0.27119  0.72107  0.06471  Biso   1.000  H
  C486     1.0000 0.98477  0.77777  0.23853  Biso   1.000  C
  C487     1.0000 0.93596  0.71365  0.29491  Biso   1.000  C
  H761     1.0000 0.98410  0.69649  0.23181  Biso   1.000  H
  N67      1.0000 0.03428  0.78366  0.21061  Biso   1.000  N
  C488     1.0000 0.10731  0.71679  0.21438  Biso   1.000  C
  C489     1.0000 0.10731  0.78319  0.28560  Biso   1.000  C
  H762     1.0000 0.06471  0.77117  0.22109  Biso   1.000  H
  H763     1.0000 0.19651  0.76819  0.51588  Biso   1.000  H
  C490     1.0000 0.21367  0.70509  0.56398  Biso   1.000  C
  C491     1.0000 0.27775  0.76144  0.51521  Biso   1.000  C
  N68      1.0000 0.28364  0.78939  0.46574  Biso   1.000  N
  C492     1.0000 0.28321  0.71440  0.39267  Biso   1.000  C
  C493     1.0000 0.21681  0.78558  0.39267  Biso   1.000  C
  H764     1.0000 0.27119  0.77887  0.43527  Biso   1.000  H
  N69      1.0000 0.46574  0.78366  0.28941  Biso   1.000  N
  C494     1.0000 0.39267  0.71679  0.28560  Biso   1.000  C
  C495     1.0000 0.39267  0.78319  0.21438  Biso   1.000  C
  H765     1.0000 0.43527  0.77117  0.27889  Biso   1.000  H
  H766     1.0000 0.51588  0.69649  0.26821  Biso   1.000  H
  C496     1.0000 0.51521  0.77777  0.26146  Biso   1.000  C
  C497     1.0000 0.56398  0.71365  0.20511  Biso   1.000  C
  C498     1.0000 0.22223  0.76144  0.98477  Biso   1.000  C
  C499     1.0000 0.28631  0.70509  0.93596  Biso   1.000  C
  H767     1.0000 0.30351  0.76819  0.98410  Biso   1.000  H
  N70      1.0000 0.21634  0.78939  0.03428  Biso   1.000  N
  C500     1.0000 0.28321  0.78558  0.10731  Biso   1.000  C
  C501     1.0000 0.21681  0.71440  0.10731  Biso   1.000  C
  H768     1.0000 0.22879  0.77887  0.06471  Biso   1.000  H
  C502     1.0000 0.93596  0.78629  0.20511  Biso   1.000  C
  H769     1.0000 0.98410  0.80349  0.26821  Biso   1.000  H
  H770     1.0000 0.93647  0.73819  0.32510  Biso   1.000  H
  H771     1.0000 0.93596  0.67737  0.30881  Biso   1.000  H
  C503     1.0000 0.88621  0.72272  0.26236  Biso   1.000  C
  C504     1.0000 0.04755  0.83890  0.20354  Biso   1.000  C
  H772     1.0000 0.13569  0.70089  0.23499  Biso   1.000  H
  H773     1.0000 0.12250  0.73898  0.18682  Biso   1.000  H
  H774     1.0000 0.08610  0.68899  0.19828  Biso   1.000  H
  H775     1.0000 0.13569  0.79909  0.26499  Biso   1.000  H
  H776     1.0000 0.12250  0.76100  0.31320  Biso   1.000  H
  H777     1.0000 0.08610  0.81099  0.30170  Biso   1.000  H
  H778     1.0000 0.23821  0.67490  0.56347  Biso   1.000  H
  H779     1.0000 0.17739  0.69119  0.56398  Biso   1.000  H
  C505     1.0000 0.22274  0.73760  0.61381  Biso   1.000  C
  H780     1.0000 0.30351  0.73179  0.51588  Biso   1.000  H
  C506     1.0000 0.28631  0.79489  0.56398  Biso   1.000  C
  C507     1.0000 0.33892  0.79646  0.45247  Biso   1.000  C
  H781     1.0000 0.29911  0.73497  0.36429  Biso   1.000  H
  H782     1.0000 0.26098  0.68680  0.37748  Biso   1.000  H
  H783     1.0000 0.31101  0.69830  0.41388  Biso   1.000  H
  H784     1.0000 0.20091  0.76497  0.36429  Biso   1.000  H
  H785     1.0000 0.23900  0.81318  0.37748  Biso   1.000  H
  H786     1.0000 0.18901  0.80168  0.41388  Biso   1.000  H
  C508     1.0000 0.45247  0.83890  0.29644  Biso   1.000  C
  H787     1.0000 0.36429  0.70089  0.26499  Biso   1.000  H
  H788     1.0000 0.37748  0.73898  0.31320  Biso   1.000  H
  H789     1.0000 0.41388  0.68899  0.30170  Biso   1.000  H
  H790     1.0000 0.36429  0.79909  0.23499  Biso   1.000  H
  H791     1.0000 0.37748  0.76100  0.18682  Biso   1.000  H
  H792     1.0000 0.41388  0.81099  0.19828  Biso   1.000  H
  H793     1.0000 0.51588  0.80349  0.23181  Biso   1.000  H
  C509     1.0000 0.56398  0.78629  0.29491  Biso   1.000  C
  H794     1.0000 0.56347  0.73819  0.17488  Biso   1.000  H
  H795     1.0000 0.56398  0.67737  0.19121  Biso   1.000  H
  C510     1.0000 0.61381  0.72272  0.23762  Biso   1.000  C
  C511     1.0000 0.21367  0.79489  0.93596  Biso   1.000  C
  H796     1.0000 0.19651  0.73179  0.98410  Biso   1.000  H
  H797     1.0000 0.26181  0.67490  0.93647  Biso   1.000  H
  H798     1.0000 0.32259  0.69119  0.93596  Biso   1.000  H
  C512     1.0000 0.27728  0.73760  0.88621  Biso   1.000  C
  C513     1.0000 0.16106  0.79646  0.04755  Biso   1.000  C
  H799     1.0000 0.29911  0.76497  0.13569  Biso   1.000  H
  H800     1.0000 0.26098  0.81318  0.12250  Biso   1.000  H
  H801     1.0000 0.31101  0.80168  0.08610  Biso   1.000  H
  H802     1.0000 0.20091  0.73497  0.13569  Biso   1.000  H
  H803     1.0000 0.23900  0.68680  0.12250  Biso   1.000  H
  H804     1.0000 0.18901  0.69830  0.08610  Biso   1.000  H
  H805     1.0000 0.93647  0.76179  0.17488  Biso   1.000  H
  H806     1.0000 0.93596  0.82257  0.19121  Biso   1.000  H
  C514     1.0000 0.88621  0.77726  0.23762  Biso   1.000  C
  H807     1.0000 0.88402  0.69579  0.23440  Biso   1.000  H
  H808     1.0000 0.85500  0.71887  0.28521  Biso   1.000  H
  H809     1.0000 0.05308  0.85488  0.23849  Biso   1.000  H
  H810     1.0000 0.01732  0.85688  0.18709  Biso   1.000  H
  C515     1.0000 0.09592  0.84888  0.17017  Biso   1.000  C
  H811     1.0000 0.19581  0.76560  0.61600  Biso   1.000  H
  H812     1.0000 0.21889  0.71479  0.64498  Biso   1.000  H
  C516     1.0000 0.27728  0.76238  0.61381  Biso   1.000  C
  H813     1.0000 0.26181  0.82508  0.56347  Biso   1.000  H
  H814     1.0000 0.32259  0.80879  0.56398  Biso   1.000  H
  H815     1.0000 0.35490  0.76147  0.44690  Biso   1.000  H
  H816     1.0000 0.35690  0.81287  0.48270  Biso   1.000  H
  C517     1.0000 0.34886  0.82979  0.40406  Biso   1.000  C
  H817     1.0000 0.44690  0.85488  0.26149  Biso   1.000  H
  H818     1.0000 0.48270  0.85688  0.31289  Biso   1.000  H
  C518     1.0000 0.40406  0.84888  0.32981  Biso   1.000  C
  H819     1.0000 0.56347  0.76179  0.32510  Biso   1.000  H
  H820     1.0000 0.56398  0.82257  0.30881  Biso   1.000  H
  C519     1.0000 0.61381  0.77726  0.26236  Biso   1.000  C
  H821     1.0000 0.61600  0.69579  0.26558  Biso   1.000  H
  H822     1.0000 0.64498  0.71887  0.21481  Biso   1.000  H
  H823     1.0000 0.23821  0.82508  0.93647  Biso   1.000  H
  H824     1.0000 0.17739  0.80879  0.93596  Biso   1.000  H
  C520     1.0000 0.22274  0.76238  0.88621  Biso   1.000  C
  H825     1.0000 0.30421  0.76560  0.88402  Biso   1.000  H
  H826     1.0000 0.28109  0.71479  0.85500  Biso   1.000  H
  H827     1.0000 0.14508  0.76147  0.05308  Biso   1.000  H
  H828     1.0000 0.14312  0.81287  0.01732  Biso   1.000  H
  C521     1.0000 0.15112  0.82979  0.09592  Biso   1.000  C
  H829     1.0000 0.88402  0.80419  0.26558  Biso   1.000  H
  H830     1.0000 0.85500  0.78107  0.21481  Biso   1.000  H
  C522     1.0000 0.10797  0.81794  0.12733  Biso   1.000  C
  C523     1.0000 0.12733  0.89199  0.18206  Biso   1.000  C
  H831     1.0000 0.30421  0.73438  0.61600  Biso   1.000  H
  H832     1.0000 0.28109  0.78519  0.64498  Biso   1.000  H
  C524     1.0000 0.39201  0.81794  0.37265  Biso   1.000  C
  C525     1.0000 0.31792  0.87267  0.39201  Biso   1.000  C
  C526     1.0000 0.37265  0.89199  0.31792  Biso   1.000  C
  H833     1.0000 0.61600  0.80419  0.23440  Biso   1.000  H
  H834     1.0000 0.64498  0.78107  0.28521  Biso   1.000  H
  H835     1.0000 0.19581  0.73438  0.88402  Biso   1.000  H
  H836     1.0000 0.21889  0.78519  0.85500  Biso   1.000  H
  C527     1.0000 0.18206  0.87267  0.10797  Biso   1.000  C
  H837     1.0000 0.08669  0.78837  0.11920  Biso   1.000  H
  C528     1.0000 0.17017  0.90408  0.15112  Biso   1.000  C
  H838     1.0000 0.11920  0.91327  0.21159  Biso   1.000  H
  H839     1.0000 0.41329  0.78837  0.38078  Biso   1.000  H
  C529     1.0000 0.32981  0.90408  0.34886  Biso   1.000  C
  H840     1.0000 0.28839  0.88080  0.41329  Biso   1.000  H
  H841     1.0000 0.38078  0.91327  0.28839  Biso   1.000  H
  H842     1.0000 0.21159  0.88080  0.08669  Biso   1.000  H
  C530     1.0000 0.20354  0.95245  0.16106  Biso   1.000  C
  C531     1.0000 0.29644  0.95245  0.33892  Biso   1.000  C
  H843     1.0000 0.23849  0.94688  0.14508  Biso   1.000  H
  H844     1.0000 0.18709  0.98268  0.14312  Biso   1.000  H
  N71      1.0000 0.21061  0.96572  0.21634  Biso   1.000  N
  H845     1.0000 0.26149  0.94688  0.35490  Biso   1.000  H
  H846     1.0000 0.31289  0.98268  0.35690  Biso   1.000  H
  N72      1.0000 0.28941  0.96572  0.28364  Biso   1.000  N
  C532     1.0000 0.24999  0.92709  0.24999  Biso   1.000  C
  H847     1.0000 0.22109  0.93529  0.22879  Biso   1.000  H
  C533     1.0000 0.23853  0.01519  0.22223  Biso   1.000  C
  H848     1.0000 0.27889  0.93529  0.27119  Biso   1.000  H
  C534     1.0000 0.26146  0.01519  0.27775  Biso   1.000  C
  C535     1.0000 0.21438  0.89269  0.28321  Biso   1.000  C
  C536     1.0000 0.28560  0.89269  0.21681  Biso   1.000  C
  C537     1.0000 0.20511  0.06396  0.21367  Biso   1.000  C
  H849     1.0000 0.26821  0.01586  0.19651  Biso   1.000  H
  C538     1.0000 0.29491  0.06396  0.28631  Biso   1.000  C
  H850     1.0000 0.23181  0.01586  0.30351  Biso   1.000  H
  H851     1.0000 0.23499  0.86427  0.29911  Biso   1.000  H
  H852     1.0000 0.18682  0.87750  0.26098  Biso   1.000  H
  H853     1.0000 0.19828  0.91390  0.31101  Biso   1.000  H
  H854     1.0000 0.26499  0.86427  0.20091  Biso   1.000  H
  H855     1.0000 0.31320  0.87750  0.23900  Biso   1.000  H
  H856     1.0000 0.30170  0.91390  0.18901  Biso   1.000  H
  H857     1.0000 0.17488  0.06349  0.23821  Biso   1.000  H
  H858     1.0000 0.19121  0.06396  0.17739  Biso   1.000  H
  C539     1.0000 0.23762  0.11379  0.22274  Biso   1.000  C
  H859     1.0000 0.32510  0.06349  0.26181  Biso   1.000  H
  H860     1.0000 0.30881  0.06396  0.32259  Biso   1.000  H
  C540     1.0000 0.26236  0.11379  0.27728  Biso   1.000  C
  H861     1.0000 0.26558  0.11598  0.19581  Biso   1.000  H
  H862     1.0000 0.21481  0.14496  0.21889  Biso   1.000  H
  H863     1.0000 0.23440  0.11598  0.30421  Biso   1.000  H
  H864     1.0000 0.28521  0.14496  0.28109  Biso   1.000  H
  C541     1.0000 0.43205  0.35796  0.37732  Biso   1.000  C
  H865     1.0000 0.46158  0.33668  0.36919  Biso   1.000  H
  C542     1.0000 0.40112  0.34591  0.42020  Biso   1.000  C
  C543     1.0000 0.42020  0.40112  0.34591  Biso   1.000  C
  C544     1.0000 0.35796  0.37732  0.43205  Biso   1.000  C
  C545     1.0000 0.41109  0.29754  0.45353  Biso   1.000  C
  C546     1.0000 0.37732  0.43205  0.35796  Biso   1.000  C
  C547     1.0000 0.45353  0.41109  0.29754  Biso   1.000  C
  H866     1.0000 0.33668  0.36919  0.46158  Biso   1.000  H
  C548     1.0000 0.34591  0.42020  0.40112  Biso   1.000  C
  H867     1.0000 0.39511  0.30311  0.48848  Biso   1.000  H
  H868     1.0000 0.39311  0.26731  0.43708  Biso   1.000  H
  N73      1.0000 0.46633  0.28427  0.46060  Biso   1.000  N
  H869     1.0000 0.36919  0.46158  0.33668  Biso   1.000  H
  H870     1.0000 0.48848  0.39511  0.30311  Biso   1.000  H
  H871     1.0000 0.43708  0.39311  0.26731  Biso   1.000  H
  N74      1.0000 0.46060  0.46633  0.28427  Biso   1.000  N
  C549     1.0000 0.29754  0.45353  0.41109  Biso   1.000  C
  C550     1.0000 0.47222  0.23476  0.48852  Biso   1.000  C
  C551     1.0000 0.49998  0.32290  0.49998  Biso   1.000  C
  H872     1.0000 0.47878  0.31470  0.47108  Biso   1.000  H
  C552     1.0000 0.48852  0.47222  0.23476  Biso   1.000  C
  C553     1.0000 0.49998  0.49998  0.32290  Biso   1.000  C
  H873     1.0000 0.47108  0.47878  0.31470  Biso   1.000  H
  H874     1.0000 0.30311  0.48848  0.39511  Biso   1.000  H
  H875     1.0000 0.26731  0.43708  0.39311  Biso   1.000  H
  N75      1.0000 0.28427  0.46060  0.46633  Biso   1.000  N
  C554     1.0000 0.46366  0.18599  0.45510  Biso   1.000  C
  H876     1.0000 0.44650  0.23409  0.51820  Biso   1.000  H
  C555     1.0000 0.52778  0.23476  0.51145  Biso   1.000  C
  C556     1.0000 0.53320  0.35730  0.46441  Biso   1.000  C
  N76      1.0000 0.53367  0.28427  0.53940  Biso   1.000  N
  C557     1.0000 0.46680  0.35730  0.53559  Biso   1.000  C
  H877     1.0000 0.52118  0.31470  0.52888  Biso   1.000  H
  C558     1.0000 0.45510  0.46366  0.18599  Biso   1.000  C
  H878     1.0000 0.51820  0.44650  0.23409  Biso   1.000  H
  C559     1.0000 0.51145  0.52778  0.23476  Biso   1.000  C
  C560     1.0000 0.46441  0.53320  0.35730  Biso   1.000  C
  N77      1.0000 0.53940  0.53367  0.28427  Biso   1.000  N
  C561     1.0000 0.53559  0.46680  0.35730  Biso   1.000  C
  H879     1.0000 0.52888  0.52118  0.31470  Biso   1.000  H
  C562     1.0000 0.23476  0.48852  0.47222  Biso   1.000  C
  C563     1.0000 0.32290  0.49998  0.49998  Biso   1.000  C
  H880     1.0000 0.31470  0.47108  0.47878  Biso   1.000  H
  H881     1.0000 0.48820  0.18650  0.42491  Biso   1.000  H
  H882     1.0000 0.42738  0.18599  0.44120  Biso   1.000  H
  C564     1.0000 0.47273  0.13620  0.48761  Biso   1.000  C
  C565     1.0000 0.53630  0.18599  0.54490  Biso   1.000  C
  H883     1.0000 0.55350  0.23409  0.48180  Biso   1.000  H
  H884     1.0000 0.54910  0.38568  0.48498  Biso   1.000  H
  H885     1.0000 0.51097  0.37249  0.43681  Biso   1.000  H
  H886     1.0000 0.56100  0.33609  0.44831  Biso   1.000  H
  C566     1.0000 0.58891  0.29754  0.54647  Biso   1.000  C
  H887     1.0000 0.45090  0.38568  0.51498  Biso   1.000  H
  H888     1.0000 0.48899  0.37249  0.56319  Biso   1.000  H
  H889     1.0000 0.43900  0.33609  0.55169  Biso   1.000  H
  H890     1.0000 0.42491  0.48820  0.18650  Biso   1.000  H
  H891     1.0000 0.44120  0.42738  0.18599  Biso   1.000  H
  C567     1.0000 0.48761  0.47273  0.13620  Biso   1.000  C
  C568     1.0000 0.54490  0.53630  0.18599  Biso   1.000  C
  H892     1.0000 0.48180  0.55350  0.23409  Biso   1.000  H
  H893     1.0000 0.48498  0.54910  0.38568  Biso   1.000  H
  H894     1.0000 0.43681  0.51097  0.37249  Biso   1.000  H
  H895     1.0000 0.44831  0.56100  0.33609  Biso   1.000  H
  C569     1.0000 0.54647  0.58891  0.29754  Biso   1.000  C
  H896     1.0000 0.51498  0.45090  0.38568  Biso   1.000  H
  H897     1.0000 0.56319  0.48899  0.37249  Biso   1.000  H
  H898     1.0000 0.55169  0.43900  0.33609  Biso   1.000  H
  C570     1.0000 0.18599  0.45510  0.46366  Biso   1.000  C
  H899     1.0000 0.23409  0.51820  0.44650  Biso   1.000  H
  C571     1.0000 0.23476  0.51145  0.52778  Biso   1.000  C
  C572     1.0000 0.35730  0.46441  0.53320  Biso   1.000  C
  N78      1.0000 0.28427  0.53940  0.53367  Biso   1.000  N
  C573     1.0000 0.35730  0.53559  0.46680  Biso   1.000  C
  H900     1.0000 0.31470  0.52888  0.52118  Biso   1.000  H
  H901     1.0000 0.44580  0.13401  0.51561  Biso   1.000  H
  H902     1.0000 0.46888  0.10499  0.46480  Biso   1.000  H
  C574     1.0000 0.52727  0.13620  0.51239  Biso   1.000  C
  H903     1.0000 0.51180  0.18650  0.57509  Biso   1.000  H
  H904     1.0000 0.57258  0.18599  0.55880  Biso   1.000  H
  C575     1.0000 0.59888  0.34591  0.57980  Biso   1.000  C
  H905     1.0000 0.60489  0.30311  0.51148  Biso   1.000  H
  H906     1.0000 0.60689  0.26731  0.56288  Biso   1.000  H
  H907     1.0000 0.51561  0.44580  0.13401  Biso   1.000  H
  H908     1.0000 0.46480  0.46888  0.10499  Biso   1.000  H
  C576     1.0000 0.51239  0.52727  0.13620  Biso   1.000  C
  H909     1.0000 0.57509  0.51180  0.18650  Biso   1.000  H
  H910     1.0000 0.55880  0.57258  0.18599  Biso   1.000  H
  C577     1.0000 0.57980  0.59888  0.34591  Biso   1.000  C
  H911     1.0000 0.51148  0.60489  0.30311  Biso   1.000  H
  H912     1.0000 0.56288  0.60689  0.26731  Biso   1.000  H
  H913     1.0000 0.18650  0.42491  0.48820  Biso   1.000  H
  H914     1.0000 0.18599  0.44120  0.42738  Biso   1.000  H
  C578     1.0000 0.13620  0.48761  0.47273  Biso   1.000  C
  C579     1.0000 0.18599  0.54490  0.53630  Biso   1.000  C
  H915     1.0000 0.23409  0.48180  0.55350  Biso   1.000  H
  H916     1.0000 0.38568  0.48498  0.54910  Biso   1.000  H
  H917     1.0000 0.37249  0.43681  0.51097  Biso   1.000  H
  H918     1.0000 0.33609  0.44831  0.56100  Biso   1.000  H
  C580     1.0000 0.29754  0.54647  0.58891  Biso   1.000  C
  H919     1.0000 0.38568  0.51498  0.45090  Biso   1.000  H
  H920     1.0000 0.37249  0.56319  0.48899  Biso   1.000  H
  H921     1.0000 0.33609  0.55169  0.43900  Biso   1.000  H
  H922     1.0000 0.55420  0.13401  0.48439  Biso   1.000  H
  H923     1.0000 0.53108  0.10499  0.53520  Biso   1.000  H
  C581     1.0000 0.56795  0.35796  0.62264  Biso   1.000  C
  C582     1.0000 0.64200  0.37732  0.56795  Biso   1.000  C
  H924     1.0000 0.48439  0.55420  0.13401  Biso   1.000  H
  H925     1.0000 0.53520  0.53108  0.10499  Biso   1.000  H
  C583     1.0000 0.62264  0.56795  0.35796  Biso   1.000  C
  C584     1.0000 0.56795  0.64200  0.37732  Biso   1.000  C
  H926     1.0000 0.13401  0.51561  0.44580  Biso   1.000  H
  H927     1.0000 0.10499  0.46480  0.46888  Biso   1.000  H
  C585     1.0000 0.13620  0.51239  0.52727  Biso   1.000  C
  H928     1.0000 0.18650  0.57509  0.51180  Biso   1.000  H
  H929     1.0000 0.18599  0.55880  0.57258  Biso   1.000  H
  C586     1.0000 0.34591  0.57980  0.59888  Biso   1.000  C
  H930     1.0000 0.30311  0.51148  0.60489  Biso   1.000  H
  H931     1.0000 0.26731  0.56288  0.60689  Biso   1.000  H
  H932     1.0000 0.53838  0.33668  0.63081  Biso   1.000  H
  C587     1.0000 0.57980  0.40112  0.65405  Biso   1.000  C
  H933     1.0000 0.66328  0.36919  0.53838  Biso   1.000  H
  C588     1.0000 0.65405  0.42020  0.59888  Biso   1.000  C
  C589     1.0000 0.65405  0.57980  0.40112  Biso   1.000  C
  H934     1.0000 0.63081  0.53838  0.33668  Biso   1.000  H
  H935     1.0000 0.53838  0.66328  0.36919  Biso   1.000  H
  C590     1.0000 0.59888  0.65405  0.42020  Biso   1.000  C
  H936     1.0000 0.13401  0.48439  0.55420  Biso   1.000  H
  H937     1.0000 0.10499  0.53520  0.53108  Biso   1.000  H
  C591     1.0000 0.35796  0.62264  0.56795  Biso   1.000  C
  C592     1.0000 0.37732  0.56795  0.64200  Biso   1.000  C
  C593     1.0000 0.62264  0.43205  0.64200  Biso   1.000  C
  C594     1.0000 0.54647  0.41109  0.70246  Biso   1.000  C
  C595     1.0000 0.70246  0.45353  0.58891  Biso   1.000  C
  C596     1.0000 0.64200  0.62264  0.43205  Biso   1.000  C
  C597     1.0000 0.70246  0.54647  0.41109  Biso   1.000  C
  C598     1.0000 0.58891  0.70246  0.45353  Biso   1.000  C
  H938     1.0000 0.33668  0.63081  0.53838  Biso   1.000  H
  C599     1.0000 0.40112  0.65405  0.57980  Biso   1.000  C
  H939     1.0000 0.36919  0.53838  0.66328  Biso   1.000  H
  C600     1.0000 0.42020  0.59888  0.65405  Biso   1.000  C
  H940     1.0000 0.63081  0.46158  0.66328  Biso   1.000  H
  H941     1.0000 0.51148  0.39511  0.69689  Biso   1.000  H
  H942     1.0000 0.56288  0.39311  0.73269  Biso   1.000  H
  N79      1.0000 0.53940  0.46633  0.71573  Biso   1.000  N
  H943     1.0000 0.69689  0.48848  0.60489  Biso   1.000  H
  H944     1.0000 0.73269  0.43708  0.60689  Biso   1.000  H
  N80      1.0000 0.71573  0.46060  0.53367  Biso   1.000  N
  H945     1.0000 0.66328  0.63081  0.46158  Biso   1.000  H
  H946     1.0000 0.69689  0.51148  0.39511  Biso   1.000  H
  H947     1.0000 0.73269  0.56288  0.39311  Biso   1.000  H
  N81      1.0000 0.71573  0.53940  0.46633  Biso   1.000  N
  H948     1.0000 0.60489  0.69689  0.48848  Biso   1.000  H
  H949     1.0000 0.60689  0.73269  0.43708  Biso   1.000  H
  N82      1.0000 0.53367  0.71573  0.46060  Biso   1.000  N
  C601     1.0000 0.43205  0.64200  0.62264  Biso   1.000  C
  C602     1.0000 0.41109  0.70246  0.54647  Biso   1.000  C
  C603     1.0000 0.45353  0.58891  0.70246  Biso   1.000  C
  C604     1.0000 0.51145  0.47222  0.76520  Biso   1.000  C
  C605     1.0000 0.49998  0.49998  0.67710  Biso   1.000  C
  H950     1.0000 0.52888  0.47878  0.68530  Biso   1.000  H
  C606     1.0000 0.76520  0.48852  0.52778  Biso   1.000  C
  C607     1.0000 0.67710  0.49998  0.49998  Biso   1.000  C
  H951     1.0000 0.68530  0.47108  0.52118  Biso   1.000  H
  C608     1.0000 0.76520  0.51145  0.47222  Biso   1.000  C
  H952     1.0000 0.68530  0.52888  0.47878  Biso   1.000  H
  C609     1.0000 0.49998  0.67710  0.49998  Biso   1.000  C
  C610     1.0000 0.52778  0.76520  0.48852  Biso   1.000  C
  H953     1.0000 0.52118  0.68530  0.47108  Biso   1.000  H
  H954     1.0000 0.46158  0.66328  0.63081  Biso   1.000  H
  H955     1.0000 0.39511  0.69689  0.51148  Biso   1.000  H
  H956     1.0000 0.39311  0.73269  0.56288  Biso   1.000  H
  N83      1.0000 0.46633  0.71573  0.53940  Biso   1.000  N
  H957     1.0000 0.48848  0.60489  0.69689  Biso   1.000  H
  H958     1.0000 0.43708  0.60689  0.73269  Biso   1.000  H
  N84      1.0000 0.46060  0.53367  0.71573  Biso   1.000  N
  C611     1.0000 0.54490  0.46366  0.81397  Biso   1.000  C
  H959     1.0000 0.48180  0.44650  0.76587  Biso   1.000  H
  C612     1.0000 0.48852  0.52778  0.76520  Biso   1.000  C
  C613     1.0000 0.53559  0.53320  0.64270  Biso   1.000  C
  C614     1.0000 0.46441  0.46680  0.64270  Biso   1.000  C
  H960     1.0000 0.47108  0.52118  0.68530  Biso   1.000  H
  C615     1.0000 0.81397  0.45510  0.53630  Biso   1.000  C
  H961     1.0000 0.76587  0.51820  0.55350  Biso   1.000  H
  C616     1.0000 0.64270  0.46441  0.46680  Biso   1.000  C
  C617     1.0000 0.64270  0.53559  0.53320  Biso   1.000  C
  C618     1.0000 0.81397  0.54490  0.46366  Biso   1.000  C
  H962     1.0000 0.76587  0.48180  0.44650  Biso   1.000  H
  C619     1.0000 0.53320  0.64270  0.53559  Biso   1.000  C
  C620     1.0000 0.46680  0.64270  0.46441  Biso   1.000  C
  H963     1.0000 0.47878  0.68530  0.52888  Biso   1.000  H
  C621     1.0000 0.47222  0.76520  0.51145  Biso   1.000  C
  C622     1.0000 0.53630  0.81397  0.45510  Biso   1.000  C
  H964     1.0000 0.55350  0.76587  0.51820  Biso   1.000  H
  H965     1.0000 0.57509  0.48820  0.81350  Biso   1.000  H
  H966     1.0000 0.55880  0.42738  0.81397  Biso   1.000  H
  C623     1.0000 0.51239  0.47273  0.86380  Biso   1.000  C
  C624     1.0000 0.45510  0.53630  0.81397  Biso   1.000  C
  H967     1.0000 0.51820  0.55350  0.76587  Biso   1.000  H
  H968     1.0000 0.51498  0.54910  0.61428  Biso   1.000  H
  H969     1.0000 0.56319  0.51097  0.62747  Biso   1.000  H
  H970     1.0000 0.55169  0.56100  0.66391  Biso   1.000  H
  H971     1.0000 0.48498  0.45090  0.61428  Biso   1.000  H
  H972     1.0000 0.43681  0.48899  0.62747  Biso   1.000  H
  H973     1.0000 0.44831  0.43900  0.66391  Biso   1.000  H
  H974     1.0000 0.81350  0.42491  0.51180  Biso   1.000  H
  H975     1.0000 0.81397  0.44120  0.57258  Biso   1.000  H
  C625     1.0000 0.86380  0.48761  0.52727  Biso   1.000  C
  H976     1.0000 0.61428  0.48498  0.45090  Biso   1.000  H
  H977     1.0000 0.62747  0.43681  0.48899  Biso   1.000  H
  H978     1.0000 0.66391  0.44831  0.43900  Biso   1.000  H
  H979     1.0000 0.61428  0.51498  0.54910  Biso   1.000  H
  H980     1.0000 0.62747  0.56319  0.51097  Biso   1.000  H
  H981     1.0000 0.66391  0.55169  0.56100  Biso   1.000  H
  H982     1.0000 0.81350  0.57509  0.48820  Biso   1.000  H
  H983     1.0000 0.81397  0.55880  0.42738  Biso   1.000  H
  C626     1.0000 0.86380  0.51239  0.47273  Biso   1.000  C
  H984     1.0000 0.54910  0.61428  0.51498  Biso   1.000  H
  H985     1.0000 0.51097  0.62747  0.56319  Biso   1.000  H
  H986     1.0000 0.56100  0.66391  0.55169  Biso   1.000  H
  H987     1.0000 0.45090  0.61428  0.48498  Biso   1.000  H
  H988     1.0000 0.48899  0.62747  0.43681  Biso   1.000  H
  H989     1.0000 0.43900  0.66391  0.44831  Biso   1.000  H
  C627     1.0000 0.46366  0.81397  0.54490  Biso   1.000  C
  H990     1.0000 0.44650  0.76587  0.48180  Biso   1.000  H
  H991     1.0000 0.51180  0.81350  0.42491  Biso   1.000  H
  H992     1.0000 0.57258  0.81397  0.44120  Biso   1.000  H
  C628     1.0000 0.52727  0.86380  0.48761  Biso   1.000  C
  H993     1.0000 0.48439  0.44580  0.86599  Biso   1.000  H
  H994     1.0000 0.53520  0.46888  0.89497  Biso   1.000  H
  C629     1.0000 0.48761  0.52727  0.86380  Biso   1.000  C
  H995     1.0000 0.42491  0.51180  0.81350  Biso   1.000  H
  H996     1.0000 0.44120  0.57258  0.81397  Biso   1.000  H
  H997     1.0000 0.86599  0.51561  0.55420  Biso   1.000  H
  H998     1.0000 0.89497  0.46480  0.53108  Biso   1.000  H
  H999     1.0000 0.86599  0.48439  0.44580  Biso   1.000  H
  H1000    1.0000 0.89497  0.53520  0.46888  Biso   1.000  H
  H1001    1.0000 0.48820  0.81350  0.57509  Biso   1.000  H
  H1002    1.0000 0.42738  0.81397  0.55880  Biso   1.000  H
  C630     1.0000 0.47273  0.86380  0.51239  Biso   1.000  C
  H1003    1.0000 0.55420  0.86599  0.51561  Biso   1.000  H
  H1004    1.0000 0.53108  0.89497  0.46480  Biso   1.000  H
  H1005    1.0000 0.51561  0.55420  0.86599  Biso   1.000  H
  H1006    1.0000 0.46480  0.53108  0.89497  Biso   1.000  H
  H1007    1.0000 0.44580  0.86599  0.48439  Biso   1.000  H
  H1008    1.0000 0.46888  0.89497  0.53520  Biso   1.000  H
  C631     1.0000 0.43205  0.35796  0.37732  Biso   1.000  C
  C632     1.0000 0.40112  0.34591  0.42020  Biso   1.000  C
  H1009    1.0000 0.46158  0.33668  0.36919  Biso   1.000  H
  C633     1.0000 0.42020  0.40112  0.34591  Biso   1.000  C
  C634     1.0000 0.41109  0.29754  0.45353  Biso   1.000  C
  C635     1.0000 0.35796  0.37732  0.43205  Biso   1.000  C
  C636     1.0000 0.37732  0.43205  0.35796  Biso   1.000  C
  C637     1.0000 0.45353  0.41109  0.29754  Biso   1.000  C
  N85      1.0000 0.46633  0.28427  0.46060  Biso   1.000  N
  H1010    1.0000 0.39511  0.30311  0.48848  Biso   1.000  H
  H1011    1.0000 0.39311  0.26731  0.43708  Biso   1.000  H
  H1012    1.0000 0.33668  0.36919  0.46158  Biso   1.000  H
  C638     1.0000 0.34591  0.42020  0.40112  Biso   1.000  C
  H1013    1.0000 0.36919  0.46158  0.33668  Biso   1.000  H
  H1014    1.0000 0.48848  0.39511  0.30311  Biso   1.000  H
  H1015    1.0000 0.43708  0.39311  0.26731  Biso   1.000  H
  N86      1.0000 0.46060  0.46633  0.28427  Biso   1.000  N
  C639     1.0000 0.47222  0.23476  0.48852  Biso   1.000  C
  C640     1.0000 0.49998  0.32290  0.49998  Biso   1.000  C
  H1016    1.0000 0.47878  0.31470  0.47108  Biso   1.000  H
  C641     1.0000 0.29754  0.45353  0.41109  Biso   1.000  C
  C642     1.0000 0.48852  0.47222  0.23476  Biso   1.000  C
  C643     1.0000 0.49998  0.49998  0.32290  Biso   1.000  C
  H1017    1.0000 0.47108  0.47878  0.31470  Biso   1.000  H
  H1018    1.0000 0.44650  0.23409  0.51820  Biso   1.000  H
  C644     1.0000 0.46366  0.18599  0.45510  Biso   1.000  C
  C645     1.0000 0.52778  0.23476  0.51145  Biso   1.000  C
  N87      1.0000 0.53367  0.28427  0.53940  Biso   1.000  N
  C646     1.0000 0.53320  0.35730  0.46441  Biso   1.000  C
  C647     1.0000 0.46680  0.35730  0.53559  Biso   1.000  C
  H1019    1.0000 0.52118  0.31470  0.52888  Biso   1.000  H
  H1020    1.0000 0.30311  0.48848  0.39511  Biso   1.000  H
  H1021    1.0000 0.26731  0.43708  0.39311  Biso   1.000  H
  N88      1.0000 0.28427  0.46060  0.46633  Biso   1.000  N
  H1022    1.0000 0.51820  0.44650  0.23409  Biso   1.000  H
  C648     1.0000 0.45510  0.46366  0.18599  Biso   1.000  C
  C649     1.0000 0.51145  0.52778  0.23476  Biso   1.000  C
  N89      1.0000 0.53940  0.53367  0.28427  Biso   1.000  N
  C650     1.0000 0.46441  0.53320  0.35730  Biso   1.000  C
  C651     1.0000 0.53559  0.46680  0.35730  Biso   1.000  C
  H1023    1.0000 0.52888  0.52118  0.31470  Biso   1.000  H
  H1024    1.0000 0.48820  0.18650  0.42491  Biso   1.000  H
  H1025    1.0000 0.42738  0.18599  0.44120  Biso   1.000  H
  C652     1.0000 0.47273  0.13620  0.48761  Biso   1.000  C
  H1026    1.0000 0.55350  0.23409  0.48180  Biso   1.000  H
  C653     1.0000 0.53630  0.18599  0.54490  Biso   1.000  C
  C654     1.0000 0.58891  0.29754  0.54647  Biso   1.000  C
  H1027    1.0000 0.54910  0.38568  0.48498  Biso   1.000  H
  H1028    1.0000 0.51097  0.37249  0.43681  Biso   1.000  H
  H1029    1.0000 0.56100  0.33609  0.44831  Biso   1.000  H
  H1030    1.0000 0.45090  0.38568  0.51498  Biso   1.000  H
  H1031    1.0000 0.48899  0.37249  0.56319  Biso   1.000  H
  H1032    1.0000 0.43900  0.33609  0.55169  Biso   1.000  H
  C655     1.0000 0.23476  0.48852  0.47222  Biso   1.000  C
  C656     1.0000 0.32290  0.49998  0.49998  Biso   1.000  C
  H1033    1.0000 0.31470  0.47108  0.47878  Biso   1.000  H
  H1034    1.0000 0.42491  0.48820  0.18650  Biso   1.000  H
  H1035    1.0000 0.44120  0.42738  0.18599  Biso   1.000  H
  C657     1.0000 0.48761  0.47273  0.13620  Biso   1.000  C
  H1036    1.0000 0.48180  0.55350  0.23409  Biso   1.000  H
  C658     1.0000 0.54490  0.53630  0.18599  Biso   1.000  C
  C659     1.0000 0.54647  0.58891  0.29754  Biso   1.000  C
  H1037    1.0000 0.48498  0.54910  0.38568  Biso   1.000  H
  H1038    1.0000 0.43681  0.51097  0.37249  Biso   1.000  H
  H1039    1.0000 0.44831  0.56100  0.33609  Biso   1.000  H
  H1040    1.0000 0.51498  0.45090  0.38568  Biso   1.000  H
  H1041    1.0000 0.56319  0.48899  0.37249  Biso   1.000  H
  H1042    1.0000 0.55169  0.43900  0.33609  Biso   1.000  H
  H1043    1.0000 0.44580  0.13401  0.51561  Biso   1.000  H
  H1044    1.0000 0.46888  0.10499  0.46480  Biso   1.000  H
  C660     1.0000 0.52727  0.13620  0.51239  Biso   1.000  C
  H1045    1.0000 0.51180  0.18650  0.57509  Biso   1.000  H
  H1046    1.0000 0.57258  0.18599  0.55880  Biso   1.000  H
  H1047    1.0000 0.60489  0.30311  0.51148  Biso   1.000  H
  H1048    1.0000 0.60689  0.26731  0.56288  Biso   1.000  H
  C661     1.0000 0.59888  0.34591  0.57980  Biso   1.000  C
  H1049    1.0000 0.23409  0.51820  0.44650  Biso   1.000  H
  C662     1.0000 0.18599  0.45510  0.46366  Biso   1.000  C
  C663     1.0000 0.23476  0.51145  0.52778  Biso   1.000  C
  N90      1.0000 0.28427  0.53940  0.53367  Biso   1.000  N
  C664     1.0000 0.35730  0.46441  0.53320  Biso   1.000  C
  C665     1.0000 0.35730  0.53559  0.46680  Biso   1.000  C
  H1050    1.0000 0.31470  0.52888  0.52118  Biso   1.000  H
  H1051    1.0000 0.51561  0.44580  0.13401  Biso   1.000  H
  H1052    1.0000 0.46480  0.46888  0.10499  Biso   1.000  H
  C666     1.0000 0.51239  0.52727  0.13620  Biso   1.000  C
  H1053    1.0000 0.57509  0.51180  0.18650  Biso   1.000  H
  H1054    1.0000 0.55880  0.57258  0.18599  Biso   1.000  H
  H1055    1.0000 0.51148  0.60489  0.30311  Biso   1.000  H
  H1056    1.0000 0.56288  0.60689  0.26731  Biso   1.000  H
  C667     1.0000 0.57980  0.59888  0.34591  Biso   1.000  C
  H1057    1.0000 0.55420  0.13401  0.48439  Biso   1.000  H
  H1058    1.0000 0.53108  0.10499  0.53520  Biso   1.000  H
  C668     1.0000 0.56795  0.35796  0.62264  Biso   1.000  C
  C669     1.0000 0.64200  0.37732  0.56795  Biso   1.000  C
  H1059    1.0000 0.18650  0.42491  0.48820  Biso   1.000  H
  H1060    1.0000 0.18599  0.44120  0.42738  Biso   1.000  H
  C670     1.0000 0.13620  0.48761  0.47273  Biso   1.000  C
  H1061    1.0000 0.23409  0.48180  0.55350  Biso   1.000  H
  C671     1.0000 0.18599  0.54490  0.53630  Biso   1.000  C
  C672     1.0000 0.29754  0.54647  0.58891  Biso   1.000  C
  H1062    1.0000 0.38568  0.48498  0.54910  Biso   1.000  H
  H1063    1.0000 0.37249  0.43681  0.51097  Biso   1.000  H
  H1064    1.0000 0.33609  0.44831  0.56100  Biso   1.000  H
  H1065    1.0000 0.38568  0.51498  0.45090  Biso   1.000  H
  H1066    1.0000 0.37249  0.56319  0.48899  Biso   1.000  H
  H1067    1.0000 0.33609  0.55169  0.43900  Biso   1.000  H
  H1068    1.0000 0.48439  0.55420  0.13401  Biso   1.000  H
  H1069    1.0000 0.53520  0.53108  0.10499  Biso   1.000  H
  C673     1.0000 0.62264  0.56795  0.35796  Biso   1.000  C
  C674     1.0000 0.56795  0.64200  0.37732  Biso   1.000  C
  H1070    1.0000 0.53838  0.33668  0.63081  Biso   1.000  H
  C675     1.0000 0.57980  0.40112  0.65405  Biso   1.000  C
  H1071    1.0000 0.66328  0.36919  0.53838  Biso   1.000  H
  C676     1.0000 0.65405  0.42020  0.59888  Biso   1.000  C
  H1072    1.0000 0.13401  0.51561  0.44580  Biso   1.000  H
  H1073    1.0000 0.10499  0.46480  0.46888  Biso   1.000  H
  C677     1.0000 0.13620  0.51239  0.52727  Biso   1.000  C
  H1074    1.0000 0.18650  0.57509  0.51180  Biso   1.000  H
  H1075    1.0000 0.18599  0.55880  0.57258  Biso   1.000  H
  H1076    1.0000 0.30311  0.51148  0.60489  Biso   1.000  H
  H1077    1.0000 0.26731  0.56288  0.60689  Biso   1.000  H
  C678     1.0000 0.34591  0.57980  0.59888  Biso   1.000  C
  C679     1.0000 0.65405  0.57980  0.40112  Biso   1.000  C
  H1078    1.0000 0.63081  0.53838  0.33668  Biso   1.000  H
  H1079    1.0000 0.53838  0.66328  0.36919  Biso   1.000  H
  C680     1.0000 0.59888  0.65405  0.42020  Biso   1.000  C
  C681     1.0000 0.62264  0.43205  0.64200  Biso   1.000  C
  C682     1.0000 0.54647  0.41109  0.70246  Biso   1.000  C
  C683     1.0000 0.70246  0.45353  0.58891  Biso   1.000  C
  H1080    1.0000 0.13401  0.48439  0.55420  Biso   1.000  H
  H1081    1.0000 0.10499  0.53520  0.53108  Biso   1.000  H
  C684     1.0000 0.35796  0.62264  0.56795  Biso   1.000  C
  C685     1.0000 0.37732  0.56795  0.64200  Biso   1.000  C
  C686     1.0000 0.70246  0.54647  0.41109  Biso   1.000  C
  C687     1.0000 0.64200  0.62264  0.43205  Biso   1.000  C
  C688     1.0000 0.58891  0.70246  0.45353  Biso   1.000  C
  H1082    1.0000 0.63081  0.46158  0.66328  Biso   1.000  H
  H1083    1.0000 0.51148  0.39511  0.69689  Biso   1.000  H
  H1084    1.0000 0.56288  0.39311  0.73269  Biso   1.000  H
  N91      1.0000 0.53940  0.46633  0.71573  Biso   1.000  N
  H1085    1.0000 0.69689  0.48848  0.60489  Biso   1.000  H
  H1086    1.0000 0.73269  0.43708  0.60689  Biso   1.000  H
  N92      1.0000 0.71573  0.46060  0.53367  Biso   1.000  N
  H1087    1.0000 0.33668  0.63081  0.53838  Biso   1.000  H
  C689     1.0000 0.40112  0.65405  0.57980  Biso   1.000  C
  H1088    1.0000 0.36919  0.53838  0.66328  Biso   1.000  H
  C690     1.0000 0.42020  0.59888  0.65405  Biso   1.000  C
  N93      1.0000 0.71573  0.53940  0.46633  Biso   1.000  N
  H1089    1.0000 0.69689  0.51148  0.39511  Biso   1.000  H
  H1090    1.0000 0.73269  0.56288  0.39311  Biso   1.000  H
  H1091    1.0000 0.66328  0.63081  0.46158  Biso   1.000  H
  H1092    1.0000 0.60489  0.69689  0.48848  Biso   1.000  H
  H1093    1.0000 0.60689  0.73269  0.43708  Biso   1.000  H
  N94      1.0000 0.53367  0.71573  0.46060  Biso   1.000  N
  C691     1.0000 0.51145  0.47222  0.76520  Biso   1.000  C
  C692     1.0000 0.49998  0.49998  0.67710  Biso   1.000  C
  H1094    1.0000 0.52888  0.47878  0.68530  Biso   1.000  H
  C693     1.0000 0.76520  0.48852  0.52778  Biso   1.000  C
  C694     1.0000 0.67710  0.49998  0.49998  Biso   1.000  C
  H1095    1.0000 0.68530  0.47108  0.52118  Biso   1.000  H
  C695     1.0000 0.43205  0.64200  0.62264  Biso   1.000  C
  C696     1.0000 0.41109  0.70246  0.54647  Biso   1.000  C
  C697     1.0000 0.45353  0.58891  0.70246  Biso   1.000  C
  C698     1.0000 0.76520  0.51145  0.47222  Biso   1.000  C
  H1096    1.0000 0.68530  0.52888  0.47878  Biso   1.000  H
  C699     1.0000 0.49998  0.67710  0.49998  Biso   1.000  C
  C700     1.0000 0.52778  0.76520  0.48852  Biso   1.000  C
  H1097    1.0000 0.52118  0.68530  0.47108  Biso   1.000  H
  H1098    1.0000 0.48180  0.44650  0.76587  Biso   1.000  H
  C701     1.0000 0.54490  0.46366  0.81397  Biso   1.000  C
  C702     1.0000 0.48852  0.52778  0.76520  Biso   1.000  C
  N95      1.0000 0.46060  0.53367  0.71573  Biso   1.000  N
  C703     1.0000 0.53559  0.53320  0.64270  Biso   1.000  C
  C704     1.0000 0.46441  0.46680  0.64270  Biso   1.000  C
  H1099    1.0000 0.47108  0.52118  0.68530  Biso   1.000  H
  H1100    1.0000 0.76587  0.51820  0.55350  Biso   1.000  H
  C705     1.0000 0.81397  0.45510  0.53630  Biso   1.000  C
  C706     1.0000 0.64270  0.46441  0.46680  Biso   1.000  C
  C707     1.0000 0.64270  0.53559  0.53320  Biso   1.000  C
  H1101    1.0000 0.46158  0.66328  0.63081  Biso   1.000  H
  H1102    1.0000 0.39511  0.69689  0.51148  Biso   1.000  H
  H1103    1.0000 0.39311  0.73269  0.56288  Biso   1.000  H
  N96      1.0000 0.46633  0.71573  0.53940  Biso   1.000  N
  H1104    1.0000 0.48848  0.60489  0.69689  Biso   1.000  H
  H1105    1.0000 0.43708  0.60689  0.73269  Biso   1.000  H
  H1106    1.0000 0.76587  0.48180  0.44650  Biso   1.000  H
  C708     1.0000 0.81397  0.54490  0.46366  Biso   1.000  C
  H1107    1.0000 0.47878  0.68530  0.52888  Biso   1.000  H
  C709     1.0000 0.53320  0.64270  0.53559  Biso   1.000  C
  C710     1.0000 0.46680  0.64270  0.46441  Biso   1.000  C
  C711     1.0000 0.47222  0.76520  0.51145  Biso   1.000  C
  H1108    1.0000 0.55350  0.76587  0.51820  Biso   1.000  H
  C712     1.0000 0.53630  0.81397  0.45510  Biso   1.000  C
  H1109    1.0000 0.57509  0.48820  0.81350  Biso   1.000  H
  H1110    1.0000 0.55880  0.42738  0.81397  Biso   1.000  H
  C713     1.0000 0.51239  0.47273  0.86380  Biso   1.000  C
  H1111    1.0000 0.51820  0.55350  0.76587  Biso   1.000  H
  C714     1.0000 0.45510  0.53630  0.81397  Biso   1.000  C
  H1112    1.0000 0.51498  0.54910  0.61428  Biso   1.000  H
  H1113    1.0000 0.56319  0.51097  0.62747  Biso   1.000  H
  H1114    1.0000 0.55169  0.56100  0.66391  Biso   1.000  H
  H1115    1.0000 0.48498  0.45090  0.61428  Biso   1.000  H
  H1116    1.0000 0.43681  0.48899  0.62747  Biso   1.000  H
  H1117    1.0000 0.44831  0.43900  0.66391  Biso   1.000  H
  H1118    1.0000 0.81350  0.42491  0.51180  Biso   1.000  H
  H1119    1.0000 0.81397  0.44120  0.57258  Biso   1.000  H
  C715     1.0000 0.86380  0.48761  0.52727  Biso   1.000  C
  H1120    1.0000 0.61428  0.48498  0.45090  Biso   1.000  H
  H1121    1.0000 0.62747  0.43681  0.48899  Biso   1.000  H
  H1122    1.0000 0.66391  0.44831  0.43900  Biso   1.000  H
  H1123    1.0000 0.61428  0.51498  0.54910  Biso   1.000  H
  H1124    1.0000 0.62747  0.56319  0.51097  Biso   1.000  H
  H1125    1.0000 0.66391  0.55169  0.56100  Biso   1.000  H
  C716     1.0000 0.86380  0.51239  0.47273  Biso   1.000  C
  H1126    1.0000 0.81350  0.57509  0.48820  Biso   1.000  H
  H1127    1.0000 0.81397  0.55880  0.42738  Biso   1.000  H
  H1128    1.0000 0.54910  0.61428  0.51498  Biso   1.000  H
  H1129    1.0000 0.51097  0.62747  0.56319  Biso   1.000  H
  H1130    1.0000 0.56100  0.66391  0.55169  Biso   1.000  H
  H1131    1.0000 0.45090  0.61428  0.48498  Biso   1.000  H
  H1132    1.0000 0.48899  0.62747  0.43681  Biso   1.000  H
  H1133    1.0000 0.43900  0.66391  0.44831  Biso   1.000  H
  H1134    1.0000 0.44650  0.76587  0.48180  Biso   1.000  H
  C717     1.0000 0.46366  0.81397  0.54490  Biso   1.000  C
  H1135    1.0000 0.51180  0.81350  0.42491  Biso   1.000  H
  H1136    1.0000 0.57258  0.81397  0.44120  Biso   1.000  H
  C718     1.0000 0.52727  0.86380  0.48761  Biso   1.000  C
  H1137    1.0000 0.48439  0.44580  0.86599  Biso   1.000  H
  H1138    1.0000 0.53520  0.46888  0.89497  Biso   1.000  H
  C719     1.0000 0.48761  0.52727  0.86380  Biso   1.000  C
  H1139    1.0000 0.42491  0.51180  0.81350  Biso   1.000  H
  H1140    1.0000 0.44120  0.57258  0.81397  Biso   1.000  H
  H1141    1.0000 0.86599  0.51561  0.55420  Biso   1.000  H
  H1142    1.0000 0.89497  0.46480  0.53108  Biso   1.000  H
  H1143    1.0000 0.86599  0.48439  0.44580  Biso   1.000  H
  H1144    1.0000 0.89497  0.53520  0.46888  Biso   1.000  H
  H1145    1.0000 0.48820  0.81350  0.57509  Biso   1.000  H
  H1146    1.0000 0.42738  0.81397  0.55880  Biso   1.000  H
  C720     1.0000 0.47273  0.86380  0.51239  Biso   1.000  C
  H1147    1.0000 0.55420  0.86599  0.51561  Biso   1.000  H
  H1148    1.0000 0.53108  0.89497  0.46480  Biso   1.000  H
  H1149    1.0000 0.51561  0.55420  0.86599  Biso   1.000  H
  H1150    1.0000 0.46480  0.53108  0.89497  Biso   1.000  H
  H1151    1.0000 0.44580  0.86599  0.48439  Biso   1.000  H
  H1152    1.0000 0.46888  0.89497  0.53520  Biso   1.000  H
  C721     1.0000 0.43205  0.14202  0.12266  Biso   1.000  C
  H1153    1.0000 0.46158  0.16330  0.13079  Biso   1.000  H
  C722     1.0000 0.40112  0.15407  0.07982  Biso   1.000  C
  C723     1.0000 0.42020  0.09887  0.15407  Biso   1.000  C
  C724     1.0000 0.40112  0.15407  0.07978  Biso   1.000  C
  C725     1.0000 0.35796  0.12266  0.06793  Biso   1.000  C
  C726     1.0000 0.41109  0.20248  0.04645  Biso   1.000  C
  C727     1.0000 0.43205  0.14198  0.12266  Biso   1.000  C
  C728     1.0000 0.41109  0.20244  0.04645  Biso   1.000  C
  C729     1.0000 0.37732  0.06793  0.14202  Biso   1.000  C
  C730     1.0000 0.45353  0.08893  0.20248  Biso   1.000  C
  C731     1.0000 0.37732  0.06793  0.14198  Biso   1.000  C
  C732     1.0000 0.45353  0.08893  0.20244  Biso   1.000  C
  C733     1.0000 0.45353  0.08889  0.20248  Biso   1.000  C
  C734     1.0000 0.45353  0.08889  0.20244  Biso   1.000  C
  H1154    1.0000 0.33668  0.13079  0.03840  Biso   1.000  H
  C735     1.0000 0.34591  0.07982  0.09887  Biso   1.000  C
  H1155    1.0000 0.33668  0.13079  0.03836  Biso   1.000  H
  C736     1.0000 0.34591  0.07978  0.09887  Biso   1.000  C
  H1156    1.0000 0.39511  0.19691  0.01150  Biso   1.000  H
  H1157    1.0000 0.39311  0.23271  0.06290  Biso   1.000  H
  N97      1.0000 0.46633  0.21575  0.03938  Biso   1.000  N
  H1158    1.0000 0.39511  0.19691  0.01146  Biso   1.000  H
  H1159    1.0000 0.39311  0.23271  0.06286  Biso   1.000  H
  H1160    1.0000 0.39511  0.19687  0.01150  Biso   1.000  H
  H1161    1.0000 0.39311  0.23268  0.06290  Biso   1.000  H
  N98      1.0000 0.46633  0.21571  0.03938  Biso   1.000  N
  H1162    1.0000 0.39511  0.19687  0.01146  Biso   1.000  H
  H1163    1.0000 0.39311  0.23268  0.06286  Biso   1.000  H
  H1164    1.0000 0.36919  0.03840  0.16330  Biso   1.000  H
  H1165    1.0000 0.36919  0.03836  0.16330  Biso   1.000  H
  H1166    1.0000 0.48848  0.10491  0.19691  Biso   1.000  H
  H1167    1.0000 0.43708  0.10691  0.23271  Biso   1.000  H
  N99      1.0000 0.46060  0.03365  0.21575  Biso   1.000  N
  H1168    1.0000 0.48848  0.10491  0.19687  Biso   1.000  H
  H1169    1.0000 0.43708  0.10691  0.23268  Biso   1.000  H
  N100     1.0000 0.46060  0.03365  0.21571  Biso   1.000  N
  H1170    1.0000 0.48848  0.10487  0.19691  Biso   1.000  H
  H1171    1.0000 0.43708  0.10688  0.23271  Biso   1.000  H
  H1172    1.0000 0.48848  0.10487  0.19687  Biso   1.000  H
  H1173    1.0000 0.43708  0.10688  0.23268  Biso   1.000  H
  C737     1.0000 0.29754  0.04645  0.08893  Biso   1.000  C
  C738     1.0000 0.29754  0.04645  0.08889  Biso   1.000  C
  C739     1.0000 0.47222  0.26522  0.01146  Biso   1.000  C
  C740     1.0000 0.49998  0.17708  0.00000  Biso   1.000  C
  H1174    1.0000 0.47878  0.18528  0.02890  Biso   1.000  H
  C741     1.0000 0.48852  0.02776  0.26522  Biso   1.000  C
  C742     1.0000 0.49998  0.00000  0.17708  Biso   1.000  C
  H1175    1.0000 0.47108  0.02120  0.18528  Biso   1.000  H
  H1176    1.0000 0.30311  0.01150  0.10491  Biso   1.000  H
  H1177    1.0000 0.26731  0.06290  0.10691  Biso   1.000  H
  N101     1.0000 0.28427  0.03938  0.03365  Biso   1.000  N
  H1178    1.0000 0.30311  0.01150  0.10487  Biso   1.000  H
  H1179    1.0000 0.26731  0.06290  0.10688  Biso   1.000  H
  H1180    1.0000 0.30311  0.01146  0.10491  Biso   1.000  H
  H1181    1.0000 0.26731  0.06286  0.10691  Biso   1.000  H
  H1182    1.0000 0.30311  0.01146  0.10487  Biso   1.000  H
  H1183    1.0000 0.26731  0.06286  0.10688  Biso   1.000  H
  C743     1.0000 0.46366  0.31399  0.04492  Biso   1.000  C
  C744     1.0000 0.46366  0.31399  0.04488  Biso   1.000  C
  C745     1.0000 0.46366  0.31395  0.04492  Biso   1.000  C
  C746     1.0000 0.46366  0.31395  0.04488  Biso   1.000  C
  H1184    1.0000 0.44650  0.26589  0.98178  Biso   1.000  H
  C747     1.0000 0.52778  0.26522  0.98854  Biso   1.000  C
  C748     1.0000 0.52778  0.26522  0.98850  Biso   1.000  C
  C749     1.0000 0.53320  0.14268  0.03561  Biso   1.000  C
  C750     1.0000 0.53320  0.14268  0.03557  Biso   1.000  C
  N102     1.0000 0.53367  0.21575  0.96062  Biso   1.000  N
  C751     1.0000 0.46680  0.14268  0.96435  Biso   1.000  C
  N103     1.0000 0.53367  0.21575  0.96058  Biso   1.000  N
  C752     1.0000 0.46680  0.14268  0.96439  Biso   1.000  C
  N104     1.0000 0.53367  0.21571  0.96062  Biso   1.000  N
  N105     1.0000 0.53367  0.21571  0.96058  Biso   1.000  N
  H1185    1.0000 0.52118  0.18528  0.97106  Biso   1.000  H
  C753     1.0000 0.45510  0.03632  0.31399  Biso   1.000  C
  H1186    1.0000 0.51820  0.05352  0.26589  Biso   1.000  H
  C754     1.0000 0.45510  0.03632  0.31395  Biso   1.000  C
  H1187    1.0000 0.51820  0.05348  0.26589  Biso   1.000  H
  C755     1.0000 0.51145  0.97220  0.26522  Biso   1.000  C
  C756     1.0000 0.53559  0.03322  0.14268  Biso   1.000  C
  C757     1.0000 0.53559  0.03318  0.14268  Biso   1.000  C
  C758     1.0000 0.46441  0.96678  0.14268  Biso   1.000  C
  N106     1.0000 0.53940  0.96631  0.21575  Biso   1.000  N
  N107     1.0000 0.53940  0.96631  0.21571  Biso   1.000  N
  H1188    1.0000 0.52888  0.97880  0.18528  Biso   1.000  H
  C759     1.0000 0.23476  0.01146  0.02776  Biso   1.000  C
  C760     1.0000 0.32290  0.00000  0.00000  Biso   1.000  C
  H1189    1.0000 0.31470  0.02890  0.02120  Biso   1.000  H
  H1190    1.0000 0.48820  0.31348  0.07511  Biso   1.000  H
  H1191    1.0000 0.42738  0.31399  0.05882  Biso   1.000  H
  C761     1.0000 0.47273  0.36378  0.01237  Biso   1.000  C
  H1192    1.0000 0.48820  0.31348  0.07507  Biso   1.000  H
  H1193    1.0000 0.55350  0.26589  0.01822  Biso   1.000  H
  H1194    1.0000 0.55350  0.26589  0.01818  Biso   1.000  H
  C762     1.0000 0.53630  0.31399  0.95508  Biso   1.000  C
  C763     1.0000 0.53630  0.31395  0.95508  Biso   1.000  C
  H1195    1.0000 0.54910  0.11430  0.01500  Biso   1.000  H
  H1196    1.0000 0.51097  0.12749  0.06321  Biso   1.000  H
  H1197    1.0000 0.51097  0.12749  0.06317  Biso   1.000  H
  H1198    1.0000 0.56100  0.16389  0.05171  Biso   1.000  H
  C764     1.0000 0.58891  0.20248  0.95351  Biso   1.000  C
  C765     1.0000 0.58891  0.20244  0.95351  Biso   1.000  C
  H1199    1.0000 0.45090  0.11430  0.98500  Biso   1.000  H
  H1200    1.0000 0.48899  0.12749  0.93675  Biso   1.000  H
  H1201    1.0000 0.45090  0.11430  0.98496  Biso   1.000  H
  H1202    1.0000 0.48899  0.12749  0.93679  Biso   1.000  H
  H1203    1.0000 0.43900  0.16389  0.94829  Biso   1.000  H
  H1204    1.0000 0.42491  0.01182  0.31348  Biso   1.000  H
  H1205    1.0000 0.44120  0.07260  0.31399  Biso   1.000  H
  C766     1.0000 0.48761  0.02729  0.36378  Biso   1.000  C
  H1206    1.0000 0.42491  0.01178  0.31348  Biso   1.000  H
  C767     1.0000 0.48761  0.02725  0.36378  Biso   1.000  C
  C768     1.0000 0.54490  0.96368  0.31399  Biso   1.000  C
  H1207    1.0000 0.48180  0.94644  0.26589  Biso   1.000  H
  C769     1.0000 0.54490  0.96368  0.31395  Biso   1.000  C
  C770     1.0000 0.54490  0.96364  0.31399  Biso   1.000  C
  H1208    1.0000 0.48180  0.94648  0.26589  Biso   1.000  H
  C771     1.0000 0.54490  0.96364  0.31395  Biso   1.000  C
  H1209    1.0000 0.51498  0.04912  0.11430  Biso   1.000  H
  H1210    1.0000 0.56319  0.01099  0.12749  Biso   1.000  H
  H1211    1.0000 0.51498  0.04908  0.11430  Biso   1.000  H
  H1212    1.0000 0.55169  0.06098  0.16389  Biso   1.000  H
  H1213    1.0000 0.48498  0.95088  0.11430  Biso   1.000  H
  H1214    1.0000 0.43681  0.98901  0.12749  Biso   1.000  H
  H1215    1.0000 0.43681  0.98897  0.12749  Biso   1.000  H
  H1216    1.0000 0.44831  0.93898  0.16389  Biso   1.000  H
  C772     1.0000 0.54647  0.91107  0.20248  Biso   1.000  C
  C773     1.0000 0.54647  0.91107  0.20244  Biso   1.000  C
  C774     1.0000 0.18599  0.04492  0.03632  Biso   1.000  C
  C775     1.0000 0.18599  0.04488  0.03632  Biso   1.000  C
  C776     1.0000 0.23476  0.98854  0.97220  Biso   1.000  C
  C777     1.0000 0.23476  0.98850  0.97220  Biso   1.000  C
  H1217    1.0000 0.23409  0.98178  0.05352  Biso   1.000  H
  H1218    1.0000 0.23409  0.98178  0.05348  Biso   1.000  H
  N108     1.0000 0.28427  0.96062  0.96631  Biso   1.000  N
  N109     1.0000 0.28427  0.96058  0.96631  Biso   1.000  N
  H1219    1.0000 0.31470  0.97106  0.97880  Biso   1.000  H
  C778     1.0000 0.35730  0.96435  0.03322  Biso   1.000  C
  C779     1.0000 0.35730  0.96435  0.03318  Biso   1.000  C
  C780     1.0000 0.35730  0.96439  0.03322  Biso   1.000  C
  C781     1.0000 0.35730  0.96439  0.03318  Biso   1.000  C
  C782     1.0000 0.35730  0.03561  0.96678  Biso   1.000  C
  C783     1.0000 0.35730  0.03557  0.96678  Biso   1.000  C
  H1220    1.0000 0.46888  0.39499  0.03518  Biso   1.000  H
  H1221    1.0000 0.46888  0.39503  0.03518  Biso   1.000  H
  H1222    1.0000 0.44580  0.36597  0.98441  Biso   1.000  H
  C784     1.0000 0.52727  0.36378  0.98763  Biso   1.000  C
  H1223    1.0000 0.44580  0.36597  0.98437  Biso   1.000  H
  C785     1.0000 0.52727  0.36378  0.98759  Biso   1.000  C
  H1224    1.0000 0.51180  0.31348  0.92485  Biso   1.000  H
  H1225    1.0000 0.57258  0.31399  0.94118  Biso   1.000  H
  H1226    1.0000 0.51180  0.31348  0.92489  Biso   1.000  H
  C786     1.0000 0.59888  0.15407  0.92018  Biso   1.000  C
  H1227    1.0000 0.60489  0.19691  0.98850  Biso   1.000  H
  H1228    1.0000 0.60689  0.23271  0.93706  Biso   1.000  H
  H1229    1.0000 0.60689  0.23271  0.93710  Biso   1.000  H
  H1230    1.0000 0.60489  0.19687  0.98850  Biso   1.000  H
  H1231    1.0000 0.60689  0.23268  0.93706  Biso   1.000  H
  H1232    1.0000 0.60689  0.23268  0.93710  Biso   1.000  H
  H1233    1.0000 0.51561  0.05418  0.36597  Biso   1.000  H
  H1234    1.0000 0.46480  0.03110  0.39499  Biso   1.000  H
  H1235    1.0000 0.46480  0.03110  0.39503  Biso   1.000  H
  C787     1.0000 0.51239  0.97267  0.36378  Biso   1.000  C
  C788     1.0000 0.51239  0.97271  0.36378  Biso   1.000  C
  H1236    1.0000 0.57509  0.98818  0.31348  Biso   1.000  H
  H1237    1.0000 0.55880  0.92736  0.31399  Biso   1.000  H
  C789     1.0000 0.57980  0.90110  0.15407  Biso   1.000  C
  H1238    1.0000 0.51148  0.89509  0.19691  Biso   1.000  H
  H1239    1.0000 0.56288  0.89305  0.23271  Biso   1.000  H
  H1240    1.0000 0.51148  0.89509  0.19687  Biso   1.000  H
  H1241    1.0000 0.56288  0.89305  0.23268  Biso   1.000  H
  H1242    1.0000 0.56288  0.89309  0.23271  Biso   1.000  H
  H1243    1.0000 0.56288  0.89309  0.23268  Biso   1.000  H
  H1244    1.0000 0.18650  0.07511  0.01182  Biso   1.000  H
  H1245    1.0000 0.18599  0.05882  0.07260  Biso   1.000  H
  C790     1.0000 0.13620  0.01237  0.02729  Biso   1.000  C
  H1246    1.0000 0.18650  0.07511  0.01178  Biso   1.000  H
  C791     1.0000 0.13620  0.01237  0.02725  Biso   1.000  C
  H1247    1.0000 0.18650  0.07507  0.01182  Biso   1.000  H
  H1248    1.0000 0.18650  0.07507  0.01178  Biso   1.000  H
  C792     1.0000 0.18599  0.95508  0.96368  Biso   1.000  C
  C793     1.0000 0.18599  0.95508  0.96364  Biso   1.000  C
  H1249    1.0000 0.23409  0.01822  0.94644  Biso   1.000  H
  H1250    1.0000 0.23409  0.01822  0.94648  Biso   1.000  H
  H1251    1.0000 0.23409  0.01818  0.94644  Biso   1.000  H
  H1252    1.0000 0.23409  0.01818  0.94648  Biso   1.000  H
  C794     1.0000 0.29754  0.95351  0.91107  Biso   1.000  C
  H1253    1.0000 0.38568  0.98500  0.04912  Biso   1.000  H
  H1254    1.0000 0.37249  0.93675  0.01099  Biso   1.000  H
  H1255    1.0000 0.38568  0.98500  0.04908  Biso   1.000  H
  H1256    1.0000 0.38568  0.98496  0.04912  Biso   1.000  H
  H1257    1.0000 0.37249  0.93679  0.01099  Biso   1.000  H
  H1258    1.0000 0.38568  0.98496  0.04908  Biso   1.000  H
  H1259    1.0000 0.33609  0.94829  0.06098  Biso   1.000  H
  H1260    1.0000 0.38568  0.01500  0.95088  Biso   1.000  H
  H1261    1.0000 0.37249  0.06321  0.98901  Biso   1.000  H
  H1262    1.0000 0.37249  0.06321  0.98897  Biso   1.000  H
  H1263    1.0000 0.37249  0.06317  0.98901  Biso   1.000  H
  H1264    1.0000 0.37249  0.06317  0.98897  Biso   1.000  H
  H1265    1.0000 0.33609  0.05171  0.93898  Biso   1.000  H
  H1266    1.0000 0.55420  0.36597  0.01559  Biso   1.000  H
  H1267    1.0000 0.53108  0.39499  0.96482  Biso   1.000  H
  H1268    1.0000 0.53108  0.39499  0.96478  Biso   1.000  H
  H1269    1.0000 0.53108  0.39503  0.96482  Biso   1.000  H
  H1270    1.0000 0.53108  0.39503  0.96478  Biso   1.000  H
  C795     1.0000 0.56795  0.14202  0.87734  Biso   1.000  C
  C796     1.0000 0.64200  0.12266  0.93204  Biso   1.000  C
  C797     1.0000 0.56795  0.14202  0.87730  Biso   1.000  C
  C798     1.0000 0.56795  0.14198  0.87734  Biso   1.000  C
  C799     1.0000 0.56795  0.14198  0.87730  Biso   1.000  C
  H1271    1.0000 0.48439  0.94578  0.36597  Biso   1.000  H
  H1272    1.0000 0.53520  0.96886  0.39499  Biso   1.000  H
  H1273    1.0000 0.53520  0.96886  0.39503  Biso   1.000  H
  C800     1.0000 0.62264  0.93204  0.14202  Biso   1.000  C
  C801     1.0000 0.56795  0.85794  0.12266  Biso   1.000  C
  C802     1.0000 0.62264  0.93204  0.14198  Biso   1.000  C
  C803     1.0000 0.56795  0.85798  0.12266  Biso   1.000  C
  H1274    1.0000 0.10499  0.03518  0.03110  Biso   1.000  H
  C804     1.0000 0.13620  0.98763  0.97267  Biso   1.000  C
  C805     1.0000 0.13620  0.98763  0.97271  Biso   1.000  C
  C806     1.0000 0.13620  0.98759  0.97267  Biso   1.000  C
  C807     1.0000 0.13620  0.98759  0.97271  Biso   1.000  C
  H1275    1.0000 0.13401  0.98441  0.05418  Biso   1.000  H
  H1276    1.0000 0.13401  0.98437  0.05418  Biso   1.000  H
  H1277    1.0000 0.18650  0.92485  0.98818  Biso   1.000  H
  H1278    1.0000 0.18599  0.94118  0.92736  Biso   1.000  H
  H1279    1.0000 0.18650  0.92489  0.98818  Biso   1.000  H
  C808     1.0000 0.34591  0.92018  0.90110  Biso   1.000  C
  H1280    1.0000 0.30311  0.98850  0.89509  Biso   1.000  H
  H1281    1.0000 0.26731  0.93706  0.89305  Biso   1.000  H
  H1282    1.0000 0.26731  0.93706  0.89309  Biso   1.000  H
  H1283    1.0000 0.26731  0.93710  0.89305  Biso   1.000  H
  H1284    1.0000 0.26731  0.93710  0.89309  Biso   1.000  H
  H1285    1.0000 0.53838  0.16330  0.86921  Biso   1.000  H
  C809     1.0000 0.57980  0.09887  0.84589  Biso   1.000  C
  H1286    1.0000 0.53838  0.16330  0.86917  Biso   1.000  H
  H1287    1.0000 0.66328  0.13079  0.96160  Biso   1.000  H
  C810     1.0000 0.65405  0.07982  0.90110  Biso   1.000  C
  C811     1.0000 0.65405  0.07978  0.90110  Biso   1.000  C
  C812     1.0000 0.65405  0.92018  0.09887  Biso   1.000  C
  H1288    1.0000 0.63081  0.96160  0.16330  Biso   1.000  H
  H1289    1.0000 0.53838  0.83666  0.13079  Biso   1.000  H
  C813     1.0000 0.59888  0.84589  0.07982  Biso   1.000  C
  C814     1.0000 0.59888  0.84589  0.07978  Biso   1.000  C
  H1290    1.0000 0.10499  0.96482  0.96886  Biso   1.000  H
  H1291    1.0000 0.10499  0.96478  0.96886  Biso   1.000  H
  H1292    1.0000 0.13401  0.01559  0.94578  Biso   1.000  H
  C815     1.0000 0.35796  0.87734  0.93204  Biso   1.000  C
  C816     1.0000 0.37732  0.93204  0.85794  Biso   1.000  C
  C817     1.0000 0.37732  0.93204  0.85798  Biso   1.000  C
  C818     1.0000 0.35796  0.87730  0.93204  Biso   1.000  C
  C819     1.0000 0.62264  0.06793  0.85794  Biso   1.000  C
  C820     1.0000 0.54647  0.08893  0.79752  Biso   1.000  C
  C821     1.0000 0.62264  0.06793  0.85798  Biso   1.000  C
  C822     1.0000 0.54647  0.08889  0.79752  Biso   1.000  C
  C823     1.0000 0.70246  0.04645  0.91107  Biso   1.000  C
  C824     1.0000 0.64200  0.87734  0.06793  Biso   1.000  C
  C825     1.0000 0.70246  0.95351  0.08893  Biso   1.000  C
  C826     1.0000 0.70246  0.95351  0.08889  Biso   1.000  C
  C827     1.0000 0.64200  0.87730  0.06793  Biso   1.000  C
  C828     1.0000 0.58891  0.79752  0.04645  Biso   1.000  C
  H1293    1.0000 0.33668  0.86921  0.96160  Biso   1.000  H
  C829     1.0000 0.40112  0.84589  0.92018  Biso   1.000  C
  H1294    1.0000 0.33668  0.86917  0.96160  Biso   1.000  H
  H1295    1.0000 0.36919  0.96160  0.83666  Biso   1.000  H
  C830     1.0000 0.42020  0.90110  0.84589  Biso   1.000  C
  H1296    1.0000 0.63081  0.03840  0.83666  Biso   1.000  H
  H1297    1.0000 0.63081  0.03836  0.83666  Biso   1.000  H
  H1298    1.0000 0.51148  0.10491  0.80309  Biso   1.000  H
  H1299    1.0000 0.56288  0.10691  0.76725  Biso   1.000  H
  N110     1.0000 0.53940  0.03365  0.78425  Biso   1.000  N
  H1300    1.0000 0.56288  0.10691  0.76729  Biso   1.000  H
  H1301    1.0000 0.51148  0.10487  0.80309  Biso   1.000  H
  H1302    1.0000 0.56288  0.10688  0.76725  Biso   1.000  H
  H1303    1.0000 0.56288  0.10688  0.76729  Biso   1.000  H
  H1304    1.0000 0.69689  0.01150  0.89509  Biso   1.000  H
  H1305    1.0000 0.73269  0.06290  0.89305  Biso   1.000  H
  N111     1.0000 0.71573  0.03938  0.96631  Biso   1.000  N
  H1306    1.0000 0.73269  0.06290  0.89309  Biso   1.000  H
  H1307    1.0000 0.69689  0.01146  0.89509  Biso   1.000  H
  H1308    1.0000 0.73269  0.06286  0.89305  Biso   1.000  H
  H1309    1.0000 0.73269  0.06286  0.89309  Biso   1.000  H
  H1310    1.0000 0.66328  0.86921  0.03840  Biso   1.000  H
  H1311    1.0000 0.66328  0.86921  0.03836  Biso   1.000  H
  H1312    1.0000 0.66328  0.86917  0.03840  Biso   1.000  H
  H1313    1.0000 0.66328  0.86917  0.03836  Biso   1.000  H
  H1314    1.0000 0.69689  0.98850  0.10491  Biso   1.000  H
  H1315    1.0000 0.73269  0.93706  0.10691  Biso   1.000  H
  N112     1.0000 0.71573  0.96062  0.03365  Biso   1.000  N
  H1316    1.0000 0.69689  0.98850  0.10487  Biso   1.000  H
  H1317    1.0000 0.73269  0.93706  0.10688  Biso   1.000  H
  H1318    1.0000 0.73269  0.93710  0.10691  Biso   1.000  H
  N113     1.0000 0.71573  0.96058  0.03365  Biso   1.000  N
  H1319    1.0000 0.73269  0.93710  0.10688  Biso   1.000  H
  H1320    1.0000 0.60489  0.80309  0.01150  Biso   1.000  H
  H1321    1.0000 0.60689  0.76725  0.06290  Biso   1.000  H
  N114     1.0000 0.53367  0.78425  0.03938  Biso   1.000  N
  H1322    1.0000 0.60489  0.80309  0.01146  Biso   1.000  H
  H1323    1.0000 0.60689  0.76725  0.06286  Biso   1.000  H
  H1324    1.0000 0.60689  0.76729  0.06290  Biso   1.000  H
  H1325    1.0000 0.60689  0.76729  0.06286  Biso   1.000  H
  C831     1.0000 0.43205  0.85794  0.87734  Biso   1.000  C
  C832     1.0000 0.41109  0.79752  0.95351  Biso   1.000  C
  C833     1.0000 0.43205  0.85794  0.87730  Biso   1.000  C
  C834     1.0000 0.43205  0.85798  0.87734  Biso   1.000  C
  C835     1.0000 0.43205  0.85798  0.87730  Biso   1.000  C
  C836     1.0000 0.45353  0.91107  0.79752  Biso   1.000  C
  C837     1.0000 0.51145  0.02776  0.73474  Biso   1.000  C
  C838     1.0000 0.49998  0.00000  0.82292  Biso   1.000  C
  C839     1.0000 0.49998  0.00000  0.82288  Biso   1.000  C
  H1326    1.0000 0.52888  0.02120  0.81468  Biso   1.000  H
  C840     1.0000 0.67710  0.00000  0.00000  Biso   1.000  C
  C841     1.0000 0.76520  0.01146  0.97220  Biso   1.000  C
  H1327    1.0000 0.68530  0.02890  0.97880  Biso   1.000  H
  C842     1.0000 0.76520  0.98854  0.02776  Biso   1.000  C
  C843     1.0000 0.76520  0.98850  0.02776  Biso   1.000  C
  H1328    1.0000 0.68530  0.97106  0.02120  Biso   1.000  H
  C844     1.0000 0.49998  0.82292  0.00000  Biso   1.000  C
  C845     1.0000 0.52778  0.73474  0.01146  Biso   1.000  C
  C846     1.0000 0.49998  0.82288  0.00000  Biso   1.000  C
  H1329    1.0000 0.52118  0.81468  0.02890  Biso   1.000  H
  H1330    1.0000 0.46158  0.83666  0.86921  Biso   1.000  H
  H1331    1.0000 0.46158  0.83666  0.86917  Biso   1.000  H
  H1332    1.0000 0.39511  0.80309  0.98850  Biso   1.000  H
  H1333    1.0000 0.39311  0.76725  0.93706  Biso   1.000  H
  N115     1.0000 0.46633  0.78425  0.96062  Biso   1.000  N
  H1334    1.0000 0.39311  0.76725  0.93710  Biso   1.000  H
  N116     1.0000 0.46633  0.78425  0.96058  Biso   1.000  N
  H1335    1.0000 0.39311  0.76729  0.93706  Biso   1.000  H
  H1336    1.0000 0.39311  0.76729  0.93710  Biso   1.000  H
  H1337    1.0000 0.48848  0.89509  0.80309  Biso   1.000  H
  H1338    1.0000 0.43708  0.89305  0.76725  Biso   1.000  H
  N117     1.0000 0.46060  0.96631  0.78425  Biso   1.000  N
  H1339    1.0000 0.43708  0.89305  0.76729  Biso   1.000  H
  H1340    1.0000 0.43708  0.89309  0.76725  Biso   1.000  H
  H1341    1.0000 0.43708  0.89309  0.76729  Biso   1.000  H
  C847     1.0000 0.48852  0.97220  0.73474  Biso   1.000  C
  C848     1.0000 0.54490  0.03632  0.68601  Biso   1.000  C
  H1342    1.0000 0.48180  0.05352  0.73411  Biso   1.000  H
  H1343    1.0000 0.48180  0.05352  0.73407  Biso   1.000  H
  H1344    1.0000 0.48180  0.05348  0.73411  Biso   1.000  H
  H1345    1.0000 0.48180  0.05348  0.73407  Biso   1.000  H
  C849     1.0000 0.53559  0.96678  0.85732  Biso   1.000  C
  C850     1.0000 0.53559  0.96678  0.85728  Biso   1.000  C
  H1346    1.0000 0.47108  0.97880  0.81468  Biso   1.000  H
  C851     1.0000 0.46441  0.03322  0.85732  Biso   1.000  C
  C852     1.0000 0.46441  0.03322  0.85728  Biso   1.000  C
  C853     1.0000 0.46441  0.03318  0.85732  Biso   1.000  C
  C854     1.0000 0.46441  0.03318  0.85728  Biso   1.000  C
  C855     1.0000 0.64270  0.03561  0.03322  Biso   1.000  C
  C856     1.0000 0.64270  0.03561  0.03318  Biso   1.000  C
  C857     1.0000 0.64270  0.03557  0.03322  Biso   1.000  C
  C858     1.0000 0.64270  0.03557  0.03318  Biso   1.000  C
  C859     1.0000 0.64270  0.96435  0.96678  Biso   1.000  C
  C860     1.0000 0.64270  0.96439  0.96678  Biso   1.000  C
  H1347    1.0000 0.76587  0.98178  0.94644  Biso   1.000  H
  H1348    1.0000 0.76587  0.98178  0.94648  Biso   1.000  H
  C861     1.0000 0.81397  0.04492  0.96368  Biso   1.000  C
  C862     1.0000 0.81397  0.04492  0.96364  Biso   1.000  C
  C863     1.0000 0.81397  0.04488  0.96368  Biso   1.000  C
  C864     1.0000 0.81397  0.04488  0.96364  Biso   1.000  C
  H1349    1.0000 0.76587  0.01822  0.05352  Biso   1.000  H
  H1350    1.0000 0.76587  0.01822  0.05348  Biso   1.000  H
  H1351    1.0000 0.76587  0.01818  0.05352  Biso   1.000  H
  H1352    1.0000 0.76587  0.01818  0.05348  Biso   1.000  H
  C865     1.0000 0.81397  0.95508  0.03632  Biso   1.000  C
  C866     1.0000 0.53320  0.85732  0.96435  Biso   1.000  C
  C867     1.0000 0.53320  0.85732  0.96439  Biso   1.000  C
  C868     1.0000 0.53320  0.85728  0.96435  Biso   1.000  C
  C869     1.0000 0.53320  0.85728  0.96439  Biso   1.000  C
  H1353    1.0000 0.47878  0.81468  0.97106  Biso   1.000  H
  C870     1.0000 0.46680  0.85732  0.03561  Biso   1.000  C
  C871     1.0000 0.46680  0.85732  0.03557  Biso   1.000  C
  C872     1.0000 0.46680  0.85728  0.03561  Biso   1.000  C
  C873     1.0000 0.46680  0.85728  0.03557  Biso   1.000  C
  C874     1.0000 0.47222  0.73474  0.98854  Biso   1.000  C
  H1354    1.0000 0.55350  0.73411  0.98178  Biso   1.000  H
  C875     1.0000 0.47222  0.73474  0.98850  Biso   1.000  C
  H1355    1.0000 0.55350  0.73407  0.98178  Biso   1.000  H
  C876     1.0000 0.53630  0.68601  0.04492  Biso   1.000  C
  C877     1.0000 0.53630  0.68601  0.04488  Biso   1.000  C
  C878     1.0000 0.45510  0.96368  0.68601  Biso   1.000  C
  H1356    1.0000 0.51820  0.94644  0.73411  Biso   1.000  H
  H1357    1.0000 0.51820  0.94644  0.73407  Biso   1.000  H
  C879     1.0000 0.45510  0.96364  0.68601  Biso   1.000  C
  H1358    1.0000 0.51820  0.94648  0.73411  Biso   1.000  H
  H1359    1.0000 0.51820  0.94648  0.73407  Biso   1.000  H
  H1360    1.0000 0.57509  0.01182  0.68648  Biso   1.000  H
  H1361    1.0000 0.55880  0.07260  0.68601  Biso   1.000  H
  C880     1.0000 0.51239  0.02729  0.63619  Biso   1.000  C
  H1362    1.0000 0.55880  0.07260  0.68597  Biso   1.000  H
  H1363    1.0000 0.57509  0.01178  0.68648  Biso   1.000  H
  C881     1.0000 0.51239  0.02725  0.63619  Biso   1.000  C
  H1364    1.0000 0.51498  0.95088  0.88570  Biso   1.000  H
  H1365    1.0000 0.56319  0.98901  0.87251  Biso   1.000  H
  H1366    1.0000 0.51498  0.95088  0.88566  Biso   1.000  H
  H1367    1.0000 0.56319  0.98901  0.87247  Biso   1.000  H
  H1368    1.0000 0.56319  0.98897  0.87251  Biso   1.000  H
  H1369    1.0000 0.56319  0.98897  0.87247  Biso   1.000  H
  H1370    1.0000 0.55169  0.93898  0.83608  Biso   1.000  H
  H1371    1.0000 0.48498  0.04912  0.88570  Biso   1.000  H
  H1372    1.0000 0.43681  0.01099  0.87251  Biso   1.000  H
  H1373    1.0000 0.48498  0.04912  0.88566  Biso   1.000  H
  H1374    1.0000 0.43681  0.01099  0.87247  Biso   1.000  H
  H1375    1.0000 0.48498  0.04908  0.88570  Biso   1.000  H
  H1376    1.0000 0.48498  0.04908  0.88566  Biso   1.000  H
  H1377    1.0000 0.44831  0.06098  0.83608  Biso   1.000  H
  H1378    1.0000 0.61428  0.01500  0.04912  Biso   1.000  H
  H1379    1.0000 0.62747  0.06321  0.01099  Biso   1.000  H
  H1380    1.0000 0.61428  0.01500  0.04908  Biso   1.000  H
  H1381    1.0000 0.62747  0.06317  0.01099  Biso   1.000  H
  H1382    1.0000 0.66391  0.05171  0.06098  Biso   1.000  H
  H1383    1.0000 0.61428  0.98500  0.95088  Biso   1.000  H
  H1384    1.0000 0.62747  0.93675  0.98901  Biso   1.000  H
  H1385    1.0000 0.62747  0.93675  0.98897  Biso   1.000  H
  H1386    1.0000 0.61428  0.98496  0.95088  Biso   1.000  H
  H1387    1.0000 0.62747  0.93679  0.98901  Biso   1.000  H
  H1388    1.0000 0.62747  0.93679  0.98897  Biso   1.000  H
  H1389    1.0000 0.66391  0.94829  0.93898  Biso   1.000  H
  H1390    1.0000 0.81350  0.07511  0.98818  Biso   1.000  H
  H1391    1.0000 0.81397  0.05882  0.92736  Biso   1.000  H
  C882     1.0000 0.86380  0.01237  0.97267  Biso   1.000  C
  C883     1.0000 0.86380  0.01237  0.97271  Biso   1.000  C
  H1392    1.0000 0.81350  0.07507  0.98818  Biso   1.000  H
  H1393    1.0000 0.81350  0.92485  0.01182  Biso   1.000  H
  H1394    1.0000 0.81397  0.94118  0.07260  Biso   1.000  H
  C884     1.0000 0.86380  0.98763  0.02729  Biso   1.000  C
  H1395    1.0000 0.81350  0.92485  0.01178  Biso   1.000  H
  C885     1.0000 0.86380  0.98763  0.02725  Biso   1.000  C
  H1396    1.0000 0.81350  0.92489  0.01182  Biso   1.000  H
  C886     1.0000 0.86380  0.98759  0.02729  Biso   1.000  C
  H1397    1.0000 0.81350  0.92489  0.01178  Biso   1.000  H
  C887     1.0000 0.86380  0.98759  0.02725  Biso   1.000  C
  H1398    1.0000 0.54910  0.88570  0.98500  Biso   1.000  H
  H1399    1.0000 0.51097  0.87251  0.93675  Biso   1.000  H
  H1400    1.0000 0.54910  0.88570  0.98496  Biso   1.000  H
  H1401    1.0000 0.51097  0.87251  0.93679  Biso   1.000  H
  H1402    1.0000 0.54910  0.88566  0.98500  Biso   1.000  H
  H1403    1.0000 0.51097  0.87247  0.93675  Biso   1.000  H
  H1404    1.0000 0.54910  0.88566  0.98496  Biso   1.000  H
  H1405    1.0000 0.51097  0.87247  0.93679  Biso   1.000  H
  H1406    1.0000 0.56100  0.83608  0.94829  Biso   1.000  H
  H1407    1.0000 0.45090  0.88570  0.01500  Biso   1.000  H
  H1408    1.0000 0.48899  0.87251  0.06321  Biso   1.000  H
  H1409    1.0000 0.48899  0.87251  0.06317  Biso   1.000  H
  H1410    1.0000 0.45090  0.88566  0.01500  Biso   1.000  H
  H1411    1.0000 0.48899  0.87247  0.06321  Biso   1.000  H
  H1412    1.0000 0.48899  0.87247  0.06317  Biso   1.000  H
  H1413    1.0000 0.43900  0.83608  0.05171  Biso   1.000  H
  C888     1.0000 0.46366  0.68601  0.95508  Biso   1.000  C
  H1414    1.0000 0.44650  0.73411  0.01822  Biso   1.000  H
  H1415    1.0000 0.44650  0.73411  0.01818  Biso   1.000  H
  H1416    1.0000 0.44650  0.73407  0.01822  Biso   1.000  H
  H1417    1.0000 0.44650  0.73407  0.01818  Biso   1.000  H
  H1418    1.0000 0.51180  0.68648  0.07511  Biso   1.000  H
  H1419    1.0000 0.57258  0.68601  0.05882  Biso   1.000  H
  C889     1.0000 0.52727  0.63619  0.01237  Biso   1.000  C
  H1420    1.0000 0.51180  0.68648  0.07507  Biso   1.000  H
  H1421    1.0000 0.57258  0.68597  0.05882  Biso   1.000  H
  H1422    1.0000 0.42491  0.98818  0.68648  Biso   1.000  H
  H1423    1.0000 0.44120  0.92736  0.68601  Biso   1.000  H
  C890     1.0000 0.48761  0.97267  0.63619  Biso   1.000  C
  H1424    1.0000 0.44120  0.92736  0.68597  Biso   1.000  H
  C891     1.0000 0.48761  0.97271  0.63619  Biso   1.000  C
  H1425    1.0000 0.48439  0.05418  0.63403  Biso   1.000  H
  H1426    1.0000 0.53520  0.03110  0.60501  Biso   1.000  H
  H1427    1.0000 0.48439  0.05418  0.63399  Biso   1.000  H
  H1428    1.0000 0.53520  0.03110  0.60497  Biso   1.000  H
  H1429    1.0000 0.86599  0.98441  0.94578  Biso   1.000  H
  H1430    1.0000 0.86599  0.98437  0.94578  Biso   1.000  H
  H1431    1.0000 0.89497  0.03518  0.96886  Biso   1.000  H
  H1432    1.0000 0.86599  0.01559  0.05418  Biso   1.000  H
  H1433    1.0000 0.89497  0.96482  0.03110  Biso   1.000  H
  H1434    1.0000 0.89497  0.96478  0.03110  Biso   1.000  H
  H1435    1.0000 0.48820  0.68648  0.92485  Biso   1.000  H
  H1436    1.0000 0.42738  0.68601  0.94118  Biso   1.000  H
  C892     1.0000 0.47273  0.63619  0.98763  Biso   1.000  C
  H1437    1.0000 0.48820  0.68648  0.92489  Biso   1.000  H
  C893     1.0000 0.47273  0.63619  0.98759  Biso   1.000  C
  H1438    1.0000 0.42738  0.68597  0.94118  Biso   1.000  H
  H1439    1.0000 0.55420  0.63403  0.98441  Biso   1.000  H
  H1440    1.0000 0.55420  0.63403  0.98437  Biso   1.000  H
  H1441    1.0000 0.55420  0.63399  0.98441  Biso   1.000  H
  H1442    1.0000 0.55420  0.63399  0.98437  Biso   1.000  H
  H1443    1.0000 0.53108  0.60501  0.03518  Biso   1.000  H
  H1444    1.0000 0.53108  0.60497  0.03518  Biso   1.000  H
  H1445    1.0000 0.51561  0.94578  0.63403  Biso   1.000  H
  H1446    1.0000 0.46480  0.96886  0.60501  Biso   1.000  H
  H1447    1.0000 0.51561  0.94578  0.63399  Biso   1.000  H
  H1448    1.0000 0.46480  0.96886  0.60497  Biso   1.000  H
  H1449    1.0000 0.46888  0.60501  0.96482  Biso   1.000  H
  H1450    1.0000 0.46888  0.60501  0.96478  Biso   1.000  H
  H1451    1.0000 0.46888  0.60497  0.96482  Biso   1.000  H
  H1452    1.0000 0.46888  0.60497  0.96478  Biso   1.000  H
  H1453    1.0000 0.44580  0.63403  0.01559  Biso   1.000  H
  H1454    1.0000 0.44580  0.63399  0.01559  Biso   1.000  H
  C894     1.0000 0.43205  0.14202  0.12266  Biso   1.000  C
  H1455    1.0000 0.46158  0.16330  0.13079  Biso   1.000  H
  C895     1.0000 0.42020  0.09887  0.15407  Biso   1.000  C
  C896     1.0000 0.40112  0.15407  0.07982  Biso   1.000  C
  C897     1.0000 0.40112  0.15407  0.07978  Biso   1.000  C
  C898     1.0000 0.37732  0.06793  0.14202  Biso   1.000  C
  C899     1.0000 0.43205  0.14198  0.12266  Biso   1.000  C
  C900     1.0000 0.37732  0.06793  0.14198  Biso   1.000  C
  C901     1.0000 0.45353  0.08893  0.20248  Biso   1.000  C
  C902     1.0000 0.45353  0.08893  0.20244  Biso   1.000  C
  C903     1.0000 0.45353  0.08889  0.20248  Biso   1.000  C
  C904     1.0000 0.45353  0.08889  0.20244  Biso   1.000  C
  C905     1.0000 0.35796  0.12266  0.06793  Biso   1.000  C
  C906     1.0000 0.41109  0.20248  0.04645  Biso   1.000  C
  C907     1.0000 0.41109  0.20244  0.04645  Biso   1.000  C
  C908     1.0000 0.34591  0.07982  0.09887  Biso   1.000  C
  H1456    1.0000 0.36919  0.03840  0.16330  Biso   1.000  H
  C909     1.0000 0.34591  0.07978  0.09887  Biso   1.000  C
  H1457    1.0000 0.36919  0.03836  0.16330  Biso   1.000  H
  N118     1.0000 0.46060  0.03365  0.21575  Biso   1.000  N
  N119     1.0000 0.46060  0.03365  0.21571  Biso   1.000  N
  H1458    1.0000 0.48848  0.10491  0.19691  Biso   1.000  H
  H1459    1.0000 0.43708  0.10691  0.23271  Biso   1.000  H
  H1460    1.0000 0.48848  0.10491  0.19687  Biso   1.000  H
  H1461    1.0000 0.43708  0.10691  0.23268  Biso   1.000  H
  H1462    1.0000 0.48848  0.10487  0.19691  Biso   1.000  H
  H1463    1.0000 0.43708  0.10688  0.23271  Biso   1.000  H
  H1464    1.0000 0.48848  0.10487  0.19687  Biso   1.000  H
  H1465    1.0000 0.43708  0.10688  0.23268  Biso   1.000  H
  H1466    1.0000 0.33668  0.13079  0.03840  Biso   1.000  H
  H1467    1.0000 0.33668  0.13079  0.03836  Biso   1.000  H
  N120     1.0000 0.46633  0.21575  0.03938  Biso   1.000  N
  N121     1.0000 0.46633  0.21571  0.03938  Biso   1.000  N
  H1468    1.0000 0.39511  0.19691  0.01150  Biso   1.000  H
  H1469    1.0000 0.39311  0.23271  0.06290  Biso   1.000  H
  H1470    1.0000 0.39511  0.19691  0.01146  Biso   1.000  H
  H1471    1.0000 0.39311  0.23271  0.06286  Biso   1.000  H
  H1472    1.0000 0.39511  0.19687  0.01150  Biso   1.000  H
  H1473    1.0000 0.39311  0.23268  0.06290  Biso   1.000  H
  H1474    1.0000 0.39511  0.19687  0.01146  Biso   1.000  H
  H1475    1.0000 0.39311  0.23268  0.06286  Biso   1.000  H
  C910     1.0000 0.29754  0.04645  0.08893  Biso   1.000  C
  C911     1.0000 0.29754  0.04645  0.08889  Biso   1.000  C
  C912     1.0000 0.48852  0.02776  0.26522  Biso   1.000  C
  C913     1.0000 0.49998  0.00000  0.17708  Biso   1.000  C
  H1476    1.0000 0.47108  0.02120  0.18528  Biso   1.000  H
  C914     1.0000 0.47222  0.26522  0.01146  Biso   1.000  C
  C915     1.0000 0.49998  0.17708  0.00000  Biso   1.000  C
  H1477    1.0000 0.47878  0.18528  0.02890  Biso   1.000  H
  N122     1.0000 0.28427  0.03938  0.03365  Biso   1.000  N
  H1478    1.0000 0.30311  0.01150  0.10491  Biso   1.000  H
  H1479    1.0000 0.26731  0.06290  0.10691  Biso   1.000  H
  H1480    1.0000 0.30311  0.01150  0.10487  Biso   1.000  H
  H1481    1.0000 0.26731  0.06290  0.10688  Biso   1.000  H
  H1482    1.0000 0.30311  0.01146  0.10491  Biso   1.000  H
  H1483    1.0000 0.26731  0.06286  0.10691  Biso   1.000  H
  H1484    1.0000 0.30311  0.01146  0.10487  Biso   1.000  H
  H1485    1.0000 0.26731  0.06286  0.10688  Biso   1.000  H
  H1486    1.0000 0.51820  0.05352  0.26589  Biso   1.000  H
  C916     1.0000 0.45510  0.03632  0.31399  Biso   1.000  C
  C917     1.0000 0.45510  0.03632  0.31395  Biso   1.000  C
  H1487    1.0000 0.51820  0.05348  0.26589  Biso   1.000  H
  C918     1.0000 0.51145  0.97220  0.26522  Biso   1.000  C
  C919     1.0000 0.53559  0.03322  0.14268  Biso   1.000  C
  C920     1.0000 0.53559  0.03318  0.14268  Biso   1.000  C
  C921     1.0000 0.46441  0.96678  0.14268  Biso   1.000  C
  N123     1.0000 0.53940  0.96631  0.21575  Biso   1.000  N
  N124     1.0000 0.53940  0.96631  0.21571  Biso   1.000  N
  H1488    1.0000 0.52888  0.97880  0.18528  Biso   1.000  H
  H1489    1.0000 0.44650  0.26589  0.98178  Biso   1.000  H
  C922     1.0000 0.52778  0.26522  0.98854  Biso   1.000  C
  C923     1.0000 0.52778  0.26522  0.98850  Biso   1.000  C
  C924     1.0000 0.46366  0.31399  0.04492  Biso   1.000  C
  C925     1.0000 0.46366  0.31399  0.04488  Biso   1.000  C
  C926     1.0000 0.46366  0.31395  0.04492  Biso   1.000  C
  C927     1.0000 0.46366  0.31395  0.04488  Biso   1.000  C
  C928     1.0000 0.53320  0.14268  0.03561  Biso   1.000  C
  C929     1.0000 0.53320  0.14268  0.03557  Biso   1.000  C
  N125     1.0000 0.53367  0.21575  0.96062  Biso   1.000  N
  C930     1.0000 0.46680  0.14268  0.96435  Biso   1.000  C
  N126     1.0000 0.53367  0.21575  0.96058  Biso   1.000  N
  C931     1.0000 0.46680  0.14268  0.96439  Biso   1.000  C
  N127     1.0000 0.53367  0.21571  0.96062  Biso   1.000  N
  N128     1.0000 0.53367  0.21571  0.96058  Biso   1.000  N
  H1490    1.0000 0.52118  0.18528  0.97106  Biso   1.000  H
  C932     1.0000 0.23476  0.01146  0.02776  Biso   1.000  C
  C933     1.0000 0.32290  0.00000  0.00000  Biso   1.000  C
  H1491    1.0000 0.31470  0.02890  0.02120  Biso   1.000  H
  H1492    1.0000 0.42491  0.01182  0.31348  Biso   1.000  H
  H1493    1.0000 0.44120  0.07260  0.31399  Biso   1.000  H
  C934     1.0000 0.48761  0.02729  0.36378  Biso   1.000  C
  H1494    1.0000 0.42491  0.01178  0.31348  Biso   1.000  H
  C935     1.0000 0.48761  0.02725  0.36378  Biso   1.000  C
  C936     1.0000 0.54490  0.96368  0.31399  Biso   1.000  C
  H1495    1.0000 0.48180  0.94644  0.26589  Biso   1.000  H
  C937     1.0000 0.54490  0.96368  0.31395  Biso   1.000  C
  C938     1.0000 0.54490  0.96364  0.31399  Biso   1.000  C
  H1496    1.0000 0.48180  0.94648  0.26589  Biso   1.000  H
  C939     1.0000 0.54490  0.96364  0.31395  Biso   1.000  C
  H1497    1.0000 0.51498  0.04912  0.11430  Biso   1.000  H
  H1498    1.0000 0.56319  0.01099  0.12749  Biso   1.000  H
  H1499    1.0000 0.51498  0.04908  0.11430  Biso   1.000  H
  H1500    1.0000 0.55169  0.06098  0.16389  Biso   1.000  H
  H1501    1.0000 0.48498  0.95088  0.11430  Biso   1.000  H
  H1502    1.0000 0.43681  0.98901  0.12749  Biso   1.000  H
  H1503    1.0000 0.43681  0.98897  0.12749  Biso   1.000  H
  H1504    1.0000 0.44831  0.93898  0.16389  Biso   1.000  H
  C940     1.0000 0.54647  0.91107  0.20248  Biso   1.000  C
  C941     1.0000 0.54647  0.91107  0.20244  Biso   1.000  C
  H1505    1.0000 0.55350  0.26589  0.01822  Biso   1.000  H
  H1506    1.0000 0.55350  0.26589  0.01818  Biso   1.000  H
  C942     1.0000 0.53630  0.31399  0.95508  Biso   1.000  C
  C943     1.0000 0.53630  0.31395  0.95508  Biso   1.000  C
  H1507    1.0000 0.42738  0.31399  0.05882  Biso   1.000  H
  C944     1.0000 0.47273  0.36378  0.01237  Biso   1.000  C
  H1508    1.0000 0.48820  0.31348  0.07511  Biso   1.000  H
  H1509    1.0000 0.48820  0.31348  0.07507  Biso   1.000  H
  H1510    1.0000 0.54910  0.11430  0.01500  Biso   1.000  H
  H1511    1.0000 0.51097  0.12749  0.06321  Biso   1.000  H
  H1512    1.0000 0.51097  0.12749  0.06317  Biso   1.000  H
  H1513    1.0000 0.56100  0.16389  0.05171  Biso   1.000  H
  C945     1.0000 0.58891  0.20248  0.95351  Biso   1.000  C
  C946     1.0000 0.58891  0.20244  0.95351  Biso   1.000  C
  H1514    1.0000 0.45090  0.11430  0.98500  Biso   1.000  H
  H1515    1.0000 0.48899  0.12749  0.93675  Biso   1.000  H
  H1516    1.0000 0.45090  0.11430  0.98496  Biso   1.000  H
  H1517    1.0000 0.48899  0.12749  0.93679  Biso   1.000  H
  H1518    1.0000 0.43900  0.16389  0.94829  Biso   1.000  H
  C947     1.0000 0.18599  0.04492  0.03632  Biso   1.000  C
  C948     1.0000 0.18599  0.04488  0.03632  Biso   1.000  C
  C949     1.0000 0.23476  0.98854  0.97220  Biso   1.000  C
  C950     1.0000 0.23476  0.98850  0.97220  Biso   1.000  C
  H1519    1.0000 0.23409  0.98178  0.05352  Biso   1.000  H
  H1520    1.0000 0.23409  0.98178  0.05348  Biso   1.000  H
  N129     1.0000 0.28427  0.96062  0.96631  Biso   1.000  N
  N130     1.0000 0.28427  0.96058  0.96631  Biso   1.000  N
  H1521    1.0000 0.31470  0.97106  0.97880  Biso   1.000  H
  C951     1.0000 0.35730  0.96435  0.03322  Biso   1.000  C
  C952     1.0000 0.35730  0.96435  0.03318  Biso   1.000  C
  C953     1.0000 0.35730  0.96439  0.03322  Biso   1.000  C
  C954     1.0000 0.35730  0.96439  0.03318  Biso   1.000  C
  C955     1.0000 0.35730  0.03561  0.96678  Biso   1.000  C
  C956     1.0000 0.35730  0.03557  0.96678  Biso   1.000  C
  H1522    1.0000 0.51561  0.05418  0.36597  Biso   1.000  H
  H1523    1.0000 0.46480  0.03110  0.39499  Biso   1.000  H
  H1524    1.0000 0.46480  0.03110  0.39503  Biso   1.000  H
  C957     1.0000 0.51239  0.97267  0.36378  Biso   1.000  C
  C958     1.0000 0.51239  0.97271  0.36378  Biso   1.000  C
  H1525    1.0000 0.57509  0.98818  0.31348  Biso   1.000  H
  H1526    1.0000 0.55880  0.92736  0.31399  Biso   1.000  H
  C959     1.0000 0.57980  0.90110  0.15407  Biso   1.000  C
  H1527    1.0000 0.51148  0.89509  0.19691  Biso   1.000  H
  H1528    1.0000 0.56288  0.89305  0.23271  Biso   1.000  H
  H1529    1.0000 0.51148  0.89509  0.19687  Biso   1.000  H
  H1530    1.0000 0.56288  0.89305  0.23268  Biso   1.000  H
  H1531    1.0000 0.56288  0.89309  0.23271  Biso   1.000  H
  H1532    1.0000 0.56288  0.89309  0.23268  Biso   1.000  H
  H1533    1.0000 0.51180  0.31348  0.92485  Biso   1.000  H
  H1534    1.0000 0.57258  0.31399  0.94118  Biso   1.000  H
  C960     1.0000 0.52727  0.36378  0.98763  Biso   1.000  C
  H1535    1.0000 0.51180  0.31348  0.92489  Biso   1.000  H
  C961     1.0000 0.52727  0.36378  0.98759  Biso   1.000  C
  H1536    1.0000 0.46888  0.39499  0.03518  Biso   1.000  H
  H1537    1.0000 0.46888  0.39503  0.03518  Biso   1.000  H
  H1538    1.0000 0.44580  0.36597  0.98441  Biso   1.000  H
  H1539    1.0000 0.44580  0.36597  0.98437  Biso   1.000  H
  C962     1.0000 0.59888  0.15407  0.92018  Biso   1.000  C
  H1540    1.0000 0.60489  0.19691  0.98850  Biso   1.000  H
  H1541    1.0000 0.60689  0.23271  0.93706  Biso   1.000  H
  H1542    1.0000 0.60689  0.23271  0.93710  Biso   1.000  H
  H1543    1.0000 0.60489  0.19687  0.98850  Biso   1.000  H
  H1544    1.0000 0.60689  0.23268  0.93706  Biso   1.000  H
  H1545    1.0000 0.60689  0.23268  0.93710  Biso   1.000  H
  H1546    1.0000 0.18599  0.05882  0.07260  Biso   1.000  H
  C963     1.0000 0.13620  0.01237  0.02729  Biso   1.000  C
  C964     1.0000 0.13620  0.01237  0.02725  Biso   1.000  C
  H1547    1.0000 0.18650  0.07511  0.01182  Biso   1.000  H
  H1548    1.0000 0.18650  0.07511  0.01178  Biso   1.000  H
  H1549    1.0000 0.18650  0.07507  0.01182  Biso   1.000  H
  H1550    1.0000 0.18650  0.07507  0.01178  Biso   1.000  H
  C965     1.0000 0.18599  0.95508  0.96368  Biso   1.000  C
  C966     1.0000 0.18599  0.95508  0.96364  Biso   1.000  C
  H1551    1.0000 0.23409  0.01822  0.94644  Biso   1.000  H
  H1552    1.0000 0.23409  0.01822  0.94648  Biso   1.000  H
  H1553    1.0000 0.23409  0.01818  0.94644  Biso   1.000  H
  H1554    1.0000 0.23409  0.01818  0.94648  Biso   1.000  H
  C967     1.0000 0.29754  0.95351  0.91107  Biso   1.000  C
  H1555    1.0000 0.38568  0.98500  0.04912  Biso   1.000  H
  H1556    1.0000 0.37249  0.93675  0.01099  Biso   1.000  H
  H1557    1.0000 0.38568  0.98500  0.04908  Biso   1.000  H
  H1558    1.0000 0.38568  0.98496  0.04912  Biso   1.000  H
  H1559    1.0000 0.37249  0.93679  0.01099  Biso   1.000  H
  H1560    1.0000 0.38568  0.98496  0.04908  Biso   1.000  H
  H1561    1.0000 0.33609  0.94829  0.06098  Biso   1.000  H
  H1562    1.0000 0.38568  0.01500  0.95088  Biso   1.000  H
  H1563    1.0000 0.37249  0.06321  0.98901  Biso   1.000  H
  H1564    1.0000 0.37249  0.06321  0.98897  Biso   1.000  H
  H1565    1.0000 0.37249  0.06317  0.98901  Biso   1.000  H
  H1566    1.0000 0.37249  0.06317  0.98897  Biso   1.000  H
  H1567    1.0000 0.33609  0.05171  0.93898  Biso   1.000  H
  H1568    1.0000 0.48439  0.94578  0.36597  Biso   1.000  H
  H1569    1.0000 0.53520  0.96886  0.39499  Biso   1.000  H
  H1570    1.0000 0.53520  0.96886  0.39503  Biso   1.000  H
  C968     1.0000 0.62264  0.93204  0.14202  Biso   1.000  C
  C969     1.0000 0.56795  0.85794  0.12266  Biso   1.000  C
  C970     1.0000 0.62264  0.93204  0.14198  Biso   1.000  C
  C971     1.0000 0.56795  0.85798  0.12266  Biso   1.000  C
  H1571    1.0000 0.55420  0.36597  0.01559  Biso   1.000  H
  H1572    1.0000 0.53108  0.39499  0.96482  Biso   1.000  H
  H1573    1.0000 0.53108  0.39499  0.96478  Biso   1.000  H
  H1574    1.0000 0.53108  0.39503  0.96482  Biso   1.000  H
  H1575    1.0000 0.53108  0.39503  0.96478  Biso   1.000  H
  C972     1.0000 0.56795  0.14202  0.87734  Biso   1.000  C
  C973     1.0000 0.64200  0.12266  0.93204  Biso   1.000  C
  C974     1.0000 0.56795  0.14202  0.87730  Biso   1.000  C
  C975     1.0000 0.56795  0.14198  0.87734  Biso   1.000  C
  C976     1.0000 0.56795  0.14198  0.87730  Biso   1.000  C
  H1576    1.0000 0.10499  0.03518  0.03110  Biso   1.000  H
  C977     1.0000 0.13620  0.98763  0.97267  Biso   1.000  C
  C978     1.0000 0.13620  0.98763  0.97271  Biso   1.000  C
  C979     1.0000 0.13620  0.98759  0.97267  Biso   1.000  C
  C980     1.0000 0.13620  0.98759  0.97271  Biso   1.000  C
  H1577    1.0000 0.13401  0.98441  0.05418  Biso   1.000  H
  H1578    1.0000 0.13401  0.98437  0.05418  Biso   1.000  H
  H1579    1.0000 0.18650  0.92485  0.98818  Biso   1.000  H
  H1580    1.0000 0.18599  0.94118  0.92736  Biso   1.000  H
  H1581    1.0000 0.18650  0.92489  0.98818  Biso   1.000  H
  C981     1.0000 0.34591  0.92018  0.90110  Biso   1.000  C
  H1582    1.0000 0.30311  0.98850  0.89509  Biso   1.000  H
  H1583    1.0000 0.26731  0.93706  0.89305  Biso   1.000  H
  H1584    1.0000 0.26731  0.93706  0.89309  Biso   1.000  H
  H1585    1.0000 0.26731  0.93710  0.89305  Biso   1.000  H
  H1586    1.0000 0.26731  0.93710  0.89309  Biso   1.000  H
  C982     1.0000 0.65405  0.92018  0.09887  Biso   1.000  C
  H1587    1.0000 0.63081  0.96160  0.16330  Biso   1.000  H
  H1588    1.0000 0.53838  0.83666  0.13079  Biso   1.000  H
  C983     1.0000 0.59888  0.84589  0.07982  Biso   1.000  C
  C984     1.0000 0.59888  0.84589  0.07978  Biso   1.000  C
  H1589    1.0000 0.53838  0.16330  0.86921  Biso   1.000  H
  C985     1.0000 0.57980  0.09887  0.84589  Biso   1.000  C
  H1590    1.0000 0.53838  0.16330  0.86917  Biso   1.000  H
  H1591    1.0000 0.66328  0.13079  0.96160  Biso   1.000  H
  C986     1.0000 0.65405  0.07982  0.90110  Biso   1.000  C
  C987     1.0000 0.65405  0.07978  0.90110  Biso   1.000  C
  H1592    1.0000 0.10499  0.96482  0.96886  Biso   1.000  H
  H1593    1.0000 0.10499  0.96478  0.96886  Biso   1.000  H
  H1594    1.0000 0.13401  0.01559  0.94578  Biso   1.000  H
  C988     1.0000 0.35796  0.87734  0.93204  Biso   1.000  C
  C989     1.0000 0.37732  0.93204  0.85794  Biso   1.000  C
  C990     1.0000 0.37732  0.93204  0.85798  Biso   1.000  C
  C991     1.0000 0.35796  0.87730  0.93204  Biso   1.000  C
  C992     1.0000 0.64200  0.87734  0.06793  Biso   1.000  C
  C993     1.0000 0.70246  0.95351  0.08893  Biso   1.000  C
  C994     1.0000 0.70246  0.95351  0.08889  Biso   1.000  C
  C995     1.0000 0.64200  0.87730  0.06793  Biso   1.000  C
  C996     1.0000 0.58891  0.79752  0.04645  Biso   1.000  C
  C997     1.0000 0.62264  0.06793  0.85794  Biso   1.000  C
  C998     1.0000 0.54647  0.08893  0.79752  Biso   1.000  C
  C999     1.0000 0.62264  0.06793  0.85798  Biso   1.000  C
  C1000    1.0000 0.54647  0.08889  0.79752  Biso   1.000  C
  C1001    1.0000 0.70246  0.04645  0.91107  Biso   1.000  C
  H1595    1.0000 0.33668  0.86921  0.96160  Biso   1.000  H
  C1002    1.0000 0.40112  0.84589  0.92018  Biso   1.000  C
  H1596    1.0000 0.33668  0.86917  0.96160  Biso   1.000  H
  H1597    1.0000 0.36919  0.96160  0.83666  Biso   1.000  H
  C1003    1.0000 0.42020  0.90110  0.84589  Biso   1.000  C
  H1598    1.0000 0.66328  0.86921  0.03840  Biso   1.000  H
  H1599    1.0000 0.66328  0.86921  0.03836  Biso   1.000  H
  H1600    1.0000 0.66328  0.86917  0.03840  Biso   1.000  H
  H1601    1.0000 0.66328  0.86917  0.03836  Biso   1.000  H
  H1602    1.0000 0.69689  0.98850  0.10491  Biso   1.000  H
  H1603    1.0000 0.73269  0.93706  0.10691  Biso   1.000  H
  N131     1.0000 0.71573  0.96062  0.03365  Biso   1.000  N
  H1604    1.0000 0.69689  0.98850  0.10487  Biso   1.000  H
  H1605    1.0000 0.73269  0.93706  0.10688  Biso   1.000  H
  H1606    1.0000 0.73269  0.93710  0.10691  Biso   1.000  H
  N132     1.0000 0.71573  0.96058  0.03365  Biso   1.000  N
  H1607    1.0000 0.73269  0.93710  0.10688  Biso   1.000  H
  H1608    1.0000 0.60489  0.80309  0.01150  Biso   1.000  H
  H1609    1.0000 0.60689  0.76725  0.06290  Biso   1.000  H
  N133     1.0000 0.53367  0.78425  0.03938  Biso   1.000  N
  H1610    1.0000 0.60489  0.80309  0.01146  Biso   1.000  H
  H1611    1.0000 0.60689  0.76725  0.06286  Biso   1.000  H
  H1612    1.0000 0.60689  0.76729  0.06290  Biso   1.000  H
  H1613    1.0000 0.60689  0.76729  0.06286  Biso   1.000  H
  H1614    1.0000 0.63081  0.03840  0.83666  Biso   1.000  H
  H1615    1.0000 0.63081  0.03836  0.83666  Biso   1.000  H
  H1616    1.0000 0.51148  0.10491  0.80309  Biso   1.000  H
  H1617    1.0000 0.56288  0.10691  0.76725  Biso   1.000  H
  N134     1.0000 0.53940  0.03365  0.78425  Biso   1.000  N
  H1618    1.0000 0.56288  0.10691  0.76729  Biso   1.000  H
  H1619    1.0000 0.51148  0.10487  0.80309  Biso   1.000  H
  H1620    1.0000 0.56288  0.10688  0.76725  Biso   1.000  H
  H1621    1.0000 0.56288  0.10688  0.76729  Biso   1.000  H
  H1622    1.0000 0.69689  0.01150  0.89509  Biso   1.000  H
  H1623    1.0000 0.73269  0.06290  0.89305  Biso   1.000  H
  N135     1.0000 0.71573  0.03938  0.96631  Biso   1.000  N
  H1624    1.0000 0.73269  0.06290  0.89309  Biso   1.000  H
  H1625    1.0000 0.69689  0.01146  0.89509  Biso   1.000  H
  H1626    1.0000 0.73269  0.06286  0.89305  Biso   1.000  H
  H1627    1.0000 0.73269  0.06286  0.89309  Biso   1.000  H
  C1004    1.0000 0.43205  0.85794  0.87734  Biso   1.000  C
  C1005    1.0000 0.41109  0.79752  0.95351  Biso   1.000  C
  C1006    1.0000 0.43205  0.85794  0.87730  Biso   1.000  C
  C1007    1.0000 0.43205  0.85798  0.87734  Biso   1.000  C
  C1008    1.0000 0.43205  0.85798  0.87730  Biso   1.000  C
  C1009    1.0000 0.45353  0.91107  0.79752  Biso   1.000  C
  C1010    1.0000 0.67710  0.00000  0.00000  Biso   1.000  C
  C1011    1.0000 0.76520  0.98854  0.02776  Biso   1.000  C
  C1012    1.0000 0.76520  0.98850  0.02776  Biso   1.000  C
  H1628    1.0000 0.68530  0.97106  0.02120  Biso   1.000  H
  C1013    1.0000 0.49998  0.82292  0.00000  Biso   1.000  C
  C1014    1.0000 0.52778  0.73474  0.01146  Biso   1.000  C
  C1015    1.0000 0.49998  0.82288  0.00000  Biso   1.000  C
  H1629    1.0000 0.52118  0.81468  0.02890  Biso   1.000  H
  C1016    1.0000 0.51145  0.02776  0.73474  Biso   1.000  C
  C1017    1.0000 0.49998  0.00000  0.82292  Biso   1.000  C
  C1018    1.0000 0.49998  0.00000  0.82288  Biso   1.000  C
  H1630    1.0000 0.52888  0.02120  0.81468  Biso   1.000  H
  C1019    1.0000 0.76520  0.01146  0.97220  Biso   1.000  C
  H1631    1.0000 0.68530  0.02890  0.97880  Biso   1.000  H
  H1632    1.0000 0.46158  0.83666  0.86921  Biso   1.000  H
  H1633    1.0000 0.46158  0.83666  0.86917  Biso   1.000  H
  H1634    1.0000 0.39511  0.80309  0.98850  Biso   1.000  H
  H1635    1.0000 0.39311  0.76725  0.93706  Biso   1.000  H
  N136     1.0000 0.46633  0.78425  0.96062  Biso   1.000  N
  H1636    1.0000 0.39311  0.76725  0.93710  Biso   1.000  H
  N137     1.0000 0.46633  0.78425  0.96058  Biso   1.000  N
  H1637    1.0000 0.39311  0.76729  0.93706  Biso   1.000  H
  H1638    1.0000 0.39311  0.76729  0.93710  Biso   1.000  H
  H1639    1.0000 0.48848  0.89509  0.80309  Biso   1.000  H
  H1640    1.0000 0.43708  0.89305  0.76725  Biso   1.000  H
  N138     1.0000 0.46060  0.96631  0.78425  Biso   1.000  N
  H1641    1.0000 0.43708  0.89305  0.76729  Biso   1.000  H
  H1642    1.0000 0.43708  0.89309  0.76725  Biso   1.000  H
  H1643    1.0000 0.43708  0.89309  0.76729  Biso   1.000  H
  C1020    1.0000 0.64270  0.96435  0.96678  Biso   1.000  C
  C1021    1.0000 0.64270  0.96439  0.96678  Biso   1.000  C
  C1022    1.0000 0.64270  0.03561  0.03322  Biso   1.000  C
  C1023    1.0000 0.64270  0.03561  0.03318  Biso   1.000  C
  C1024    1.0000 0.64270  0.03557  0.03322  Biso   1.000  C
  C1025    1.0000 0.64270  0.03557  0.03318  Biso   1.000  C
  H1644    1.0000 0.76587  0.01818  0.05352  Biso   1.000  H
  C1026    1.0000 0.81397  0.95508  0.03632  Biso   1.000  C
  H1645    1.0000 0.76587  0.01822  0.05352  Biso   1.000  H
  H1646    1.0000 0.76587  0.01822  0.05348  Biso   1.000  H
  H1647    1.0000 0.76587  0.01818  0.05348  Biso   1.000  H
  C1027    1.0000 0.53320  0.85732  0.96435  Biso   1.000  C
  C1028    1.0000 0.53320  0.85732  0.96439  Biso   1.000  C
  C1029    1.0000 0.53320  0.85728  0.96435  Biso   1.000  C
  C1030    1.0000 0.53320  0.85728  0.96439  Biso   1.000  C
  H1648    1.0000 0.47878  0.81468  0.97106  Biso   1.000  H
  C1031    1.0000 0.46680  0.85732  0.03561  Biso   1.000  C
  C1032    1.0000 0.46680  0.85732  0.03557  Biso   1.000  C
  C1033    1.0000 0.46680  0.85728  0.03561  Biso   1.000  C
  C1034    1.0000 0.46680  0.85728  0.03557  Biso   1.000  C
  C1035    1.0000 0.47222  0.73474  0.98854  Biso   1.000  C
  H1649    1.0000 0.55350  0.73411  0.98178  Biso   1.000  H
  C1036    1.0000 0.47222  0.73474  0.98850  Biso   1.000  C
  H1650    1.0000 0.55350  0.73407  0.98178  Biso   1.000  H
  C1037    1.0000 0.53630  0.68601  0.04492  Biso   1.000  C
  C1038    1.0000 0.53630  0.68601  0.04488  Biso   1.000  C
  C1039    1.0000 0.48852  0.97220  0.73474  Biso   1.000  C
  C1040    1.0000 0.54490  0.03632  0.68601  Biso   1.000  C
  H1651    1.0000 0.48180  0.05352  0.73411  Biso   1.000  H
  H1652    1.0000 0.48180  0.05352  0.73407  Biso   1.000  H
  H1653    1.0000 0.48180  0.05348  0.73411  Biso   1.000  H
  H1654    1.0000 0.48180  0.05348  0.73407  Biso   1.000  H
  C1041    1.0000 0.53559  0.96678  0.85732  Biso   1.000  C
  C1042    1.0000 0.53559  0.96678  0.85728  Biso   1.000  C
  H1655    1.0000 0.47108  0.97880  0.81468  Biso   1.000  H
  C1043    1.0000 0.46441  0.03322  0.85732  Biso   1.000  C
  C1044    1.0000 0.46441  0.03322  0.85728  Biso   1.000  C
  C1045    1.0000 0.46441  0.03318  0.85732  Biso   1.000  C
  C1046    1.0000 0.46441  0.03318  0.85728  Biso   1.000  C
  H1656    1.0000 0.76587  0.98178  0.94644  Biso   1.000  H
  H1657    1.0000 0.76587  0.98178  0.94648  Biso   1.000  H
  C1047    1.0000 0.81397  0.04492  0.96368  Biso   1.000  C
  C1048    1.0000 0.81397  0.04492  0.96364  Biso   1.000  C
  C1049    1.0000 0.81397  0.04488  0.96368  Biso   1.000  C
  C1050    1.0000 0.81397  0.04488  0.96364  Biso   1.000  C
  H1658    1.0000 0.61428  0.98500  0.95088  Biso   1.000  H
  H1659    1.0000 0.62747  0.93675  0.98901  Biso   1.000  H
  H1660    1.0000 0.62747  0.93675  0.98897  Biso   1.000  H
  H1661    1.0000 0.61428  0.98496  0.95088  Biso   1.000  H
  H1662    1.0000 0.62747  0.93679  0.98901  Biso   1.000  H
  H1663    1.0000 0.62747  0.93679  0.98897  Biso   1.000  H
  H1664    1.0000 0.66391  0.94829  0.93898  Biso   1.000  H
  H1665    1.0000 0.62747  0.06321  0.01099  Biso   1.000  H
  H1666    1.0000 0.61428  0.01500  0.04912  Biso   1.000  H
  H1667    1.0000 0.61428  0.01500  0.04908  Biso   1.000  H
  H1668    1.0000 0.62747  0.06317  0.01099  Biso   1.000  H
  H1669    1.0000 0.66391  0.05171  0.06098  Biso   1.000  H
  H1670    1.0000 0.81350  0.92485  0.01182  Biso   1.000  H
  H1671    1.0000 0.81397  0.94118  0.07260  Biso   1.000  H
  C1051    1.0000 0.86380  0.98763  0.02729  Biso   1.000  C
  H1672    1.0000 0.81350  0.92485  0.01178  Biso   1.000  H
  C1052    1.0000 0.86380  0.98763  0.02725  Biso   1.000  C
  H1673    1.0000 0.81350  0.92489  0.01182  Biso   1.000  H
  C1053    1.0000 0.86380  0.98759  0.02729  Biso   1.000  C
  H1674    1.0000 0.81350  0.92489  0.01178  Biso   1.000  H
  C1054    1.0000 0.86380  0.98759  0.02725  Biso   1.000  C
  H1675    1.0000 0.54910  0.88570  0.98500  Biso   1.000  H
  H1676    1.0000 0.51097  0.87251  0.93675  Biso   1.000  H
  H1677    1.0000 0.54910  0.88570  0.98496  Biso   1.000  H
  H1678    1.0000 0.51097  0.87251  0.93679  Biso   1.000  H
  H1679    1.0000 0.54910  0.88566  0.98500  Biso   1.000  H
  H1680    1.0000 0.51097  0.87247  0.93675  Biso   1.000  H
  H1681    1.0000 0.54910  0.88566  0.98496  Biso   1.000  H
  H1682    1.0000 0.51097  0.87247  0.93679  Biso   1.000  H
  H1683    1.0000 0.56100  0.83608  0.94829  Biso   1.000  H
  H1684    1.0000 0.45090  0.88570  0.01500  Biso   1.000  H
  H1685    1.0000 0.48899  0.87251  0.06321  Biso   1.000  H
  H1686    1.0000 0.48899  0.87251  0.06317  Biso   1.000  H
  H1687    1.0000 0.45090  0.88566  0.01500  Biso   1.000  H
  H1688    1.0000 0.48899  0.87247  0.06321  Biso   1.000  H
  H1689    1.0000 0.48899  0.87247  0.06317  Biso   1.000  H
  H1690    1.0000 0.43900  0.83608  0.05171  Biso   1.000  H
  C1055    1.0000 0.46366  0.68601  0.95508  Biso   1.000  C
  H1691    1.0000 0.44650  0.73411  0.01822  Biso   1.000  H
  H1692    1.0000 0.44650  0.73411  0.01818  Biso   1.000  H
  H1693    1.0000 0.44650  0.73407  0.01822  Biso   1.000  H
  H1694    1.0000 0.44650  0.73407  0.01818  Biso   1.000  H
  H1695    1.0000 0.51180  0.68648  0.07511  Biso   1.000  H
  H1696    1.0000 0.57258  0.68601  0.05882  Biso   1.000  H
  C1056    1.0000 0.52727  0.63619  0.01237  Biso   1.000  C
  H1697    1.0000 0.51180  0.68648  0.07507  Biso   1.000  H
  H1698    1.0000 0.57258  0.68597  0.05882  Biso   1.000  H
  C1057    1.0000 0.45510  0.96368  0.68601  Biso   1.000  C
  H1699    1.0000 0.51820  0.94644  0.73411  Biso   1.000  H
  H1700    1.0000 0.51820  0.94644  0.73407  Biso   1.000  H
  C1058    1.0000 0.45510  0.96364  0.68601  Biso   1.000  C
  H1701    1.0000 0.51820  0.94648  0.73411  Biso   1.000  H
  H1702    1.0000 0.51820  0.94648  0.73407  Biso   1.000  H
  H1703    1.0000 0.57509  0.01182  0.68648  Biso   1.000  H
  H1704    1.0000 0.55880  0.07260  0.68601  Biso   1.000  H
  C1059    1.0000 0.51239  0.02729  0.63619  Biso   1.000  C
  H1705    1.0000 0.55880  0.07260  0.68597  Biso   1.000  H
  H1706    1.0000 0.57509  0.01178  0.68648  Biso   1.000  H
  C1060    1.0000 0.51239  0.02725  0.63619  Biso   1.000  C
  H1707    1.0000 0.51498  0.95088  0.88570  Biso   1.000  H
  H1708    1.0000 0.56319  0.98901  0.87251  Biso   1.000  H
  H1709    1.0000 0.51498  0.95088  0.88566  Biso   1.000  H
  H1710    1.0000 0.56319  0.98901  0.87247  Biso   1.000  H
  H1711    1.0000 0.56319  0.98897  0.87251  Biso   1.000  H
  H1712    1.0000 0.56319  0.98897  0.87247  Biso   1.000  H
  H1713    1.0000 0.55169  0.93898  0.83608  Biso   1.000  H
  H1714    1.0000 0.48498  0.04912  0.88570  Biso   1.000  H
  H1715    1.0000 0.43681  0.01099  0.87251  Biso   1.000  H
  H1716    1.0000 0.48498  0.04912  0.88566  Biso   1.000  H
  H1717    1.0000 0.43681  0.01099  0.87247  Biso   1.000  H
  H1718    1.0000 0.48498  0.04908  0.88570  Biso   1.000  H
  H1719    1.0000 0.48498  0.04908  0.88566  Biso   1.000  H
  H1720    1.0000 0.44831  0.06098  0.83608  Biso   1.000  H
  H1721    1.0000 0.81350  0.07511  0.98818  Biso   1.000  H
  H1722    1.0000 0.81397  0.05882  0.92736  Biso   1.000  H
  C1061    1.0000 0.86380  0.01237  0.97267  Biso   1.000  C
  C1062    1.0000 0.86380  0.01237  0.97271  Biso   1.000  C
  H1723    1.0000 0.81350  0.07507  0.98818  Biso   1.000  H
  H1724    1.0000 0.86599  0.01559  0.05418  Biso   1.000  H
  H1725    1.0000 0.89497  0.96482  0.03110  Biso   1.000  H
  H1726    1.0000 0.89497  0.96478  0.03110  Biso   1.000  H
  H1727    1.0000 0.48820  0.68648  0.92485  Biso   1.000  H
  H1728    1.0000 0.42738  0.68601  0.94118  Biso   1.000  H
  C1063    1.0000 0.47273  0.63619  0.98763  Biso   1.000  C
  H1729    1.0000 0.48820  0.68648  0.92489  Biso   1.000  H
  C1064    1.0000 0.47273  0.63619  0.98759  Biso   1.000  C
  H1730    1.0000 0.42738  0.68597  0.94118  Biso   1.000  H
  H1731    1.0000 0.55420  0.63403  0.98441  Biso   1.000  H
  H1732    1.0000 0.55420  0.63403  0.98437  Biso   1.000  H
  H1733    1.0000 0.55420  0.63399  0.98441  Biso   1.000  H
  H1734    1.0000 0.55420  0.63399  0.98437  Biso   1.000  H
  H1735    1.0000 0.53108  0.60501  0.03518  Biso   1.000  H
  H1736    1.0000 0.53108  0.60497  0.03518  Biso   1.000  H
  H1737    1.0000 0.42491  0.98818  0.68648  Biso   1.000  H
  H1738    1.0000 0.44120  0.92736  0.68601  Biso   1.000  H
  C1065    1.0000 0.48761  0.97267  0.63619  Biso   1.000  C
  H1739    1.0000 0.44120  0.92736  0.68597  Biso   1.000  H
  C1066    1.0000 0.48761  0.97271  0.63619  Biso   1.000  C
  H1740    1.0000 0.48439  0.05418  0.63403  Biso   1.000  H
  H1741    1.0000 0.53520  0.03110  0.60501  Biso   1.000  H
  H1742    1.0000 0.48439  0.05418  0.63399  Biso   1.000  H
  H1743    1.0000 0.53520  0.03110  0.60497  Biso   1.000  H
  H1744    1.0000 0.86599  0.98441  0.94578  Biso   1.000  H
  H1745    1.0000 0.86599  0.98437  0.94578  Biso   1.000  H
  H1746    1.0000 0.89497  0.03518  0.96886  Biso   1.000  H
  H1747    1.0000 0.46888  0.60501  0.96482  Biso   1.000  H
  H1748    1.0000 0.46888  0.60501  0.96478  Biso   1.000  H
  H1749    1.0000 0.46888  0.60497  0.96482  Biso   1.000  H
  H1750    1.0000 0.46888  0.60497  0.96478  Biso   1.000  H
  H1751    1.0000 0.44580  0.63403  0.01559  Biso   1.000  H
  H1752    1.0000 0.44580  0.63399  0.01559  Biso   1.000  H
  H1753    1.0000 0.51561  0.94578  0.63403  Biso   1.000  H
  H1754    1.0000 0.46480  0.96886  0.60501  Biso   1.000  H
  H1755    1.0000 0.51561  0.94578  0.63399  Biso   1.000  H
  H1756    1.0000 0.46480  0.96886  0.60497  Biso   1.000  H
  C1067    1.0000 0.43205  0.14202  0.12266  Biso   1.000  C
  C1068    1.0000 0.42020  0.09887  0.15407  Biso   1.000  C
  H1757    1.0000 0.46158  0.16330  0.13079  Biso   1.000  H
  C1069    1.0000 0.40112  0.15407  0.07982  Biso   1.000  C
  C1070    1.0000 0.40112  0.15407  0.07978  Biso   1.000  C
  C1071    1.0000 0.37732  0.06793  0.14202  Biso   1.000  C
  C1072    1.0000 0.45353  0.08893  0.20248  Biso   1.000  C
  C1073    1.0000 0.37732  0.06793  0.14198  Biso   1.000  C
  C1074    1.0000 0.45353  0.08893  0.20244  Biso   1.000  C
  C1075    1.0000 0.43205  0.14198  0.12266  Biso   1.000  C
  C1076    1.0000 0.45353  0.08889  0.20248  Biso   1.000  C
  C1077    1.0000 0.45353  0.08889  0.20244  Biso   1.000  C
  C1078    1.0000 0.35796  0.12266  0.06793  Biso   1.000  C
  C1079    1.0000 0.41109  0.20248  0.04645  Biso   1.000  C
  C1080    1.0000 0.41109  0.20244  0.04645  Biso   1.000  C
  C1081    1.0000 0.34591  0.07982  0.09887  Biso   1.000  C
  H1758    1.0000 0.36919  0.03840  0.16330  Biso   1.000  H
  C1082    1.0000 0.34591  0.07978  0.09887  Biso   1.000  C
  H1759    1.0000 0.36919  0.03836  0.16330  Biso   1.000  H
  N139     1.0000 0.46060  0.03365  0.21575  Biso   1.000  N
  H1760    1.0000 0.48848  0.10491  0.19691  Biso   1.000  H
  H1761    1.0000 0.43708  0.10691  0.23271  Biso   1.000  H
  H1762    1.0000 0.48848  0.10491  0.19687  Biso   1.000  H
  H1763    1.0000 0.43708  0.10691  0.23268  Biso   1.000  H
  N140     1.0000 0.46060  0.03365  0.21571  Biso   1.000  N
  H1764    1.0000 0.48848  0.10487  0.19691  Biso   1.000  H
  H1765    1.0000 0.43708  0.10688  0.23271  Biso   1.000  H
  H1766    1.0000 0.48848  0.10487  0.19687  Biso   1.000  H
  H1767    1.0000 0.43708  0.10688  0.23268  Biso   1.000  H
  H1768    1.0000 0.33668  0.13079  0.03840  Biso   1.000  H
  H1769    1.0000 0.33668  0.13079  0.03836  Biso   1.000  H
  N141     1.0000 0.46633  0.21575  0.03938  Biso   1.000  N
  H1770    1.0000 0.39511  0.19691  0.01150  Biso   1.000  H
  H1771    1.0000 0.39311  0.23271  0.06290  Biso   1.000  H
  H1772    1.0000 0.39511  0.19691  0.01146  Biso   1.000  H
  H1773    1.0000 0.39311  0.23271  0.06286  Biso   1.000  H
  H1774    1.0000 0.39511  0.19687  0.01150  Biso   1.000  H
  H1775    1.0000 0.39311  0.23268  0.06290  Biso   1.000  H
  N142     1.0000 0.46633  0.21571  0.03938  Biso   1.000  N
  H1776    1.0000 0.39511  0.19687  0.01146  Biso   1.000  H
  H1777    1.0000 0.39311  0.23268  0.06286  Biso   1.000  H
  C1083    1.0000 0.29754  0.04645  0.08893  Biso   1.000  C
  C1084    1.0000 0.29754  0.04645  0.08889  Biso   1.000  C
  C1085    1.0000 0.48852  0.02776  0.26522  Biso   1.000  C
  C1086    1.0000 0.49998  0.00000  0.17708  Biso   1.000  C
  H1778    1.0000 0.47108  0.02120  0.18528  Biso   1.000  H
  C1087    1.0000 0.47222  0.26522  0.01146  Biso   1.000  C
  C1088    1.0000 0.49998  0.17708  0.00000  Biso   1.000  C
  H1779    1.0000 0.47878  0.18528  0.02890  Biso   1.000  H
  N143     1.0000 0.28427  0.03938  0.03365  Biso   1.000  N
  H1780    1.0000 0.30311  0.01150  0.10491  Biso   1.000  H
  H1781    1.0000 0.26731  0.06290  0.10691  Biso   1.000  H
  H1782    1.0000 0.30311  0.01150  0.10487  Biso   1.000  H
  H1783    1.0000 0.26731  0.06290  0.10688  Biso   1.000  H
  H1784    1.0000 0.30311  0.01146  0.10491  Biso   1.000  H
  H1785    1.0000 0.26731  0.06286  0.10691  Biso   1.000  H
  H1786    1.0000 0.30311  0.01146  0.10487  Biso   1.000  H
  H1787    1.0000 0.26731  0.06286  0.10688  Biso   1.000  H
  H1788    1.0000 0.51820  0.05352  0.26589  Biso   1.000  H
  C1089    1.0000 0.51145  0.97220  0.26522  Biso   1.000  C
  C1090    1.0000 0.45510  0.03632  0.31399  Biso   1.000  C
  C1091    1.0000 0.45510  0.03632  0.31395  Biso   1.000  C
  H1789    1.0000 0.51820  0.05348  0.26589  Biso   1.000  H
  C1092    1.0000 0.46441  0.96678  0.14268  Biso   1.000  C
  N144     1.0000 0.53940  0.96631  0.21575  Biso   1.000  N
  N145     1.0000 0.53940  0.96631  0.21571  Biso   1.000  N
  H1790    1.0000 0.52888  0.97880  0.18528  Biso   1.000  H
  C1093    1.0000 0.53559  0.03322  0.14268  Biso   1.000  C
  C1094    1.0000 0.53559  0.03318  0.14268  Biso   1.000  C
  H1791    1.0000 0.44650  0.26589  0.98178  Biso   1.000  H
  C1095    1.0000 0.52778  0.26522  0.98854  Biso   1.000  C
  C1096    1.0000 0.52778  0.26522  0.98850  Biso   1.000  C
  C1097    1.0000 0.46366  0.31399  0.04492  Biso   1.000  C
  C1098    1.0000 0.46366  0.31399  0.04488  Biso   1.000  C
  C1099    1.0000 0.46366  0.31395  0.04492  Biso   1.000  C
  C1100    1.0000 0.46366  0.31395  0.04488  Biso   1.000  C
  N146     1.0000 0.53367  0.21575  0.96062  Biso   1.000  N
  C1101    1.0000 0.46680  0.14268  0.96435  Biso   1.000  C
  N147     1.0000 0.53367  0.21575  0.96058  Biso   1.000  N
  C1102    1.0000 0.46680  0.14268  0.96439  Biso   1.000  C
  N148     1.0000 0.53367  0.21571  0.96062  Biso   1.000  N
  N149     1.0000 0.53367  0.21571  0.96058  Biso   1.000  N
  H1792    1.0000 0.52118  0.18528  0.97106  Biso   1.000  H
  C1103    1.0000 0.53320  0.14268  0.03561  Biso   1.000  C
  C1104    1.0000 0.53320  0.14268  0.03557  Biso   1.000  C
  C1105    1.0000 0.23476  0.01146  0.02776  Biso   1.000  C
  C1106    1.0000 0.32290  0.00000  0.00000  Biso   1.000  C
  H1793    1.0000 0.31470  0.02890  0.02120  Biso   1.000  H
  C1107    1.0000 0.54490  0.96368  0.31399  Biso   1.000  C
  H1794    1.0000 0.48180  0.94644  0.26589  Biso   1.000  H
  C1108    1.0000 0.54490  0.96368  0.31395  Biso   1.000  C
  C1109    1.0000 0.54490  0.96364  0.31399  Biso   1.000  C
  H1795    1.0000 0.48180  0.94648  0.26589  Biso   1.000  H
  C1110    1.0000 0.54490  0.96364  0.31395  Biso   1.000  C
  H1796    1.0000 0.44120  0.07260  0.31399  Biso   1.000  H
  H1797    1.0000 0.42491  0.01182  0.31348  Biso   1.000  H
  C1111    1.0000 0.48761  0.02729  0.36378  Biso   1.000  C
  H1798    1.0000 0.42491  0.01178  0.31348  Biso   1.000  H
  C1112    1.0000 0.48761  0.02725  0.36378  Biso   1.000  C
  H1799    1.0000 0.48498  0.95088  0.11430  Biso   1.000  H
  H1800    1.0000 0.43681  0.98901  0.12749  Biso   1.000  H
  H1801    1.0000 0.43681  0.98897  0.12749  Biso   1.000  H
  H1802    1.0000 0.44831  0.93898  0.16389  Biso   1.000  H
  C1113    1.0000 0.54647  0.91107  0.20248  Biso   1.000  C
  C1114    1.0000 0.54647  0.91107  0.20244  Biso   1.000  C
  H1803    1.0000 0.56319  0.01099  0.12749  Biso   1.000  H
  H1804    1.0000 0.51498  0.04912  0.11430  Biso   1.000  H
  H1805    1.0000 0.51498  0.04908  0.11430  Biso   1.000  H
  H1806    1.0000 0.55169  0.06098  0.16389  Biso   1.000  H
  H1807    1.0000 0.55350  0.26589  0.01818  Biso   1.000  H
  C1115    1.0000 0.53630  0.31399  0.95508  Biso   1.000  C
  C1116    1.0000 0.53630  0.31395  0.95508  Biso   1.000  C
  H1808    1.0000 0.55350  0.26589  0.01822  Biso   1.000  H
  H1809    1.0000 0.42738  0.31399  0.05882  Biso   1.000  H
  C1117    1.0000 0.47273  0.36378  0.01237  Biso   1.000  C
  H1810    1.0000 0.48820  0.31348  0.07511  Biso   1.000  H
  H1811    1.0000 0.48820  0.31348  0.07507  Biso   1.000  H
  C1118    1.0000 0.58891  0.20248  0.95351  Biso   1.000  C
  C1119    1.0000 0.58891  0.20244  0.95351  Biso   1.000  C
  H1812    1.0000 0.45090  0.11430  0.98500  Biso   1.000  H
  H1813    1.0000 0.48899  0.12749  0.93675  Biso   1.000  H
  H1814    1.0000 0.45090  0.11430  0.98496  Biso   1.000  H
  H1815    1.0000 0.48899  0.12749  0.93679  Biso   1.000  H
  H1816    1.0000 0.43900  0.16389  0.94829  Biso   1.000  H
  H1817    1.0000 0.54910  0.11430  0.01500  Biso   1.000  H
  H1818    1.0000 0.51097  0.12749  0.06321  Biso   1.000  H
  H1819    1.0000 0.51097  0.12749  0.06317  Biso   1.000  H
  H1820    1.0000 0.56100  0.16389  0.05171  Biso   1.000  H
  C1120    1.0000 0.23476  0.98854  0.97220  Biso   1.000  C
  C1121    1.0000 0.23476  0.98850  0.97220  Biso   1.000  C
  H1821    1.0000 0.23409  0.98178  0.05352  Biso   1.000  H
  H1822    1.0000 0.23409  0.98178  0.05348  Biso   1.000  H
  C1122    1.0000 0.18599  0.04492  0.03632  Biso   1.000  C
  C1123    1.0000 0.18599  0.04488  0.03632  Biso   1.000  C
  N150     1.0000 0.28427  0.96062  0.96631  Biso   1.000  N
  N151     1.0000 0.28427  0.96058  0.96631  Biso   1.000  N
  H1823    1.0000 0.31470  0.97106  0.97880  Biso   1.000  H
  C1124    1.0000 0.35730  0.96435  0.03322  Biso   1.000  C
  C1125    1.0000 0.35730  0.96435  0.03318  Biso   1.000  C
  C1126    1.0000 0.35730  0.96439  0.03322  Biso   1.000  C
  C1127    1.0000 0.35730  0.96439  0.03318  Biso   1.000  C
  C1128    1.0000 0.35730  0.03561  0.96678  Biso   1.000  C
  C1129    1.0000 0.35730  0.03557  0.96678  Biso   1.000  C
  H1824    1.0000 0.57509  0.98818  0.31348  Biso   1.000  H
  H1825    1.0000 0.55880  0.92736  0.31399  Biso   1.000  H
  C1130    1.0000 0.51239  0.97267  0.36378  Biso   1.000  C
  C1131    1.0000 0.51239  0.97271  0.36378  Biso   1.000  C
  H1826    1.0000 0.51561  0.05418  0.36597  Biso   1.000  H
  H1827    1.0000 0.46480  0.03110  0.39499  Biso   1.000  H
  H1828    1.0000 0.46480  0.03110  0.39503  Biso   1.000  H
  C1132    1.0000 0.57980  0.90110  0.15407  Biso   1.000  C
  H1829    1.0000 0.51148  0.89509  0.19691  Biso   1.000  H
  H1830    1.0000 0.56288  0.89305  0.23271  Biso   1.000  H
  H1831    1.0000 0.51148  0.89509  0.19687  Biso   1.000  H
  H1832    1.0000 0.56288  0.89305  0.23268  Biso   1.000  H
  H1833    1.0000 0.56288  0.89309  0.23271  Biso   1.000  H
  H1834    1.0000 0.56288  0.89309  0.23268  Biso   1.000  H
  H1835    1.0000 0.51180  0.31348  0.92485  Biso   1.000  H
  H1836    1.0000 0.57258  0.31399  0.94118  Biso   1.000  H
  C1133    1.0000 0.52727  0.36378  0.98763  Biso   1.000  C
  H1837    1.0000 0.51180  0.31348  0.92489  Biso   1.000  H
  C1134    1.0000 0.52727  0.36378  0.98759  Biso   1.000  C
  H1838    1.0000 0.44580  0.36597  0.98441  Biso   1.000  H
  H1839    1.0000 0.44580  0.36597  0.98437  Biso   1.000  H
  H1840    1.0000 0.46888  0.39499  0.03518  Biso   1.000  H
  H1841    1.0000 0.46888  0.39503  0.03518  Biso   1.000  H
  C1135    1.0000 0.59888  0.15407  0.92018  Biso   1.000  C
  H1842    1.0000 0.60489  0.19691  0.98850  Biso   1.000  H
  H1843    1.0000 0.60689  0.23271  0.93706  Biso   1.000  H
  H1844    1.0000 0.60689  0.23271  0.93710  Biso   1.000  H
  H1845    1.0000 0.60489  0.19687  0.98850  Biso   1.000  H
  H1846    1.0000 0.60689  0.23268  0.93706  Biso   1.000  H
  H1847    1.0000 0.60689  0.23268  0.93710  Biso   1.000  H
  C1136    1.0000 0.18599  0.95508  0.96368  Biso   1.000  C
  C1137    1.0000 0.18599  0.95508  0.96364  Biso   1.000  C
  H1848    1.0000 0.23409  0.01822  0.94644  Biso   1.000  H
  H1849    1.0000 0.23409  0.01822  0.94648  Biso   1.000  H
  H1850    1.0000 0.23409  0.01818  0.94644  Biso   1.000  H
  H1851    1.0000 0.23409  0.01818  0.94648  Biso   1.000  H
  H1852    1.0000 0.18599  0.05882  0.07260  Biso   1.000  H
  H1853    1.0000 0.18650  0.07511  0.01182  Biso   1.000  H
  C1138    1.0000 0.13620  0.01237  0.02729  Biso   1.000  C
  H1854    1.0000 0.18650  0.07511  0.01178  Biso   1.000  H
  C1139    1.0000 0.13620  0.01237  0.02725  Biso   1.000  C
  H1855    1.0000 0.18650  0.07507  0.01182  Biso   1.000  H
  H1856    1.0000 0.18650  0.07507  0.01178  Biso   1.000  H
  C1140    1.0000 0.29754  0.95351  0.91107  Biso   1.000  C
  H1857    1.0000 0.38568  0.98500  0.04912  Biso   1.000  H
  H1858    1.0000 0.37249  0.93675  0.01099  Biso   1.000  H
  H1859    1.0000 0.38568  0.98500  0.04908  Biso   1.000  H
  H1860    1.0000 0.38568  0.98496  0.04912  Biso   1.000  H
  H1861    1.0000 0.37249  0.93679  0.01099  Biso   1.000  H
  H1862    1.0000 0.38568  0.98496  0.04908  Biso   1.000  H
  H1863    1.0000 0.33609  0.94829  0.06098  Biso   1.000  H
  H1864    1.0000 0.38568  0.01500  0.95088  Biso   1.000  H
  H1865    1.0000 0.37249  0.06321  0.98901  Biso   1.000  H
  H1866    1.0000 0.37249  0.06321  0.98897  Biso   1.000  H
  H1867    1.0000 0.37249  0.06317  0.98901  Biso   1.000  H
  H1868    1.0000 0.37249  0.06317  0.98897  Biso   1.000  H
  H1869    1.0000 0.33609  0.05171  0.93898  Biso   1.000  H
  H1870    1.0000 0.48439  0.94578  0.36597  Biso   1.000  H
  H1871    1.0000 0.53520  0.96886  0.39499  Biso   1.000  H
  H1872    1.0000 0.53520  0.96886  0.39503  Biso   1.000  H
  C1141    1.0000 0.62264  0.93204  0.14202  Biso   1.000  C
  C1142    1.0000 0.56795  0.85794  0.12266  Biso   1.000  C
  C1143    1.0000 0.62264  0.93204  0.14198  Biso   1.000  C
  C1144    1.0000 0.56795  0.85798  0.12266  Biso   1.000  C
  H1873    1.0000 0.55420  0.36597  0.01559  Biso   1.000  H
  H1874    1.0000 0.53108  0.39499  0.96482  Biso   1.000  H
  H1875    1.0000 0.53108  0.39499  0.96478  Biso   1.000  H
  H1876    1.0000 0.53108  0.39503  0.96482  Biso   1.000  H
  H1877    1.0000 0.53108  0.39503  0.96478  Biso   1.000  H
  C1145    1.0000 0.56795  0.14202  0.87734  Biso   1.000  C
  C1146    1.0000 0.64200  0.12266  0.93204  Biso   1.000  C
  C1147    1.0000 0.56795  0.14202  0.87730  Biso   1.000  C
  C1148    1.0000 0.56795  0.14198  0.87734  Biso   1.000  C
  C1149    1.0000 0.56795  0.14198  0.87730  Biso   1.000  C
  H1878    1.0000 0.18650  0.92485  0.98818  Biso   1.000  H
  H1879    1.0000 0.18599  0.94118  0.92736  Biso   1.000  H
  C1150    1.0000 0.13620  0.98763  0.97267  Biso   1.000  C
  C1151    1.0000 0.13620  0.98763  0.97271  Biso   1.000  C
  H1880    1.0000 0.18650  0.92489  0.98818  Biso   1.000  H
  C1152    1.0000 0.13620  0.98759  0.97267  Biso   1.000  C
  C1153    1.0000 0.13620  0.98759  0.97271  Biso   1.000  C
  H1881    1.0000 0.10499  0.03518  0.03110  Biso   1.000  H
  H1882    1.0000 0.13401  0.98441  0.05418  Biso   1.000  H
  H1883    1.0000 0.13401  0.98437  0.05418  Biso   1.000  H
  C1154    1.0000 0.34591  0.92018  0.90110  Biso   1.000  C
  H1884    1.0000 0.30311  0.98850  0.89509  Biso   1.000  H
  H1885    1.0000 0.26731  0.93706  0.89305  Biso   1.000  H
  H1886    1.0000 0.26731  0.93706  0.89309  Biso   1.000  H
  H1887    1.0000 0.26731  0.93710  0.89305  Biso   1.000  H
  H1888    1.0000 0.26731  0.93710  0.89309  Biso   1.000  H
  C1155    1.0000 0.65405  0.92018  0.09887  Biso   1.000  C
  H1889    1.0000 0.63081  0.96160  0.16330  Biso   1.000  H
  H1890    1.0000 0.53838  0.83666  0.13079  Biso   1.000  H
  C1156    1.0000 0.59888  0.84589  0.07982  Biso   1.000  C
  C1157    1.0000 0.59888  0.84589  0.07978  Biso   1.000  C
  H1891    1.0000 0.53838  0.16330  0.86921  Biso   1.000  H
  C1158    1.0000 0.57980  0.09887  0.84589  Biso   1.000  C
  H1892    1.0000 0.53838  0.16330  0.86917  Biso   1.000  H
  H1893    1.0000 0.66328  0.13079  0.96160  Biso   1.000  H
  C1159    1.0000 0.65405  0.07982  0.90110  Biso   1.000  C
  C1160    1.0000 0.65405  0.07978  0.90110  Biso   1.000  C
  H1894    1.0000 0.10499  0.96482  0.96886  Biso   1.000  H
  H1895    1.0000 0.10499  0.96478  0.96886  Biso   1.000  H
  H1896    1.0000 0.13401  0.01559  0.94578  Biso   1.000  H
  C1161    1.0000 0.35796  0.87734  0.93204  Biso   1.000  C
  C1162    1.0000 0.37732  0.93204  0.85794  Biso   1.000  C
  C1163    1.0000 0.37732  0.93204  0.85798  Biso   1.000  C
  C1164    1.0000 0.35796  0.87730  0.93204  Biso   1.000  C
  C1165    1.0000 0.64200  0.87734  0.06793  Biso   1.000  C
  C1166    1.0000 0.70246  0.95351  0.08893  Biso   1.000  C
  C1167    1.0000 0.70246  0.95351  0.08889  Biso   1.000  C
  C1168    1.0000 0.64200  0.87730  0.06793  Biso   1.000  C
  C1169    1.0000 0.58891  0.79752  0.04645  Biso   1.000  C
  C1170    1.0000 0.62264  0.06793  0.85794  Biso   1.000  C
  C1171    1.0000 0.54647  0.08893  0.79752  Biso   1.000  C
  C1172    1.0000 0.62264  0.06793  0.85798  Biso   1.000  C
  C1173    1.0000 0.54647  0.08889  0.79752  Biso   1.000  C
  C1174    1.0000 0.70246  0.04645  0.91107  Biso   1.000  C
  H1897    1.0000 0.33668  0.86921  0.96160  Biso   1.000  H
  C1175    1.0000 0.40112  0.84589  0.92018  Biso   1.000  C
  H1898    1.0000 0.33668  0.86917  0.96160  Biso   1.000  H
  H1899    1.0000 0.36919  0.96160  0.83666  Biso   1.000  H
  C1176    1.0000 0.42020  0.90110  0.84589  Biso   1.000  C
  H1900    1.0000 0.66328  0.86921  0.03840  Biso   1.000  H
  H1901    1.0000 0.66328  0.86921  0.03836  Biso   1.000  H
  H1902    1.0000 0.66328  0.86917  0.03840  Biso   1.000  H
  H1903    1.0000 0.66328  0.86917  0.03836  Biso   1.000  H
  H1904    1.0000 0.69689  0.98850  0.10491  Biso   1.000  H
  H1905    1.0000 0.73269  0.93706  0.10691  Biso   1.000  H
  N152     1.0000 0.71573  0.96062  0.03365  Biso   1.000  N
  H1906    1.0000 0.69689  0.98850  0.10487  Biso   1.000  H
  H1907    1.0000 0.73269  0.93706  0.10688  Biso   1.000  H
  H1908    1.0000 0.73269  0.93710  0.10691  Biso   1.000  H
  N153     1.0000 0.71573  0.96058  0.03365  Biso   1.000  N
  H1909    1.0000 0.73269  0.93710  0.10688  Biso   1.000  H
  H1910    1.0000 0.60489  0.80309  0.01150  Biso   1.000  H
  H1911    1.0000 0.60689  0.76725  0.06290  Biso   1.000  H
  N154     1.0000 0.53367  0.78425  0.03938  Biso   1.000  N
  H1912    1.0000 0.60489  0.80309  0.01146  Biso   1.000  H
  H1913    1.0000 0.60689  0.76725  0.06286  Biso   1.000  H
  H1914    1.0000 0.60689  0.76729  0.06290  Biso   1.000  H
  H1915    1.0000 0.60689  0.76729  0.06286  Biso   1.000  H
  H1916    1.0000 0.63081  0.03840  0.83666  Biso   1.000  H
  H1917    1.0000 0.63081  0.03836  0.83666  Biso   1.000  H
  H1918    1.0000 0.51148  0.10491  0.80309  Biso   1.000  H
  H1919    1.0000 0.56288  0.10691  0.76725  Biso   1.000  H
  N155     1.0000 0.53940  0.03365  0.78425  Biso   1.000  N
  H1920    1.0000 0.56288  0.10691  0.76729  Biso   1.000  H
  H1921    1.0000 0.51148  0.10487  0.80309  Biso   1.000  H
  H1922    1.0000 0.56288  0.10688  0.76725  Biso   1.000  H
  H1923    1.0000 0.56288  0.10688  0.76729  Biso   1.000  H
  H1924    1.0000 0.69689  0.01150  0.89509  Biso   1.000  H
  H1925    1.0000 0.73269  0.06290  0.89305  Biso   1.000  H
  N156     1.0000 0.71573  0.03938  0.96631  Biso   1.000  N
  H1926    1.0000 0.73269  0.06290  0.89309  Biso   1.000  H
  H1927    1.0000 0.69689  0.01146  0.89509  Biso   1.000  H
  H1928    1.0000 0.73269  0.06286  0.89305  Biso   1.000  H
  H1929    1.0000 0.73269  0.06286  0.89309  Biso   1.000  H
  C1177    1.0000 0.43205  0.85794  0.87734  Biso   1.000  C
  C1178    1.0000 0.41109  0.79752  0.95351  Biso   1.000  C
  C1179    1.0000 0.43205  0.85794  0.87730  Biso   1.000  C
  C1180    1.0000 0.43205  0.85798  0.87734  Biso   1.000  C
  C1181    1.0000 0.43205  0.85798  0.87730  Biso   1.000  C
  C1182    1.0000 0.45353  0.91107  0.79752  Biso   1.000  C
  C1183    1.0000 0.67710  0.00000  0.00000  Biso   1.000  C
  C1184    1.0000 0.76520  0.98854  0.02776  Biso   1.000  C
  C1185    1.0000 0.76520  0.98850  0.02776  Biso   1.000  C
  H1930    1.0000 0.68530  0.97106  0.02120  Biso   1.000  H
  C1186    1.0000 0.49998  0.82292  0.00000  Biso   1.000  C
  C1187    1.0000 0.52778  0.73474  0.01146  Biso   1.000  C
  C1188    1.0000 0.49998  0.82288  0.00000  Biso   1.000  C
  H1931    1.0000 0.52118  0.81468  0.02890  Biso   1.000  H
  C1189    1.0000 0.51145  0.02776  0.73474  Biso   1.000  C
  C1190    1.0000 0.49998  0.00000  0.82292  Biso   1.000  C
  C1191    1.0000 0.49998  0.00000  0.82288  Biso   1.000  C
  H1932    1.0000 0.52888  0.02120  0.81468  Biso   1.000  H
  H1933    1.0000 0.68530  0.02890  0.97880  Biso   1.000  H
  C1192    1.0000 0.76520  0.01146  0.97220  Biso   1.000  C
  H1934    1.0000 0.46158  0.83666  0.86921  Biso   1.000  H
  H1935    1.0000 0.46158  0.83666  0.86917  Biso   1.000  H
  H1936    1.0000 0.39511  0.80309  0.98850  Biso   1.000  H
  H1937    1.0000 0.39311  0.76725  0.93706  Biso   1.000  H
  N157     1.0000 0.46633  0.78425  0.96062  Biso   1.000  N
  H1938    1.0000 0.39311  0.76725  0.93710  Biso   1.000  H
  N158     1.0000 0.46633  0.78425  0.96058  Biso   1.000  N
  H1939    1.0000 0.39311  0.76729  0.93706  Biso   1.000  H
  H1940    1.0000 0.39311  0.76729  0.93710  Biso   1.000  H
  H1941    1.0000 0.48848  0.89509  0.80309  Biso   1.000  H
  H1942    1.0000 0.43708  0.89305  0.76725  Biso   1.000  H
  N159     1.0000 0.46060  0.96631  0.78425  Biso   1.000  N
  H1943    1.0000 0.43708  0.89305  0.76729  Biso   1.000  H
  H1944    1.0000 0.43708  0.89309  0.76725  Biso   1.000  H
  H1945    1.0000 0.43708  0.89309  0.76729  Biso   1.000  H
  C1193    1.0000 0.64270  0.96435  0.96678  Biso   1.000  C
  C1194    1.0000 0.64270  0.96439  0.96678  Biso   1.000  C
  C1195    1.0000 0.64270  0.03561  0.03322  Biso   1.000  C
  C1196    1.0000 0.64270  0.03561  0.03318  Biso   1.000  C
  C1197    1.0000 0.64270  0.03557  0.03322  Biso   1.000  C
  C1198    1.0000 0.64270  0.03557  0.03318  Biso   1.000  C
  C1199    1.0000 0.81397  0.95508  0.03632  Biso   1.000  C
  H1946    1.0000 0.76587  0.01822  0.05352  Biso   1.000  H
  H1947    1.0000 0.76587  0.01822  0.05348  Biso   1.000  H
  H1948    1.0000 0.76587  0.01818  0.05352  Biso   1.000  H
  H1949    1.0000 0.76587  0.01818  0.05348  Biso   1.000  H
  C1200    1.0000 0.53320  0.85732  0.96435  Biso   1.000  C
  C1201    1.0000 0.53320  0.85732  0.96439  Biso   1.000  C
  C1202    1.0000 0.53320  0.85728  0.96435  Biso   1.000  C
  C1203    1.0000 0.53320  0.85728  0.96439  Biso   1.000  C
  H1950    1.0000 0.47878  0.81468  0.97106  Biso   1.000  H
  C1204    1.0000 0.46680  0.85732  0.03561  Biso   1.000  C
  C1205    1.0000 0.46680  0.85732  0.03557  Biso   1.000  C
  C1206    1.0000 0.46680  0.85728  0.03561  Biso   1.000  C
  C1207    1.0000 0.46680  0.85728  0.03557  Biso   1.000  C
  C1208    1.0000 0.47222  0.73474  0.98854  Biso   1.000  C
  H1951    1.0000 0.55350  0.73411  0.98178  Biso   1.000  H
  C1209    1.0000 0.47222  0.73474  0.98850  Biso   1.000  C
  H1952    1.0000 0.55350  0.73407  0.98178  Biso   1.000  H
  C1210    1.0000 0.53630  0.68601  0.04492  Biso   1.000  C
  C1211    1.0000 0.53630  0.68601  0.04488  Biso   1.000  C
  C1212    1.0000 0.48852  0.97220  0.73474  Biso   1.000  C
  C1213    1.0000 0.54490  0.03632  0.68601  Biso   1.000  C
  H1953    1.0000 0.48180  0.05352  0.73411  Biso   1.000  H
  H1954    1.0000 0.48180  0.05352  0.73407  Biso   1.000  H
  H1955    1.0000 0.48180  0.05348  0.73411  Biso   1.000  H
  H1956    1.0000 0.48180  0.05348  0.73407  Biso   1.000  H
  H1957    1.0000 0.47108  0.97880  0.81468  Biso   1.000  H
  C1214    1.0000 0.53559  0.96678  0.85732  Biso   1.000  C
  C1215    1.0000 0.53559  0.96678  0.85728  Biso   1.000  C
  C1216    1.0000 0.46441  0.03322  0.85732  Biso   1.000  C
  C1217    1.0000 0.46441  0.03322  0.85728  Biso   1.000  C
  C1218    1.0000 0.46441  0.03318  0.85732  Biso   1.000  C
  C1219    1.0000 0.46441  0.03318  0.85728  Biso   1.000  C
  H1958    1.0000 0.76587  0.98178  0.94644  Biso   1.000  H
  H1959    1.0000 0.76587  0.98178  0.94648  Biso   1.000  H
  C1220    1.0000 0.81397  0.04492  0.96368  Biso   1.000  C
  C1221    1.0000 0.81397  0.04492  0.96364  Biso   1.000  C
  C1222    1.0000 0.81397  0.04488  0.96368  Biso   1.000  C
  C1223    1.0000 0.81397  0.04488  0.96364  Biso   1.000  C
  H1960    1.0000 0.61428  0.98500  0.95088  Biso   1.000  H
  H1961    1.0000 0.62747  0.93675  0.98901  Biso   1.000  H
  H1962    1.0000 0.62747  0.93675  0.98897  Biso   1.000  H
  H1963    1.0000 0.61428  0.98496  0.95088  Biso   1.000  H
  H1964    1.0000 0.62747  0.93679  0.98901  Biso   1.000  H
  H1965    1.0000 0.62747  0.93679  0.98897  Biso   1.000  H
  H1966    1.0000 0.66391  0.94829  0.93898  Biso   1.000  H
  H1967    1.0000 0.61428  0.01500  0.04912  Biso   1.000  H
  H1968    1.0000 0.62747  0.06321  0.01099  Biso   1.000  H
  H1969    1.0000 0.61428  0.01500  0.04908  Biso   1.000  H
  H1970    1.0000 0.62747  0.06317  0.01099  Biso   1.000  H
  H1971    1.0000 0.66391  0.05171  0.06098  Biso   1.000  H
  H1972    1.0000 0.81350  0.92485  0.01182  Biso   1.000  H
  H1973    1.0000 0.81397  0.94118  0.07260  Biso   1.000  H
  C1224    1.0000 0.86380  0.98763  0.02729  Biso   1.000  C
  H1974    1.0000 0.81350  0.92485  0.01178  Biso   1.000  H
  C1225    1.0000 0.86380  0.98763  0.02725  Biso   1.000  C
  H1975    1.0000 0.81350  0.92489  0.01182  Biso   1.000  H
  C1226    1.0000 0.86380  0.98759  0.02729  Biso   1.000  C
  H1976    1.0000 0.81350  0.92489  0.01178  Biso   1.000  H
  C1227    1.0000 0.86380  0.98759  0.02725  Biso   1.000  C
  H1977    1.0000 0.54910  0.88570  0.98500  Biso   1.000  H
  H1978    1.0000 0.51097  0.87251  0.93675  Biso   1.000  H
  H1979    1.0000 0.54910  0.88570  0.98496  Biso   1.000  H
  H1980    1.0000 0.51097  0.87251  0.93679  Biso   1.000  H
  H1981    1.0000 0.54910  0.88566  0.98500  Biso   1.000  H
  H1982    1.0000 0.51097  0.87247  0.93675  Biso   1.000  H
  H1983    1.0000 0.54910  0.88566  0.98496  Biso   1.000  H
  H1984    1.0000 0.51097  0.87247  0.93679  Biso   1.000  H
  H1985    1.0000 0.56100  0.83608  0.94829  Biso   1.000  H
  H1986    1.0000 0.45090  0.88570  0.01500  Biso   1.000  H
  H1987    1.0000 0.48899  0.87251  0.06321  Biso   1.000  H
  H1988    1.0000 0.48899  0.87251  0.06317  Biso   1.000  H
  H1989    1.0000 0.45090  0.88566  0.01500  Biso   1.000  H
  H1990    1.0000 0.48899  0.87247  0.06321  Biso   1.000  H
  H1991    1.0000 0.48899  0.87247  0.06317  Biso   1.000  H
  H1992    1.0000 0.43900  0.83608  0.05171  Biso   1.000  H
  C1228    1.0000 0.46366  0.68601  0.95508  Biso   1.000  C
  H1993    1.0000 0.44650  0.73411  0.01822  Biso   1.000  H
  H1994    1.0000 0.44650  0.73411  0.01818  Biso   1.000  H
  H1995    1.0000 0.44650  0.73407  0.01822  Biso   1.000  H
  H1996    1.0000 0.44650  0.73407  0.01818  Biso   1.000  H
  H1997    1.0000 0.51180  0.68648  0.07511  Biso   1.000  H
  H1998    1.0000 0.57258  0.68601  0.05882  Biso   1.000  H
  C1229    1.0000 0.52727  0.63619  0.01237  Biso   1.000  C
  H1999    1.0000 0.51180  0.68648  0.07507  Biso   1.000  H
  H2000    1.0000 0.57258  0.68597  0.05882  Biso   1.000  H
  C1230    1.0000 0.45510  0.96368  0.68601  Biso   1.000  C
  H2001    1.0000 0.51820  0.94644  0.73411  Biso   1.000  H
  H2002    1.0000 0.51820  0.94644  0.73407  Biso   1.000  H
  C1231    1.0000 0.45510  0.96364  0.68601  Biso   1.000  C
  H2003    1.0000 0.51820  0.94648  0.73411  Biso   1.000  H
  H2004    1.0000 0.51820  0.94648  0.73407  Biso   1.000  H
  H2005    1.0000 0.57509  0.01182  0.68648  Biso   1.000  H
  H2006    1.0000 0.55880  0.07260  0.68601  Biso   1.000  H
  C1232    1.0000 0.51239  0.02729  0.63619  Biso   1.000  C
  H2007    1.0000 0.55880  0.07260  0.68597  Biso   1.000  H
  H2008    1.0000 0.57509  0.01178  0.68648  Biso   1.000  H
  C1233    1.0000 0.51239  0.02725  0.63619  Biso   1.000  C
  H2009    1.0000 0.51498  0.95088  0.88570  Biso   1.000  H
  H2010    1.0000 0.56319  0.98901  0.87251  Biso   1.000  H
  H2011    1.0000 0.51498  0.95088  0.88566  Biso   1.000  H
  H2012    1.0000 0.56319  0.98901  0.87247  Biso   1.000  H
  H2013    1.0000 0.56319  0.98897  0.87251  Biso   1.000  H
  H2014    1.0000 0.56319  0.98897  0.87247  Biso   1.000  H
  H2015    1.0000 0.55169  0.93898  0.83608  Biso   1.000  H
  H2016    1.0000 0.48498  0.04912  0.88570  Biso   1.000  H
  H2017    1.0000 0.43681  0.01099  0.87251  Biso   1.000  H
  H2018    1.0000 0.48498  0.04912  0.88566  Biso   1.000  H
  H2019    1.0000 0.43681  0.01099  0.87247  Biso   1.000  H
  H2020    1.0000 0.48498  0.04908  0.88570  Biso   1.000  H
  H2021    1.0000 0.48498  0.04908  0.88566  Biso   1.000  H
  H2022    1.0000 0.44831  0.06098  0.83608  Biso   1.000  H
  C1234    1.0000 0.86380  0.01237  0.97267  Biso   1.000  C
  C1235    1.0000 0.86380  0.01237  0.97271  Biso   1.000  C
  H2023    1.0000 0.81350  0.07511  0.98818  Biso   1.000  H
  H2024    1.0000 0.81397  0.05882  0.92736  Biso   1.000  H
  H2025    1.0000 0.81350  0.07507  0.98818  Biso   1.000  H
  H2026    1.0000 0.86599  0.01559  0.05418  Biso   1.000  H
  H2027    1.0000 0.89497  0.96482  0.03110  Biso   1.000  H
  H2028    1.0000 0.89497  0.96478  0.03110  Biso   1.000  H
  H2029    1.0000 0.48820  0.68648  0.92485  Biso   1.000  H
  H2030    1.0000 0.42738  0.68601  0.94118  Biso   1.000  H
  C1236    1.0000 0.47273  0.63619  0.98763  Biso   1.000  C
  H2031    1.0000 0.48820  0.68648  0.92489  Biso   1.000  H
  C1237    1.0000 0.47273  0.63619  0.98759  Biso   1.000  C
  H2032    1.0000 0.42738  0.68597  0.94118  Biso   1.000  H
  H2033    1.0000 0.55420  0.63403  0.98441  Biso   1.000  H
  H2034    1.0000 0.55420  0.63403  0.98437  Biso   1.000  H
  H2035    1.0000 0.55420  0.63399  0.98441  Biso   1.000  H
  H2036    1.0000 0.55420  0.63399  0.98437  Biso   1.000  H
  H2037    1.0000 0.53108  0.60501  0.03518  Biso   1.000  H
  H2038    1.0000 0.53108  0.60497  0.03518  Biso   1.000  H
  H2039    1.0000 0.42491  0.98818  0.68648  Biso   1.000  H
  H2040    1.0000 0.44120  0.92736  0.68601  Biso   1.000  H
  C1238    1.0000 0.48761  0.97267  0.63619  Biso   1.000  C
  H2041    1.0000 0.44120  0.92736  0.68597  Biso   1.000  H
  C1239    1.0000 0.48761  0.97271  0.63619  Biso   1.000  C
  H2042    1.0000 0.48439  0.05418  0.63403  Biso   1.000  H
  H2043    1.0000 0.53520  0.03110  0.60501  Biso   1.000  H
  H2044    1.0000 0.48439  0.05418  0.63399  Biso   1.000  H
  H2045    1.0000 0.53520  0.03110  0.60497  Biso   1.000  H
  H2046    1.0000 0.86599  0.98441  0.94578  Biso   1.000  H
  H2047    1.0000 0.86599  0.98437  0.94578  Biso   1.000  H
  H2048    1.0000 0.89497  0.03518  0.96886  Biso   1.000  H
  H2049    1.0000 0.46888  0.60501  0.96482  Biso   1.000  H
  H2050    1.0000 0.46888  0.60501  0.96478  Biso   1.000  H
  H2051    1.0000 0.46888  0.60497  0.96482  Biso   1.000  H
  H2052    1.0000 0.46888  0.60497  0.96478  Biso   1.000  H
  H2053    1.0000 0.44580  0.63403  0.01559  Biso   1.000  H
  H2054    1.0000 0.44580  0.63399  0.01559  Biso   1.000  H
  H2055    1.0000 0.51561  0.94578  0.63403  Biso   1.000  H
  H2056    1.0000 0.46480  0.96886  0.60501  Biso   1.000  H
  H2057    1.0000 0.51561  0.94578  0.63399  Biso   1.000  H
  H2058    1.0000 0.46480  0.96886  0.60497  Biso   1.000  H
  C1240    1.0000 0.43205  0.14202  0.12266  Biso   1.000  C
  C1241    1.0000 0.42020  0.09887  0.15407  Biso   1.000  C
  H2059    1.0000 0.46158  0.16330  0.13079  Biso   1.000  H
  C1242    1.0000 0.40112  0.15407  0.07982  Biso   1.000  C
  C1243    1.0000 0.40112  0.15407  0.07978  Biso   1.000  C
  C1244    1.0000 0.37732  0.06793  0.14202  Biso   1.000  C
  C1245    1.0000 0.45353  0.08893  0.20248  Biso   1.000  C
  C1246    1.0000 0.37732  0.06793  0.14198  Biso   1.000  C
  C1247    1.0000 0.45353  0.08893  0.20244  Biso   1.000  C
  C1248    1.0000 0.43205  0.14198  0.12266  Biso   1.000  C
  C1249    1.0000 0.45353  0.08889  0.20248  Biso   1.000  C
  C1250    1.0000 0.45353  0.08889  0.20244  Biso   1.000  C
  C1251    1.0000 0.35796  0.12266  0.06793  Biso   1.000  C
  C1252    1.0000 0.41109  0.20248  0.04645  Biso   1.000  C
  C1253    1.0000 0.41109  0.20244  0.04645  Biso   1.000  C
  C1254    1.0000 0.34591  0.07982  0.09887  Biso   1.000  C
  H2060    1.0000 0.36919  0.03840  0.16330  Biso   1.000  H
  C1255    1.0000 0.34591  0.07978  0.09887  Biso   1.000  C
  H2061    1.0000 0.36919  0.03836  0.16330  Biso   1.000  H
  H2062    1.0000 0.48848  0.10491  0.19691  Biso   1.000  H
  H2063    1.0000 0.43708  0.10691  0.23271  Biso   1.000  H
  N160     1.0000 0.46060  0.03365  0.21575  Biso   1.000  N
  H2064    1.0000 0.48848  0.10491  0.19687  Biso   1.000  H
  H2065    1.0000 0.43708  0.10691  0.23268  Biso   1.000  H
  N161     1.0000 0.46060  0.03365  0.21571  Biso   1.000  N
  H2066    1.0000 0.48848  0.10487  0.19691  Biso   1.000  H
  H2067    1.0000 0.43708  0.10688  0.23271  Biso   1.000  H
  H2068    1.0000 0.48848  0.10487  0.19687  Biso   1.000  H
  H2069    1.0000 0.43708  0.10688  0.23268  Biso   1.000  H
  H2070    1.0000 0.33668  0.13079  0.03840  Biso   1.000  H
  H2071    1.0000 0.33668  0.13079  0.03836  Biso   1.000  H
  H2072    1.0000 0.39511  0.19691  0.01150  Biso   1.000  H
  H2073    1.0000 0.39311  0.23271  0.06290  Biso   1.000  H
  N162     1.0000 0.46633  0.21575  0.03938  Biso   1.000  N
  H2074    1.0000 0.39511  0.19691  0.01146  Biso   1.000  H
  H2075    1.0000 0.39311  0.23271  0.06286  Biso   1.000  H
  H2076    1.0000 0.39511  0.19687  0.01150  Biso   1.000  H
  H2077    1.0000 0.39311  0.23268  0.06290  Biso   1.000  H
  N163     1.0000 0.46633  0.21571  0.03938  Biso   1.000  N
  H2078    1.0000 0.39511  0.19687  0.01146  Biso   1.000  H
  H2079    1.0000 0.39311  0.23268  0.06286  Biso   1.000  H
  C1256    1.0000 0.29754  0.04645  0.08893  Biso   1.000  C
  C1257    1.0000 0.29754  0.04645  0.08889  Biso   1.000  C
  C1258    1.0000 0.48852  0.02776  0.26522  Biso   1.000  C
  C1259    1.0000 0.49998  0.00000  0.17708  Biso   1.000  C
  H2080    1.0000 0.47108  0.02120  0.18528  Biso   1.000  H
  C1260    1.0000 0.47222  0.26522  0.01146  Biso   1.000  C
  C1261    1.0000 0.49998  0.17708  0.00000  Biso   1.000  C
  H2081    1.0000 0.47878  0.18528  0.02890  Biso   1.000  H
  N164     1.0000 0.28427  0.03938  0.03365  Biso   1.000  N
  H2082    1.0000 0.30311  0.01150  0.10491  Biso   1.000  H
  H2083    1.0000 0.26731  0.06290  0.10691  Biso   1.000  H
  H2084    1.0000 0.30311  0.01150  0.10487  Biso   1.000  H
  H2085    1.0000 0.26731  0.06290  0.10688  Biso   1.000  H
  H2086    1.0000 0.30311  0.01146  0.10491  Biso   1.000  H
  H2087    1.0000 0.26731  0.06286  0.10691  Biso   1.000  H
  H2088    1.0000 0.30311  0.01146  0.10487  Biso   1.000  H
  H2089    1.0000 0.26731  0.06286  0.10688  Biso   1.000  H
  C1262    1.0000 0.51145  0.97220  0.26522  Biso   1.000  C
  C1263    1.0000 0.45510  0.03632  0.31399  Biso   1.000  C
  H2090    1.0000 0.51820  0.05352  0.26589  Biso   1.000  H
  C1264    1.0000 0.45510  0.03632  0.31395  Biso   1.000  C
  H2091    1.0000 0.51820  0.05348  0.26589  Biso   1.000  H
  C1265    1.0000 0.46441  0.96678  0.14268  Biso   1.000  C
  N165     1.0000 0.53940  0.96631  0.21575  Biso   1.000  N
  N166     1.0000 0.53940  0.96631  0.21571  Biso   1.000  N
  H2092    1.0000 0.52888  0.97880  0.18528  Biso   1.000  H
  C1266    1.0000 0.53559  0.03322  0.14268  Biso   1.000  C
  C1267    1.0000 0.53559  0.03318  0.14268  Biso   1.000  C
  H2093    1.0000 0.44650  0.26589  0.98178  Biso   1.000  H
  C1268    1.0000 0.52778  0.26522  0.98854  Biso   1.000  C
  C1269    1.0000 0.52778  0.26522  0.98850  Biso   1.000  C
  C1270    1.0000 0.46366  0.31399  0.04492  Biso   1.000  C
  C1271    1.0000 0.46366  0.31399  0.04488  Biso   1.000  C
  C1272    1.0000 0.46366  0.31395  0.04492  Biso   1.000  C
  C1273    1.0000 0.46366  0.31395  0.04488  Biso   1.000  C
  N167     1.0000 0.53367  0.21575  0.96062  Biso   1.000  N
  C1274    1.0000 0.46680  0.14268  0.96435  Biso   1.000  C
  N168     1.0000 0.53367  0.21575  0.96058  Biso   1.000  N
  C1275    1.0000 0.46680  0.14268  0.96439  Biso   1.000  C
  N169     1.0000 0.53367  0.21571  0.96062  Biso   1.000  N
  N170     1.0000 0.53367  0.21571  0.96058  Biso   1.000  N
  H2094    1.0000 0.52118  0.18528  0.97106  Biso   1.000  H
  C1276    1.0000 0.53320  0.14268  0.03561  Biso   1.000  C
  C1277    1.0000 0.53320  0.14268  0.03557  Biso   1.000  C
  C1278    1.0000 0.23476  0.01146  0.02776  Biso   1.000  C
  C1279    1.0000 0.32290  0.00000  0.00000  Biso   1.000  C
  H2095    1.0000 0.31470  0.02890  0.02120  Biso   1.000  H
  C1280    1.0000 0.54490  0.96368  0.31399  Biso   1.000  C
  H2096    1.0000 0.48180  0.94644  0.26589  Biso   1.000  H
  C1281    1.0000 0.54490  0.96368  0.31395  Biso   1.000  C
  C1282    1.0000 0.54490  0.96364  0.31399  Biso   1.000  C
  H2097    1.0000 0.48180  0.94648  0.26589  Biso   1.000  H
  C1283    1.0000 0.54490  0.96364  0.31395  Biso   1.000  C
  H2098    1.0000 0.44120  0.07260  0.31399  Biso   1.000  H
  H2099    1.0000 0.42491  0.01182  0.31348  Biso   1.000  H
  C1284    1.0000 0.48761  0.02729  0.36378  Biso   1.000  C
  H2100    1.0000 0.42491  0.01178  0.31348  Biso   1.000  H
  C1285    1.0000 0.48761  0.02725  0.36378  Biso   1.000  C
  H2101    1.0000 0.48498  0.95088  0.11430  Biso   1.000  H
  H2102    1.0000 0.43681  0.98901  0.12749  Biso   1.000  H
  H2103    1.0000 0.43681  0.98897  0.12749  Biso   1.000  H
  H2104    1.0000 0.44831  0.93898  0.16389  Biso   1.000  H
  C1286    1.0000 0.54647  0.91107  0.20248  Biso   1.000  C
  C1287    1.0000 0.54647  0.91107  0.20244  Biso   1.000  C
  H2105    1.0000 0.56319  0.01099  0.12749  Biso   1.000  H
  H2106    1.0000 0.51498  0.04912  0.11430  Biso   1.000  H
  H2107    1.0000 0.51498  0.04908  0.11430  Biso   1.000  H
  H2108    1.0000 0.55169  0.06098  0.16389  Biso   1.000  H
  C1288    1.0000 0.53630  0.31399  0.95508  Biso   1.000  C
  C1289    1.0000 0.53630  0.31395  0.95508  Biso   1.000  C
  H2109    1.0000 0.55350  0.26589  0.01822  Biso   1.000  H
  H2110    1.0000 0.55350  0.26589  0.01818  Biso   1.000  H
  H2111    1.0000 0.42738  0.31399  0.05882  Biso   1.000  H
  C1290    1.0000 0.47273  0.36378  0.01237  Biso   1.000  C
  H2112    1.0000 0.48820  0.31348  0.07511  Biso   1.000  H
  H2113    1.0000 0.48820  0.31348  0.07507  Biso   1.000  H
  C1291    1.0000 0.58891  0.20248  0.95351  Biso   1.000  C
  C1292    1.0000 0.58891  0.20244  0.95351  Biso   1.000  C
  H2114    1.0000 0.45090  0.11430  0.98500  Biso   1.000  H
  H2115    1.0000 0.48899  0.12749  0.93675  Biso   1.000  H
  H2116    1.0000 0.45090  0.11430  0.98496  Biso   1.000  H
  H2117    1.0000 0.48899  0.12749  0.93679  Biso   1.000  H
  H2118    1.0000 0.43900  0.16389  0.94829  Biso   1.000  H
  H2119    1.0000 0.54910  0.11430  0.01500  Biso   1.000  H
  H2120    1.0000 0.51097  0.12749  0.06321  Biso   1.000  H
  H2121    1.0000 0.51097  0.12749  0.06317  Biso   1.000  H
  H2122    1.0000 0.56100  0.16389  0.05171  Biso   1.000  H
  C1293    1.0000 0.23476  0.98854  0.97220  Biso   1.000  C
  C1294    1.0000 0.23476  0.98850  0.97220  Biso   1.000  C
  H2123    1.0000 0.23409  0.98178  0.05352  Biso   1.000  H
  H2124    1.0000 0.23409  0.98178  0.05348  Biso   1.000  H
  C1295    1.0000 0.18599  0.04492  0.03632  Biso   1.000  C
  C1296    1.0000 0.18599  0.04488  0.03632  Biso   1.000  C
  N171     1.0000 0.28427  0.96062  0.96631  Biso   1.000  N
  N172     1.0000 0.28427  0.96058  0.96631  Biso   1.000  N
  H2125    1.0000 0.31470  0.97106  0.97880  Biso   1.000  H
  C1297    1.0000 0.35730  0.96435  0.03322  Biso   1.000  C
  C1298    1.0000 0.35730  0.96435  0.03318  Biso   1.000  C
  C1299    1.0000 0.35730  0.96439  0.03322  Biso   1.000  C
  C1300    1.0000 0.35730  0.96439  0.03318  Biso   1.000  C
  C1301    1.0000 0.35730  0.03561  0.96678  Biso   1.000  C
  C1302    1.0000 0.35730  0.03557  0.96678  Biso   1.000  C
  H2126    1.0000 0.57509  0.98818  0.31348  Biso   1.000  H
  H2127    1.0000 0.55880  0.92736  0.31399  Biso   1.000  H
  C1303    1.0000 0.51239  0.97267  0.36378  Biso   1.000  C
  C1304    1.0000 0.51239  0.97271  0.36378  Biso   1.000  C
  H2128    1.0000 0.51561  0.05418  0.36597  Biso   1.000  H
  H2129    1.0000 0.46480  0.03110  0.39499  Biso   1.000  H
  H2130    1.0000 0.46480  0.03110  0.39503  Biso   1.000  H
  C1305    1.0000 0.57980  0.90110  0.15407  Biso   1.000  C
  H2131    1.0000 0.51148  0.89509  0.19691  Biso   1.000  H
  H2132    1.0000 0.56288  0.89305  0.23271  Biso   1.000  H
  H2133    1.0000 0.51148  0.89509  0.19687  Biso   1.000  H
  H2134    1.0000 0.56288  0.89305  0.23268  Biso   1.000  H
  H2135    1.0000 0.56288  0.89309  0.23271  Biso   1.000  H
  H2136    1.0000 0.56288  0.89309  0.23268  Biso   1.000  H
  H2137    1.0000 0.51180  0.31348  0.92485  Biso   1.000  H
  H2138    1.0000 0.57258  0.31399  0.94118  Biso   1.000  H
  C1306    1.0000 0.52727  0.36378  0.98763  Biso   1.000  C
  H2139    1.0000 0.51180  0.31348  0.92489  Biso   1.000  H
  C1307    1.0000 0.52727  0.36378  0.98759  Biso   1.000  C
  H2140    1.0000 0.44580  0.36597  0.98441  Biso   1.000  H
  H2141    1.0000 0.44580  0.36597  0.98437  Biso   1.000  H
  H2142    1.0000 0.46888  0.39499  0.03518  Biso   1.000  H
  H2143    1.0000 0.46888  0.39503  0.03518  Biso   1.000  H
  C1308    1.0000 0.59888  0.15407  0.92018  Biso   1.000  C
  H2144    1.0000 0.60489  0.19691  0.98850  Biso   1.000  H
  H2145    1.0000 0.60689  0.23271  0.93706  Biso   1.000  H
  H2146    1.0000 0.60689  0.23271  0.93710  Biso   1.000  H
  H2147    1.0000 0.60489  0.19687  0.98850  Biso   1.000  H
  H2148    1.0000 0.60689  0.23268  0.93706  Biso   1.000  H
  H2149    1.0000 0.60689  0.23268  0.93710  Biso   1.000  H
  C1309    1.0000 0.18599  0.95508  0.96368  Biso   1.000  C
  C1310    1.0000 0.18599  0.95508  0.96364  Biso   1.000  C
  H2150    1.0000 0.23409  0.01822  0.94644  Biso   1.000  H
  H2151    1.0000 0.23409  0.01822  0.94648  Biso   1.000  H
  H2152    1.0000 0.23409  0.01818  0.94644  Biso   1.000  H
  H2153    1.0000 0.23409  0.01818  0.94648  Biso   1.000  H
  H2154    1.0000 0.18599  0.05882  0.07260  Biso   1.000  H
  H2155    1.0000 0.18650  0.07511  0.01182  Biso   1.000  H
  C1311    1.0000 0.13620  0.01237  0.02729  Biso   1.000  C
  H2156    1.0000 0.18650  0.07511  0.01178  Biso   1.000  H
  C1312    1.0000 0.13620  0.01237  0.02725  Biso   1.000  C
  H2157    1.0000 0.18650  0.07507  0.01182  Biso   1.000  H
  H2158    1.0000 0.18650  0.07507  0.01178  Biso   1.000  H
  C1313    1.0000 0.29754  0.95351  0.91107  Biso   1.000  C
  H2159    1.0000 0.38568  0.98500  0.04912  Biso   1.000  H
  H2160    1.0000 0.37249  0.93675  0.01099  Biso   1.000  H
  H2161    1.0000 0.38568  0.98500  0.04908  Biso   1.000  H
  H2162    1.0000 0.38568  0.98496  0.04912  Biso   1.000  H
  H2163    1.0000 0.37249  0.93679  0.01099  Biso   1.000  H
  H2164    1.0000 0.38568  0.98496  0.04908  Biso   1.000  H
  H2165    1.0000 0.33609  0.94829  0.06098  Biso   1.000  H
  H2166    1.0000 0.38568  0.01500  0.95088  Biso   1.000  H
  H2167    1.0000 0.37249  0.06321  0.98901  Biso   1.000  H
  H2168    1.0000 0.37249  0.06321  0.98897  Biso   1.000  H
  H2169    1.0000 0.37249  0.06317  0.98901  Biso   1.000  H
  H2170    1.0000 0.37249  0.06317  0.98897  Biso   1.000  H
  H2171    1.0000 0.33609  0.05171  0.93898  Biso   1.000  H
  H2172    1.0000 0.48439  0.94578  0.36597  Biso   1.000  H
  H2173    1.0000 0.53520  0.96886  0.39499  Biso   1.000  H
  H2174    1.0000 0.53520  0.96886  0.39503  Biso   1.000  H
  C1314    1.0000 0.62264  0.93204  0.14202  Biso   1.000  C
  C1315    1.0000 0.56795  0.85794  0.12266  Biso   1.000  C
  C1316    1.0000 0.62264  0.93204  0.14198  Biso   1.000  C
  C1317    1.0000 0.56795  0.85798  0.12266  Biso   1.000  C
  H2175    1.0000 0.55420  0.36597  0.01559  Biso   1.000  H
  H2176    1.0000 0.53108  0.39499  0.96482  Biso   1.000  H
  H2177    1.0000 0.53108  0.39499  0.96478  Biso   1.000  H
  H2178    1.0000 0.53108  0.39503  0.96482  Biso   1.000  H
  H2179    1.0000 0.53108  0.39503  0.96478  Biso   1.000  H
  C1318    1.0000 0.56795  0.14202  0.87734  Biso   1.000  C
  C1319    1.0000 0.64200  0.12266  0.93204  Biso   1.000  C
  C1320    1.0000 0.56795  0.14202  0.87730  Biso   1.000  C
  C1321    1.0000 0.56795  0.14198  0.87734  Biso   1.000  C
  C1322    1.0000 0.56795  0.14198  0.87730  Biso   1.000  C
  H2180    1.0000 0.18650  0.92485  0.98818  Biso   1.000  H
  H2181    1.0000 0.18599  0.94118  0.92736  Biso   1.000  H
  C1323    1.0000 0.13620  0.98763  0.97267  Biso   1.000  C
  C1324    1.0000 0.13620  0.98763  0.97271  Biso   1.000  C
  H2182    1.0000 0.18650  0.92489  0.98818  Biso   1.000  H
  C1325    1.0000 0.13620  0.98759  0.97267  Biso   1.000  C
  C1326    1.0000 0.13620  0.98759  0.97271  Biso   1.000  C
  H2183    1.0000 0.10499  0.03518  0.03110  Biso   1.000  H
  H2184    1.0000 0.13401  0.98441  0.05418  Biso   1.000  H
  H2185    1.0000 0.13401  0.98437  0.05418  Biso   1.000  H
  C1327    1.0000 0.34591  0.92018  0.90110  Biso   1.000  C
  H2186    1.0000 0.30311  0.98850  0.89509  Biso   1.000  H
  H2187    1.0000 0.26731  0.93706  0.89305  Biso   1.000  H
  H2188    1.0000 0.26731  0.93706  0.89309  Biso   1.000  H
  H2189    1.0000 0.26731  0.93710  0.89305  Biso   1.000  H
  H2190    1.0000 0.26731  0.93710  0.89309  Biso   1.000  H
  C1328    1.0000 0.65405  0.92018  0.09887  Biso   1.000  C
  H2191    1.0000 0.63081  0.96160  0.16330  Biso   1.000  H
  H2192    1.0000 0.53838  0.83666  0.13079  Biso   1.000  H
  C1329    1.0000 0.59888  0.84589  0.07982  Biso   1.000  C
  C1330    1.0000 0.59888  0.84589  0.07978  Biso   1.000  C
  H2193    1.0000 0.53838  0.16330  0.86921  Biso   1.000  H
  C1331    1.0000 0.57980  0.09887  0.84589  Biso   1.000  C
  H2194    1.0000 0.53838  0.16330  0.86917  Biso   1.000  H
  H2195    1.0000 0.66328  0.13079  0.96160  Biso   1.000  H
  C1332    1.0000 0.65405  0.07982  0.90110  Biso   1.000  C
  C1333    1.0000 0.65405  0.07978  0.90110  Biso   1.000  C
  H2196    1.0000 0.10499  0.96482  0.96886  Biso   1.000  H
  H2197    1.0000 0.10499  0.96478  0.96886  Biso   1.000  H
  H2198    1.0000 0.13401  0.01559  0.94578  Biso   1.000  H
  C1334    1.0000 0.35796  0.87734  0.93204  Biso   1.000  C
  C1335    1.0000 0.37732  0.93204  0.85794  Biso   1.000  C
  C1336    1.0000 0.37732  0.93204  0.85798  Biso   1.000  C
  C1337    1.0000 0.35796  0.87730  0.93204  Biso   1.000  C
  C1338    1.0000 0.64200  0.87734  0.06793  Biso   1.000  C
  C1339    1.0000 0.70246  0.95351  0.08893  Biso   1.000  C
  C1340    1.0000 0.70246  0.95351  0.08889  Biso   1.000  C
  C1341    1.0000 0.64200  0.87730  0.06793  Biso   1.000  C
  C1342    1.0000 0.58891  0.79752  0.04645  Biso   1.000  C
  C1343    1.0000 0.62264  0.06793  0.85794  Biso   1.000  C
  C1344    1.0000 0.54647  0.08893  0.79752  Biso   1.000  C
  C1345    1.0000 0.62264  0.06793  0.85798  Biso   1.000  C
  C1346    1.0000 0.54647  0.08889  0.79752  Biso   1.000  C
  C1347    1.0000 0.70246  0.04645  0.91107  Biso   1.000  C
  H2199    1.0000 0.33668  0.86921  0.96160  Biso   1.000  H
  C1348    1.0000 0.40112  0.84589  0.92018  Biso   1.000  C
  H2200    1.0000 0.33668  0.86917  0.96160  Biso   1.000  H
  H2201    1.0000 0.36919  0.96160  0.83666  Biso   1.000  H
  C1349    1.0000 0.42020  0.90110  0.84589  Biso   1.000  C
  H2202    1.0000 0.66328  0.86921  0.03840  Biso   1.000  H
  H2203    1.0000 0.66328  0.86921  0.03836  Biso   1.000  H
  H2204    1.0000 0.66328  0.86917  0.03840  Biso   1.000  H
  H2205    1.0000 0.66328  0.86917  0.03836  Biso   1.000  H
  H2206    1.0000 0.69689  0.98850  0.10491  Biso   1.000  H
  H2207    1.0000 0.73269  0.93706  0.10691  Biso   1.000  H
  N173     1.0000 0.71573  0.96062  0.03365  Biso   1.000  N
  H2208    1.0000 0.69689  0.98850  0.10487  Biso   1.000  H
  H2209    1.0000 0.73269  0.93706  0.10688  Biso   1.000  H
  H2210    1.0000 0.73269  0.93710  0.10691  Biso   1.000  H
  N174     1.0000 0.71573  0.96058  0.03365  Biso   1.000  N
  H2211    1.0000 0.73269  0.93710  0.10688  Biso   1.000  H
  H2212    1.0000 0.60489  0.80309  0.01150  Biso   1.000  H
  H2213    1.0000 0.60689  0.76725  0.06290  Biso   1.000  H
  N175     1.0000 0.53367  0.78425  0.03938  Biso   1.000  N
  H2214    1.0000 0.60489  0.80309  0.01146  Biso   1.000  H
  H2215    1.0000 0.60689  0.76725  0.06286  Biso   1.000  H
  H2216    1.0000 0.60689  0.76729  0.06290  Biso   1.000  H
  H2217    1.0000 0.60689  0.76729  0.06286  Biso   1.000  H
  H2218    1.0000 0.63081  0.03840  0.83666  Biso   1.000  H
  H2219    1.0000 0.63081  0.03836  0.83666  Biso   1.000  H
  H2220    1.0000 0.51148  0.10491  0.80309  Biso   1.000  H
  H2221    1.0000 0.56288  0.10691  0.76725  Biso   1.000  H
  N176     1.0000 0.53940  0.03365  0.78425  Biso   1.000  N
  H2222    1.0000 0.56288  0.10691  0.76729  Biso   1.000  H
  H2223    1.0000 0.51148  0.10487  0.80309  Biso   1.000  H
  H2224    1.0000 0.56288  0.10688  0.76725  Biso   1.000  H
  H2225    1.0000 0.56288  0.10688  0.76729  Biso   1.000  H
  H2226    1.0000 0.69689  0.01150  0.89509  Biso   1.000  H
  H2227    1.0000 0.73269  0.06290  0.89305  Biso   1.000  H
  N177     1.0000 0.71573  0.03938  0.96631  Biso   1.000  N
  H2228    1.0000 0.73269  0.06290  0.89309  Biso   1.000  H
  H2229    1.0000 0.69689  0.01146  0.89509  Biso   1.000  H
  H2230    1.0000 0.73269  0.06286  0.89305  Biso   1.000  H
  H2231    1.0000 0.73269  0.06286  0.89309  Biso   1.000  H
  C1350    1.0000 0.43205  0.85794  0.87734  Biso   1.000  C
  C1351    1.0000 0.41109  0.79752  0.95351  Biso   1.000  C
  C1352    1.0000 0.43205  0.85794  0.87730  Biso   1.000  C
  C1353    1.0000 0.43205  0.85798  0.87734  Biso   1.000  C
  C1354    1.0000 0.43205  0.85798  0.87730  Biso   1.000  C
  C1355    1.0000 0.45353  0.91107  0.79752  Biso   1.000  C
  C1356    1.0000 0.67710  0.00000  0.00000  Biso   1.000  C
  C1357    1.0000 0.76520  0.98854  0.02776  Biso   1.000  C
  C1358    1.0000 0.76520  0.98850  0.02776  Biso   1.000  C
  H2232    1.0000 0.68530  0.97106  0.02120  Biso   1.000  H
  C1359    1.0000 0.49998  0.82292  0.00000  Biso   1.000  C
  C1360    1.0000 0.52778  0.73474  0.01146  Biso   1.000  C
  C1361    1.0000 0.49998  0.82288  0.00000  Biso   1.000  C
  H2233    1.0000 0.52118  0.81468  0.02890  Biso   1.000  H
  C1362    1.0000 0.51145  0.02776  0.73474  Biso   1.000  C
  C1363    1.0000 0.49998  0.00000  0.82292  Biso   1.000  C
  C1364    1.0000 0.49998  0.00000  0.82288  Biso   1.000  C
  H2234    1.0000 0.52888  0.02120  0.81468  Biso   1.000  H
  H2235    1.0000 0.68530  0.02890  0.97880  Biso   1.000  H
  C1365    1.0000 0.76520  0.01146  0.97220  Biso   1.000  C
  H2236    1.0000 0.46158  0.83666  0.86921  Biso   1.000  H
  H2237    1.0000 0.46158  0.83666  0.86917  Biso   1.000  H
  H2238    1.0000 0.39511  0.80309  0.98850  Biso   1.000  H
  H2239    1.0000 0.39311  0.76725  0.93706  Biso   1.000  H
  N178     1.0000 0.46633  0.78425  0.96062  Biso   1.000  N
  H2240    1.0000 0.39311  0.76725  0.93710  Biso   1.000  H
  N179     1.0000 0.46633  0.78425  0.96058  Biso   1.000  N
  H2241    1.0000 0.39311  0.76729  0.93706  Biso   1.000  H
  H2242    1.0000 0.39311  0.76729  0.93710  Biso   1.000  H
  H2243    1.0000 0.48848  0.89509  0.80309  Biso   1.000  H
  H2244    1.0000 0.43708  0.89305  0.76725  Biso   1.000  H
  N180     1.0000 0.46060  0.96631  0.78425  Biso   1.000  N
  H2245    1.0000 0.43708  0.89305  0.76729  Biso   1.000  H
  H2246    1.0000 0.43708  0.89309  0.76725  Biso   1.000  H
  H2247    1.0000 0.43708  0.89309  0.76729  Biso   1.000  H
  C1366    1.0000 0.64270  0.96435  0.96678  Biso   1.000  C
  C1367    1.0000 0.64270  0.96439  0.96678  Biso   1.000  C
  C1368    1.0000 0.64270  0.03561  0.03322  Biso   1.000  C
  C1369    1.0000 0.64270  0.03561  0.03318  Biso   1.000  C
  C1370    1.0000 0.64270  0.03557  0.03322  Biso   1.000  C
  C1371    1.0000 0.64270  0.03557  0.03318  Biso   1.000  C
  C1372    1.0000 0.81397  0.95508  0.03632  Biso   1.000  C
  H2248    1.0000 0.76587  0.01822  0.05352  Biso   1.000  H
  H2249    1.0000 0.76587  0.01822  0.05348  Biso   1.000  H
  H2250    1.0000 0.76587  0.01818  0.05352  Biso   1.000  H
  H2251    1.0000 0.76587  0.01818  0.05348  Biso   1.000  H
  C1373    1.0000 0.53320  0.85732  0.96435  Biso   1.000  C
  C1374    1.0000 0.53320  0.85732  0.96439  Biso   1.000  C
  C1375    1.0000 0.53320  0.85728  0.96435  Biso   1.000  C
  C1376    1.0000 0.53320  0.85728  0.96439  Biso   1.000  C
  H2252    1.0000 0.47878  0.81468  0.97106  Biso   1.000  H
  C1377    1.0000 0.46680  0.85732  0.03561  Biso   1.000  C
  C1378    1.0000 0.46680  0.85732  0.03557  Biso   1.000  C
  C1379    1.0000 0.46680  0.85728  0.03561  Biso   1.000  C
  C1380    1.0000 0.46680  0.85728  0.03557  Biso   1.000  C
  C1381    1.0000 0.47222  0.73474  0.98854  Biso   1.000  C
  H2253    1.0000 0.55350  0.73411  0.98178  Biso   1.000  H
  C1382    1.0000 0.47222  0.73474  0.98850  Biso   1.000  C
  H2254    1.0000 0.55350  0.73407  0.98178  Biso   1.000  H
  C1383    1.0000 0.53630  0.68601  0.04492  Biso   1.000  C
  C1384    1.0000 0.53630  0.68601  0.04488  Biso   1.000  C
  C1385    1.0000 0.48852  0.97220  0.73474  Biso   1.000  C
  C1386    1.0000 0.54490  0.03632  0.68601  Biso   1.000  C
  H2255    1.0000 0.48180  0.05352  0.73411  Biso   1.000  H
  H2256    1.0000 0.48180  0.05352  0.73407  Biso   1.000  H
  H2257    1.0000 0.48180  0.05348  0.73411  Biso   1.000  H
  H2258    1.0000 0.48180  0.05348  0.73407  Biso   1.000  H
  H2259    1.0000 0.47108  0.97880  0.81468  Biso   1.000  H
  C1387    1.0000 0.53559  0.96678  0.85732  Biso   1.000  C
  C1388    1.0000 0.53559  0.96678  0.85728  Biso   1.000  C
  C1389    1.0000 0.46441  0.03322  0.85732  Biso   1.000  C
  C1390    1.0000 0.46441  0.03322  0.85728  Biso   1.000  C
  C1391    1.0000 0.46441  0.03318  0.85732  Biso   1.000  C
  C1392    1.0000 0.46441  0.03318  0.85728  Biso   1.000  C
  H2260    1.0000 0.76587  0.98178  0.94644  Biso   1.000  H
  H2261    1.0000 0.76587  0.98178  0.94648  Biso   1.000  H
  C1393    1.0000 0.81397  0.04492  0.96368  Biso   1.000  C
  C1394    1.0000 0.81397  0.04492  0.96364  Biso   1.000  C
  C1395    1.0000 0.81397  0.04488  0.96368  Biso   1.000  C
  C1396    1.0000 0.81397  0.04488  0.96364  Biso   1.000  C
  H2262    1.0000 0.61428  0.98500  0.95088  Biso   1.000  H
  H2263    1.0000 0.62747  0.93675  0.98901  Biso   1.000  H
  H2264    1.0000 0.62747  0.93675  0.98897  Biso   1.000  H
  H2265    1.0000 0.61428  0.98496  0.95088  Biso   1.000  H
  H2266    1.0000 0.62747  0.93679  0.98901  Biso   1.000  H
  H2267    1.0000 0.62747  0.93679  0.98897  Biso   1.000  H
  H2268    1.0000 0.66391  0.94829  0.93898  Biso   1.000  H
  H2269    1.0000 0.61428  0.01500  0.04912  Biso   1.000  H
  H2270    1.0000 0.62747  0.06321  0.01099  Biso   1.000  H
  H2271    1.0000 0.61428  0.01500  0.04908  Biso   1.000  H
  H2272    1.0000 0.62747  0.06317  0.01099  Biso   1.000  H
  H2273    1.0000 0.66391  0.05171  0.06098  Biso   1.000  H
  H2274    1.0000 0.81350  0.92485  0.01182  Biso   1.000  H
  H2275    1.0000 0.81397  0.94118  0.07260  Biso   1.000  H
  C1397    1.0000 0.86380  0.98763  0.02729  Biso   1.000  C
  H2276    1.0000 0.81350  0.92485  0.01178  Biso   1.000  H
  C1398    1.0000 0.86380  0.98763  0.02725  Biso   1.000  C
  H2277    1.0000 0.81350  0.92489  0.01182  Biso   1.000  H
  C1399    1.0000 0.86380  0.98759  0.02729  Biso   1.000  C
  H2278    1.0000 0.81350  0.92489  0.01178  Biso   1.000  H
  C1400    1.0000 0.86380  0.98759  0.02725  Biso   1.000  C
  H2279    1.0000 0.54910  0.88570  0.98500  Biso   1.000  H
  H2280    1.0000 0.51097  0.87251  0.93675  Biso   1.000  H
  H2281    1.0000 0.54910  0.88570  0.98496  Biso   1.000  H
  H2282    1.0000 0.51097  0.87251  0.93679  Biso   1.000  H
  H2283    1.0000 0.54910  0.88566  0.98500  Biso   1.000  H
  H2284    1.0000 0.51097  0.87247  0.93675  Biso   1.000  H
  H2285    1.0000 0.54910  0.88566  0.98496  Biso   1.000  H
  H2286    1.0000 0.51097  0.87247  0.93679  Biso   1.000  H
  H2287    1.0000 0.56100  0.83608  0.94829  Biso   1.000  H
  H2288    1.0000 0.45090  0.88570  0.01500  Biso   1.000  H
  H2289    1.0000 0.48899  0.87251  0.06321  Biso   1.000  H
  H2290    1.0000 0.48899  0.87251  0.06317  Biso   1.000  H
  H2291    1.0000 0.45090  0.88566  0.01500  Biso   1.000  H
  H2292    1.0000 0.48899  0.87247  0.06321  Biso   1.000  H
  H2293    1.0000 0.48899  0.87247  0.06317  Biso   1.000  H
  H2294    1.0000 0.43900  0.83608  0.05171  Biso   1.000  H
  C1401    1.0000 0.46366  0.68601  0.95508  Biso   1.000  C
  H2295    1.0000 0.44650  0.73411  0.01822  Biso   1.000  H
  H2296    1.0000 0.44650  0.73411  0.01818  Biso   1.000  H
  H2297    1.0000 0.44650  0.73407  0.01822  Biso   1.000  H
  H2298    1.0000 0.44650  0.73407  0.01818  Biso   1.000  H
  H2299    1.0000 0.51180  0.68648  0.07511  Biso   1.000  H
  H2300    1.0000 0.57258  0.68601  0.05882  Biso   1.000  H
  C1402    1.0000 0.52727  0.63619  0.01237  Biso   1.000  C
  H2301    1.0000 0.51180  0.68648  0.07507  Biso   1.000  H
  H2302    1.0000 0.57258  0.68597  0.05882  Biso   1.000  H
  C1403    1.0000 0.45510  0.96368  0.68601  Biso   1.000  C
  H2303    1.0000 0.51820  0.94644  0.73411  Biso   1.000  H
  H2304    1.0000 0.51820  0.94644  0.73407  Biso   1.000  H
  C1404    1.0000 0.45510  0.96364  0.68601  Biso   1.000  C
  H2305    1.0000 0.51820  0.94648  0.73411  Biso   1.000  H
  H2306    1.0000 0.51820  0.94648  0.73407  Biso   1.000  H
  H2307    1.0000 0.57509  0.01182  0.68648  Biso   1.000  H
  H2308    1.0000 0.55880  0.07260  0.68601  Biso   1.000  H
  C1405    1.0000 0.51239  0.02729  0.63619  Biso   1.000  C
  H2309    1.0000 0.55880  0.07260  0.68597  Biso   1.000  H
  H2310    1.0000 0.57509  0.01178  0.68648  Biso   1.000  H
  C1406    1.0000 0.51239  0.02725  0.63619  Biso   1.000  C
  H2311    1.0000 0.51498  0.95088  0.88570  Biso   1.000  H
  H2312    1.0000 0.56319  0.98901  0.87251  Biso   1.000  H
  H2313    1.0000 0.51498  0.95088  0.88566  Biso   1.000  H
  H2314    1.0000 0.56319  0.98901  0.87247  Biso   1.000  H
  H2315    1.0000 0.56319  0.98897  0.87251  Biso   1.000  H
  H2316    1.0000 0.56319  0.98897  0.87247  Biso   1.000  H
  H2317    1.0000 0.55169  0.93898  0.83608  Biso   1.000  H
  H2318    1.0000 0.48498  0.04912  0.88570  Biso   1.000  H
  H2319    1.0000 0.43681  0.01099  0.87251  Biso   1.000  H
  H2320    1.0000 0.48498  0.04912  0.88566  Biso   1.000  H
  H2321    1.0000 0.43681  0.01099  0.87247  Biso   1.000  H
  H2322    1.0000 0.48498  0.04908  0.88570  Biso   1.000  H
  H2323    1.0000 0.48498  0.04908  0.88566  Biso   1.000  H
  H2324    1.0000 0.44831  0.06098  0.83608  Biso   1.000  H
  C1407    1.0000 0.86380  0.01237  0.97267  Biso   1.000  C
  C1408    1.0000 0.86380  0.01237  0.97271  Biso   1.000  C
  H2325    1.0000 0.81350  0.07511  0.98818  Biso   1.000  H
  H2326    1.0000 0.81397  0.05882  0.92736  Biso   1.000  H
  H2327    1.0000 0.81350  0.07507  0.98818  Biso   1.000  H
  H2328    1.0000 0.86599  0.01559  0.05418  Biso   1.000  H
  H2329    1.0000 0.89497  0.96482  0.03110  Biso   1.000  H
  H2330    1.0000 0.89497  0.96478  0.03110  Biso   1.000  H
  H2331    1.0000 0.48820  0.68648  0.92485  Biso   1.000  H
  H2332    1.0000 0.42738  0.68601  0.94118  Biso   1.000  H
  C1409    1.0000 0.47273  0.63619  0.98763  Biso   1.000  C
  H2333    1.0000 0.48820  0.68648  0.92489  Biso   1.000  H
  C1410    1.0000 0.47273  0.63619  0.98759  Biso   1.000  C
  H2334    1.0000 0.42738  0.68597  0.94118  Biso   1.000  H
  H2335    1.0000 0.55420  0.63403  0.98441  Biso   1.000  H
  H2336    1.0000 0.55420  0.63403  0.98437  Biso   1.000  H
  H2337    1.0000 0.55420  0.63399  0.98441  Biso   1.000  H
  H2338    1.0000 0.55420  0.63399  0.98437  Biso   1.000  H
  H2339    1.0000 0.53108  0.60501  0.03518  Biso   1.000  H
  H2340    1.0000 0.53108  0.60497  0.03518  Biso   1.000  H
  H2341    1.0000 0.42491  0.98818  0.68648  Biso   1.000  H
  H2342    1.0000 0.44120  0.92736  0.68601  Biso   1.000  H
  C1411    1.0000 0.48761  0.97267  0.63619  Biso   1.000  C
  H2343    1.0000 0.44120  0.92736  0.68597  Biso   1.000  H
  C1412    1.0000 0.48761  0.97271  0.63619  Biso   1.000  C
  H2344    1.0000 0.48439  0.05418  0.63403  Biso   1.000  H
  H2345    1.0000 0.53520  0.03110  0.60501  Biso   1.000  H
  H2346    1.0000 0.48439  0.05418  0.63399  Biso   1.000  H
  H2347    1.0000 0.53520  0.03110  0.60497  Biso   1.000  H
  H2348    1.0000 0.86599  0.98441  0.94578  Biso   1.000  H
  H2349    1.0000 0.86599  0.98437  0.94578  Biso   1.000  H
  H2350    1.0000 0.89497  0.03518  0.96886  Biso   1.000  H
  H2351    1.0000 0.46888  0.60501  0.96482  Biso   1.000  H
  H2352    1.0000 0.46888  0.60501  0.96478  Biso   1.000  H
  H2353    1.0000 0.46888  0.60497  0.96482  Biso   1.000  H
  H2354    1.0000 0.46888  0.60497  0.96478  Biso   1.000  H
  H2355    1.0000 0.44580  0.63403  0.01559  Biso   1.000  H
  H2356    1.0000 0.44580  0.63399  0.01559  Biso   1.000  H
  H2357    1.0000 0.51561  0.94578  0.63403  Biso   1.000  H
  H2358    1.0000 0.46480  0.96886  0.60501  Biso   1.000  H
  H2359    1.0000 0.51561  0.94578  0.63399  Biso   1.000  H
  H2360    1.0000 0.46480  0.96886  0.60497  Biso   1.000  H
  C1413    1.0000 0.43205  0.14202  0.12266  Biso   1.000  C
  C1414    1.0000 0.40112  0.15407  0.07982  Biso   1.000  C
  C1415    1.0000 0.40112  0.15407  0.07978  Biso   1.000  C
  C1416    1.0000 0.42020  0.09887  0.15407  Biso   1.000  C
  H2361    1.0000 0.46158  0.16330  0.13079  Biso   1.000  H
  C1417    1.0000 0.35796  0.12266  0.06793  Biso   1.000  C
  C1418    1.0000 0.41109  0.20248  0.04645  Biso   1.000  C
  C1419    1.0000 0.43205  0.14198  0.12266  Biso   1.000  C
  C1420    1.0000 0.41109  0.20244  0.04645  Biso   1.000  C
  C1421    1.0000 0.37732  0.06793  0.14202  Biso   1.000  C
  C1422    1.0000 0.37732  0.06793  0.14198  Biso   1.000  C
  C1423    1.0000 0.45353  0.08893  0.20248  Biso   1.000  C
  C1424    1.0000 0.45353  0.08893  0.20244  Biso   1.000  C
  C1425    1.0000 0.45353  0.08889  0.20248  Biso   1.000  C
  C1426    1.0000 0.45353  0.08889  0.20244  Biso   1.000  C
  C1427    1.0000 0.34591  0.07982  0.09887  Biso   1.000  C
  C1428    1.0000 0.34591  0.07978  0.09887  Biso   1.000  C
  H2362    1.0000 0.33668  0.13079  0.03840  Biso   1.000  H
  H2363    1.0000 0.33668  0.13079  0.03836  Biso   1.000  H
  H2364    1.0000 0.39511  0.19691  0.01150  Biso   1.000  H
  H2365    1.0000 0.39311  0.23271  0.06290  Biso   1.000  H
  N181     1.0000 0.46633  0.21575  0.03938  Biso   1.000  N
  H2366    1.0000 0.39511  0.19691  0.01146  Biso   1.000  H
  H2367    1.0000 0.39311  0.23271  0.06286  Biso   1.000  H
  H2368    1.0000 0.39511  0.19687  0.01150  Biso   1.000  H
  H2369    1.0000 0.39311  0.23268  0.06290  Biso   1.000  H
  N182     1.0000 0.46633  0.21571  0.03938  Biso   1.000  N
  H2370    1.0000 0.39511  0.19687  0.01146  Biso   1.000  H
  H2371    1.0000 0.39311  0.23268  0.06286  Biso   1.000  H
  H2372    1.0000 0.36919  0.03840  0.16330  Biso   1.000  H
  H2373    1.0000 0.36919  0.03836  0.16330  Biso   1.000  H
  H2374    1.0000 0.48848  0.10491  0.19691  Biso   1.000  H
  H2375    1.0000 0.43708  0.10691  0.23271  Biso   1.000  H
  N183     1.0000 0.46060  0.03365  0.21575  Biso   1.000  N
  H2376    1.0000 0.48848  0.10491  0.19687  Biso   1.000  H
  H2377    1.0000 0.43708  0.10691  0.23268  Biso   1.000  H
  N184     1.0000 0.46060  0.03365  0.21571  Biso   1.000  N
  H2378    1.0000 0.48848  0.10487  0.19691  Biso   1.000  H
  H2379    1.0000 0.43708  0.10688  0.23271  Biso   1.000  H
  H2380    1.0000 0.48848  0.10487  0.19687  Biso   1.000  H
  H2381    1.0000 0.43708  0.10688  0.23268  Biso   1.000  H
  C1429    1.0000 0.29754  0.04645  0.08893  Biso   1.000  C
  C1430    1.0000 0.29754  0.04645  0.08889  Biso   1.000  C
  C1431    1.0000 0.47222  0.26522  0.01146  Biso   1.000  C
  C1432    1.0000 0.49998  0.17708  0.00000  Biso   1.000  C
  H2382    1.0000 0.47878  0.18528  0.02890  Biso   1.000  H
  C1433    1.0000 0.48852  0.02776  0.26522  Biso   1.000  C
  C1434    1.0000 0.49998  0.00000  0.17708  Biso   1.000  C
  H2383    1.0000 0.47108  0.02120  0.18528  Biso   1.000  H
  N185     1.0000 0.28427  0.03938  0.03365  Biso   1.000  N
  H2384    1.0000 0.30311  0.01150  0.10491  Biso   1.000  H
  H2385    1.0000 0.26731  0.06290  0.10691  Biso   1.000  H
  H2386    1.0000 0.30311  0.01150  0.10487  Biso   1.000  H
  H2387    1.0000 0.26731  0.06290  0.10688  Biso   1.000  H
  H2388    1.0000 0.30311  0.01146  0.10491  Biso   1.000  H
  H2389    1.0000 0.26731  0.06286  0.10691  Biso   1.000  H
  H2390    1.0000 0.30311  0.01146  0.10487  Biso   1.000  H
  H2391    1.0000 0.26731  0.06286  0.10688  Biso   1.000  H
  H2392    1.0000 0.44650  0.26589  0.98178  Biso   1.000  H
  C1435    1.0000 0.52778  0.26522  0.98854  Biso   1.000  C
  C1436    1.0000 0.52778  0.26522  0.98850  Biso   1.000  C
  C1437    1.0000 0.46366  0.31399  0.04492  Biso   1.000  C
  C1438    1.0000 0.46366  0.31399  0.04488  Biso   1.000  C
  C1439    1.0000 0.46366  0.31395  0.04492  Biso   1.000  C
  C1440    1.0000 0.46366  0.31395  0.04488  Biso   1.000  C
  N186     1.0000 0.53367  0.21575  0.96062  Biso   1.000  N
  C1441    1.0000 0.46680  0.14268  0.96435  Biso   1.000  C
  N187     1.0000 0.53367  0.21575  0.96058  Biso   1.000  N
  C1442    1.0000 0.46680  0.14268  0.96439  Biso   1.000  C
  N188     1.0000 0.53367  0.21571  0.96062  Biso   1.000  N
  N189     1.0000 0.53367  0.21571  0.96058  Biso   1.000  N
  H2393    1.0000 0.52118  0.18528  0.97106  Biso   1.000  H
  C1443    1.0000 0.53320  0.14268  0.03561  Biso   1.000  C
  C1444    1.0000 0.53320  0.14268  0.03557  Biso   1.000  C
  C1445    1.0000 0.51145  0.97220  0.26522  Biso   1.000  C
  C1446    1.0000 0.45510  0.03632  0.31399  Biso   1.000  C
  H2394    1.0000 0.51820  0.05352  0.26589  Biso   1.000  H
  C1447    1.0000 0.45510  0.03632  0.31395  Biso   1.000  C
  H2395    1.0000 0.51820  0.05348  0.26589  Biso   1.000  H
  C1448    1.0000 0.46441  0.96678  0.14268  Biso   1.000  C
  N190     1.0000 0.53940  0.96631  0.21575  Biso   1.000  N
  N191     1.0000 0.53940  0.96631  0.21571  Biso   1.000  N
  H2396    1.0000 0.52888  0.97880  0.18528  Biso   1.000  H
  C1449    1.0000 0.53559  0.03322  0.14268  Biso   1.000  C
  C1450    1.0000 0.53559  0.03318  0.14268  Biso   1.000  C
  C1451    1.0000 0.23476  0.01146  0.02776  Biso   1.000  C
  C1452    1.0000 0.32290  0.00000  0.00000  Biso   1.000  C
  H2397    1.0000 0.31470  0.02890  0.02120  Biso   1.000  H
  C1453    1.0000 0.53630  0.31399  0.95508  Biso   1.000  C
  C1454    1.0000 0.53630  0.31395  0.95508  Biso   1.000  C
  H2398    1.0000 0.55350  0.26589  0.01822  Biso   1.000  H
  H2399    1.0000 0.55350  0.26589  0.01818  Biso   1.000  H
  H2400    1.0000 0.48820  0.31348  0.07511  Biso   1.000  H
  H2401    1.0000 0.42738  0.31399  0.05882  Biso   1.000  H
  C1455    1.0000 0.47273  0.36378  0.01237  Biso   1.000  C
  H2402    1.0000 0.48820  0.31348  0.07507  Biso   1.000  H
  C1456    1.0000 0.58891  0.20248  0.95351  Biso   1.000  C
  C1457    1.0000 0.58891  0.20244  0.95351  Biso   1.000  C
  H2403    1.0000 0.45090  0.11430  0.98500  Biso   1.000  H
  H2404    1.0000 0.48899  0.12749  0.93675  Biso   1.000  H
  H2405    1.0000 0.45090  0.11430  0.98496  Biso   1.000  H
  H2406    1.0000 0.48899  0.12749  0.93679  Biso   1.000  H
  H2407    1.0000 0.43900  0.16389  0.94829  Biso   1.000  H
  H2408    1.0000 0.54910  0.11430  0.01500  Biso   1.000  H
  H2409    1.0000 0.51097  0.12749  0.06321  Biso   1.000  H
  H2410    1.0000 0.51097  0.12749  0.06317  Biso   1.000  H
  H2411    1.0000 0.56100  0.16389  0.05171  Biso   1.000  H
  C1458    1.0000 0.54490  0.96368  0.31399  Biso   1.000  C
  H2412    1.0000 0.48180  0.94644  0.26589  Biso   1.000  H
  C1459    1.0000 0.54490  0.96368  0.31395  Biso   1.000  C
  C1460    1.0000 0.54490  0.96364  0.31399  Biso   1.000  C
  H2413    1.0000 0.48180  0.94648  0.26589  Biso   1.000  H
  C1461    1.0000 0.54490  0.96364  0.31395  Biso   1.000  C
  H2414    1.0000 0.42491  0.01182  0.31348  Biso   1.000  H
  H2415    1.0000 0.44120  0.07260  0.31399  Biso   1.000  H
  C1462    1.0000 0.48761  0.02729  0.36378  Biso   1.000  C
  H2416    1.0000 0.42491  0.01178  0.31348  Biso   1.000  H
  C1463    1.0000 0.48761  0.02725  0.36378  Biso   1.000  C
  H2417    1.0000 0.48498  0.95088  0.11430  Biso   1.000  H
  H2418    1.0000 0.43681  0.98901  0.12749  Biso   1.000  H
  H2419    1.0000 0.43681  0.98897  0.12749  Biso   1.000  H
  H2420    1.0000 0.44831  0.93898  0.16389  Biso   1.000  H
  C1464    1.0000 0.54647  0.91107  0.20248  Biso   1.000  C
  C1465    1.0000 0.54647  0.91107  0.20244  Biso   1.000  C
  H2421    1.0000 0.51498  0.04912  0.11430  Biso   1.000  H
  H2422    1.0000 0.56319  0.01099  0.12749  Biso   1.000  H
  H2423    1.0000 0.51498  0.04908  0.11430  Biso   1.000  H
  H2424    1.0000 0.55169  0.06098  0.16389  Biso   1.000  H
  C1466    1.0000 0.23476  0.98854  0.97220  Biso   1.000  C
  C1467    1.0000 0.23476  0.98850  0.97220  Biso   1.000  C
  H2425    1.0000 0.23409  0.98178  0.05352  Biso   1.000  H
  H2426    1.0000 0.23409  0.98178  0.05348  Biso   1.000  H
  C1468    1.0000 0.18599  0.04492  0.03632  Biso   1.000  C
  C1469    1.0000 0.18599  0.04488  0.03632  Biso   1.000  C
  N192     1.0000 0.28427  0.96062  0.96631  Biso   1.000  N
  N193     1.0000 0.28427  0.96058  0.96631  Biso   1.000  N
  H2427    1.0000 0.31470  0.97106  0.97880  Biso   1.000  H
  C1470    1.0000 0.35730  0.96435  0.03322  Biso   1.000  C
  C1471    1.0000 0.35730  0.96435  0.03318  Biso   1.000  C
  C1472    1.0000 0.35730  0.96439  0.03322  Biso   1.000  C
  C1473    1.0000 0.35730  0.96439  0.03318  Biso   1.000  C
  C1474    1.0000 0.35730  0.03561  0.96678  Biso   1.000  C
  C1475    1.0000 0.35730  0.03557  0.96678  Biso   1.000  C
  H2428    1.0000 0.51180  0.31348  0.92485  Biso   1.000  H
  H2429    1.0000 0.57258  0.31399  0.94118  Biso   1.000  H
  C1476    1.0000 0.52727  0.36378  0.98763  Biso   1.000  C
  H2430    1.0000 0.51180  0.31348  0.92489  Biso   1.000  H
  C1477    1.0000 0.52727  0.36378  0.98759  Biso   1.000  C
  H2431    1.0000 0.44580  0.36597  0.98441  Biso   1.000  H
  H2432    1.0000 0.44580  0.36597  0.98437  Biso   1.000  H
  H2433    1.0000 0.46888  0.39499  0.03518  Biso   1.000  H
  H2434    1.0000 0.46888  0.39503  0.03518  Biso   1.000  H
  C1478    1.0000 0.59888  0.15407  0.92018  Biso   1.000  C
  H2435    1.0000 0.60489  0.19691  0.98850  Biso   1.000  H
  H2436    1.0000 0.60689  0.23271  0.93706  Biso   1.000  H
  H2437    1.0000 0.60689  0.23271  0.93710  Biso   1.000  H
  H2438    1.0000 0.60489  0.19687  0.98850  Biso   1.000  H
  H2439    1.0000 0.60689  0.23268  0.93706  Biso   1.000  H
  H2440    1.0000 0.60689  0.23268  0.93710  Biso   1.000  H
  H2441    1.0000 0.57509  0.98818  0.31348  Biso   1.000  H
  H2442    1.0000 0.55880  0.92736  0.31399  Biso   1.000  H
  C1479    1.0000 0.51239  0.97267  0.36378  Biso   1.000  C
  C1480    1.0000 0.51239  0.97271  0.36378  Biso   1.000  C
  H2443    1.0000 0.51561  0.05418  0.36597  Biso   1.000  H
  H2444    1.0000 0.46480  0.03110  0.39499  Biso   1.000  H
  H2445    1.0000 0.46480  0.03110  0.39503  Biso   1.000  H
  C1481    1.0000 0.57980  0.90110  0.15407  Biso   1.000  C
  H2446    1.0000 0.51148  0.89509  0.19691  Biso   1.000  H
  H2447    1.0000 0.56288  0.89305  0.23271  Biso   1.000  H
  H2448    1.0000 0.51148  0.89509  0.19687  Biso   1.000  H
  H2449    1.0000 0.56288  0.89305  0.23268  Biso   1.000  H
  H2450    1.0000 0.56288  0.89309  0.23271  Biso   1.000  H
  H2451    1.0000 0.56288  0.89309  0.23268  Biso   1.000  H
  C1482    1.0000 0.18599  0.95508  0.96368  Biso   1.000  C
  C1483    1.0000 0.18599  0.95508  0.96364  Biso   1.000  C
  H2452    1.0000 0.23409  0.01822  0.94644  Biso   1.000  H
  H2453    1.0000 0.23409  0.01822  0.94648  Biso   1.000  H
  H2454    1.0000 0.23409  0.01818  0.94644  Biso   1.000  H
  H2455    1.0000 0.23409  0.01818  0.94648  Biso   1.000  H
  H2456    1.0000 0.18650  0.07511  0.01182  Biso   1.000  H
  H2457    1.0000 0.18599  0.05882  0.07260  Biso   1.000  H
  C1484    1.0000 0.13620  0.01237  0.02729  Biso   1.000  C
  H2458    1.0000 0.18650  0.07511  0.01178  Biso   1.000  H
  C1485    1.0000 0.13620  0.01237  0.02725  Biso   1.000  C
  H2459    1.0000 0.18650  0.07507  0.01182  Biso   1.000  H
  H2460    1.0000 0.18650  0.07507  0.01178  Biso   1.000  H
  C1486    1.0000 0.29754  0.95351  0.91107  Biso   1.000  C
  H2461    1.0000 0.38568  0.98500  0.04912  Biso   1.000  H
  H2462    1.0000 0.37249  0.93675  0.01099  Biso   1.000  H
  H2463    1.0000 0.38568  0.98500  0.04908  Biso   1.000  H
  H2464    1.0000 0.38568  0.98496  0.04912  Biso   1.000  H
  H2465    1.0000 0.37249  0.93679  0.01099  Biso   1.000  H
  H2466    1.0000 0.38568  0.98496  0.04908  Biso   1.000  H
  H2467    1.0000 0.33609  0.94829  0.06098  Biso   1.000  H
  H2468    1.0000 0.38568  0.01500  0.95088  Biso   1.000  H
  H2469    1.0000 0.37249  0.06321  0.98901  Biso   1.000  H
  H2470    1.0000 0.37249  0.06321  0.98897  Biso   1.000  H
  H2471    1.0000 0.37249  0.06317  0.98901  Biso   1.000  H
  H2472    1.0000 0.37249  0.06317  0.98897  Biso   1.000  H
  H2473    1.0000 0.33609  0.05171  0.93898  Biso   1.000  H
  H2474    1.0000 0.53108  0.39499  0.96482  Biso   1.000  H
  H2475    1.0000 0.53108  0.39499  0.96478  Biso   1.000  H
  H2476    1.0000 0.53108  0.39503  0.96482  Biso   1.000  H
  H2477    1.0000 0.53108  0.39503  0.96478  Biso   1.000  H
  H2478    1.0000 0.55420  0.36597  0.01559  Biso   1.000  H
  C1487    1.0000 0.56795  0.14202  0.87734  Biso   1.000  C
  C1488    1.0000 0.64200  0.12266  0.93204  Biso   1.000  C
  C1489    1.0000 0.56795  0.14202  0.87730  Biso   1.000  C
  C1490    1.0000 0.56795  0.14198  0.87734  Biso   1.000  C
  C1491    1.0000 0.56795  0.14198  0.87730  Biso   1.000  C
  H2479    1.0000 0.48439  0.94578  0.36597  Biso   1.000  H
  H2480    1.0000 0.53520  0.96886  0.39499  Biso   1.000  H
  H2481    1.0000 0.53520  0.96886  0.39503  Biso   1.000  H
  C1492    1.0000 0.62264  0.93204  0.14202  Biso   1.000  C
  C1493    1.0000 0.56795  0.85794  0.12266  Biso   1.000  C
  C1494    1.0000 0.62264  0.93204  0.14198  Biso   1.000  C
  C1495    1.0000 0.56795  0.85798  0.12266  Biso   1.000  C
  H2482    1.0000 0.18650  0.92485  0.98818  Biso   1.000  H
  H2483    1.0000 0.18599  0.94118  0.92736  Biso   1.000  H
  C1496    1.0000 0.13620  0.98763  0.97267  Biso   1.000  C
  C1497    1.0000 0.13620  0.98763  0.97271  Biso   1.000  C
  H2484    1.0000 0.18650  0.92489  0.98818  Biso   1.000  H
  C1498    1.0000 0.13620  0.98759  0.97267  Biso   1.000  C
  C1499    1.0000 0.13620  0.98759  0.97271  Biso   1.000  C
  H2485    1.0000 0.13401  0.98441  0.05418  Biso   1.000  H
  H2486    1.0000 0.13401  0.98437  0.05418  Biso   1.000  H
  H2487    1.0000 0.10499  0.03518  0.03110  Biso   1.000  H
  C1500    1.0000 0.34591  0.92018  0.90110  Biso   1.000  C
  H2488    1.0000 0.30311  0.98850  0.89509  Biso   1.000  H
  H2489    1.0000 0.26731  0.93706  0.89305  Biso   1.000  H
  H2490    1.0000 0.26731  0.93706  0.89309  Biso   1.000  H
  H2491    1.0000 0.26731  0.93710  0.89305  Biso   1.000  H
  H2492    1.0000 0.26731  0.93710  0.89309  Biso   1.000  H
  H2493    1.0000 0.53838  0.16330  0.86921  Biso   1.000  H
  C1501    1.0000 0.57980  0.09887  0.84589  Biso   1.000  C
  H2494    1.0000 0.53838  0.16330  0.86917  Biso   1.000  H
  H2495    1.0000 0.66328  0.13079  0.96160  Biso   1.000  H
  C1502    1.0000 0.65405  0.07982  0.90110  Biso   1.000  C
  C1503    1.0000 0.65405  0.07978  0.90110  Biso   1.000  C
  C1504    1.0000 0.65405  0.92018  0.09887  Biso   1.000  C
  H2496    1.0000 0.63081  0.96160  0.16330  Biso   1.000  H
  H2497    1.0000 0.53838  0.83666  0.13079  Biso   1.000  H
  C1505    1.0000 0.59888  0.84589  0.07982  Biso   1.000  C
  C1506    1.0000 0.59888  0.84589  0.07978  Biso   1.000  C
  H2498    1.0000 0.10499  0.96482  0.96886  Biso   1.000  H
  H2499    1.0000 0.10499  0.96478  0.96886  Biso   1.000  H
  H2500    1.0000 0.13401  0.01559  0.94578  Biso   1.000  H
  C1507    1.0000 0.35796  0.87734  0.93204  Biso   1.000  C
  C1508    1.0000 0.37732  0.93204  0.85794  Biso   1.000  C
  C1509    1.0000 0.37732  0.93204  0.85798  Biso   1.000  C
  C1510    1.0000 0.35796  0.87730  0.93204  Biso   1.000  C
  C1511    1.0000 0.54647  0.08893  0.79752  Biso   1.000  C
  C1512    1.0000 0.54647  0.08889  0.79752  Biso   1.000  C
  C1513    1.0000 0.62264  0.06793  0.85794  Biso   1.000  C
  C1514    1.0000 0.62264  0.06793  0.85798  Biso   1.000  C
  C1515    1.0000 0.70246  0.04645  0.91107  Biso   1.000  C
  C1516    1.0000 0.64200  0.87734  0.06793  Biso   1.000  C
  C1517    1.0000 0.70246  0.95351  0.08893  Biso   1.000  C
  C1518    1.0000 0.70246  0.95351  0.08889  Biso   1.000  C
  C1519    1.0000 0.64200  0.87730  0.06793  Biso   1.000  C
  C1520    1.0000 0.58891  0.79752  0.04645  Biso   1.000  C
  H2501    1.0000 0.33668  0.86921  0.96160  Biso   1.000  H
  C1521    1.0000 0.40112  0.84589  0.92018  Biso   1.000  C
  H2502    1.0000 0.33668  0.86917  0.96160  Biso   1.000  H
  H2503    1.0000 0.36919  0.96160  0.83666  Biso   1.000  H
  C1522    1.0000 0.42020  0.90110  0.84589  Biso   1.000  C
  N194     1.0000 0.53940  0.03365  0.78425  Biso   1.000  N
  H2504    1.0000 0.51148  0.10491  0.80309  Biso   1.000  H
  H2505    1.0000 0.56288  0.10691  0.76725  Biso   1.000  H
  H2506    1.0000 0.56288  0.10691  0.76729  Biso   1.000  H
  H2507    1.0000 0.51148  0.10487  0.80309  Biso   1.000  H
  H2508    1.0000 0.56288  0.10688  0.76725  Biso   1.000  H
  H2509    1.0000 0.56288  0.10688  0.76729  Biso   1.000  H
  H2510    1.0000 0.63081  0.03840  0.83666  Biso   1.000  H
  H2511    1.0000 0.63081  0.03836  0.83666  Biso   1.000  H
  H2512    1.0000 0.69689  0.01150  0.89509  Biso   1.000  H
  H2513    1.0000 0.73269  0.06290  0.89305  Biso   1.000  H
  N195     1.0000 0.71573  0.03938  0.96631  Biso   1.000  N
  H2514    1.0000 0.73269  0.06290  0.89309  Biso   1.000  H
  H2515    1.0000 0.69689  0.01146  0.89509  Biso   1.000  H
  H2516    1.0000 0.73269  0.06286  0.89305  Biso   1.000  H
  H2517    1.0000 0.73269  0.06286  0.89309  Biso   1.000  H
  H2518    1.0000 0.66328  0.86921  0.03840  Biso   1.000  H
  H2519    1.0000 0.66328  0.86921  0.03836  Biso   1.000  H
  H2520    1.0000 0.66328  0.86917  0.03840  Biso   1.000  H
  H2521    1.0000 0.66328  0.86917  0.03836  Biso   1.000  H
  H2522    1.0000 0.69689  0.98850  0.10491  Biso   1.000  H
  H2523    1.0000 0.73269  0.93706  0.10691  Biso   1.000  H
  N196     1.0000 0.71573  0.96062  0.03365  Biso   1.000  N
  H2524    1.0000 0.69689  0.98850  0.10487  Biso   1.000  H
  H2525    1.0000 0.73269  0.93706  0.10688  Biso   1.000  H
  H2526    1.0000 0.73269  0.93710  0.10691  Biso   1.000  H
  N197     1.0000 0.71573  0.96058  0.03365  Biso   1.000  N
  H2527    1.0000 0.73269  0.93710  0.10688  Biso   1.000  H
  N198     1.0000 0.53367  0.78425  0.03938  Biso   1.000  N
  H2528    1.0000 0.60489  0.80309  0.01150  Biso   1.000  H
  H2529    1.0000 0.60689  0.76725  0.06290  Biso   1.000  H
  H2530    1.0000 0.60489  0.80309  0.01146  Biso   1.000  H
  H2531    1.0000 0.60689  0.76725  0.06286  Biso   1.000  H
  H2532    1.0000 0.60689  0.76729  0.06290  Biso   1.000  H
  H2533    1.0000 0.60689  0.76729  0.06286  Biso   1.000  H
  C1523    1.0000 0.43205  0.85794  0.87734  Biso   1.000  C
  C1524    1.0000 0.41109  0.79752  0.95351  Biso   1.000  C
  C1525    1.0000 0.43205  0.85794  0.87730  Biso   1.000  C
  C1526    1.0000 0.43205  0.85798  0.87734  Biso   1.000  C
  C1527    1.0000 0.43205  0.85798  0.87730  Biso   1.000  C
  C1528    1.0000 0.45353  0.91107  0.79752  Biso   1.000  C
  C1529    1.0000 0.49998  0.00000  0.82292  Biso   1.000  C
  C1530    1.0000 0.49998  0.00000  0.82288  Biso   1.000  C
  C1531    1.0000 0.51145  0.02776  0.73474  Biso   1.000  C
  H2534    1.0000 0.52888  0.02120  0.81468  Biso   1.000  H
  C1532    1.0000 0.76520  0.01146  0.97220  Biso   1.000  C
  H2535    1.0000 0.68530  0.02890  0.97880  Biso   1.000  H
  C1533    1.0000 0.67710  0.00000  0.00000  Biso   1.000  C
  C1534    1.0000 0.76520  0.98854  0.02776  Biso   1.000  C
  C1535    1.0000 0.76520  0.98850  0.02776  Biso   1.000  C
  H2536    1.0000 0.68530  0.97106  0.02120  Biso   1.000  H
  C1536    1.0000 0.49998  0.82292  0.00000  Biso   1.000  C
  C1537    1.0000 0.49998  0.82288  0.00000  Biso   1.000  C
  C1538    1.0000 0.52778  0.73474  0.01146  Biso   1.000  C
  H2537    1.0000 0.52118  0.81468  0.02890  Biso   1.000  H
  H2538    1.0000 0.46158  0.83666  0.86921  Biso   1.000  H
  H2539    1.0000 0.46158  0.83666  0.86917  Biso   1.000  H
  H2540    1.0000 0.39511  0.80309  0.98850  Biso   1.000  H
  H2541    1.0000 0.39311  0.76725  0.93706  Biso   1.000  H
  N199     1.0000 0.46633  0.78425  0.96062  Biso   1.000  N
  H2542    1.0000 0.39311  0.76725  0.93710  Biso   1.000  H
  N200     1.0000 0.46633  0.78425  0.96058  Biso   1.000  N
  H2543    1.0000 0.39311  0.76729  0.93706  Biso   1.000  H
  H2544    1.0000 0.39311  0.76729  0.93710  Biso   1.000  H
  H2545    1.0000 0.48848  0.89509  0.80309  Biso   1.000  H
  H2546    1.0000 0.43708  0.89305  0.76725  Biso   1.000  H
  N201     1.0000 0.46060  0.96631  0.78425  Biso   1.000  N
  H2547    1.0000 0.43708  0.89305  0.76729  Biso   1.000  H
  H2548    1.0000 0.43708  0.89309  0.76725  Biso   1.000  H
  H2549    1.0000 0.43708  0.89309  0.76729  Biso   1.000  H
  H2550    1.0000 0.47108  0.97880  0.81468  Biso   1.000  H
  C1539    1.0000 0.53559  0.96678  0.85732  Biso   1.000  C
  C1540    1.0000 0.53559  0.96678  0.85728  Biso   1.000  C
  C1541    1.0000 0.46441  0.03322  0.85732  Biso   1.000  C
  C1542    1.0000 0.46441  0.03322  0.85728  Biso   1.000  C
  C1543    1.0000 0.46441  0.03318  0.85732  Biso   1.000  C
  C1544    1.0000 0.46441  0.03318  0.85728  Biso   1.000  C
  C1545    1.0000 0.48852  0.97220  0.73474  Biso   1.000  C
  C1546    1.0000 0.54490  0.03632  0.68601  Biso   1.000  C
  H2551    1.0000 0.48180  0.05352  0.73411  Biso   1.000  H
  H2552    1.0000 0.48180  0.05352  0.73407  Biso   1.000  H
  H2553    1.0000 0.48180  0.05348  0.73411  Biso   1.000  H
  H2554    1.0000 0.48180  0.05348  0.73407  Biso   1.000  H
  H2555    1.0000 0.76587  0.98178  0.94644  Biso   1.000  H
  H2556    1.0000 0.76587  0.98178  0.94648  Biso   1.000  H
  C1547    1.0000 0.81397  0.04492  0.96368  Biso   1.000  C
  C1548    1.0000 0.81397  0.04492  0.96364  Biso   1.000  C
  C1549    1.0000 0.81397  0.04488  0.96368  Biso   1.000  C
  C1550    1.0000 0.81397  0.04488  0.96364  Biso   1.000  C
  C1551    1.0000 0.64270  0.96435  0.96678  Biso   1.000  C
  C1552    1.0000 0.64270  0.96439  0.96678  Biso   1.000  C
  C1553    1.0000 0.64270  0.03561  0.03322  Biso   1.000  C
  C1554    1.0000 0.64270  0.03561  0.03318  Biso   1.000  C
  C1555    1.0000 0.64270  0.03557  0.03322  Biso   1.000  C
  C1556    1.0000 0.64270  0.03557  0.03318  Biso   1.000  C
  C1557    1.0000 0.81397  0.95508  0.03632  Biso   1.000  C
  H2557    1.0000 0.76587  0.01822  0.05352  Biso   1.000  H
  H2558    1.0000 0.76587  0.01822  0.05348  Biso   1.000  H
  H2559    1.0000 0.76587  0.01818  0.05352  Biso   1.000  H
  H2560    1.0000 0.76587  0.01818  0.05348  Biso   1.000  H
  H2561    1.0000 0.47878  0.81468  0.97106  Biso   1.000  H
  C1558    1.0000 0.53320  0.85732  0.96435  Biso   1.000  C
  C1559    1.0000 0.53320  0.85732  0.96439  Biso   1.000  C
  C1560    1.0000 0.53320  0.85728  0.96435  Biso   1.000  C
  C1561    1.0000 0.53320  0.85728  0.96439  Biso   1.000  C
  C1562    1.0000 0.46680  0.85732  0.03561  Biso   1.000  C
  C1563    1.0000 0.46680  0.85732  0.03557  Biso   1.000  C
  C1564    1.0000 0.46680  0.85728  0.03561  Biso   1.000  C
  C1565    1.0000 0.46680  0.85728  0.03557  Biso   1.000  C
  C1566    1.0000 0.47222  0.73474  0.98854  Biso   1.000  C
  C1567    1.0000 0.47222  0.73474  0.98850  Biso   1.000  C
  H2562    1.0000 0.55350  0.73411  0.98178  Biso   1.000  H
  H2563    1.0000 0.55350  0.73407  0.98178  Biso   1.000  H
  C1568    1.0000 0.53630  0.68601  0.04492  Biso   1.000  C
  C1569    1.0000 0.53630  0.68601  0.04488  Biso   1.000  C
  H2564    1.0000 0.51498  0.95088  0.88570  Biso   1.000  H
  H2565    1.0000 0.56319  0.98901  0.87251  Biso   1.000  H
  H2566    1.0000 0.51498  0.95088  0.88566  Biso   1.000  H
  H2567    1.0000 0.56319  0.98901  0.87247  Biso   1.000  H
  H2568    1.0000 0.56319  0.98897  0.87251  Biso   1.000  H
  H2569    1.0000 0.56319  0.98897  0.87247  Biso   1.000  H
  H2570    1.0000 0.55169  0.93898  0.83608  Biso   1.000  H
  H2571    1.0000 0.48498  0.04912  0.88570  Biso   1.000  H
  H2572    1.0000 0.43681  0.01099  0.87251  Biso   1.000  H
  H2573    1.0000 0.48498  0.04912  0.88566  Biso   1.000  H
  H2574    1.0000 0.43681  0.01099  0.87247  Biso   1.000  H
  H2575    1.0000 0.48498  0.04908  0.88570  Biso   1.000  H
  H2576    1.0000 0.48498  0.04908  0.88566  Biso   1.000  H
  H2577    1.0000 0.44831  0.06098  0.83608  Biso   1.000  H
  C1570    1.0000 0.45510  0.96368  0.68601  Biso   1.000  C
  H2578    1.0000 0.51820  0.94644  0.73411  Biso   1.000  H
  H2579    1.0000 0.51820  0.94644  0.73407  Biso   1.000  H
  C1571    1.0000 0.45510  0.96364  0.68601  Biso   1.000  C
  H2580    1.0000 0.51820  0.94648  0.73411  Biso   1.000  H
  H2581    1.0000 0.51820  0.94648  0.73407  Biso   1.000  H
  C1572    1.0000 0.51239  0.02729  0.63619  Biso   1.000  C
  C1573    1.0000 0.51239  0.02725  0.63619  Biso   1.000  C
  H2582    1.0000 0.57509  0.01182  0.68648  Biso   1.000  H
  H2583    1.0000 0.55880  0.07260  0.68601  Biso   1.000  H
  H2584    1.0000 0.55880  0.07260  0.68597  Biso   1.000  H
  H2585    1.0000 0.57509  0.01178  0.68648  Biso   1.000  H
  H2586    1.0000 0.81350  0.07511  0.98818  Biso   1.000  H
  H2587    1.0000 0.81397  0.05882  0.92736  Biso   1.000  H
  C1574    1.0000 0.86380  0.01237  0.97267  Biso   1.000  C
  C1575    1.0000 0.86380  0.01237  0.97271  Biso   1.000  C
  H2588    1.0000 0.81350  0.07507  0.98818  Biso   1.000  H
  H2589    1.0000 0.61428  0.98500  0.95088  Biso   1.000  H
  H2590    1.0000 0.62747  0.93675  0.98901  Biso   1.000  H
  H2591    1.0000 0.62747  0.93675  0.98897  Biso   1.000  H
  H2592    1.0000 0.61428  0.98496  0.95088  Biso   1.000  H
  H2593    1.0000 0.62747  0.93679  0.98901  Biso   1.000  H
  H2594    1.0000 0.62747  0.93679  0.98897  Biso   1.000  H
  H2595    1.0000 0.66391  0.94829  0.93898  Biso   1.000  H
  H2596    1.0000 0.61428  0.01500  0.04912  Biso   1.000  H
  H2597    1.0000 0.62747  0.06321  0.01099  Biso   1.000  H
  H2598    1.0000 0.61428  0.01500  0.04908  Biso   1.000  H
  H2599    1.0000 0.62747  0.06317  0.01099  Biso   1.000  H
  H2600    1.0000 0.66391  0.05171  0.06098  Biso   1.000  H
  H2601    1.0000 0.81350  0.92485  0.01182  Biso   1.000  H
  H2602    1.0000 0.81397  0.94118  0.07260  Biso   1.000  H
  C1576    1.0000 0.86380  0.98763  0.02729  Biso   1.000  C
  H2603    1.0000 0.81350  0.92485  0.01178  Biso   1.000  H
  C1577    1.0000 0.86380  0.98763  0.02725  Biso   1.000  C
  H2604    1.0000 0.81350  0.92489  0.01182  Biso   1.000  H
  C1578    1.0000 0.86380  0.98759  0.02729  Biso   1.000  C
  H2605    1.0000 0.81350  0.92489  0.01178  Biso   1.000  H
  C1579    1.0000 0.86380  0.98759  0.02725  Biso   1.000  C
  H2606    1.0000 0.54910  0.88570  0.98500  Biso   1.000  H
  H2607    1.0000 0.51097  0.87251  0.93675  Biso   1.000  H
  H2608    1.0000 0.54910  0.88570  0.98496  Biso   1.000  H
  H2609    1.0000 0.51097  0.87251  0.93679  Biso   1.000  H
  H2610    1.0000 0.54910  0.88566  0.98500  Biso   1.000  H
  H2611    1.0000 0.51097  0.87247  0.93675  Biso   1.000  H
  H2612    1.0000 0.54910  0.88566  0.98496  Biso   1.000  H
  H2613    1.0000 0.51097  0.87247  0.93679  Biso   1.000  H
  H2614    1.0000 0.56100  0.83608  0.94829  Biso   1.000  H
  H2615    1.0000 0.45090  0.88570  0.01500  Biso   1.000  H
  H2616    1.0000 0.48899  0.87251  0.06321  Biso   1.000  H
  H2617    1.0000 0.48899  0.87251  0.06317  Biso   1.000  H
  H2618    1.0000 0.45090  0.88566  0.01500  Biso   1.000  H
  H2619    1.0000 0.48899  0.87247  0.06321  Biso   1.000  H
  H2620    1.0000 0.48899  0.87247  0.06317  Biso   1.000  H
  H2621    1.0000 0.43900  0.83608  0.05171  Biso   1.000  H
  C1580    1.0000 0.46366  0.68601  0.95508  Biso   1.000  C
  H2622    1.0000 0.44650  0.73411  0.01822  Biso   1.000  H
  H2623    1.0000 0.44650  0.73411  0.01818  Biso   1.000  H
  H2624    1.0000 0.44650  0.73407  0.01822  Biso   1.000  H
  H2625    1.0000 0.44650  0.73407  0.01818  Biso   1.000  H
  C1581    1.0000 0.52727  0.63619  0.01237  Biso   1.000  C
  H2626    1.0000 0.51180  0.68648  0.07511  Biso   1.000  H
  H2627    1.0000 0.57258  0.68601  0.05882  Biso   1.000  H
  H2628    1.0000 0.51180  0.68648  0.07507  Biso   1.000  H
  H2629    1.0000 0.57258  0.68597  0.05882  Biso   1.000  H
  H2630    1.0000 0.42491  0.98818  0.68648  Biso   1.000  H
  H2631    1.0000 0.44120  0.92736  0.68601  Biso   1.000  H
  C1582    1.0000 0.48761  0.97267  0.63619  Biso   1.000  C
  H2632    1.0000 0.44120  0.92736  0.68597  Biso   1.000  H
  C1583    1.0000 0.48761  0.97271  0.63619  Biso   1.000  C
  H2633    1.0000 0.48439  0.05418  0.63403  Biso   1.000  H
  H2634    1.0000 0.53520  0.03110  0.60501  Biso   1.000  H
  H2635    1.0000 0.48439  0.05418  0.63399  Biso   1.000  H
  H2636    1.0000 0.53520  0.03110  0.60497  Biso   1.000  H
  H2637    1.0000 0.86599  0.98441  0.94578  Biso   1.000  H
  H2638    1.0000 0.86599  0.98437  0.94578  Biso   1.000  H
  H2639    1.0000 0.89497  0.03518  0.96886  Biso   1.000  H
  H2640    1.0000 0.89497  0.96482  0.03110  Biso   1.000  H
  H2641    1.0000 0.89497  0.96478  0.03110  Biso   1.000  H
  H2642    1.0000 0.86599  0.01559  0.05418  Biso   1.000  H
  H2643    1.0000 0.48820  0.68648  0.92485  Biso   1.000  H
  H2644    1.0000 0.42738  0.68601  0.94118  Biso   1.000  H
  C1584    1.0000 0.47273  0.63619  0.98763  Biso   1.000  C
  H2645    1.0000 0.48820  0.68648  0.92489  Biso   1.000  H
  C1585    1.0000 0.47273  0.63619  0.98759  Biso   1.000  C
  H2646    1.0000 0.42738  0.68597  0.94118  Biso   1.000  H
  H2647    1.0000 0.55420  0.63403  0.98441  Biso   1.000  H
  H2648    1.0000 0.55420  0.63403  0.98437  Biso   1.000  H
  H2649    1.0000 0.55420  0.63399  0.98441  Biso   1.000  H
  H2650    1.0000 0.55420  0.63399  0.98437  Biso   1.000  H
  H2651    1.0000 0.53108  0.60501  0.03518  Biso   1.000  H
  H2652    1.0000 0.53108  0.60497  0.03518  Biso   1.000  H
  H2653    1.0000 0.51561  0.94578  0.63403  Biso   1.000  H
  H2654    1.0000 0.46480  0.96886  0.60501  Biso   1.000  H
  H2655    1.0000 0.51561  0.94578  0.63399  Biso   1.000  H
  H2656    1.0000 0.46480  0.96886  0.60497  Biso   1.000  H
  H2657    1.0000 0.46888  0.60501  0.96482  Biso   1.000  H
  H2658    1.0000 0.46888  0.60501  0.96478  Biso   1.000  H
  H2659    1.0000 0.46888  0.60497  0.96482  Biso   1.000  H
  H2660    1.0000 0.46888  0.60497  0.96478  Biso   1.000  H
  H2661    1.0000 0.44580  0.63403  0.01559  Biso   1.000  H
  H2662    1.0000 0.44580  0.63399  0.01559  Biso   1.000  H
  C1586    1.0000 0.14202  0.12266  0.43205  Biso   1.000  C
  C1587    1.0000 0.15407  0.07982  0.40112  Biso   1.000  C
  H2663    1.0000 0.16330  0.13079  0.46158  Biso   1.000  H
  C1588    1.0000 0.09887  0.15407  0.42020  Biso   1.000  C
  C1589    1.0000 0.15407  0.07978  0.40112  Biso   1.000  C
  C1590    1.0000 0.20248  0.04645  0.41109  Biso   1.000  C
  C1591    1.0000 0.12266  0.06793  0.35796  Biso   1.000  C
  C1592    1.0000 0.14198  0.12266  0.43205  Biso   1.000  C
  C1593    1.0000 0.20244  0.04645  0.41109  Biso   1.000  C
  C1594    1.0000 0.06793  0.14202  0.37732  Biso   1.000  C
  C1595    1.0000 0.08893  0.20248  0.45353  Biso   1.000  C
  C1596    1.0000 0.06793  0.14198  0.37732  Biso   1.000  C
  C1597    1.0000 0.08893  0.20244  0.45353  Biso   1.000  C
  C1598    1.0000 0.08889  0.20248  0.45353  Biso   1.000  C
  C1599    1.0000 0.08889  0.20244  0.45353  Biso   1.000  C
  H2664    1.0000 0.19691  0.01150  0.39511  Biso   1.000  H
  H2665    1.0000 0.23271  0.06290  0.39311  Biso   1.000  H
  N202     1.0000 0.21575  0.03938  0.46633  Biso   1.000  N
  H2666    1.0000 0.19691  0.01146  0.39511  Biso   1.000  H
  H2667    1.0000 0.23271  0.06286  0.39311  Biso   1.000  H
  H2668    1.0000 0.19687  0.01150  0.39511  Biso   1.000  H
  H2669    1.0000 0.23268  0.06290  0.39311  Biso   1.000  H
  N203     1.0000 0.21571  0.03938  0.46633  Biso   1.000  N
  H2670    1.0000 0.19687  0.01146  0.39511  Biso   1.000  H
  H2671    1.0000 0.23268  0.06286  0.39311  Biso   1.000  H
  H2672    1.0000 0.13079  0.03840  0.33668  Biso   1.000  H
  C1600    1.0000 0.07982  0.09887  0.34591  Biso   1.000  C
  H2673    1.0000 0.13079  0.03836  0.33668  Biso   1.000  H
  C1601    1.0000 0.07978  0.09887  0.34591  Biso   1.000  C
  H2674    1.0000 0.03840  0.16330  0.36919  Biso   1.000  H
  H2675    1.0000 0.03836  0.16330  0.36919  Biso   1.000  H
  H2676    1.0000 0.10491  0.19691  0.48848  Biso   1.000  H
  H2677    1.0000 0.10691  0.23271  0.43708  Biso   1.000  H
  N204     1.0000 0.03365  0.21575  0.46060  Biso   1.000  N
  H2678    1.0000 0.10491  0.19687  0.48848  Biso   1.000  H
  H2679    1.0000 0.10691  0.23268  0.43708  Biso   1.000  H
  N205     1.0000 0.03365  0.21571  0.46060  Biso   1.000  N
  H2680    1.0000 0.10487  0.19691  0.48848  Biso   1.000  H
  H2681    1.0000 0.10688  0.23271  0.43708  Biso   1.000  H
  H2682    1.0000 0.10487  0.19687  0.48848  Biso   1.000  H
  H2683    1.0000 0.10688  0.23268  0.43708  Biso   1.000  H
  C1602    1.0000 0.26522  0.01146  0.47222  Biso   1.000  C
  C1603    1.0000 0.17708  0.00000  0.49998  Biso   1.000  C
  H2684    1.0000 0.18528  0.02890  0.47878  Biso   1.000  H
  C1604    1.0000 0.04645  0.08893  0.29754  Biso   1.000  C
  C1605    1.0000 0.04645  0.08889  0.29754  Biso   1.000  C
  C1606    1.0000 0.02776  0.26522  0.48852  Biso   1.000  C
  C1607    1.0000 0.00000  0.17708  0.49998  Biso   1.000  C
  H2685    1.0000 0.02120  0.18528  0.47108  Biso   1.000  H
  C1608    1.0000 0.31399  0.04492  0.46366  Biso   1.000  C
  C1609    1.0000 0.31399  0.04488  0.46366  Biso   1.000  C
  C1610    1.0000 0.31395  0.04492  0.46366  Biso   1.000  C
  C1611    1.0000 0.31395  0.04488  0.46366  Biso   1.000  C
  H2686    1.0000 0.26589  0.98178  0.44650  Biso   1.000  H
  C1612    1.0000 0.26522  0.98854  0.52778  Biso   1.000  C
  C1613    1.0000 0.26522  0.98850  0.52778  Biso   1.000  C
  C1614    1.0000 0.14268  0.03561  0.53320  Biso   1.000  C
  C1615    1.0000 0.14268  0.03557  0.53320  Biso   1.000  C
  N206     1.0000 0.21575  0.96062  0.53367  Biso   1.000  N
  C1616    1.0000 0.14268  0.96435  0.46680  Biso   1.000  C
  N207     1.0000 0.21575  0.96058  0.53367  Biso   1.000  N
  C1617    1.0000 0.14268  0.96439  0.46680  Biso   1.000  C
  N208     1.0000 0.21571  0.96062  0.53367  Biso   1.000  N
  N209     1.0000 0.21571  0.96058  0.53367  Biso   1.000  N
  H2687    1.0000 0.18528  0.97106  0.52118  Biso   1.000  H
  H2688    1.0000 0.01150  0.10491  0.30311  Biso   1.000  H
  H2689    1.0000 0.06290  0.10691  0.26731  Biso   1.000  H
  N210     1.0000 0.03938  0.03365  0.28427  Biso   1.000  N
  H2690    1.0000 0.01150  0.10487  0.30311  Biso   1.000  H
  H2691    1.0000 0.06290  0.10688  0.26731  Biso   1.000  H
  H2692    1.0000 0.01146  0.10491  0.30311  Biso   1.000  H
  H2693    1.0000 0.06286  0.10691  0.26731  Biso   1.000  H
  H2694    1.0000 0.01146  0.10487  0.30311  Biso   1.000  H
  H2695    1.0000 0.06286  0.10688  0.26731  Biso   1.000  H
  C1618    1.0000 0.03632  0.31399  0.45510  Biso   1.000  C
  H2696    1.0000 0.05352  0.26589  0.51820  Biso   1.000  H
  C1619    1.0000 0.03632  0.31395  0.45510  Biso   1.000  C
  H2697    1.0000 0.05348  0.26589  0.51820  Biso   1.000  H
  C1620    1.0000 0.97220  0.26522  0.51145  Biso   1.000  C
  C1621    1.0000 0.03322  0.14268  0.53559  Biso   1.000  C
  C1622    1.0000 0.03318  0.14268  0.53559  Biso   1.000  C
  C1623    1.0000 0.96678  0.14268  0.46441  Biso   1.000  C
  N211     1.0000 0.96631  0.21575  0.53940  Biso   1.000  N
  N212     1.0000 0.96631  0.21571  0.53940  Biso   1.000  N
  H2698    1.0000 0.97880  0.18528  0.52888  Biso   1.000  H
  H2699    1.0000 0.31348  0.07511  0.48820  Biso   1.000  H
  H2700    1.0000 0.31399  0.05882  0.42738  Biso   1.000  H
  C1624    1.0000 0.36378  0.01237  0.47273  Biso   1.000  C
  H2701    1.0000 0.31348  0.07507  0.48820  Biso   1.000  H
  H2702    1.0000 0.26589  0.01822  0.55350  Biso   1.000  H
  H2703    1.0000 0.26589  0.01818  0.55350  Biso   1.000  H
  C1625    1.0000 0.31399  0.95508  0.53630  Biso   1.000  C
  C1626    1.0000 0.31395  0.95508  0.53630  Biso   1.000  C
  H2704    1.0000 0.11430  0.01500  0.54910  Biso   1.000  H
  H2705    1.0000 0.12749  0.06321  0.51097  Biso   1.000  H
  H2706    1.0000 0.12749  0.06317  0.51097  Biso   1.000  H
  H2707    1.0000 0.16389  0.05171  0.56100  Biso   1.000  H
  C1627    1.0000 0.20248  0.95351  0.58891  Biso   1.000  C
  C1628    1.0000 0.20244  0.95351  0.58891  Biso   1.000  C
  H2708    1.0000 0.11430  0.98500  0.45090  Biso   1.000  H
  H2709    1.0000 0.12749  0.93675  0.48899  Biso   1.000  H
  H2710    1.0000 0.11430  0.98496  0.45090  Biso   1.000  H
  H2711    1.0000 0.12749  0.93679  0.48899  Biso   1.000  H
  H2712    1.0000 0.16389  0.94829  0.43900  Biso   1.000  H
  C1629    1.0000 0.01146  0.02776  0.23476  Biso   1.000  C
  C1630    1.0000 0.00000  0.00000  0.32290  Biso   1.000  C
  H2713    1.0000 0.02890  0.02120  0.31470  Biso   1.000  H
  H2714    1.0000 0.01182  0.31348  0.42491  Biso   1.000  H
  H2715    1.0000 0.07260  0.31399  0.44120  Biso   1.000  H
  C1631    1.0000 0.02729  0.36378  0.48761  Biso   1.000  C
  H2716    1.0000 0.01178  0.31348  0.42491  Biso   1.000  H
  C1632    1.0000 0.02725  0.36378  0.48761  Biso   1.000  C
  C1633    1.0000 0.96368  0.31399  0.54490  Biso   1.000  C
  H2717    1.0000 0.94644  0.26589  0.48180  Biso   1.000  H
  C1634    1.0000 0.96368  0.31395  0.54490  Biso   1.000  C
  C1635    1.0000 0.96364  0.31399  0.54490  Biso   1.000  C
  H2718    1.0000 0.94648  0.26589  0.48180  Biso   1.000  H
  C1636    1.0000 0.96364  0.31395  0.54490  Biso   1.000  C
  H2719    1.0000 0.04912  0.11430  0.51498  Biso   1.000  H
  H2720    1.0000 0.01099  0.12749  0.56319  Biso   1.000  H
  H2721    1.0000 0.04908  0.11430  0.51498  Biso   1.000  H
  H2722    1.0000 0.06098  0.16389  0.55169  Biso   1.000  H
  H2723    1.0000 0.95088  0.11430  0.48498  Biso   1.000  H
  H2724    1.0000 0.98901  0.12749  0.43681  Biso   1.000  H
  H2725    1.0000 0.98897  0.12749  0.43681  Biso   1.000  H
  H2726    1.0000 0.93898  0.16389  0.44831  Biso   1.000  H
  C1637    1.0000 0.91107  0.20248  0.54647  Biso   1.000  C
  C1638    1.0000 0.91107  0.20244  0.54647  Biso   1.000  C
  H2727    1.0000 0.39499  0.03518  0.46888  Biso   1.000  H
  H2728    1.0000 0.39503  0.03518  0.46888  Biso   1.000  H
  H2729    1.0000 0.36597  0.98441  0.44580  Biso   1.000  H
  C1639    1.0000 0.36378  0.98763  0.52727  Biso   1.000  C
  H2730    1.0000 0.36597  0.98437  0.44580  Biso   1.000  H
  C1640    1.0000 0.36378  0.98759  0.52727  Biso   1.000  C
  H2731    1.0000 0.31348  0.92485  0.51180  Biso   1.000  H
  H2732    1.0000 0.31399  0.94118  0.57258  Biso   1.000  H
  H2733    1.0000 0.31348  0.92489  0.51180  Biso   1.000  H
  C1641    1.0000 0.15407  0.92018  0.59888  Biso   1.000  C
  H2734    1.0000 0.19691  0.98850  0.60489  Biso   1.000  H
  H2735    1.0000 0.23271  0.93706  0.60689  Biso   1.000  H
  H2736    1.0000 0.23271  0.93710  0.60689  Biso   1.000  H
  H2737    1.0000 0.19687  0.98850  0.60489  Biso   1.000  H
  H2738    1.0000 0.23268  0.93706  0.60689  Biso   1.000  H
  H2739    1.0000 0.23268  0.93710  0.60689  Biso   1.000  H
  C1642    1.0000 0.04492  0.03632  0.18599  Biso   1.000  C
  C1643    1.0000 0.04488  0.03632  0.18599  Biso   1.000  C
  C1644    1.0000 0.98854  0.97220  0.23476  Biso   1.000  C
  C1645    1.0000 0.98850  0.97220  0.23476  Biso   1.000  C
  H2740    1.0000 0.98178  0.05352  0.23409  Biso   1.000  H
  H2741    1.0000 0.98178  0.05348  0.23409  Biso   1.000  H
  N213     1.0000 0.96062  0.96631  0.28427  Biso   1.000  N
  N214     1.0000 0.96058  0.96631  0.28427  Biso   1.000  N
  H2742    1.0000 0.97106  0.97880  0.31470  Biso   1.000  H
  C1646    1.0000 0.96435  0.03322  0.35730  Biso   1.000  C
  C1647    1.0000 0.96435  0.03318  0.35730  Biso   1.000  C
  C1648    1.0000 0.96439  0.03322  0.35730  Biso   1.000  C
  C1649    1.0000 0.96439  0.03318  0.35730  Biso   1.000  C
  C1650    1.0000 0.03561  0.96678  0.35730  Biso   1.000  C
  C1651    1.0000 0.03557  0.96678  0.35730  Biso   1.000  C
  H2743    1.0000 0.05418  0.36597  0.51561  Biso   1.000  H
  H2744    1.0000 0.03110  0.39499  0.46480  Biso   1.000  H
  H2745    1.0000 0.03110  0.39503  0.46480  Biso   1.000  H
  C1652    1.0000 0.97267  0.36378  0.51239  Biso   1.000  C
  C1653    1.0000 0.97271  0.36378  0.51239  Biso   1.000  C
  H2746    1.0000 0.98818  0.31348  0.57509  Biso   1.000  H
  H2747    1.0000 0.92736  0.31399  0.55880  Biso   1.000  H
  C1654    1.0000 0.90110  0.15407  0.57980  Biso   1.000  C
  H2748    1.0000 0.89509  0.19691  0.51148  Biso   1.000  H
  H2749    1.0000 0.89305  0.23271  0.56288  Biso   1.000  H
  H2750    1.0000 0.89509  0.19687  0.51148  Biso   1.000  H
  H2751    1.0000 0.89305  0.23268  0.56288  Biso   1.000  H
  H2752    1.0000 0.89309  0.23271  0.56288  Biso   1.000  H
  H2753    1.0000 0.89309  0.23268  0.56288  Biso   1.000  H
  H2754    1.0000 0.36597  0.01559  0.55420  Biso   1.000  H
  H2755    1.0000 0.39499  0.96482  0.53108  Biso   1.000  H
  H2756    1.0000 0.39499  0.96478  0.53108  Biso   1.000  H
  H2757    1.0000 0.39503  0.96482  0.53108  Biso   1.000  H
  H2758    1.0000 0.39503  0.96478  0.53108  Biso   1.000  H
  C1655    1.0000 0.14202  0.87734  0.56795  Biso   1.000  C
  C1656    1.0000 0.12266  0.93204  0.64200  Biso   1.000  C
  C1657    1.0000 0.14202  0.87730  0.56795  Biso   1.000  C
  C1658    1.0000 0.14198  0.87734  0.56795  Biso   1.000  C
  C1659    1.0000 0.14198  0.87730  0.56795  Biso   1.000  C
  H2759    1.0000 0.07511  0.01182  0.18650  Biso   1.000  H
  H2760    1.0000 0.05882  0.07260  0.18599  Biso   1.000  H
  C1660    1.0000 0.01237  0.02729  0.13620  Biso   1.000  C
  H2761    1.0000 0.07511  0.01178  0.18650  Biso   1.000  H
  C1661    1.0000 0.01237  0.02725  0.13620  Biso   1.000  C
  H2762    1.0000 0.07507  0.01182  0.18650  Biso   1.000  H
  H2763    1.0000 0.07507  0.01178  0.18650  Biso   1.000  H
  C1662    1.0000 0.95508  0.96368  0.18599  Biso   1.000  C
  C1663    1.0000 0.95508  0.96364  0.18599  Biso   1.000  C
  H2764    1.0000 0.01822  0.94644  0.23409  Biso   1.000  H
  H2765    1.0000 0.01822  0.94648  0.23409  Biso   1.000  H
  H2766    1.0000 0.01818  0.94644  0.23409  Biso   1.000  H
  H2767    1.0000 0.01818  0.94648  0.23409  Biso   1.000  H
  C1664    1.0000 0.95351  0.91107  0.29754  Biso   1.000  C
  H2768    1.0000 0.98500  0.04912  0.38568  Biso   1.000  H
  H2769    1.0000 0.93675  0.01099  0.37249  Biso   1.000  H
  H2770    1.0000 0.98500  0.04908  0.38568  Biso   1.000  H
  H2771    1.0000 0.98496  0.04912  0.38568  Biso   1.000  H
  H2772    1.0000 0.93679  0.01099  0.37249  Biso   1.000  H
  H2773    1.0000 0.98496  0.04908  0.38568  Biso   1.000  H
  H2774    1.0000 0.94829  0.06098  0.33609  Biso   1.000  H
  H2775    1.0000 0.01500  0.95088  0.38568  Biso   1.000  H
  H2776    1.0000 0.06321  0.98901  0.37249  Biso   1.000  H
  H2777    1.0000 0.06321  0.98897  0.37249  Biso   1.000  H
  H2778    1.0000 0.06317  0.98901  0.37249  Biso   1.000  H
  H2779    1.0000 0.06317  0.98897  0.37249  Biso   1.000  H
  H2780    1.0000 0.05171  0.93898  0.33609  Biso   1.000  H
  H2781    1.0000 0.94578  0.36597  0.48439  Biso   1.000  H
  H2782    1.0000 0.96886  0.39499  0.53520  Biso   1.000  H
  H2783    1.0000 0.96886  0.39503  0.53520  Biso   1.000  H
  C1665    1.0000 0.93204  0.14202  0.62264  Biso   1.000  C
  C1666    1.0000 0.85794  0.12266  0.56795  Biso   1.000  C
  C1667    1.0000 0.93204  0.14198  0.62264  Biso   1.000  C
  C1668    1.0000 0.85798  0.12266  0.56795  Biso   1.000  C
  H2784    1.0000 0.16330  0.86921  0.53838  Biso   1.000  H
  C1669    1.0000 0.09887  0.84589  0.57980  Biso   1.000  C
  H2785    1.0000 0.16330  0.86917  0.53838  Biso   1.000  H
  H2786    1.0000 0.13079  0.96160  0.66328  Biso   1.000  H
  C1670    1.0000 0.07982  0.90110  0.65405  Biso   1.000  C
  C1671    1.0000 0.07978  0.90110  0.65405  Biso   1.000  C
  H2787    1.0000 0.03518  0.03110  0.10499  Biso   1.000  H
  C1672    1.0000 0.98763  0.97267  0.13620  Biso   1.000  C
  C1673    1.0000 0.98763  0.97271  0.13620  Biso   1.000  C
  C1674    1.0000 0.98759  0.97267  0.13620  Biso   1.000  C
  C1675    1.0000 0.98759  0.97271  0.13620  Biso   1.000  C
  H2788    1.0000 0.98441  0.05418  0.13401  Biso   1.000  H
  H2789    1.0000 0.98437  0.05418  0.13401  Biso   1.000  H
  H2790    1.0000 0.92485  0.98818  0.18650  Biso   1.000  H
  H2791    1.0000 0.94118  0.92736  0.18599  Biso   1.000  H
  H2792    1.0000 0.92489  0.98818  0.18650  Biso   1.000  H
  C1676    1.0000 0.92018  0.90110  0.34591  Biso   1.000  C
  H2793    1.0000 0.98850  0.89509  0.30311  Biso   1.000  H
  H2794    1.0000 0.93706  0.89305  0.26731  Biso   1.000  H
  H2795    1.0000 0.93706  0.89309  0.26731  Biso   1.000  H
  H2796    1.0000 0.93710  0.89305  0.26731  Biso   1.000  H
  H2797    1.0000 0.93710  0.89309  0.26731  Biso   1.000  H
  H2798    1.0000 0.96160  0.16330  0.63081  Biso   1.000  H
  C1677    1.0000 0.92018  0.09887  0.65405  Biso   1.000  C
  H2799    1.0000 0.83666  0.13079  0.53838  Biso   1.000  H
  C1678    1.0000 0.84589  0.07982  0.59888  Biso   1.000  C
  C1679    1.0000 0.84589  0.07978  0.59888  Biso   1.000  C
  C1680    1.0000 0.06793  0.85794  0.62264  Biso   1.000  C
  C1681    1.0000 0.08893  0.79752  0.54647  Biso   1.000  C
  C1682    1.0000 0.06793  0.85798  0.62264  Biso   1.000  C
  C1683    1.0000 0.08889  0.79752  0.54647  Biso   1.000  C
  C1684    1.0000 0.04645  0.91107  0.70246  Biso   1.000  C
  H2800    1.0000 0.96482  0.96886  0.10499  Biso   1.000  H
  H2801    1.0000 0.96478  0.96886  0.10499  Biso   1.000  H
  H2802    1.0000 0.01559  0.94578  0.13401  Biso   1.000  H
  C1685    1.0000 0.87734  0.93204  0.35796  Biso   1.000  C
  C1686    1.0000 0.93204  0.85794  0.37732  Biso   1.000  C
  C1687    1.0000 0.93204  0.85798  0.37732  Biso   1.000  C
  C1688    1.0000 0.87730  0.93204  0.35796  Biso   1.000  C
  C1689    1.0000 0.87734  0.06793  0.64200  Biso   1.000  C
  C1690    1.0000 0.95351  0.08893  0.70246  Biso   1.000  C
  C1691    1.0000 0.95351  0.08889  0.70246  Biso   1.000  C
  C1692    1.0000 0.87730  0.06793  0.64200  Biso   1.000  C
  C1693    1.0000 0.79752  0.04645  0.58891  Biso   1.000  C
  H2803    1.0000 0.03840  0.83666  0.63081  Biso   1.000  H
  H2804    1.0000 0.03836  0.83666  0.63081  Biso   1.000  H
  H2805    1.0000 0.10491  0.80309  0.51148  Biso   1.000  H
  H2806    1.0000 0.10691  0.76725  0.56288  Biso   1.000  H
  N215     1.0000 0.03365  0.78425  0.53940  Biso   1.000  N
  H2807    1.0000 0.10691  0.76729  0.56288  Biso   1.000  H
  H2808    1.0000 0.10487  0.80309  0.51148  Biso   1.000  H
  H2809    1.0000 0.10688  0.76725  0.56288  Biso   1.000  H
  H2810    1.0000 0.10688  0.76729  0.56288  Biso   1.000  H
  H2811    1.0000 0.01150  0.89509  0.69689  Biso   1.000  H
  H2812    1.0000 0.06290  0.89305  0.73269  Biso   1.000  H
  N216     1.0000 0.03938  0.96631  0.71573  Biso   1.000  N
  H2813    1.0000 0.06290  0.89309  0.73269  Biso   1.000  H
  H2814    1.0000 0.01146  0.89509  0.69689  Biso   1.000  H
  H2815    1.0000 0.06286  0.89305  0.73269  Biso   1.000  H
  H2816    1.0000 0.06286  0.89309  0.73269  Biso   1.000  H
  C1694    1.0000 0.84589  0.92018  0.40112  Biso   1.000  C
  H2817    1.0000 0.86921  0.96160  0.33668  Biso   1.000  H
  H2818    1.0000 0.86917  0.96160  0.33668  Biso   1.000  H
  H2819    1.0000 0.96160  0.83666  0.36919  Biso   1.000  H
  C1695    1.0000 0.90110  0.84589  0.42020  Biso   1.000  C
  H2820    1.0000 0.86921  0.03840  0.66328  Biso   1.000  H
  H2821    1.0000 0.86921  0.03836  0.66328  Biso   1.000  H
  H2822    1.0000 0.86917  0.03840  0.66328  Biso   1.000  H
  H2823    1.0000 0.86917  0.03836  0.66328  Biso   1.000  H
  H2824    1.0000 0.98850  0.10491  0.69689  Biso   1.000  H
  H2825    1.0000 0.93706  0.10691  0.73269  Biso   1.000  H
  N217     1.0000 0.96062  0.03365  0.71573  Biso   1.000  N
  H2826    1.0000 0.98850  0.10487  0.69689  Biso   1.000  H
  H2827    1.0000 0.93706  0.10688  0.73269  Biso   1.000  H
  H2828    1.0000 0.93710  0.10691  0.73269  Biso   1.000  H
  N218     1.0000 0.96058  0.03365  0.71573  Biso   1.000  N
  H2829    1.0000 0.93710  0.10688  0.73269  Biso   1.000  H
  H2830    1.0000 0.80309  0.01150  0.60489  Biso   1.000  H
  H2831    1.0000 0.76725  0.06290  0.60689  Biso   1.000  H
  N219     1.0000 0.78425  0.03938  0.53367  Biso   1.000  N
  H2832    1.0000 0.80309  0.01146  0.60489  Biso   1.000  H
  H2833    1.0000 0.76725  0.06286  0.60689  Biso   1.000  H
  H2834    1.0000 0.76729  0.06290  0.60689  Biso   1.000  H
  H2835    1.0000 0.76729  0.06286  0.60689  Biso   1.000  H
  C1696    1.0000 0.02776  0.73474  0.51145  Biso   1.000  C
  C1697    1.0000 0.00000  0.82292  0.49998  Biso   1.000  C
  C1698    1.0000 0.00000  0.82288  0.49998  Biso   1.000  C
  H2836    1.0000 0.02120  0.81468  0.52888  Biso   1.000  H
  C1699    1.0000 0.00000  0.00000  0.67710  Biso   1.000  C
  C1700    1.0000 0.01146  0.97220  0.76520  Biso   1.000  C
  H2837    1.0000 0.02890  0.97880  0.68530  Biso   1.000  H
  C1701    1.0000 0.85794  0.87734  0.43205  Biso   1.000  C
  C1702    1.0000 0.79752  0.95351  0.41109  Biso   1.000  C
  C1703    1.0000 0.85794  0.87730  0.43205  Biso   1.000  C
  C1704    1.0000 0.85798  0.87734  0.43205  Biso   1.000  C
  C1705    1.0000 0.85798  0.87730  0.43205  Biso   1.000  C
  C1706    1.0000 0.91107  0.79752  0.45353  Biso   1.000  C
  H2838    1.0000 0.97106  0.02120  0.68530  Biso   1.000  H
  C1707    1.0000 0.98854  0.02776  0.76520  Biso   1.000  C
  C1708    1.0000 0.98850  0.02776  0.76520  Biso   1.000  C
  C1709    1.0000 0.73474  0.01146  0.52778  Biso   1.000  C
  C1710    1.0000 0.82292  0.00000  0.49998  Biso   1.000  C
  C1711    1.0000 0.82288  0.00000  0.49998  Biso   1.000  C
  H2839    1.0000 0.81468  0.02890  0.52118  Biso   1.000  H
  C1712    1.0000 0.97220  0.73474  0.48852  Biso   1.000  C
  C1713    1.0000 0.03632  0.68601  0.54490  Biso   1.000  C
  H2840    1.0000 0.05352  0.73411  0.48180  Biso   1.000  H
  H2841    1.0000 0.05352  0.73407  0.48180  Biso   1.000  H
  H2842    1.0000 0.05348  0.73411  0.48180  Biso   1.000  H
  H2843    1.0000 0.05348  0.73407  0.48180  Biso   1.000  H
  C1714    1.0000 0.96678  0.85732  0.53559  Biso   1.000  C
  N220     1.0000 0.96631  0.78425  0.46060  Biso   1.000  N
  C1715    1.0000 0.96678  0.85728  0.53559  Biso   1.000  C
  H2844    1.0000 0.97880  0.81468  0.47108  Biso   1.000  H
  C1716    1.0000 0.03322  0.85732  0.46441  Biso   1.000  C
  C1717    1.0000 0.03322  0.85728  0.46441  Biso   1.000  C
  C1718    1.0000 0.03318  0.85732  0.46441  Biso   1.000  C
  C1719    1.0000 0.03318  0.85728  0.46441  Biso   1.000  C
  C1720    1.0000 0.03561  0.03322  0.64270  Biso   1.000  C
  C1721    1.0000 0.03561  0.03318  0.64270  Biso   1.000  C
  C1722    1.0000 0.03557  0.03322  0.64270  Biso   1.000  C
  C1723    1.0000 0.03557  0.03318  0.64270  Biso   1.000  C
  C1724    1.0000 0.96435  0.96678  0.64270  Biso   1.000  C
  C1725    1.0000 0.96439  0.96678  0.64270  Biso   1.000  C
  H2845    1.0000 0.98178  0.94644  0.76587  Biso   1.000  H
  H2846    1.0000 0.98178  0.94648  0.76587  Biso   1.000  H
  C1726    1.0000 0.04492  0.96368  0.81397  Biso   1.000  C
  C1727    1.0000 0.04492  0.96364  0.81397  Biso   1.000  C
  C1728    1.0000 0.04488  0.96368  0.81397  Biso   1.000  C
  C1729    1.0000 0.04488  0.96364  0.81397  Biso   1.000  C
  H2847    1.0000 0.83666  0.86921  0.46158  Biso   1.000  H
  H2848    1.0000 0.83666  0.86917  0.46158  Biso   1.000  H
  H2849    1.0000 0.80309  0.98850  0.39511  Biso   1.000  H
  H2850    1.0000 0.76725  0.93706  0.39311  Biso   1.000  H
  N221     1.0000 0.78425  0.96062  0.46633  Biso   1.000  N
  H2851    1.0000 0.76725  0.93710  0.39311  Biso   1.000  H
  N222     1.0000 0.78425  0.96058  0.46633  Biso   1.000  N
  H2852    1.0000 0.76729  0.93706  0.39311  Biso   1.000  H
  H2853    1.0000 0.76729  0.93710  0.39311  Biso   1.000  H
  H2854    1.0000 0.89509  0.80309  0.48848  Biso   1.000  H
  H2855    1.0000 0.89305  0.76725  0.43708  Biso   1.000  H
  H2856    1.0000 0.89305  0.76729  0.43708  Biso   1.000  H
  H2857    1.0000 0.89309  0.76725  0.43708  Biso   1.000  H
  H2858    1.0000 0.89309  0.76729  0.43708  Biso   1.000  H
  H2859    1.0000 0.01822  0.05352  0.76587  Biso   1.000  H
  H2860    1.0000 0.01822  0.05348  0.76587  Biso   1.000  H
  H2861    1.0000 0.01818  0.05352  0.76587  Biso   1.000  H
  H2862    1.0000 0.01818  0.05348  0.76587  Biso   1.000  H
  C1730    1.0000 0.95508  0.03632  0.81397  Biso   1.000  C
  C1731    1.0000 0.73474  0.98854  0.47222  Biso   1.000  C
  C1732    1.0000 0.73474  0.98850  0.47222  Biso   1.000  C
  H2863    1.0000 0.73411  0.98178  0.55350  Biso   1.000  H
  H2864    1.0000 0.73407  0.98178  0.55350  Biso   1.000  H
  C1733    1.0000 0.68601  0.04492  0.53630  Biso   1.000  C
  C1734    1.0000 0.68601  0.04488  0.53630  Biso   1.000  C
  H2865    1.0000 0.81468  0.97106  0.47878  Biso   1.000  H
  C1735    1.0000 0.85732  0.96435  0.53320  Biso   1.000  C
  C1736    1.0000 0.85732  0.96439  0.53320  Biso   1.000  C
  C1737    1.0000 0.85728  0.96435  0.53320  Biso   1.000  C
  C1738    1.0000 0.85728  0.96439  0.53320  Biso   1.000  C
  C1739    1.0000 0.85732  0.03561  0.46680  Biso   1.000  C
  C1740    1.0000 0.85732  0.03557  0.46680  Biso   1.000  C
  C1741    1.0000 0.85728  0.03561  0.46680  Biso   1.000  C
  C1742    1.0000 0.85728  0.03557  0.46680  Biso   1.000  C
  C1743    1.0000 0.96368  0.68601  0.45510  Biso   1.000  C
  H2866    1.0000 0.94644  0.73411  0.51820  Biso   1.000  H
  H2867    1.0000 0.94644  0.73407  0.51820  Biso   1.000  H
  C1744    1.0000 0.96364  0.68601  0.45510  Biso   1.000  C
  H2868    1.0000 0.94648  0.73411  0.51820  Biso   1.000  H
  H2869    1.0000 0.94648  0.73407  0.51820  Biso   1.000  H
  H2870    1.0000 0.01182  0.68648  0.57509  Biso   1.000  H
  H2871    1.0000 0.07260  0.68601  0.55880  Biso   1.000  H
  C1745    1.0000 0.02729  0.63619  0.51239  Biso   1.000  C
  H2872    1.0000 0.07260  0.68597  0.55880  Biso   1.000  H
  H2873    1.0000 0.01178  0.68648  0.57509  Biso   1.000  H
  C1746    1.0000 0.02725  0.63619  0.51239  Biso   1.000  C
  H2874    1.0000 0.95088  0.88570  0.51498  Biso   1.000  H
  H2875    1.0000 0.98901  0.87251  0.56319  Biso   1.000  H
  H2876    1.0000 0.95088  0.88566  0.51498  Biso   1.000  H
  H2877    1.0000 0.98901  0.87247  0.56319  Biso   1.000  H
  H2878    1.0000 0.98897  0.87251  0.56319  Biso   1.000  H
  H2879    1.0000 0.98897  0.87247  0.56319  Biso   1.000  H
  H2880    1.0000 0.93898  0.83608  0.55169  Biso   1.000  H
  H2881    1.0000 0.04912  0.88570  0.48498  Biso   1.000  H
  H2882    1.0000 0.01099  0.87251  0.43681  Biso   1.000  H
  H2883    1.0000 0.04912  0.88566  0.48498  Biso   1.000  H
  H2884    1.0000 0.01099  0.87247  0.43681  Biso   1.000  H
  H2885    1.0000 0.04908  0.88570  0.48498  Biso   1.000  H
  H2886    1.0000 0.04908  0.88566  0.48498  Biso   1.000  H
  H2887    1.0000 0.06098  0.83608  0.44831  Biso   1.000  H
  H2888    1.0000 0.01500  0.04912  0.61428  Biso   1.000  H
  H2889    1.0000 0.06321  0.01099  0.62747  Biso   1.000  H
  H2890    1.0000 0.01500  0.04908  0.61428  Biso   1.000  H
  H2891    1.0000 0.06317  0.01099  0.62747  Biso   1.000  H
  H2892    1.0000 0.05171  0.06098  0.66391  Biso   1.000  H
  H2893    1.0000 0.98500  0.95088  0.61428  Biso   1.000  H
  H2894    1.0000 0.93675  0.98901  0.62747  Biso   1.000  H
  H2895    1.0000 0.93675  0.98897  0.62747  Biso   1.000  H
  H2896    1.0000 0.98496  0.95088  0.61428  Biso   1.000  H
  H2897    1.0000 0.93679  0.98901  0.62747  Biso   1.000  H
  H2898    1.0000 0.93679  0.98897  0.62747  Biso   1.000  H
  H2899    1.0000 0.94829  0.93898  0.66391  Biso   1.000  H
  H2900    1.0000 0.07511  0.98818  0.81350  Biso   1.000  H
  H2901    1.0000 0.05882  0.92736  0.81397  Biso   1.000  H
  C1747    1.0000 0.01237  0.97267  0.86380  Biso   1.000  C
  C1748    1.0000 0.01237  0.97271  0.86380  Biso   1.000  C
  H2902    1.0000 0.07507  0.98818  0.81350  Biso   1.000  H
  H2903    1.0000 0.92485  0.01182  0.81350  Biso   1.000  H
  H2904    1.0000 0.94118  0.07260  0.81397  Biso   1.000  H
  C1749    1.0000 0.98763  0.02729  0.86380  Biso   1.000  C
  H2905    1.0000 0.92485  0.01178  0.81350  Biso   1.000  H
  C1750    1.0000 0.98763  0.02725  0.86380  Biso   1.000  C
  H2906    1.0000 0.92489  0.01182  0.81350  Biso   1.000  H
  C1751    1.0000 0.98759  0.02729  0.86380  Biso   1.000  C
  H2907    1.0000 0.92489  0.01178  0.81350  Biso   1.000  H
  C1752    1.0000 0.98759  0.02725  0.86380  Biso   1.000  C
  C1753    1.0000 0.68601  0.95508  0.46366  Biso   1.000  C
  H2908    1.0000 0.73411  0.01822  0.44650  Biso   1.000  H
  H2909    1.0000 0.73411  0.01818  0.44650  Biso   1.000  H
  H2910    1.0000 0.73407  0.01822  0.44650  Biso   1.000  H
  H2911    1.0000 0.73407  0.01818  0.44650  Biso   1.000  H
  H2912    1.0000 0.68648  0.07511  0.51180  Biso   1.000  H
  H2913    1.0000 0.68601  0.05882  0.57258  Biso   1.000  H
  C1754    1.0000 0.63619  0.01237  0.52727  Biso   1.000  C
  H2914    1.0000 0.68648  0.07507  0.51180  Biso   1.000  H
  H2915    1.0000 0.68597  0.05882  0.57258  Biso   1.000  H
  H2916    1.0000 0.88570  0.98500  0.54910  Biso   1.000  H
  H2917    1.0000 0.87251  0.93675  0.51097  Biso   1.000  H
  H2918    1.0000 0.88570  0.98496  0.54910  Biso   1.000  H
  H2919    1.0000 0.87251  0.93679  0.51097  Biso   1.000  H
  H2920    1.0000 0.88566  0.98500  0.54910  Biso   1.000  H
  H2921    1.0000 0.87247  0.93675  0.51097  Biso   1.000  H
  H2922    1.0000 0.88566  0.98496  0.54910  Biso   1.000  H
  H2923    1.0000 0.87247  0.93679  0.51097  Biso   1.000  H
  H2924    1.0000 0.83608  0.94829  0.56100  Biso   1.000  H
  H2925    1.0000 0.88570  0.01500  0.45090  Biso   1.000  H
  H2926    1.0000 0.87251  0.06321  0.48899  Biso   1.000  H
  H2927    1.0000 0.87251  0.06317  0.48899  Biso   1.000  H
  H2928    1.0000 0.88566  0.01500  0.45090  Biso   1.000  H
  H2929    1.0000 0.87247  0.06321  0.48899  Biso   1.000  H
  H2930    1.0000 0.87247  0.06317  0.48899  Biso   1.000  H
  H2931    1.0000 0.83608  0.05171  0.43900  Biso   1.000  H
  H2932    1.0000 0.98818  0.68648  0.42491  Biso   1.000  H
  H2933    1.0000 0.92736  0.68601  0.44120  Biso   1.000  H
  C1755    1.0000 0.97267  0.63619  0.48761  Biso   1.000  C
  H2934    1.0000 0.92736  0.68597  0.44120  Biso   1.000  H
  C1756    1.0000 0.97271  0.63619  0.48761  Biso   1.000  C
  H2935    1.0000 0.05418  0.63403  0.48439  Biso   1.000  H
  H2936    1.0000 0.03110  0.60501  0.53520  Biso   1.000  H
  H2937    1.0000 0.05418  0.63399  0.48439  Biso   1.000  H
  H2938    1.0000 0.03110  0.60497  0.53520  Biso   1.000  H
  H2939    1.0000 0.98441  0.94578  0.86599  Biso   1.000  H
  H2940    1.0000 0.98437  0.94578  0.86599  Biso   1.000  H
  H2941    1.0000 0.03518  0.96886  0.89497  Biso   1.000  H
  H2942    1.0000 0.01559  0.05418  0.86599  Biso   1.000  H
  H2943    1.0000 0.96482  0.03110  0.89497  Biso   1.000  H
  H2944    1.0000 0.96478  0.03110  0.89497  Biso   1.000  H
  H2945    1.0000 0.68648  0.92485  0.48820  Biso   1.000  H
  H2946    1.0000 0.68601  0.94118  0.42738  Biso   1.000  H
  C1757    1.0000 0.63619  0.98763  0.47273  Biso   1.000  C
  H2947    1.0000 0.68648  0.92489  0.48820  Biso   1.000  H
  C1758    1.0000 0.63619  0.98759  0.47273  Biso   1.000  C
  H2948    1.0000 0.68597  0.94118  0.42738  Biso   1.000  H
  H2949    1.0000 0.63403  0.98441  0.55420  Biso   1.000  H
  H2950    1.0000 0.63403  0.98437  0.55420  Biso   1.000  H
  H2951    1.0000 0.63399  0.98441  0.55420  Biso   1.000  H
  H2952    1.0000 0.63399  0.98437  0.55420  Biso   1.000  H
  H2953    1.0000 0.60501  0.03518  0.53108  Biso   1.000  H
  H2954    1.0000 0.60497  0.03518  0.53108  Biso   1.000  H
  H2955    1.0000 0.94578  0.63403  0.51561  Biso   1.000  H
  H2956    1.0000 0.96886  0.60501  0.46480  Biso   1.000  H
  H2957    1.0000 0.94578  0.63399  0.51561  Biso   1.000  H
  H2958    1.0000 0.96886  0.60497  0.46480  Biso   1.000  H
  H2959    1.0000 0.60501  0.96482  0.46888  Biso   1.000  H
  H2960    1.0000 0.60501  0.96478  0.46888  Biso   1.000  H
  H2961    1.0000 0.60497  0.96482  0.46888  Biso   1.000  H
  H2962    1.0000 0.60497  0.96478  0.46888  Biso   1.000  H
  H2963    1.0000 0.63403  0.01559  0.44580  Biso   1.000  H
  H2964    1.0000 0.63399  0.01559  0.44580  Biso   1.000  H
  C1759    1.0000 0.14202  0.12266  0.43205  Biso   1.000  C
  C1760    1.0000 0.15407  0.07982  0.40112  Biso   1.000  C
  H2965    1.0000 0.16330  0.13079  0.46158  Biso   1.000  H
  C1761    1.0000 0.09887  0.15407  0.42020  Biso   1.000  C
  C1762    1.0000 0.15407  0.07978  0.40112  Biso   1.000  C
  C1763    1.0000 0.20248  0.04645  0.41109  Biso   1.000  C
  C1764    1.0000 0.12266  0.06793  0.35796  Biso   1.000  C
  C1765    1.0000 0.14198  0.12266  0.43205  Biso   1.000  C
  C1766    1.0000 0.20244  0.04645  0.41109  Biso   1.000  C
  C1767    1.0000 0.06793  0.14202  0.37732  Biso   1.000  C
  C1768    1.0000 0.06793  0.14198  0.37732  Biso   1.000  C
  C1769    1.0000 0.08893  0.20248  0.45353  Biso   1.000  C
  C1770    1.0000 0.08893  0.20244  0.45353  Biso   1.000  C
  C1771    1.0000 0.08889  0.20248  0.45353  Biso   1.000  C
  C1772    1.0000 0.08889  0.20244  0.45353  Biso   1.000  C
  N223     1.0000 0.21575  0.03938  0.46633  Biso   1.000  N
  N224     1.0000 0.21571  0.03938  0.46633  Biso   1.000  N
  H2966    1.0000 0.19691  0.01150  0.39511  Biso   1.000  H
  H2967    1.0000 0.23271  0.06290  0.39311  Biso   1.000  H
  H2968    1.0000 0.19691  0.01146  0.39511  Biso   1.000  H
  H2969    1.0000 0.23271  0.06286  0.39311  Biso   1.000  H
  H2970    1.0000 0.19687  0.01150  0.39511  Biso   1.000  H
  H2971    1.0000 0.23268  0.06290  0.39311  Biso   1.000  H
  H2972    1.0000 0.19687  0.01146  0.39511  Biso   1.000  H
  H2973    1.0000 0.23268  0.06286  0.39311  Biso   1.000  H
  C1773    1.0000 0.07982  0.09887  0.34591  Biso   1.000  C
  H2974    1.0000 0.13079  0.03840  0.33668  Biso   1.000  H
  H2975    1.0000 0.13079  0.03836  0.33668  Biso   1.000  H
  C1774    1.0000 0.07978  0.09887  0.34591  Biso   1.000  C
  H2976    1.0000 0.03840  0.16330  0.36919  Biso   1.000  H
  H2977    1.0000 0.03836  0.16330  0.36919  Biso   1.000  H
  N225     1.0000 0.03365  0.21575  0.46060  Biso   1.000  N
  N226     1.0000 0.03365  0.21571  0.46060  Biso   1.000  N
  H2978    1.0000 0.10491  0.19691  0.48848  Biso   1.000  H
  H2979    1.0000 0.10691  0.23271  0.43708  Biso   1.000  H
  H2980    1.0000 0.10491  0.19687  0.48848  Biso   1.000  H
  H2981    1.0000 0.10691  0.23268  0.43708  Biso   1.000  H
  H2982    1.0000 0.10487  0.19691  0.48848  Biso   1.000  H
  H2983    1.0000 0.10688  0.23271  0.43708  Biso   1.000  H
  H2984    1.0000 0.10487  0.19687  0.48848  Biso   1.000  H
  H2985    1.0000 0.10688  0.23268  0.43708  Biso   1.000  H
  C1775    1.0000 0.26522  0.01146  0.47222  Biso   1.000  C
  C1776    1.0000 0.17708  0.00000  0.49998  Biso   1.000  C
  H2986    1.0000 0.18528  0.02890  0.47878  Biso   1.000  H
  C1777    1.0000 0.04645  0.08893  0.29754  Biso   1.000  C
  C1778    1.0000 0.04645  0.08889  0.29754  Biso   1.000  C
  C1779    1.0000 0.02776  0.26522  0.48852  Biso   1.000  C
  C1780    1.0000 0.00000  0.17708  0.49998  Biso   1.000  C
  H2987    1.0000 0.02120  0.18528  0.47108  Biso   1.000  H
  H2988    1.0000 0.26589  0.98178  0.44650  Biso   1.000  H
  C1781    1.0000 0.26522  0.98854  0.52778  Biso   1.000  C
  C1782    1.0000 0.26522  0.98850  0.52778  Biso   1.000  C
  C1783    1.0000 0.31399  0.04492  0.46366  Biso   1.000  C
  C1784    1.0000 0.31399  0.04488  0.46366  Biso   1.000  C
  C1785    1.0000 0.31395  0.04492  0.46366  Biso   1.000  C
  C1786    1.0000 0.31395  0.04488  0.46366  Biso   1.000  C
  C1787    1.0000 0.14268  0.03561  0.53320  Biso   1.000  C
  C1788    1.0000 0.14268  0.03557  0.53320  Biso   1.000  C
  N227     1.0000 0.21575  0.96062  0.53367  Biso   1.000  N
  C1789    1.0000 0.14268  0.96435  0.46680  Biso   1.000  C
  N228     1.0000 0.21575  0.96058  0.53367  Biso   1.000  N
  C1790    1.0000 0.14268  0.96439  0.46680  Biso   1.000  C
  N229     1.0000 0.21571  0.96062  0.53367  Biso   1.000  N
  N230     1.0000 0.21571  0.96058  0.53367  Biso   1.000  N
  H2989    1.0000 0.18528  0.97106  0.52118  Biso   1.000  H
  N231     1.0000 0.03938  0.03365  0.28427  Biso   1.000  N
  H2990    1.0000 0.01150  0.10491  0.30311  Biso   1.000  H
  H2991    1.0000 0.06290  0.10691  0.26731  Biso   1.000  H
  H2992    1.0000 0.01150  0.10487  0.30311  Biso   1.000  H
  H2993    1.0000 0.06290  0.10688  0.26731  Biso   1.000  H
  H2994    1.0000 0.01146  0.10491  0.30311  Biso   1.000  H
  H2995    1.0000 0.06286  0.10691  0.26731  Biso   1.000  H
  H2996    1.0000 0.01146  0.10487  0.30311  Biso   1.000  H
  H2997    1.0000 0.06286  0.10688  0.26731  Biso   1.000  H
  H2998    1.0000 0.05352  0.26589  0.51820  Biso   1.000  H
  C1791    1.0000 0.03632  0.31399  0.45510  Biso   1.000  C
  C1792    1.0000 0.03632  0.31395  0.45510  Biso   1.000  C
  H2999    1.0000 0.05348  0.26589  0.51820  Biso   1.000  H
  C1793    1.0000 0.97220  0.26522  0.51145  Biso   1.000  C
  C1794    1.0000 0.03322  0.14268  0.53559  Biso   1.000  C
  C1795    1.0000 0.03318  0.14268  0.53559  Biso   1.000  C
  C1796    1.0000 0.96678  0.14268  0.46441  Biso   1.000  C
  N232     1.0000 0.96631  0.21575  0.53940  Biso   1.000  N
  N233     1.0000 0.96631  0.21571  0.53940  Biso   1.000  N
  H3000    1.0000 0.97880  0.18528  0.52888  Biso   1.000  H
  H3001    1.0000 0.26589  0.01822  0.55350  Biso   1.000  H
  H3002    1.0000 0.26589  0.01818  0.55350  Biso   1.000  H
  C1797    1.0000 0.31399  0.95508  0.53630  Biso   1.000  C
  C1798    1.0000 0.31395  0.95508  0.53630  Biso   1.000  C
  H3003    1.0000 0.31399  0.05882  0.42738  Biso   1.000  H
  C1799    1.0000 0.36378  0.01237  0.47273  Biso   1.000  C
  H3004    1.0000 0.31348  0.07511  0.48820  Biso   1.000  H
  H3005    1.0000 0.31348  0.07507  0.48820  Biso   1.000  H
  H3006    1.0000 0.11430  0.01500  0.54910  Biso   1.000  H
  H3007    1.0000 0.12749  0.06321  0.51097  Biso   1.000  H
  H3008    1.0000 0.12749  0.06317  0.51097  Biso   1.000  H
  H3009    1.0000 0.16389  0.05171  0.56100  Biso   1.000  H
  C1800    1.0000 0.20248  0.95351  0.58891  Biso   1.000  C
  C1801    1.0000 0.20244  0.95351  0.58891  Biso   1.000  C
  H3010    1.0000 0.11430  0.98500  0.45090  Biso   1.000  H
  H3011    1.0000 0.12749  0.93675  0.48899  Biso   1.000  H
  H3012    1.0000 0.11430  0.98496  0.45090  Biso   1.000  H
  H3013    1.0000 0.12749  0.93679  0.48899  Biso   1.000  H
  H3014    1.0000 0.16389  0.94829  0.43900  Biso   1.000  H
  C1802    1.0000 0.01146  0.02776  0.23476  Biso   1.000  C
  C1803    1.0000 0.00000  0.00000  0.32290  Biso   1.000  C
  H3015    1.0000 0.02890  0.02120  0.31470  Biso   1.000  H
  H3016    1.0000 0.01182  0.31348  0.42491  Biso   1.000  H
  H3017    1.0000 0.07260  0.31399  0.44120  Biso   1.000  H
  C1804    1.0000 0.02729  0.36378  0.48761  Biso   1.000  C
  H3018    1.0000 0.01178  0.31348  0.42491  Biso   1.000  H
  C1805    1.0000 0.02725  0.36378  0.48761  Biso   1.000  C
  C1806    1.0000 0.96368  0.31399  0.54490  Biso   1.000  C
  H3019    1.0000 0.94644  0.26589  0.48180  Biso   1.000  H
  C1807    1.0000 0.96368  0.31395  0.54490  Biso   1.000  C
  C1808    1.0000 0.96364  0.31399  0.54490  Biso   1.000  C
  H3020    1.0000 0.94648  0.26589  0.48180  Biso   1.000  H
  C1809    1.0000 0.96364  0.31395  0.54490  Biso   1.000  C
  H3021    1.0000 0.04912  0.11430  0.51498  Biso   1.000  H
  H3022    1.0000 0.01099  0.12749  0.56319  Biso   1.000  H
  H3023    1.0000 0.04908  0.11430  0.51498  Biso   1.000  H
  H3024    1.0000 0.06098  0.16389  0.55169  Biso   1.000  H
  H3025    1.0000 0.95088  0.11430  0.48498  Biso   1.000  H
  H3026    1.0000 0.98901  0.12749  0.43681  Biso   1.000  H
  H3027    1.0000 0.98897  0.12749  0.43681  Biso   1.000  H
  H3028    1.0000 0.93898  0.16389  0.44831  Biso   1.000  H
  C1810    1.0000 0.91107  0.20248  0.54647  Biso   1.000  C
  C1811    1.0000 0.91107  0.20244  0.54647  Biso   1.000  C
  H3029    1.0000 0.31348  0.92485  0.51180  Biso   1.000  H
  H3030    1.0000 0.31399  0.94118  0.57258  Biso   1.000  H
  C1812    1.0000 0.36378  0.98763  0.52727  Biso   1.000  C
  H3031    1.0000 0.31348  0.92489  0.51180  Biso   1.000  H
  C1813    1.0000 0.36378  0.98759  0.52727  Biso   1.000  C
  H3032    1.0000 0.39499  0.03518  0.46888  Biso   1.000  H
  H3033    1.0000 0.39503  0.03518  0.46888  Biso   1.000  H
  H3034    1.0000 0.36597  0.98441  0.44580  Biso   1.000  H
  H3035    1.0000 0.36597  0.98437  0.44580  Biso   1.000  H
  C1814    1.0000 0.15407  0.92018  0.59888  Biso   1.000  C
  H3036    1.0000 0.19691  0.98850  0.60489  Biso   1.000  H
  H3037    1.0000 0.23271  0.93706  0.60689  Biso   1.000  H
  H3038    1.0000 0.23271  0.93710  0.60689  Biso   1.000  H
  H3039    1.0000 0.19687  0.98850  0.60489  Biso   1.000  H
  H3040    1.0000 0.23268  0.93706  0.60689  Biso   1.000  H
  H3041    1.0000 0.23268  0.93710  0.60689  Biso   1.000  H
  C1815    1.0000 0.04492  0.03632  0.18599  Biso   1.000  C
  C1816    1.0000 0.04488  0.03632  0.18599  Biso   1.000  C
  C1817    1.0000 0.98854  0.97220  0.23476  Biso   1.000  C
  C1818    1.0000 0.98850  0.97220  0.23476  Biso   1.000  C
  H3042    1.0000 0.98178  0.05352  0.23409  Biso   1.000  H
  H3043    1.0000 0.98178  0.05348  0.23409  Biso   1.000  H
  N234     1.0000 0.96062  0.96631  0.28427  Biso   1.000  N
  N235     1.0000 0.96058  0.96631  0.28427  Biso   1.000  N
  H3044    1.0000 0.97106  0.97880  0.31470  Biso   1.000  H
  C1819    1.0000 0.96435  0.03322  0.35730  Biso   1.000  C
  C1820    1.0000 0.96435  0.03318  0.35730  Biso   1.000  C
  C1821    1.0000 0.96439  0.03322  0.35730  Biso   1.000  C
  C1822    1.0000 0.96439  0.03318  0.35730  Biso   1.000  C
  C1823    1.0000 0.03561  0.96678  0.35730  Biso   1.000  C
  C1824    1.0000 0.03557  0.96678  0.35730  Biso   1.000  C
  H3045    1.0000 0.05418  0.36597  0.51561  Biso   1.000  H
  H3046    1.0000 0.03110  0.39499  0.46480  Biso   1.000  H
  H3047    1.0000 0.03110  0.39503  0.46480  Biso   1.000  H
  C1825    1.0000 0.97267  0.36378  0.51239  Biso   1.000  C
  C1826    1.0000 0.97271  0.36378  0.51239  Biso   1.000  C
  H3048    1.0000 0.98818  0.31348  0.57509  Biso   1.000  H
  H3049    1.0000 0.92736  0.31399  0.55880  Biso   1.000  H
  C1827    1.0000 0.90110  0.15407  0.57980  Biso   1.000  C
  H3050    1.0000 0.89509  0.19691  0.51148  Biso   1.000  H
  H3051    1.0000 0.89305  0.23271  0.56288  Biso   1.000  H
  H3052    1.0000 0.89509  0.19687  0.51148  Biso   1.000  H
  H3053    1.0000 0.89305  0.23268  0.56288  Biso   1.000  H
  H3054    1.0000 0.89309  0.23271  0.56288  Biso   1.000  H
  H3055    1.0000 0.89309  0.23268  0.56288  Biso   1.000  H
  H3056    1.0000 0.36597  0.01559  0.55420  Biso   1.000  H
  H3057    1.0000 0.39499  0.96482  0.53108  Biso   1.000  H
  H3058    1.0000 0.39499  0.96478  0.53108  Biso   1.000  H
  H3059    1.0000 0.39503  0.96482  0.53108  Biso   1.000  H
  H3060    1.0000 0.39503  0.96478  0.53108  Biso   1.000  H
  C1828    1.0000 0.14202  0.87734  0.56795  Biso   1.000  C
  C1829    1.0000 0.12266  0.93204  0.64200  Biso   1.000  C
  C1830    1.0000 0.14202  0.87730  0.56795  Biso   1.000  C
  C1831    1.0000 0.14198  0.87734  0.56795  Biso   1.000  C
  C1832    1.0000 0.14198  0.87730  0.56795  Biso   1.000  C
  H3061    1.0000 0.05882  0.07260  0.18599  Biso   1.000  H
  C1833    1.0000 0.01237  0.02729  0.13620  Biso   1.000  C
  C1834    1.0000 0.01237  0.02725  0.13620  Biso   1.000  C
  H3062    1.0000 0.07511  0.01182  0.18650  Biso   1.000  H
  H3063    1.0000 0.07511  0.01178  0.18650  Biso   1.000  H
  H3064    1.0000 0.07507  0.01182  0.18650  Biso   1.000  H
  H3065    1.0000 0.07507  0.01178  0.18650  Biso   1.000  H
  C1835    1.0000 0.95508  0.96368  0.18599  Biso   1.000  C
  C1836    1.0000 0.95508  0.96364  0.18599  Biso   1.000  C
  H3066    1.0000 0.01822  0.94644  0.23409  Biso   1.000  H
  H3067    1.0000 0.01822  0.94648  0.23409  Biso   1.000  H
  H3068    1.0000 0.01818  0.94644  0.23409  Biso   1.000  H
  H3069    1.0000 0.01818  0.94648  0.23409  Biso   1.000  H
  C1837    1.0000 0.95351  0.91107  0.29754  Biso   1.000  C
  H3070    1.0000 0.98500  0.04912  0.38568  Biso   1.000  H
  H3071    1.0000 0.93675  0.01099  0.37249  Biso   1.000  H
  H3072    1.0000 0.98500  0.04908  0.38568  Biso   1.000  H
  H3073    1.0000 0.98496  0.04912  0.38568  Biso   1.000  H
  H3074    1.0000 0.93679  0.01099  0.37249  Biso   1.000  H
  H3075    1.0000 0.98496  0.04908  0.38568  Biso   1.000  H
  H3076    1.0000 0.94829  0.06098  0.33609  Biso   1.000  H
  H3077    1.0000 0.01500  0.95088  0.38568  Biso   1.000  H
  H3078    1.0000 0.06321  0.98901  0.37249  Biso   1.000  H
  H3079    1.0000 0.06321  0.98897  0.37249  Biso   1.000  H
  H3080    1.0000 0.06317  0.98901  0.37249  Biso   1.000  H
  H3081    1.0000 0.06317  0.98897  0.37249  Biso   1.000  H
  H3082    1.0000 0.05171  0.93898  0.33609  Biso   1.000  H
  H3083    1.0000 0.94578  0.36597  0.48439  Biso   1.000  H
  H3084    1.0000 0.96886  0.39499  0.53520  Biso   1.000  H
  H3085    1.0000 0.96886  0.39503  0.53520  Biso   1.000  H
  C1838    1.0000 0.93204  0.14202  0.62264  Biso   1.000  C
  C1839    1.0000 0.85794  0.12266  0.56795  Biso   1.000  C
  C1840    1.0000 0.93204  0.14198  0.62264  Biso   1.000  C
  C1841    1.0000 0.85798  0.12266  0.56795  Biso   1.000  C
  H3086    1.0000 0.16330  0.86921  0.53838  Biso   1.000  H
  C1842    1.0000 0.09887  0.84589  0.57980  Biso   1.000  C
  H3087    1.0000 0.16330  0.86917  0.53838  Biso   1.000  H
  H3088    1.0000 0.13079  0.96160  0.66328  Biso   1.000  H
  C1843    1.0000 0.07982  0.90110  0.65405  Biso   1.000  C
  C1844    1.0000 0.07978  0.90110  0.65405  Biso   1.000  C
  H3089    1.0000 0.03518  0.03110  0.10499  Biso   1.000  H
  C1845    1.0000 0.98763  0.97267  0.13620  Biso   1.000  C
  C1846    1.0000 0.98763  0.97271  0.13620  Biso   1.000  C
  C1847    1.0000 0.98759  0.97267  0.13620  Biso   1.000  C
  C1848    1.0000 0.98759  0.97271  0.13620  Biso   1.000  C
  H3090    1.0000 0.98441  0.05418  0.13401  Biso   1.000  H
  H3091    1.0000 0.98437  0.05418  0.13401  Biso   1.000  H
  H3092    1.0000 0.92485  0.98818  0.18650  Biso   1.000  H
  H3093    1.0000 0.94118  0.92736  0.18599  Biso   1.000  H
  H3094    1.0000 0.92489  0.98818  0.18650  Biso   1.000  H
  C1849    1.0000 0.92018  0.90110  0.34591  Biso   1.000  C
  H3095    1.0000 0.98850  0.89509  0.30311  Biso   1.000  H
  H3096    1.0000 0.93706  0.89305  0.26731  Biso   1.000  H
  H3097    1.0000 0.93706  0.89309  0.26731  Biso   1.000  H
  H3098    1.0000 0.93710  0.89305  0.26731  Biso   1.000  H
  H3099    1.0000 0.93710  0.89309  0.26731  Biso   1.000  H
  H3100    1.0000 0.96160  0.16330  0.63081  Biso   1.000  H
  C1850    1.0000 0.92018  0.09887  0.65405  Biso   1.000  C
  H3101    1.0000 0.83666  0.13079  0.53838  Biso   1.000  H
  C1851    1.0000 0.84589  0.07982  0.59888  Biso   1.000  C
  C1852    1.0000 0.84589  0.07978  0.59888  Biso   1.000  C
  C1853    1.0000 0.06793  0.85794  0.62264  Biso   1.000  C
  C1854    1.0000 0.08893  0.79752  0.54647  Biso   1.000  C
  C1855    1.0000 0.06793  0.85798  0.62264  Biso   1.000  C
  C1856    1.0000 0.08889  0.79752  0.54647  Biso   1.000  C
  C1857    1.0000 0.04645  0.91107  0.70246  Biso   1.000  C
  H3102    1.0000 0.96482  0.96886  0.10499  Biso   1.000  H
  H3103    1.0000 0.96478  0.96886  0.10499  Biso   1.000  H
  H3104    1.0000 0.01559  0.94578  0.13401  Biso   1.000  H
  C1858    1.0000 0.87734  0.93204  0.35796  Biso   1.000  C
  C1859    1.0000 0.93204  0.85794  0.37732  Biso   1.000  C
  C1860    1.0000 0.93204  0.85798  0.37732  Biso   1.000  C
  C1861    1.0000 0.87730  0.93204  0.35796  Biso   1.000  C
  C1862    1.0000 0.87734  0.06793  0.64200  Biso   1.000  C
  C1863    1.0000 0.95351  0.08893  0.70246  Biso   1.000  C
  C1864    1.0000 0.95351  0.08889  0.70246  Biso   1.000  C
  C1865    1.0000 0.87730  0.06793  0.64200  Biso   1.000  C
  C1866    1.0000 0.79752  0.04645  0.58891  Biso   1.000  C
  H3105    1.0000 0.03840  0.83666  0.63081  Biso   1.000  H
  H3106    1.0000 0.03836  0.83666  0.63081  Biso   1.000  H
  H3107    1.0000 0.10491  0.80309  0.51148  Biso   1.000  H
  H3108    1.0000 0.10691  0.76725  0.56288  Biso   1.000  H
  N236     1.0000 0.03365  0.78425  0.53940  Biso   1.000  N
  H3109    1.0000 0.10691  0.76729  0.56288  Biso   1.000  H
  H3110    1.0000 0.10487  0.80309  0.51148  Biso   1.000  H
  H3111    1.0000 0.10688  0.76725  0.56288  Biso   1.000  H
  H3112    1.0000 0.10688  0.76729  0.56288  Biso   1.000  H
  H3113    1.0000 0.01150  0.89509  0.69689  Biso   1.000  H
  H3114    1.0000 0.06290  0.89305  0.73269  Biso   1.000  H
  N237     1.0000 0.03938  0.96631  0.71573  Biso   1.000  N
  H3115    1.0000 0.06290  0.89309  0.73269  Biso   1.000  H
  H3116    1.0000 0.01146  0.89509  0.69689  Biso   1.000  H
  H3117    1.0000 0.06286  0.89305  0.73269  Biso   1.000  H
  H3118    1.0000 0.06286  0.89309  0.73269  Biso   1.000  H
  C1867    1.0000 0.84589  0.92018  0.40112  Biso   1.000  C
  H3119    1.0000 0.86921  0.96160  0.33668  Biso   1.000  H
  H3120    1.0000 0.86917  0.96160  0.33668  Biso   1.000  H
  H3121    1.0000 0.96160  0.83666  0.36919  Biso   1.000  H
  C1868    1.0000 0.90110  0.84589  0.42020  Biso   1.000  C
  H3122    1.0000 0.86921  0.03840  0.66328  Biso   1.000  H
  H3123    1.0000 0.86921  0.03836  0.66328  Biso   1.000  H
  H3124    1.0000 0.86917  0.03840  0.66328  Biso   1.000  H
  H3125    1.0000 0.86917  0.03836  0.66328  Biso   1.000  H
  H3126    1.0000 0.98850  0.10491  0.69689  Biso   1.000  H
  H3127    1.0000 0.93706  0.10691  0.73269  Biso   1.000  H
  N238     1.0000 0.96062  0.03365  0.71573  Biso   1.000  N
  H3128    1.0000 0.98850  0.10487  0.69689  Biso   1.000  H
  H3129    1.0000 0.93706  0.10688  0.73269  Biso   1.000  H
  H3130    1.0000 0.93710  0.10691  0.73269  Biso   1.000  H
  N239     1.0000 0.96058  0.03365  0.71573  Biso   1.000  N
  H3131    1.0000 0.93710  0.10688  0.73269  Biso   1.000  H
  H3132    1.0000 0.80309  0.01150  0.60489  Biso   1.000  H
  H3133    1.0000 0.76725  0.06290  0.60689  Biso   1.000  H
  N240     1.0000 0.78425  0.03938  0.53367  Biso   1.000  N
  H3134    1.0000 0.80309  0.01146  0.60489  Biso   1.000  H
  H3135    1.0000 0.76725  0.06286  0.60689  Biso   1.000  H
  H3136    1.0000 0.76729  0.06290  0.60689  Biso   1.000  H
  H3137    1.0000 0.76729  0.06286  0.60689  Biso   1.000  H
  C1869    1.0000 0.02776  0.73474  0.51145  Biso   1.000  C
  C1870    1.0000 0.00000  0.82292  0.49998  Biso   1.000  C
  C1871    1.0000 0.00000  0.82288  0.49998  Biso   1.000  C
  H3138    1.0000 0.02120  0.81468  0.52888  Biso   1.000  H
  C1872    1.0000 0.00000  0.00000  0.67710  Biso   1.000  C
  C1873    1.0000 0.01146  0.97220  0.76520  Biso   1.000  C
  H3139    1.0000 0.02890  0.97880  0.68530  Biso   1.000  H
  C1874    1.0000 0.85794  0.87734  0.43205  Biso   1.000  C
  C1875    1.0000 0.79752  0.95351  0.41109  Biso   1.000  C
  C1876    1.0000 0.85794  0.87730  0.43205  Biso   1.000  C
  C1877    1.0000 0.85798  0.87734  0.43205  Biso   1.000  C
  C1878    1.0000 0.85798  0.87730  0.43205  Biso   1.000  C
  C1879    1.0000 0.91107  0.79752  0.45353  Biso   1.000  C
  H3140    1.0000 0.97106  0.02120  0.68530  Biso   1.000  H
  C1880    1.0000 0.98854  0.02776  0.76520  Biso   1.000  C
  C1881    1.0000 0.98850  0.02776  0.76520  Biso   1.000  C
  C1882    1.0000 0.73474  0.01146  0.52778  Biso   1.000  C
  C1883    1.0000 0.82292  0.00000  0.49998  Biso   1.000  C
  C1884    1.0000 0.82288  0.00000  0.49998  Biso   1.000  C
  H3141    1.0000 0.81468  0.02890  0.52118  Biso   1.000  H
  C1885    1.0000 0.97220  0.73474  0.48852  Biso   1.000  C
  C1886    1.0000 0.03632  0.68601  0.54490  Biso   1.000  C
  H3142    1.0000 0.05352  0.73411  0.48180  Biso   1.000  H
  H3143    1.0000 0.05352  0.73407  0.48180  Biso   1.000  H
  H3144    1.0000 0.05348  0.73411  0.48180  Biso   1.000  H
  H3145    1.0000 0.05348  0.73407  0.48180  Biso   1.000  H
  C1887    1.0000 0.96678  0.85732  0.53559  Biso   1.000  C
  N241     1.0000 0.96631  0.78425  0.46060  Biso   1.000  N
  C1888    1.0000 0.96678  0.85728  0.53559  Biso   1.000  C
  H3146    1.0000 0.97880  0.81468  0.47108  Biso   1.000  H
  C1889    1.0000 0.03322  0.85732  0.46441  Biso   1.000  C
  C1890    1.0000 0.03322  0.85728  0.46441  Biso   1.000  C
  C1891    1.0000 0.03318  0.85732  0.46441  Biso   1.000  C
  C1892    1.0000 0.03318  0.85728  0.46441  Biso   1.000  C
  C1893    1.0000 0.96435  0.96678  0.64270  Biso   1.000  C
  C1894    1.0000 0.96439  0.96678  0.64270  Biso   1.000  C
  C1895    1.0000 0.03561  0.03322  0.64270  Biso   1.000  C
  C1896    1.0000 0.03561  0.03318  0.64270  Biso   1.000  C
  C1897    1.0000 0.03557  0.03322  0.64270  Biso   1.000  C
  C1898    1.0000 0.03557  0.03318  0.64270  Biso   1.000  C
  H3147    1.0000 0.98178  0.94644  0.76587  Biso   1.000  H
  H3148    1.0000 0.98178  0.94648  0.76587  Biso   1.000  H
  C1899    1.0000 0.04492  0.96368  0.81397  Biso   1.000  C
  C1900    1.0000 0.04492  0.96364  0.81397  Biso   1.000  C
  C1901    1.0000 0.04488  0.96368  0.81397  Biso   1.000  C
  C1902    1.0000 0.04488  0.96364  0.81397  Biso   1.000  C
  H3149    1.0000 0.83666  0.86921  0.46158  Biso   1.000  H
  H3150    1.0000 0.83666  0.86917  0.46158  Biso   1.000  H
  H3151    1.0000 0.80309  0.98850  0.39511  Biso   1.000  H
  H3152    1.0000 0.76725  0.93706  0.39311  Biso   1.000  H
  N242     1.0000 0.78425  0.96062  0.46633  Biso   1.000  N
  H3153    1.0000 0.76725  0.93710  0.39311  Biso   1.000  H
  N243     1.0000 0.78425  0.96058  0.46633  Biso   1.000  N
  H3154    1.0000 0.76729  0.93706  0.39311  Biso   1.000  H
  H3155    1.0000 0.76729  0.93710  0.39311  Biso   1.000  H
  H3156    1.0000 0.89509  0.80309  0.48848  Biso   1.000  H
  H3157    1.0000 0.89305  0.76725  0.43708  Biso   1.000  H
  H3158    1.0000 0.89305  0.76729  0.43708  Biso   1.000  H
  H3159    1.0000 0.89309  0.76725  0.43708  Biso   1.000  H
  H3160    1.0000 0.89309  0.76729  0.43708  Biso   1.000  H
  H3161    1.0000 0.01818  0.05352  0.76587  Biso   1.000  H
  C1903    1.0000 0.95508  0.03632  0.81397  Biso   1.000  C
  H3162    1.0000 0.01822  0.05352  0.76587  Biso   1.000  H
  H3163    1.0000 0.01822  0.05348  0.76587  Biso   1.000  H
  H3164    1.0000 0.01818  0.05348  0.76587  Biso   1.000  H
  C1904    1.0000 0.73474  0.98854  0.47222  Biso   1.000  C
  C1905    1.0000 0.73474  0.98850  0.47222  Biso   1.000  C
  H3165    1.0000 0.73411  0.98178  0.55350  Biso   1.000  H
  H3166    1.0000 0.73407  0.98178  0.55350  Biso   1.000  H
  C1906    1.0000 0.68601  0.04492  0.53630  Biso   1.000  C
  C1907    1.0000 0.68601  0.04488  0.53630  Biso   1.000  C
  H3167    1.0000 0.81468  0.97106  0.47878  Biso   1.000  H
  C1908    1.0000 0.85732  0.96435  0.53320  Biso   1.000  C
  C1909    1.0000 0.85732  0.96439  0.53320  Biso   1.000  C
  C1910    1.0000 0.85728  0.96435  0.53320  Biso   1.000  C
  C1911    1.0000 0.85728  0.96439  0.53320  Biso   1.000  C
  C1912    1.0000 0.85732  0.03561  0.46680  Biso   1.000  C
  C1913    1.0000 0.85732  0.03557  0.46680  Biso   1.000  C
  C1914    1.0000 0.85728  0.03561  0.46680  Biso   1.000  C
  C1915    1.0000 0.85728  0.03557  0.46680  Biso   1.000  C
  C1916    1.0000 0.96368  0.68601  0.45510  Biso   1.000  C
  H3168    1.0000 0.94644  0.73411  0.51820  Biso   1.000  H
  H3169    1.0000 0.94644  0.73407  0.51820  Biso   1.000  H
  C1917    1.0000 0.96364  0.68601  0.45510  Biso   1.000  C
  H3170    1.0000 0.94648  0.73411  0.51820  Biso   1.000  H
  H3171    1.0000 0.94648  0.73407  0.51820  Biso   1.000  H
  H3172    1.0000 0.01182  0.68648  0.57509  Biso   1.000  H
  H3173    1.0000 0.07260  0.68601  0.55880  Biso   1.000  H
  C1918    1.0000 0.02729  0.63619  0.51239  Biso   1.000  C
  H3174    1.0000 0.07260  0.68597  0.55880  Biso   1.000  H
  H3175    1.0000 0.01178  0.68648  0.57509  Biso   1.000  H
  C1919    1.0000 0.02725  0.63619  0.51239  Biso   1.000  C
  H3176    1.0000 0.95088  0.88570  0.51498  Biso   1.000  H
  H3177    1.0000 0.98901  0.87251  0.56319  Biso   1.000  H
  H3178    1.0000 0.95088  0.88566  0.51498  Biso   1.000  H
  H3179    1.0000 0.98901  0.87247  0.56319  Biso   1.000  H
  H3180    1.0000 0.98897  0.87251  0.56319  Biso   1.000  H
  H3181    1.0000 0.98897  0.87247  0.56319  Biso   1.000  H
  H3182    1.0000 0.93898  0.83608  0.55169  Biso   1.000  H
  H3183    1.0000 0.04912  0.88570  0.48498  Biso   1.000  H
  H3184    1.0000 0.01099  0.87251  0.43681  Biso   1.000  H
  H3185    1.0000 0.04912  0.88566  0.48498  Biso   1.000  H
  H3186    1.0000 0.01099  0.87247  0.43681  Biso   1.000  H
  H3187    1.0000 0.04908  0.88570  0.48498  Biso   1.000  H
  H3188    1.0000 0.04908  0.88566  0.48498  Biso   1.000  H
  H3189    1.0000 0.06098  0.83608  0.44831  Biso   1.000  H
  H3190    1.0000 0.98500  0.95088  0.61428  Biso   1.000  H
  H3191    1.0000 0.93675  0.98901  0.62747  Biso   1.000  H
  H3192    1.0000 0.93675  0.98897  0.62747  Biso   1.000  H
  H3193    1.0000 0.98496  0.95088  0.61428  Biso   1.000  H
  H3194    1.0000 0.93679  0.98901  0.62747  Biso   1.000  H
  H3195    1.0000 0.93679  0.98897  0.62747  Biso   1.000  H
  H3196    1.0000 0.94829  0.93898  0.66391  Biso   1.000  H
  H3197    1.0000 0.06321  0.01099  0.62747  Biso   1.000  H
  H3198    1.0000 0.01500  0.04912  0.61428  Biso   1.000  H
  H3199    1.0000 0.01500  0.04908  0.61428  Biso   1.000  H
  H3200    1.0000 0.06317  0.01099  0.62747  Biso   1.000  H
  H3201    1.0000 0.05171  0.06098  0.66391  Biso   1.000  H
  H3202    1.0000 0.07511  0.98818  0.81350  Biso   1.000  H
  H3203    1.0000 0.05882  0.92736  0.81397  Biso   1.000  H
  C1920    1.0000 0.01237  0.97267  0.86380  Biso   1.000  C
  C1921    1.0000 0.01237  0.97271  0.86380  Biso   1.000  C
  H3204    1.0000 0.07507  0.98818  0.81350  Biso   1.000  H
  H3205    1.0000 0.92485  0.01182  0.81350  Biso   1.000  H
  H3206    1.0000 0.94118  0.07260  0.81397  Biso   1.000  H
  C1922    1.0000 0.98763  0.02729  0.86380  Biso   1.000  C
  H3207    1.0000 0.92485  0.01178  0.81350  Biso   1.000  H
  C1923    1.0000 0.98763  0.02725  0.86380  Biso   1.000  C
  H3208    1.0000 0.92489  0.01182  0.81350  Biso   1.000  H
  C1924    1.0000 0.98759  0.02729  0.86380  Biso   1.000  C
  H3209    1.0000 0.92489  0.01178  0.81350  Biso   1.000  H
  C1925    1.0000 0.98759  0.02725  0.86380  Biso   1.000  C
  C1926    1.0000 0.68601  0.95508  0.46366  Biso   1.000  C
  H3210    1.0000 0.73411  0.01822  0.44650  Biso   1.000  H
  H3211    1.0000 0.73411  0.01818  0.44650  Biso   1.000  H
  H3212    1.0000 0.73407  0.01822  0.44650  Biso   1.000  H
  H3213    1.0000 0.73407  0.01818  0.44650  Biso   1.000  H
  H3214    1.0000 0.68648  0.07511  0.51180  Biso   1.000  H
  H3215    1.0000 0.68601  0.05882  0.57258  Biso   1.000  H
  C1927    1.0000 0.63619  0.01237  0.52727  Biso   1.000  C
  H3216    1.0000 0.68648  0.07507  0.51180  Biso   1.000  H
  H3217    1.0000 0.68597  0.05882  0.57258  Biso   1.000  H
  H3218    1.0000 0.88570  0.98500  0.54910  Biso   1.000  H
  H3219    1.0000 0.87251  0.93675  0.51097  Biso   1.000  H
  H3220    1.0000 0.88570  0.98496  0.54910  Biso   1.000  H
  H3221    1.0000 0.87251  0.93679  0.51097  Biso   1.000  H
  H3222    1.0000 0.88566  0.98500  0.54910  Biso   1.000  H
  H3223    1.0000 0.87247  0.93675  0.51097  Biso   1.000  H
  H3224    1.0000 0.88566  0.98496  0.54910  Biso   1.000  H
  H3225    1.0000 0.87247  0.93679  0.51097  Biso   1.000  H
  H3226    1.0000 0.83608  0.94829  0.56100  Biso   1.000  H
  H3227    1.0000 0.88570  0.01500  0.45090  Biso   1.000  H
  H3228    1.0000 0.87251  0.06321  0.48899  Biso   1.000  H
  H3229    1.0000 0.87251  0.06317  0.48899  Biso   1.000  H
  H3230    1.0000 0.88566  0.01500  0.45090  Biso   1.000  H
  H3231    1.0000 0.87247  0.06321  0.48899  Biso   1.000  H
  H3232    1.0000 0.87247  0.06317  0.48899  Biso   1.000  H
  H3233    1.0000 0.83608  0.05171  0.43900  Biso   1.000  H
  H3234    1.0000 0.98818  0.68648  0.42491  Biso   1.000  H
  H3235    1.0000 0.92736  0.68601  0.44120  Biso   1.000  H
  C1928    1.0000 0.97267  0.63619  0.48761  Biso   1.000  C
  H3236    1.0000 0.92736  0.68597  0.44120  Biso   1.000  H
  C1929    1.0000 0.97271  0.63619  0.48761  Biso   1.000  C
  H3237    1.0000 0.05418  0.63403  0.48439  Biso   1.000  H
  H3238    1.0000 0.03110  0.60501  0.53520  Biso   1.000  H
  H3239    1.0000 0.05418  0.63399  0.48439  Biso   1.000  H
  H3240    1.0000 0.03110  0.60497  0.53520  Biso   1.000  H
  H3241    1.0000 0.98441  0.94578  0.86599  Biso   1.000  H
  H3242    1.0000 0.98437  0.94578  0.86599  Biso   1.000  H
  H3243    1.0000 0.03518  0.96886  0.89497  Biso   1.000  H
  H3244    1.0000 0.01559  0.05418  0.86599  Biso   1.000  H
  H3245    1.0000 0.96482  0.03110  0.89497  Biso   1.000  H
  H3246    1.0000 0.96478  0.03110  0.89497  Biso   1.000  H
  H3247    1.0000 0.68648  0.92485  0.48820  Biso   1.000  H
  H3248    1.0000 0.68601  0.94118  0.42738  Biso   1.000  H
  C1930    1.0000 0.63619  0.98763  0.47273  Biso   1.000  C
  H3249    1.0000 0.68648  0.92489  0.48820  Biso   1.000  H
  C1931    1.0000 0.63619  0.98759  0.47273  Biso   1.000  C
  H3250    1.0000 0.68597  0.94118  0.42738  Biso   1.000  H
  H3251    1.0000 0.63403  0.98441  0.55420  Biso   1.000  H
  H3252    1.0000 0.63403  0.98437  0.55420  Biso   1.000  H
  H3253    1.0000 0.63399  0.98441  0.55420  Biso   1.000  H
  H3254    1.0000 0.63399  0.98437  0.55420  Biso   1.000  H
  H3255    1.0000 0.60501  0.03518  0.53108  Biso   1.000  H
  H3256    1.0000 0.60497  0.03518  0.53108  Biso   1.000  H
  H3257    1.0000 0.94578  0.63403  0.51561  Biso   1.000  H
  H3258    1.0000 0.96886  0.60501  0.46480  Biso   1.000  H
  H3259    1.0000 0.94578  0.63399  0.51561  Biso   1.000  H
  H3260    1.0000 0.96886  0.60497  0.46480  Biso   1.000  H
  H3261    1.0000 0.60501  0.96482  0.46888  Biso   1.000  H
  H3262    1.0000 0.60501  0.96478  0.46888  Biso   1.000  H
  H3263    1.0000 0.60497  0.96482  0.46888  Biso   1.000  H
  H3264    1.0000 0.60497  0.96478  0.46888  Biso   1.000  H
  H3265    1.0000 0.63403  0.01559  0.44580  Biso   1.000  H
  H3266    1.0000 0.63399  0.01559  0.44580  Biso   1.000  H
  C1932    1.0000 0.14202  0.12266  0.43205  Biso   1.000  C
  C1933    1.0000 0.15407  0.07982  0.40112  Biso   1.000  C
  C1934    1.0000 0.15407  0.07978  0.40112  Biso   1.000  C
  H3267    1.0000 0.16330  0.13079  0.46158  Biso   1.000  H
  C1935    1.0000 0.09887  0.15407  0.42020  Biso   1.000  C
  C1936    1.0000 0.12266  0.06793  0.35796  Biso   1.000  C
  C1937    1.0000 0.20248  0.04645  0.41109  Biso   1.000  C
  C1938    1.0000 0.14198  0.12266  0.43205  Biso   1.000  C
  C1939    1.0000 0.20244  0.04645  0.41109  Biso   1.000  C
  C1940    1.0000 0.06793  0.14202  0.37732  Biso   1.000  C
  C1941    1.0000 0.06793  0.14198  0.37732  Biso   1.000  C
  C1942    1.0000 0.08893  0.20248  0.45353  Biso   1.000  C
  C1943    1.0000 0.08893  0.20244  0.45353  Biso   1.000  C
  C1944    1.0000 0.08889  0.20248  0.45353  Biso   1.000  C
  C1945    1.0000 0.08889  0.20244  0.45353  Biso   1.000  C
  H3268    1.0000 0.13079  0.03840  0.33668  Biso   1.000  H
  C1946    1.0000 0.07982  0.09887  0.34591  Biso   1.000  C
  H3269    1.0000 0.13079  0.03836  0.33668  Biso   1.000  H
  C1947    1.0000 0.07978  0.09887  0.34591  Biso   1.000  C
  N244     1.0000 0.21575  0.03938  0.46633  Biso   1.000  N
  H3270    1.0000 0.19691  0.01150  0.39511  Biso   1.000  H
  H3271    1.0000 0.23271  0.06290  0.39311  Biso   1.000  H
  H3272    1.0000 0.19691  0.01146  0.39511  Biso   1.000  H
  H3273    1.0000 0.23271  0.06286  0.39311  Biso   1.000  H
  H3274    1.0000 0.19687  0.01150  0.39511  Biso   1.000  H
  H3275    1.0000 0.23268  0.06290  0.39311  Biso   1.000  H
  N245     1.0000 0.21571  0.03938  0.46633  Biso   1.000  N
  H3276    1.0000 0.19687  0.01146  0.39511  Biso   1.000  H
  H3277    1.0000 0.23268  0.06286  0.39311  Biso   1.000  H
  H3278    1.0000 0.03840  0.16330  0.36919  Biso   1.000  H
  H3279    1.0000 0.03836  0.16330  0.36919  Biso   1.000  H
  N246     1.0000 0.03365  0.21575  0.46060  Biso   1.000  N
  H3280    1.0000 0.10491  0.19691  0.48848  Biso   1.000  H
  H3281    1.0000 0.10691  0.23271  0.43708  Biso   1.000  H
  H3282    1.0000 0.10491  0.19687  0.48848  Biso   1.000  H
  H3283    1.0000 0.10691  0.23268  0.43708  Biso   1.000  H
  N247     1.0000 0.03365  0.21571  0.46060  Biso   1.000  N
  H3284    1.0000 0.10487  0.19691  0.48848  Biso   1.000  H
  H3285    1.0000 0.10688  0.23271  0.43708  Biso   1.000  H
  H3286    1.0000 0.10487  0.19687  0.48848  Biso   1.000  H
  H3287    1.0000 0.10688  0.23268  0.43708  Biso   1.000  H
  C1948    1.0000 0.04645  0.08893  0.29754  Biso   1.000  C
  C1949    1.0000 0.04645  0.08889  0.29754  Biso   1.000  C
  C1950    1.0000 0.26522  0.01146  0.47222  Biso   1.000  C
  C1951    1.0000 0.17708  0.00000  0.49998  Biso   1.000  C
  H3288    1.0000 0.18528  0.02890  0.47878  Biso   1.000  H
  C1952    1.0000 0.02776  0.26522  0.48852  Biso   1.000  C
  C1953    1.0000 0.00000  0.17708  0.49998  Biso   1.000  C
  H3289    1.0000 0.02120  0.18528  0.47108  Biso   1.000  H
  N248     1.0000 0.03938  0.03365  0.28427  Biso   1.000  N
  H3290    1.0000 0.01150  0.10491  0.30311  Biso   1.000  H
  H3291    1.0000 0.06290  0.10691  0.26731  Biso   1.000  H
  H3292    1.0000 0.01150  0.10487  0.30311  Biso   1.000  H
  H3293    1.0000 0.06290  0.10688  0.26731  Biso   1.000  H
  H3294    1.0000 0.01146  0.10491  0.30311  Biso   1.000  H
  H3295    1.0000 0.06286  0.10691  0.26731  Biso   1.000  H
  H3296    1.0000 0.01146  0.10487  0.30311  Biso   1.000  H
  H3297    1.0000 0.06286  0.10688  0.26731  Biso   1.000  H
  H3298    1.0000 0.26589  0.98178  0.44650  Biso   1.000  H
  C1954    1.0000 0.26522  0.98854  0.52778  Biso   1.000  C
  C1955    1.0000 0.26522  0.98850  0.52778  Biso   1.000  C
  C1956    1.0000 0.31399  0.04492  0.46366  Biso   1.000  C
  C1957    1.0000 0.31399  0.04488  0.46366  Biso   1.000  C
  C1958    1.0000 0.31395  0.04492  0.46366  Biso   1.000  C
  C1959    1.0000 0.31395  0.04488  0.46366  Biso   1.000  C
  N249     1.0000 0.21575  0.96062  0.53367  Biso   1.000  N
  C1960    1.0000 0.14268  0.96435  0.46680  Biso   1.000  C
  N250     1.0000 0.21575  0.96058  0.53367  Biso   1.000  N
  C1961    1.0000 0.14268  0.96439  0.46680  Biso   1.000  C
  N251     1.0000 0.21571  0.96062  0.53367  Biso   1.000  N
  N252     1.0000 0.21571  0.96058  0.53367  Biso   1.000  N
  H3299    1.0000 0.18528  0.97106  0.52118  Biso   1.000  H
  C1962    1.0000 0.14268  0.03561  0.53320  Biso   1.000  C
  C1963    1.0000 0.14268  0.03557  0.53320  Biso   1.000  C
  H3300    1.0000 0.05352  0.26589  0.51820  Biso   1.000  H
  C1964    1.0000 0.97220  0.26522  0.51145  Biso   1.000  C
  C1965    1.0000 0.03632  0.31399  0.45510  Biso   1.000  C
  C1966    1.0000 0.03632  0.31395  0.45510  Biso   1.000  C
  H3301    1.0000 0.05348  0.26589  0.51820  Biso   1.000  H
  C1967    1.0000 0.96678  0.14268  0.46441  Biso   1.000  C
  N253     1.0000 0.96631  0.21575  0.53940  Biso   1.000  N
  N254     1.0000 0.96631  0.21571  0.53940  Biso   1.000  N
  H3302    1.0000 0.97880  0.18528  0.52888  Biso   1.000  H
  C1968    1.0000 0.03322  0.14268  0.53559  Biso   1.000  C
  C1969    1.0000 0.03318  0.14268  0.53559  Biso   1.000  C
  C1970    1.0000 0.01146  0.02776  0.23476  Biso   1.000  C
  C1971    1.0000 0.00000  0.00000  0.32290  Biso   1.000  C
  H3303    1.0000 0.02890  0.02120  0.31470  Biso   1.000  H
  H3304    1.0000 0.26589  0.01818  0.55350  Biso   1.000  H
  C1972    1.0000 0.31399  0.95508  0.53630  Biso   1.000  C
  C1973    1.0000 0.31395  0.95508  0.53630  Biso   1.000  C
  H3305    1.0000 0.26589  0.01822  0.55350  Biso   1.000  H
  H3306    1.0000 0.31399  0.05882  0.42738  Biso   1.000  H
  C1974    1.0000 0.36378  0.01237  0.47273  Biso   1.000  C
  H3307    1.0000 0.31348  0.07511  0.48820  Biso   1.000  H
  H3308    1.0000 0.31348  0.07507  0.48820  Biso   1.000  H
  C1975    1.0000 0.20248  0.95351  0.58891  Biso   1.000  C
  C1976    1.0000 0.20244  0.95351  0.58891  Biso   1.000  C
  H3309    1.0000 0.11430  0.98500  0.45090  Biso   1.000  H
  H3310    1.0000 0.12749  0.93675  0.48899  Biso   1.000  H
  H3311    1.0000 0.11430  0.98496  0.45090  Biso   1.000  H
  H3312    1.0000 0.12749  0.93679  0.48899  Biso   1.000  H
  H3313    1.0000 0.16389  0.94829  0.43900  Biso   1.000  H
  H3314    1.0000 0.11430  0.01500  0.54910  Biso   1.000  H
  H3315    1.0000 0.12749  0.06321  0.51097  Biso   1.000  H
  H3316    1.0000 0.12749  0.06317  0.51097  Biso   1.000  H
  H3317    1.0000 0.16389  0.05171  0.56100  Biso   1.000  H
  C1977    1.0000 0.96368  0.31399  0.54490  Biso   1.000  C
  H3318    1.0000 0.94644  0.26589  0.48180  Biso   1.000  H
  C1978    1.0000 0.96368  0.31395  0.54490  Biso   1.000  C
  C1979    1.0000 0.96364  0.31399  0.54490  Biso   1.000  C
  H3319    1.0000 0.94648  0.26589  0.48180  Biso   1.000  H
  C1980    1.0000 0.96364  0.31395  0.54490  Biso   1.000  C
  H3320    1.0000 0.07260  0.31399  0.44120  Biso   1.000  H
  H3321    1.0000 0.01182  0.31348  0.42491  Biso   1.000  H
  C1981    1.0000 0.02729  0.36378  0.48761  Biso   1.000  C
  H3322    1.0000 0.01178  0.31348  0.42491  Biso   1.000  H
  C1982    1.0000 0.02725  0.36378  0.48761  Biso   1.000  C
  H3323    1.0000 0.95088  0.11430  0.48498  Biso   1.000  H
  H3324    1.0000 0.98901  0.12749  0.43681  Biso   1.000  H
  H3325    1.0000 0.98897  0.12749  0.43681  Biso   1.000  H
  H3326    1.0000 0.93898  0.16389  0.44831  Biso   1.000  H
  C1983    1.0000 0.91107  0.20248  0.54647  Biso   1.000  C
  C1984    1.0000 0.91107  0.20244  0.54647  Biso   1.000  C
  H3327    1.0000 0.01099  0.12749  0.56319  Biso   1.000  H
  H3328    1.0000 0.04912  0.11430  0.51498  Biso   1.000  H
  H3329    1.0000 0.04908  0.11430  0.51498  Biso   1.000  H
  H3330    1.0000 0.06098  0.16389  0.55169  Biso   1.000  H
  C1985    1.0000 0.98854  0.97220  0.23476  Biso   1.000  C
  C1986    1.0000 0.98850  0.97220  0.23476  Biso   1.000  C
  H3331    1.0000 0.98178  0.05352  0.23409  Biso   1.000  H
  H3332    1.0000 0.98178  0.05348  0.23409  Biso   1.000  H
  C1987    1.0000 0.04492  0.03632  0.18599  Biso   1.000  C
  C1988    1.0000 0.04488  0.03632  0.18599  Biso   1.000  C
  N255     1.0000 0.96062  0.96631  0.28427  Biso   1.000  N
  N256     1.0000 0.96058  0.96631  0.28427  Biso   1.000  N
  H3333    1.0000 0.97106  0.97880  0.31470  Biso   1.000  H
  C1989    1.0000 0.96435  0.03322  0.35730  Biso   1.000  C
  C1990    1.0000 0.96435  0.03318  0.35730  Biso   1.000  C
  C1991    1.0000 0.96439  0.03322  0.35730  Biso   1.000  C
  C1992    1.0000 0.96439  0.03318  0.35730  Biso   1.000  C
  C1993    1.0000 0.03561  0.96678  0.35730  Biso   1.000  C
  C1994    1.0000 0.03557  0.96678  0.35730  Biso   1.000  C
  H3334    1.0000 0.31348  0.92485  0.51180  Biso   1.000  H
  H3335    1.0000 0.31399  0.94118  0.57258  Biso   1.000  H
  C1995    1.0000 0.36378  0.98763  0.52727  Biso   1.000  C
  H3336    1.0000 0.31348  0.92489  0.51180  Biso   1.000  H
  C1996    1.0000 0.36378  0.98759  0.52727  Biso   1.000  C
  H3337    1.0000 0.36597  0.98441  0.44580  Biso   1.000  H
  H3338    1.0000 0.36597  0.98437  0.44580  Biso   1.000  H
  H3339    1.0000 0.39499  0.03518  0.46888  Biso   1.000  H
  H3340    1.0000 0.39503  0.03518  0.46888  Biso   1.000  H
  C1997    1.0000 0.15407  0.92018  0.59888  Biso   1.000  C
  H3341    1.0000 0.19691  0.98850  0.60489  Biso   1.000  H
  H3342    1.0000 0.23271  0.93706  0.60689  Biso   1.000  H
  H3343    1.0000 0.23271  0.93710  0.60689  Biso   1.000  H
  H3344    1.0000 0.19687  0.98850  0.60489  Biso   1.000  H
  H3345    1.0000 0.23268  0.93706  0.60689  Biso   1.000  H
  H3346    1.0000 0.23268  0.93710  0.60689  Biso   1.000  H
  H3347    1.0000 0.98818  0.31348  0.57509  Biso   1.000  H
  H3348    1.0000 0.92736  0.31399  0.55880  Biso   1.000  H
  C1998    1.0000 0.97267  0.36378  0.51239  Biso   1.000  C
  C1999    1.0000 0.97271  0.36378  0.51239  Biso   1.000  C
  H3349    1.0000 0.05418  0.36597  0.51561  Biso   1.000  H
  H3350    1.0000 0.03110  0.39499  0.46480  Biso   1.000  H
  H3351    1.0000 0.03110  0.39503  0.46480  Biso   1.000  H
  C2000    1.0000 0.90110  0.15407  0.57980  Biso   1.000  C
  H3352    1.0000 0.89509  0.19691  0.51148  Biso   1.000  H
  H3353    1.0000 0.89305  0.23271  0.56288  Biso   1.000  H
  H3354    1.0000 0.89509  0.19687  0.51148  Biso   1.000  H
  H3355    1.0000 0.89305  0.23268  0.56288  Biso   1.000  H
  H3356    1.0000 0.89309  0.23271  0.56288  Biso   1.000  H
  H3357    1.0000 0.89309  0.23268  0.56288  Biso   1.000  H
  C2001    1.0000 0.95508  0.96368  0.18599  Biso   1.000  C
  C2002    1.0000 0.95508  0.96364  0.18599  Biso   1.000  C
  H3358    1.0000 0.01822  0.94644  0.23409  Biso   1.000  H
  H3359    1.0000 0.01822  0.94648  0.23409  Biso   1.000  H
  H3360    1.0000 0.01818  0.94644  0.23409  Biso   1.000  H
  H3361    1.0000 0.01818  0.94648  0.23409  Biso   1.000  H
  H3362    1.0000 0.05882  0.07260  0.18599  Biso   1.000  H
  H3363    1.0000 0.07511  0.01182  0.18650  Biso   1.000  H
  C2003    1.0000 0.01237  0.02729  0.13620  Biso   1.000  C
  H3364    1.0000 0.07511  0.01178  0.18650  Biso   1.000  H
  C2004    1.0000 0.01237  0.02725  0.13620  Biso   1.000  C
  H3365    1.0000 0.07507  0.01182  0.18650  Biso   1.000  H
  H3366    1.0000 0.07507  0.01178  0.18650  Biso   1.000  H
  C2005    1.0000 0.95351  0.91107  0.29754  Biso   1.000  C
  H3367    1.0000 0.98500  0.04912  0.38568  Biso   1.000  H
  H3368    1.0000 0.93675  0.01099  0.37249  Biso   1.000  H
  H3369    1.0000 0.98500  0.04908  0.38568  Biso   1.000  H
  H3370    1.0000 0.98496  0.04912  0.38568  Biso   1.000  H
  H3371    1.0000 0.93679  0.01099  0.37249  Biso   1.000  H
  H3372    1.0000 0.98496  0.04908  0.38568  Biso   1.000  H
  H3373    1.0000 0.94829  0.06098  0.33609  Biso   1.000  H
  H3374    1.0000 0.01500  0.95088  0.38568  Biso   1.000  H
  H3375    1.0000 0.06321  0.98901  0.37249  Biso   1.000  H
  H3376    1.0000 0.06321  0.98897  0.37249  Biso   1.000  H
  H3377    1.0000 0.06317  0.98901  0.37249  Biso   1.000  H
  H3378    1.0000 0.06317  0.98897  0.37249  Biso   1.000  H
  H3379    1.0000 0.05171  0.93898  0.33609  Biso   1.000  H
  H3380    1.0000 0.36597  0.01559  0.55420  Biso   1.000  H
  H3381    1.0000 0.39499  0.96482  0.53108  Biso   1.000  H
  H3382    1.0000 0.39499  0.96478  0.53108  Biso   1.000  H
  H3383    1.0000 0.39503  0.96482  0.53108  Biso   1.000  H
  H3384    1.0000 0.39503  0.96478  0.53108  Biso   1.000  H
  C2006    1.0000 0.14202  0.87734  0.56795  Biso   1.000  C
  C2007    1.0000 0.12266  0.93204  0.64200  Biso   1.000  C
  C2008    1.0000 0.14202  0.87730  0.56795  Biso   1.000  C
  C2009    1.0000 0.14198  0.87734  0.56795  Biso   1.000  C
  C2010    1.0000 0.14198  0.87730  0.56795  Biso   1.000  C
  H3385    1.0000 0.94578  0.36597  0.48439  Biso   1.000  H
  H3386    1.0000 0.96886  0.39499  0.53520  Biso   1.000  H
  H3387    1.0000 0.96886  0.39503  0.53520  Biso   1.000  H
  C2011    1.0000 0.93204  0.14202  0.62264  Biso   1.000  C
  C2012    1.0000 0.85794  0.12266  0.56795  Biso   1.000  C
  C2013    1.0000 0.93204  0.14198  0.62264  Biso   1.000  C
  C2014    1.0000 0.85798  0.12266  0.56795  Biso   1.000  C
  H3388    1.0000 0.92485  0.98818  0.18650  Biso   1.000  H
  H3389    1.0000 0.94118  0.92736  0.18599  Biso   1.000  H
  C2015    1.0000 0.98763  0.97267  0.13620  Biso   1.000  C
  C2016    1.0000 0.98763  0.97271  0.13620  Biso   1.000  C
  H3390    1.0000 0.92489  0.98818  0.18650  Biso   1.000  H
  C2017    1.0000 0.98759  0.97267  0.13620  Biso   1.000  C
  C2018    1.0000 0.98759  0.97271  0.13620  Biso   1.000  C
  H3391    1.0000 0.03518  0.03110  0.10499  Biso   1.000  H
  H3392    1.0000 0.98441  0.05418  0.13401  Biso   1.000  H
  H3393    1.0000 0.98437  0.05418  0.13401  Biso   1.000  H
  C2019    1.0000 0.92018  0.90110  0.34591  Biso   1.000  C
  H3394    1.0000 0.98850  0.89509  0.30311  Biso   1.000  H
  H3395    1.0000 0.93706  0.89305  0.26731  Biso   1.000  H
  H3396    1.0000 0.93706  0.89309  0.26731  Biso   1.000  H
  H3397    1.0000 0.93710  0.89305  0.26731  Biso   1.000  H
  H3398    1.0000 0.93710  0.89309  0.26731  Biso   1.000  H
  H3399    1.0000 0.16330  0.86921  0.53838  Biso   1.000  H
  C2020    1.0000 0.09887  0.84589  0.57980  Biso   1.000  C
  H3400    1.0000 0.16330  0.86917  0.53838  Biso   1.000  H
  H3401    1.0000 0.13079  0.96160  0.66328  Biso   1.000  H
  C2021    1.0000 0.07982  0.90110  0.65405  Biso   1.000  C
  C2022    1.0000 0.07978  0.90110  0.65405  Biso   1.000  C
  H3402    1.0000 0.96160  0.16330  0.63081  Biso   1.000  H
  C2023    1.0000 0.92018  0.09887  0.65405  Biso   1.000  C
  H3403    1.0000 0.83666  0.13079  0.53838  Biso   1.000  H
  C2024    1.0000 0.84589  0.07982  0.59888  Biso   1.000  C
  C2025    1.0000 0.84589  0.07978  0.59888  Biso   1.000  C
  H3404    1.0000 0.96482  0.96886  0.10499  Biso   1.000  H
  H3405    1.0000 0.96478  0.96886  0.10499  Biso   1.000  H
  H3406    1.0000 0.01559  0.94578  0.13401  Biso   1.000  H
  C2026    1.0000 0.87734  0.93204  0.35796  Biso   1.000  C
  C2027    1.0000 0.93204  0.85794  0.37732  Biso   1.000  C
  C2028    1.0000 0.93204  0.85798  0.37732  Biso   1.000  C
  C2029    1.0000 0.87730  0.93204  0.35796  Biso   1.000  C
  C2030    1.0000 0.06793  0.85794  0.62264  Biso   1.000  C
  C2031    1.0000 0.08893  0.79752  0.54647  Biso   1.000  C
  C2032    1.0000 0.06793  0.85798  0.62264  Biso   1.000  C
  C2033    1.0000 0.08889  0.79752  0.54647  Biso   1.000  C
  C2034    1.0000 0.04645  0.91107  0.70246  Biso   1.000  C
  C2035    1.0000 0.87734  0.06793  0.64200  Biso   1.000  C
  C2036    1.0000 0.95351  0.08893  0.70246  Biso   1.000  C
  C2037    1.0000 0.95351  0.08889  0.70246  Biso   1.000  C
  C2038    1.0000 0.87730  0.06793  0.64200  Biso   1.000  C
  C2039    1.0000 0.79752  0.04645  0.58891  Biso   1.000  C
  C2040    1.0000 0.84589  0.92018  0.40112  Biso   1.000  C
  H3407    1.0000 0.86921  0.96160  0.33668  Biso   1.000  H
  H3408    1.0000 0.86917  0.96160  0.33668  Biso   1.000  H
  H3409    1.0000 0.96160  0.83666  0.36919  Biso   1.000  H
  C2041    1.0000 0.90110  0.84589  0.42020  Biso   1.000  C
  H3410    1.0000 0.03840  0.83666  0.63081  Biso   1.000  H
  H3411    1.0000 0.03836  0.83666  0.63081  Biso   1.000  H
  H3412    1.0000 0.10491  0.80309  0.51148  Biso   1.000  H
  H3413    1.0000 0.10691  0.76725  0.56288  Biso   1.000  H
  N257     1.0000 0.03365  0.78425  0.53940  Biso   1.000  N
  H3414    1.0000 0.10691  0.76729  0.56288  Biso   1.000  H
  H3415    1.0000 0.10487  0.80309  0.51148  Biso   1.000  H
  H3416    1.0000 0.10688  0.76725  0.56288  Biso   1.000  H
  H3417    1.0000 0.10688  0.76729  0.56288  Biso   1.000  H
  H3418    1.0000 0.01150  0.89509  0.69689  Biso   1.000  H
  H3419    1.0000 0.06290  0.89305  0.73269  Biso   1.000  H
  N258     1.0000 0.03938  0.96631  0.71573  Biso   1.000  N
  H3420    1.0000 0.06290  0.89309  0.73269  Biso   1.000  H
  H3421    1.0000 0.01146  0.89509  0.69689  Biso   1.000  H
  H3422    1.0000 0.06286  0.89305  0.73269  Biso   1.000  H
  H3423    1.0000 0.06286  0.89309  0.73269  Biso   1.000  H
  H3424    1.0000 0.86921  0.03840  0.66328  Biso   1.000  H
  H3425    1.0000 0.86921  0.03836  0.66328  Biso   1.000  H
  H3426    1.0000 0.86917  0.03840  0.66328  Biso   1.000  H
  H3427    1.0000 0.86917  0.03836  0.66328  Biso   1.000  H
  H3428    1.0000 0.98850  0.10491  0.69689  Biso   1.000  H
  H3429    1.0000 0.93706  0.10691  0.73269  Biso   1.000  H
  N259     1.0000 0.96062  0.03365  0.71573  Biso   1.000  N
  H3430    1.0000 0.98850  0.10487  0.69689  Biso   1.000  H
  H3431    1.0000 0.93706  0.10688  0.73269  Biso   1.000  H
  H3432    1.0000 0.93710  0.10691  0.73269  Biso   1.000  H
  N260     1.0000 0.96058  0.03365  0.71573  Biso   1.000  N
  H3433    1.0000 0.93710  0.10688  0.73269  Biso   1.000  H
  H3434    1.0000 0.80309  0.01150  0.60489  Biso   1.000  H
  H3435    1.0000 0.76725  0.06290  0.60689  Biso   1.000  H
  N261     1.0000 0.78425  0.03938  0.53367  Biso   1.000  N
  H3436    1.0000 0.80309  0.01146  0.60489  Biso   1.000  H
  H3437    1.0000 0.76725  0.06286  0.60689  Biso   1.000  H
  H3438    1.0000 0.76729  0.06290  0.60689  Biso   1.000  H
  H3439    1.0000 0.76729  0.06286  0.60689  Biso   1.000  H
  C2042    1.0000 0.85794  0.87734  0.43205  Biso   1.000  C
  C2043    1.0000 0.79752  0.95351  0.41109  Biso   1.000  C
  C2044    1.0000 0.85794  0.87730  0.43205  Biso   1.000  C
  C2045    1.0000 0.85798  0.87734  0.43205  Biso   1.000  C
  C2046    1.0000 0.85798  0.87730  0.43205  Biso   1.000  C
  C2047    1.0000 0.91107  0.79752  0.45353  Biso   1.000  C
  C2048    1.0000 0.02776  0.73474  0.51145  Biso   1.000  C
  C2049    1.0000 0.00000  0.82292  0.49998  Biso   1.000  C
  C2050    1.0000 0.00000  0.82288  0.49998  Biso   1.000  C
  H3440    1.0000 0.02120  0.81468  0.52888  Biso   1.000  H
  C2051    1.0000 0.00000  0.00000  0.67710  Biso   1.000  C
  C2052    1.0000 0.01146  0.97220  0.76520  Biso   1.000  C
  H3441    1.0000 0.02890  0.97880  0.68530  Biso   1.000  H
  H3442    1.0000 0.97106  0.02120  0.68530  Biso   1.000  H
  C2053    1.0000 0.98854  0.02776  0.76520  Biso   1.000  C
  C2054    1.0000 0.98850  0.02776  0.76520  Biso   1.000  C
  C2055    1.0000 0.82292  0.00000  0.49998  Biso   1.000  C
  C2056    1.0000 0.82288  0.00000  0.49998  Biso   1.000  C
  C2057    1.0000 0.73474  0.01146  0.52778  Biso   1.000  C
  H3443    1.0000 0.81468  0.02890  0.52118  Biso   1.000  H
  H3444    1.0000 0.83666  0.86921  0.46158  Biso   1.000  H
  H3445    1.0000 0.83666  0.86917  0.46158  Biso   1.000  H
  H3446    1.0000 0.80309  0.98850  0.39511  Biso   1.000  H
  H3447    1.0000 0.76725  0.93706  0.39311  Biso   1.000  H
  N262     1.0000 0.78425  0.96062  0.46633  Biso   1.000  N
  H3448    1.0000 0.76725  0.93710  0.39311  Biso   1.000  H
  N263     1.0000 0.78425  0.96058  0.46633  Biso   1.000  N
  H3449    1.0000 0.76729  0.93706  0.39311  Biso   1.000  H
  H3450    1.0000 0.76729  0.93710  0.39311  Biso   1.000  H
  H3451    1.0000 0.89509  0.80309  0.48848  Biso   1.000  H
  H3452    1.0000 0.89305  0.76725  0.43708  Biso   1.000  H
  N264     1.0000 0.96631  0.78425  0.46060  Biso   1.000  N
  H3453    1.0000 0.89305  0.76729  0.43708  Biso   1.000  H
  H3454    1.0000 0.89309  0.76725  0.43708  Biso   1.000  H
  H3455    1.0000 0.89309  0.76729  0.43708  Biso   1.000  H
  C2058    1.0000 0.97220  0.73474  0.48852  Biso   1.000  C
  C2059    1.0000 0.03632  0.68601  0.54490  Biso   1.000  C
  H3456    1.0000 0.05352  0.73411  0.48180  Biso   1.000  H
  H3457    1.0000 0.05352  0.73407  0.48180  Biso   1.000  H
  H3458    1.0000 0.05348  0.73411  0.48180  Biso   1.000  H
  H3459    1.0000 0.05348  0.73407  0.48180  Biso   1.000  H
  H3460    1.0000 0.97880  0.81468  0.47108  Biso   1.000  H
  C2060    1.0000 0.96678  0.85732  0.53559  Biso   1.000  C
  C2061    1.0000 0.96678  0.85728  0.53559  Biso   1.000  C
  C2062    1.0000 0.03322  0.85732  0.46441  Biso   1.000  C
  C2063    1.0000 0.03322  0.85728  0.46441  Biso   1.000  C
  C2064    1.0000 0.03318  0.85732  0.46441  Biso   1.000  C
  C2065    1.0000 0.03318  0.85728  0.46441  Biso   1.000  C
  C2066    1.0000 0.96435  0.96678  0.64270  Biso   1.000  C
  C2067    1.0000 0.96439  0.96678  0.64270  Biso   1.000  C
  C2068    1.0000 0.03561  0.03322  0.64270  Biso   1.000  C
  C2069    1.0000 0.03561  0.03318  0.64270  Biso   1.000  C
  C2070    1.0000 0.03557  0.03322  0.64270  Biso   1.000  C
  C2071    1.0000 0.03557  0.03318  0.64270  Biso   1.000  C
  H3461    1.0000 0.98178  0.94644  0.76587  Biso   1.000  H
  H3462    1.0000 0.98178  0.94648  0.76587  Biso   1.000  H
  C2072    1.0000 0.04492  0.96368  0.81397  Biso   1.000  C
  C2073    1.0000 0.04492  0.96364  0.81397  Biso   1.000  C
  C2074    1.0000 0.04488  0.96368  0.81397  Biso   1.000  C
  C2075    1.0000 0.04488  0.96364  0.81397  Biso   1.000  C
  C2076    1.0000 0.95508  0.03632  0.81397  Biso   1.000  C
  H3463    1.0000 0.01822  0.05352  0.76587  Biso   1.000  H
  H3464    1.0000 0.01822  0.05348  0.76587  Biso   1.000  H
  H3465    1.0000 0.01818  0.05352  0.76587  Biso   1.000  H
  H3466    1.0000 0.01818  0.05348  0.76587  Biso   1.000  H
  H3467    1.0000 0.81468  0.97106  0.47878  Biso   1.000  H
  C2077    1.0000 0.85732  0.96435  0.53320  Biso   1.000  C
  C2078    1.0000 0.85732  0.96439  0.53320  Biso   1.000  C
  C2079    1.0000 0.85728  0.96435  0.53320  Biso   1.000  C
  C2080    1.0000 0.85728  0.96439  0.53320  Biso   1.000  C
  C2081    1.0000 0.85732  0.03561  0.46680  Biso   1.000  C
  C2082    1.0000 0.85732  0.03557  0.46680  Biso   1.000  C
  C2083    1.0000 0.85728  0.03561  0.46680  Biso   1.000  C
  C2084    1.0000 0.85728  0.03557  0.46680  Biso   1.000  C
  C2085    1.0000 0.73474  0.98854  0.47222  Biso   1.000  C
  C2086    1.0000 0.73474  0.98850  0.47222  Biso   1.000  C
  H3468    1.0000 0.73411  0.98178  0.55350  Biso   1.000  H
  H3469    1.0000 0.73407  0.98178  0.55350  Biso   1.000  H
  C2087    1.0000 0.68601  0.04492  0.53630  Biso   1.000  C
  C2088    1.0000 0.68601  0.04488  0.53630  Biso   1.000  C
  C2089    1.0000 0.96368  0.68601  0.45510  Biso   1.000  C
  H3470    1.0000 0.94644  0.73411  0.51820  Biso   1.000  H
  H3471    1.0000 0.94644  0.73407  0.51820  Biso   1.000  H
  C2090    1.0000 0.96364  0.68601  0.45510  Biso   1.000  C
  H3472    1.0000 0.94648  0.73411  0.51820  Biso   1.000  H
  H3473    1.0000 0.94648  0.73407  0.51820  Biso   1.000  H
  H3474    1.0000 0.01182  0.68648  0.57509  Biso   1.000  H
  H3475    1.0000 0.07260  0.68601  0.55880  Biso   1.000  H
  C2091    1.0000 0.02729  0.63619  0.51239  Biso   1.000  C
  H3476    1.0000 0.07260  0.68597  0.55880  Biso   1.000  H
  H3477    1.0000 0.01178  0.68648  0.57509  Biso   1.000  H
  C2092    1.0000 0.02725  0.63619  0.51239  Biso   1.000  C
  H3478    1.0000 0.95088  0.88570  0.51498  Biso   1.000  H
  H3479    1.0000 0.98901  0.87251  0.56319  Biso   1.000  H
  H3480    1.0000 0.95088  0.88566  0.51498  Biso   1.000  H
  H3481    1.0000 0.98901  0.87247  0.56319  Biso   1.000  H
  H3482    1.0000 0.98897  0.87251  0.56319  Biso   1.000  H
  H3483    1.0000 0.98897  0.87247  0.56319  Biso   1.000  H
  H3484    1.0000 0.93898  0.83608  0.55169  Biso   1.000  H
  H3485    1.0000 0.04912  0.88570  0.48498  Biso   1.000  H
  H3486    1.0000 0.01099  0.87251  0.43681  Biso   1.000  H
  H3487    1.0000 0.04912  0.88566  0.48498  Biso   1.000  H
  H3488    1.0000 0.01099  0.87247  0.43681  Biso   1.000  H
  H3489    1.0000 0.04908  0.88570  0.48498  Biso   1.000  H
  H3490    1.0000 0.04908  0.88566  0.48498  Biso   1.000  H
  H3491    1.0000 0.06098  0.83608  0.44831  Biso   1.000  H
  H3492    1.0000 0.98500  0.95088  0.61428  Biso   1.000  H
  H3493    1.0000 0.93675  0.98901  0.62747  Biso   1.000  H
  H3494    1.0000 0.93675  0.98897  0.62747  Biso   1.000  H
  H3495    1.0000 0.98496  0.95088  0.61428  Biso   1.000  H
  H3496    1.0000 0.93679  0.98901  0.62747  Biso   1.000  H
  H3497    1.0000 0.93679  0.98897  0.62747  Biso   1.000  H
  H3498    1.0000 0.94829  0.93898  0.66391  Biso   1.000  H
  H3499    1.0000 0.01500  0.04912  0.61428  Biso   1.000  H
  H3500    1.0000 0.06321  0.01099  0.62747  Biso   1.000  H
  H3501    1.0000 0.01500  0.04908  0.61428  Biso   1.000  H
  H3502    1.0000 0.06317  0.01099  0.62747  Biso   1.000  H
  H3503    1.0000 0.05171  0.06098  0.66391  Biso   1.000  H
  H3504    1.0000 0.07511  0.98818  0.81350  Biso   1.000  H
  H3505    1.0000 0.05882  0.92736  0.81397  Biso   1.000  H
  C2093    1.0000 0.01237  0.97267  0.86380  Biso   1.000  C
  C2094    1.0000 0.01237  0.97271  0.86380  Biso   1.000  C
  H3506    1.0000 0.07507  0.98818  0.81350  Biso   1.000  H
  H3507    1.0000 0.92485  0.01182  0.81350  Biso   1.000  H
  H3508    1.0000 0.94118  0.07260  0.81397  Biso   1.000  H
  C2095    1.0000 0.98763  0.02729  0.86380  Biso   1.000  C
  H3509    1.0000 0.92485  0.01178  0.81350  Biso   1.000  H
  C2096    1.0000 0.98763  0.02725  0.86380  Biso   1.000  C
  H3510    1.0000 0.92489  0.01182  0.81350  Biso   1.000  H
  C2097    1.0000 0.98759  0.02729  0.86380  Biso   1.000  C
  H3511    1.0000 0.92489  0.01178  0.81350  Biso   1.000  H
  C2098    1.0000 0.98759  0.02725  0.86380  Biso   1.000  C
  H3512    1.0000 0.88570  0.98500  0.54910  Biso   1.000  H
  H3513    1.0000 0.87251  0.93675  0.51097  Biso   1.000  H
  H3514    1.0000 0.88570  0.98496  0.54910  Biso   1.000  H
  H3515    1.0000 0.87251  0.93679  0.51097  Biso   1.000  H
  H3516    1.0000 0.88566  0.98500  0.54910  Biso   1.000  H
  H3517    1.0000 0.87247  0.93675  0.51097  Biso   1.000  H
  H3518    1.0000 0.88566  0.98496  0.54910  Biso   1.000  H
  H3519    1.0000 0.87247  0.93679  0.51097  Biso   1.000  H
  H3520    1.0000 0.83608  0.94829  0.56100  Biso   1.000  H
  H3521    1.0000 0.88570  0.01500  0.45090  Biso   1.000  H
  H3522    1.0000 0.87251  0.06321  0.48899  Biso   1.000  H
  H3523    1.0000 0.87251  0.06317  0.48899  Biso   1.000  H
  H3524    1.0000 0.88566  0.01500  0.45090  Biso   1.000  H
  H3525    1.0000 0.87247  0.06321  0.48899  Biso   1.000  H
  H3526    1.0000 0.87247  0.06317  0.48899  Biso   1.000  H
  H3527    1.0000 0.83608  0.05171  0.43900  Biso   1.000  H
  C2099    1.0000 0.68601  0.95508  0.46366  Biso   1.000  C
  H3528    1.0000 0.73411  0.01822  0.44650  Biso   1.000  H
  H3529    1.0000 0.73411  0.01818  0.44650  Biso   1.000  H
  H3530    1.0000 0.73407  0.01822  0.44650  Biso   1.000  H
  H3531    1.0000 0.73407  0.01818  0.44650  Biso   1.000  H
  C2100    1.0000 0.63619  0.01237  0.52727  Biso   1.000  C
  H3532    1.0000 0.68648  0.07511  0.51180  Biso   1.000  H
  H3533    1.0000 0.68601  0.05882  0.57258  Biso   1.000  H
  H3534    1.0000 0.68648  0.07507  0.51180  Biso   1.000  H
  H3535    1.0000 0.68597  0.05882  0.57258  Biso   1.000  H
  H3536    1.0000 0.98818  0.68648  0.42491  Biso   1.000  H
  H3537    1.0000 0.92736  0.68601  0.44120  Biso   1.000  H
  C2101    1.0000 0.97267  0.63619  0.48761  Biso   1.000  C
  H3538    1.0000 0.92736  0.68597  0.44120  Biso   1.000  H
  C2102    1.0000 0.97271  0.63619  0.48761  Biso   1.000  C
  H3539    1.0000 0.05418  0.63403  0.48439  Biso   1.000  H
  H3540    1.0000 0.03110  0.60501  0.53520  Biso   1.000  H
  H3541    1.0000 0.05418  0.63399  0.48439  Biso   1.000  H
  H3542    1.0000 0.03110  0.60497  0.53520  Biso   1.000  H
  H3543    1.0000 0.98441  0.94578  0.86599  Biso   1.000  H
  H3544    1.0000 0.98437  0.94578  0.86599  Biso   1.000  H
  H3545    1.0000 0.03518  0.96886  0.89497  Biso   1.000  H
  H3546    1.0000 0.01559  0.05418  0.86599  Biso   1.000  H
  H3547    1.0000 0.96482  0.03110  0.89497  Biso   1.000  H
  H3548    1.0000 0.96478  0.03110  0.89497  Biso   1.000  H
  H3549    1.0000 0.68648  0.92485  0.48820  Biso   1.000  H
  H3550    1.0000 0.68601  0.94118  0.42738  Biso   1.000  H
  C2103    1.0000 0.63619  0.98763  0.47273  Biso   1.000  C
  H3551    1.0000 0.68648  0.92489  0.48820  Biso   1.000  H
  C2104    1.0000 0.63619  0.98759  0.47273  Biso   1.000  C
  H3552    1.0000 0.68597  0.94118  0.42738  Biso   1.000  H
  H3553    1.0000 0.63403  0.98441  0.55420  Biso   1.000  H
  H3554    1.0000 0.63403  0.98437  0.55420  Biso   1.000  H
  H3555    1.0000 0.63399  0.98441  0.55420  Biso   1.000  H
  H3556    1.0000 0.63399  0.98437  0.55420  Biso   1.000  H
  H3557    1.0000 0.60501  0.03518  0.53108  Biso   1.000  H
  H3558    1.0000 0.60497  0.03518  0.53108  Biso   1.000  H
  H3559    1.0000 0.94578  0.63403  0.51561  Biso   1.000  H
  H3560    1.0000 0.96886  0.60501  0.46480  Biso   1.000  H
  H3561    1.0000 0.94578  0.63399  0.51561  Biso   1.000  H
  H3562    1.0000 0.96886  0.60497  0.46480  Biso   1.000  H
  H3563    1.0000 0.60501  0.96482  0.46888  Biso   1.000  H
  H3564    1.0000 0.60501  0.96478  0.46888  Biso   1.000  H
  H3565    1.0000 0.60497  0.96482  0.46888  Biso   1.000  H
  H3566    1.0000 0.60497  0.96478  0.46888  Biso   1.000  H
  H3567    1.0000 0.63403  0.01559  0.44580  Biso   1.000  H
  H3568    1.0000 0.63399  0.01559  0.44580  Biso   1.000  H
  C2105    1.0000 0.14202  0.12266  0.43205  Biso   1.000  C
  C2106    1.0000 0.15407  0.07982  0.40112  Biso   1.000  C
  C2107    1.0000 0.15407  0.07978  0.40112  Biso   1.000  C
  H3569    1.0000 0.16330  0.13079  0.46158  Biso   1.000  H
  C2108    1.0000 0.09887  0.15407  0.42020  Biso   1.000  C
  C2109    1.0000 0.12266  0.06793  0.35796  Biso   1.000  C
  C2110    1.0000 0.20248  0.04645  0.41109  Biso   1.000  C
  C2111    1.0000 0.14198  0.12266  0.43205  Biso   1.000  C
  C2112    1.0000 0.20244  0.04645  0.41109  Biso   1.000  C
  C2113    1.0000 0.06793  0.14202  0.37732  Biso   1.000  C
  C2114    1.0000 0.06793  0.14198  0.37732  Biso   1.000  C
  C2115    1.0000 0.08893  0.20248  0.45353  Biso   1.000  C
  C2116    1.0000 0.08893  0.20244  0.45353  Biso   1.000  C
  C2117    1.0000 0.08889  0.20248  0.45353  Biso   1.000  C
  C2118    1.0000 0.08889  0.20244  0.45353  Biso   1.000  C
  H3570    1.0000 0.13079  0.03840  0.33668  Biso   1.000  H
  C2119    1.0000 0.07982  0.09887  0.34591  Biso   1.000  C
  H3571    1.0000 0.13079  0.03836  0.33668  Biso   1.000  H
  C2120    1.0000 0.07978  0.09887  0.34591  Biso   1.000  C
  H3572    1.0000 0.19691  0.01150  0.39511  Biso   1.000  H
  H3573    1.0000 0.23271  0.06290  0.39311  Biso   1.000  H
  N265     1.0000 0.21575  0.03938  0.46633  Biso   1.000  N
  H3574    1.0000 0.19691  0.01146  0.39511  Biso   1.000  H
  H3575    1.0000 0.23271  0.06286  0.39311  Biso   1.000  H
  H3576    1.0000 0.19687  0.01150  0.39511  Biso   1.000  H
  H3577    1.0000 0.23268  0.06290  0.39311  Biso   1.000  H
  N266     1.0000 0.21571  0.03938  0.46633  Biso   1.000  N
  H3578    1.0000 0.19687  0.01146  0.39511  Biso   1.000  H
  H3579    1.0000 0.23268  0.06286  0.39311  Biso   1.000  H
  H3580    1.0000 0.03840  0.16330  0.36919  Biso   1.000  H
  H3581    1.0000 0.03836  0.16330  0.36919  Biso   1.000  H
  H3582    1.0000 0.10491  0.19691  0.48848  Biso   1.000  H
  H3583    1.0000 0.10691  0.23271  0.43708  Biso   1.000  H
  N267     1.0000 0.03365  0.21575  0.46060  Biso   1.000  N
  H3584    1.0000 0.10491  0.19687  0.48848  Biso   1.000  H
  H3585    1.0000 0.10691  0.23268  0.43708  Biso   1.000  H
  N268     1.0000 0.03365  0.21571  0.46060  Biso   1.000  N
  H3586    1.0000 0.10487  0.19691  0.48848  Biso   1.000  H
  H3587    1.0000 0.10688  0.23271  0.43708  Biso   1.000  H
  H3588    1.0000 0.10487  0.19687  0.48848  Biso   1.000  H
  H3589    1.0000 0.10688  0.23268  0.43708  Biso   1.000  H
  C2121    1.0000 0.04645  0.08893  0.29754  Biso   1.000  C
  C2122    1.0000 0.04645  0.08889  0.29754  Biso   1.000  C
  C2123    1.0000 0.26522  0.01146  0.47222  Biso   1.000  C
  C2124    1.0000 0.17708  0.00000  0.49998  Biso   1.000  C
  H3590    1.0000 0.18528  0.02890  0.47878  Biso   1.000  H
  C2125    1.0000 0.02776  0.26522  0.48852  Biso   1.000  C
  C2126    1.0000 0.00000  0.17708  0.49998  Biso   1.000  C
  H3591    1.0000 0.02120  0.18528  0.47108  Biso   1.000  H
  N269     1.0000 0.03938  0.03365  0.28427  Biso   1.000  N
  H3592    1.0000 0.01150  0.10491  0.30311  Biso   1.000  H
  H3593    1.0000 0.06290  0.10691  0.26731  Biso   1.000  H
  H3594    1.0000 0.01150  0.10487  0.30311  Biso   1.000  H
  H3595    1.0000 0.06290  0.10688  0.26731  Biso   1.000  H
  H3596    1.0000 0.01146  0.10491  0.30311  Biso   1.000  H
  H3597    1.0000 0.06286  0.10691  0.26731  Biso   1.000  H
  H3598    1.0000 0.01146  0.10487  0.30311  Biso   1.000  H
  H3599    1.0000 0.06286  0.10688  0.26731  Biso   1.000  H
  H3600    1.0000 0.26589  0.98178  0.44650  Biso   1.000  H
  C2127    1.0000 0.26522  0.98854  0.52778  Biso   1.000  C
  C2128    1.0000 0.26522  0.98850  0.52778  Biso   1.000  C
  C2129    1.0000 0.31399  0.04492  0.46366  Biso   1.000  C
  C2130    1.0000 0.31399  0.04488  0.46366  Biso   1.000  C
  C2131    1.0000 0.31395  0.04492  0.46366  Biso   1.000  C
  C2132    1.0000 0.31395  0.04488  0.46366  Biso   1.000  C
  N270     1.0000 0.21575  0.96062  0.53367  Biso   1.000  N
  C2133    1.0000 0.14268  0.96435  0.46680  Biso   1.000  C
  N271     1.0000 0.21575  0.96058  0.53367  Biso   1.000  N
  C2134    1.0000 0.14268  0.96439  0.46680  Biso   1.000  C
  N272     1.0000 0.21571  0.96062  0.53367  Biso   1.000  N
  N273     1.0000 0.21571  0.96058  0.53367  Biso   1.000  N
  H3601    1.0000 0.18528  0.97106  0.52118  Biso   1.000  H
  C2135    1.0000 0.14268  0.03561  0.53320  Biso   1.000  C
  C2136    1.0000 0.14268  0.03557  0.53320  Biso   1.000  C
  C2137    1.0000 0.97220  0.26522  0.51145  Biso   1.000  C
  C2138    1.0000 0.03632  0.31399  0.45510  Biso   1.000  C
  H3602    1.0000 0.05352  0.26589  0.51820  Biso   1.000  H
  C2139    1.0000 0.03632  0.31395  0.45510  Biso   1.000  C
  H3603    1.0000 0.05348  0.26589  0.51820  Biso   1.000  H
  C2140    1.0000 0.96678  0.14268  0.46441  Biso   1.000  C
  N274     1.0000 0.96631  0.21575  0.53940  Biso   1.000  N
  N275     1.0000 0.96631  0.21571  0.53940  Biso   1.000  N
  H3604    1.0000 0.97880  0.18528  0.52888  Biso   1.000  H
  C2141    1.0000 0.03322  0.14268  0.53559  Biso   1.000  C
  C2142    1.0000 0.03318  0.14268  0.53559  Biso   1.000  C
  C2143    1.0000 0.01146  0.02776  0.23476  Biso   1.000  C
  C2144    1.0000 0.00000  0.00000  0.32290  Biso   1.000  C
  H3605    1.0000 0.02890  0.02120  0.31470  Biso   1.000  H
  C2145    1.0000 0.31399  0.95508  0.53630  Biso   1.000  C
  C2146    1.0000 0.31395  0.95508  0.53630  Biso   1.000  C
  H3606    1.0000 0.26589  0.01822  0.55350  Biso   1.000  H
  H3607    1.0000 0.26589  0.01818  0.55350  Biso   1.000  H
  H3608    1.0000 0.31399  0.05882  0.42738  Biso   1.000  H
  C2147    1.0000 0.36378  0.01237  0.47273  Biso   1.000  C
  H3609    1.0000 0.31348  0.07511  0.48820  Biso   1.000  H
  H3610    1.0000 0.31348  0.07507  0.48820  Biso   1.000  H
  C2148    1.0000 0.20248  0.95351  0.58891  Biso   1.000  C
  C2149    1.0000 0.20244  0.95351  0.58891  Biso   1.000  C
  H3611    1.0000 0.11430  0.98500  0.45090  Biso   1.000  H
  H3612    1.0000 0.12749  0.93675  0.48899  Biso   1.000  H
  H3613    1.0000 0.11430  0.98496  0.45090  Biso   1.000  H
  H3614    1.0000 0.12749  0.93679  0.48899  Biso   1.000  H
  H3615    1.0000 0.16389  0.94829  0.43900  Biso   1.000  H
  H3616    1.0000 0.11430  0.01500  0.54910  Biso   1.000  H
  H3617    1.0000 0.12749  0.06321  0.51097  Biso   1.000  H
  H3618    1.0000 0.12749  0.06317  0.51097  Biso   1.000  H
  H3619    1.0000 0.16389  0.05171  0.56100  Biso   1.000  H
  C2150    1.0000 0.96368  0.31399  0.54490  Biso   1.000  C
  H3620    1.0000 0.94644  0.26589  0.48180  Biso   1.000  H
  C2151    1.0000 0.96368  0.31395  0.54490  Biso   1.000  C
  C2152    1.0000 0.96364  0.31399  0.54490  Biso   1.000  C
  H3621    1.0000 0.94648  0.26589  0.48180  Biso   1.000  H
  C2153    1.0000 0.96364  0.31395  0.54490  Biso   1.000  C
  H3622    1.0000 0.07260  0.31399  0.44120  Biso   1.000  H
  H3623    1.0000 0.01182  0.31348  0.42491  Biso   1.000  H
  C2154    1.0000 0.02729  0.36378  0.48761  Biso   1.000  C
  H3624    1.0000 0.01178  0.31348  0.42491  Biso   1.000  H
  C2155    1.0000 0.02725  0.36378  0.48761  Biso   1.000  C
  H3625    1.0000 0.95088  0.11430  0.48498  Biso   1.000  H
  H3626    1.0000 0.98901  0.12749  0.43681  Biso   1.000  H
  H3627    1.0000 0.98897  0.12749  0.43681  Biso   1.000  H
  H3628    1.0000 0.93898  0.16389  0.44831  Biso   1.000  H
  C2156    1.0000 0.91107  0.20248  0.54647  Biso   1.000  C
  C2157    1.0000 0.91107  0.20244  0.54647  Biso   1.000  C
  H3629    1.0000 0.01099  0.12749  0.56319  Biso   1.000  H
  H3630    1.0000 0.04912  0.11430  0.51498  Biso   1.000  H
  H3631    1.0000 0.04908  0.11430  0.51498  Biso   1.000  H
  H3632    1.0000 0.06098  0.16389  0.55169  Biso   1.000  H
  C2158    1.0000 0.98854  0.97220  0.23476  Biso   1.000  C
  C2159    1.0000 0.98850  0.97220  0.23476  Biso   1.000  C
  H3633    1.0000 0.98178  0.05352  0.23409  Biso   1.000  H
  H3634    1.0000 0.98178  0.05348  0.23409  Biso   1.000  H
  C2160    1.0000 0.04492  0.03632  0.18599  Biso   1.000  C
  C2161    1.0000 0.04488  0.03632  0.18599  Biso   1.000  C
  N276     1.0000 0.96062  0.96631  0.28427  Biso   1.000  N
  N277     1.0000 0.96058  0.96631  0.28427  Biso   1.000  N
  H3635    1.0000 0.97106  0.97880  0.31470  Biso   1.000  H
  C2162    1.0000 0.96435  0.03322  0.35730  Biso   1.000  C
  C2163    1.0000 0.96435  0.03318  0.35730  Biso   1.000  C
  C2164    1.0000 0.96439  0.03322  0.35730  Biso   1.000  C
  C2165    1.0000 0.96439  0.03318  0.35730  Biso   1.000  C
  C2166    1.0000 0.03561  0.96678  0.35730  Biso   1.000  C
  C2167    1.0000 0.03557  0.96678  0.35730  Biso   1.000  C
  H3636    1.0000 0.31348  0.92485  0.51180  Biso   1.000  H
  H3637    1.0000 0.31399  0.94118  0.57258  Biso   1.000  H
  C2168    1.0000 0.36378  0.98763  0.52727  Biso   1.000  C
  H3638    1.0000 0.31348  0.92489  0.51180  Biso   1.000  H
  C2169    1.0000 0.36378  0.98759  0.52727  Biso   1.000  C
  H3639    1.0000 0.36597  0.98441  0.44580  Biso   1.000  H
  H3640    1.0000 0.36597  0.98437  0.44580  Biso   1.000  H
  H3641    1.0000 0.39499  0.03518  0.46888  Biso   1.000  H
  H3642    1.0000 0.39503  0.03518  0.46888  Biso   1.000  H
  C2170    1.0000 0.15407  0.92018  0.59888  Biso   1.000  C
  H3643    1.0000 0.19691  0.98850  0.60489  Biso   1.000  H
  H3644    1.0000 0.23271  0.93706  0.60689  Biso   1.000  H
  H3645    1.0000 0.23271  0.93710  0.60689  Biso   1.000  H
  H3646    1.0000 0.19687  0.98850  0.60489  Biso   1.000  H
  H3647    1.0000 0.23268  0.93706  0.60689  Biso   1.000  H
  H3648    1.0000 0.23268  0.93710  0.60689  Biso   1.000  H
  H3649    1.0000 0.98818  0.31348  0.57509  Biso   1.000  H
  H3650    1.0000 0.92736  0.31399  0.55880  Biso   1.000  H
  C2171    1.0000 0.97267  0.36378  0.51239  Biso   1.000  C
  C2172    1.0000 0.97271  0.36378  0.51239  Biso   1.000  C
  H3651    1.0000 0.05418  0.36597  0.51561  Biso   1.000  H
  H3652    1.0000 0.03110  0.39499  0.46480  Biso   1.000  H
  H3653    1.0000 0.03110  0.39503  0.46480  Biso   1.000  H
  C2173    1.0000 0.90110  0.15407  0.57980  Biso   1.000  C
  H3654    1.0000 0.89509  0.19691  0.51148  Biso   1.000  H
  H3655    1.0000 0.89305  0.23271  0.56288  Biso   1.000  H
  H3656    1.0000 0.89509  0.19687  0.51148  Biso   1.000  H
  H3657    1.0000 0.89305  0.23268  0.56288  Biso   1.000  H
  H3658    1.0000 0.89309  0.23271  0.56288  Biso   1.000  H
  H3659    1.0000 0.89309  0.23268  0.56288  Biso   1.000  H
  C2174    1.0000 0.95508  0.96368  0.18599  Biso   1.000  C
  C2175    1.0000 0.95508  0.96364  0.18599  Biso   1.000  C
  H3660    1.0000 0.01822  0.94644  0.23409  Biso   1.000  H
  H3661    1.0000 0.01822  0.94648  0.23409  Biso   1.000  H
  H3662    1.0000 0.01818  0.94644  0.23409  Biso   1.000  H
  H3663    1.0000 0.01818  0.94648  0.23409  Biso   1.000  H
  H3664    1.0000 0.05882  0.07260  0.18599  Biso   1.000  H
  H3665    1.0000 0.07511  0.01182  0.18650  Biso   1.000  H
  C2176    1.0000 0.01237  0.02729  0.13620  Biso   1.000  C
  H3666    1.0000 0.07511  0.01178  0.18650  Biso   1.000  H
  C2177    1.0000 0.01237  0.02725  0.13620  Biso   1.000  C
  H3667    1.0000 0.07507  0.01182  0.18650  Biso   1.000  H
  H3668    1.0000 0.07507  0.01178  0.18650  Biso   1.000  H
  C2178    1.0000 0.95351  0.91107  0.29754  Biso   1.000  C
  H3669    1.0000 0.98500  0.04912  0.38568  Biso   1.000  H
  H3670    1.0000 0.93675  0.01099  0.37249  Biso   1.000  H
  H3671    1.0000 0.98500  0.04908  0.38568  Biso   1.000  H
  H3672    1.0000 0.98496  0.04912  0.38568  Biso   1.000  H
  H3673    1.0000 0.93679  0.01099  0.37249  Biso   1.000  H
  H3674    1.0000 0.98496  0.04908  0.38568  Biso   1.000  H
  H3675    1.0000 0.94829  0.06098  0.33609  Biso   1.000  H
  H3676    1.0000 0.01500  0.95088  0.38568  Biso   1.000  H
  H3677    1.0000 0.06321  0.98901  0.37249  Biso   1.000  H
  H3678    1.0000 0.06321  0.98897  0.37249  Biso   1.000  H
  H3679    1.0000 0.06317  0.98901  0.37249  Biso   1.000  H
  H3680    1.0000 0.06317  0.98897  0.37249  Biso   1.000  H
  H3681    1.0000 0.05171  0.93898  0.33609  Biso   1.000  H
  H3682    1.0000 0.36597  0.01559  0.55420  Biso   1.000  H
  H3683    1.0000 0.39499  0.96482  0.53108  Biso   1.000  H
  H3684    1.0000 0.39499  0.96478  0.53108  Biso   1.000  H
  H3685    1.0000 0.39503  0.96482  0.53108  Biso   1.000  H
  H3686    1.0000 0.39503  0.96478  0.53108  Biso   1.000  H
  C2179    1.0000 0.14202  0.87734  0.56795  Biso   1.000  C
  C2180    1.0000 0.12266  0.93204  0.64200  Biso   1.000  C
  C2181    1.0000 0.14202  0.87730  0.56795  Biso   1.000  C
  C2182    1.0000 0.14198  0.87734  0.56795  Biso   1.000  C
  C2183    1.0000 0.14198  0.87730  0.56795  Biso   1.000  C
  H3687    1.0000 0.94578  0.36597  0.48439  Biso   1.000  H
  H3688    1.0000 0.96886  0.39499  0.53520  Biso   1.000  H
  H3689    1.0000 0.96886  0.39503  0.53520  Biso   1.000  H
  C2184    1.0000 0.93204  0.14202  0.62264  Biso   1.000  C
  C2185    1.0000 0.85794  0.12266  0.56795  Biso   1.000  C
  C2186    1.0000 0.93204  0.14198  0.62264  Biso   1.000  C
  C2187    1.0000 0.85798  0.12266  0.56795  Biso   1.000  C
  H3690    1.0000 0.92485  0.98818  0.18650  Biso   1.000  H
  H3691    1.0000 0.94118  0.92736  0.18599  Biso   1.000  H
  C2188    1.0000 0.98763  0.97267  0.13620  Biso   1.000  C
  C2189    1.0000 0.98763  0.97271  0.13620  Biso   1.000  C
  H3692    1.0000 0.92489  0.98818  0.18650  Biso   1.000  H
  C2190    1.0000 0.98759  0.97267  0.13620  Biso   1.000  C
  C2191    1.0000 0.98759  0.97271  0.13620  Biso   1.000  C
  H3693    1.0000 0.03518  0.03110  0.10499  Biso   1.000  H
  H3694    1.0000 0.98441  0.05418  0.13401  Biso   1.000  H
  H3695    1.0000 0.98437  0.05418  0.13401  Biso   1.000  H
  C2192    1.0000 0.92018  0.90110  0.34591  Biso   1.000  C
  H3696    1.0000 0.98850  0.89509  0.30311  Biso   1.000  H
  H3697    1.0000 0.93706  0.89305  0.26731  Biso   1.000  H
  H3698    1.0000 0.93706  0.89309  0.26731  Biso   1.000  H
  H3699    1.0000 0.93710  0.89305  0.26731  Biso   1.000  H
  H3700    1.0000 0.93710  0.89309  0.26731  Biso   1.000  H
  H3701    1.0000 0.16330  0.86921  0.53838  Biso   1.000  H
  C2193    1.0000 0.09887  0.84589  0.57980  Biso   1.000  C
  H3702    1.0000 0.16330  0.86917  0.53838  Biso   1.000  H
  H3703    1.0000 0.13079  0.96160  0.66328  Biso   1.000  H
  C2194    1.0000 0.07982  0.90110  0.65405  Biso   1.000  C
  C2195    1.0000 0.07978  0.90110  0.65405  Biso   1.000  C
  H3704    1.0000 0.96160  0.16330  0.63081  Biso   1.000  H
  C2196    1.0000 0.92018  0.09887  0.65405  Biso   1.000  C
  H3705    1.0000 0.83666  0.13079  0.53838  Biso   1.000  H
  C2197    1.0000 0.84589  0.07982  0.59888  Biso   1.000  C
  C2198    1.0000 0.84589  0.07978  0.59888  Biso   1.000  C
  H3706    1.0000 0.96482  0.96886  0.10499  Biso   1.000  H
  H3707    1.0000 0.96478  0.96886  0.10499  Biso   1.000  H
  H3708    1.0000 0.01559  0.94578  0.13401  Biso   1.000  H
  C2199    1.0000 0.87734  0.93204  0.35796  Biso   1.000  C
  C2200    1.0000 0.93204  0.85794  0.37732  Biso   1.000  C
  C2201    1.0000 0.93204  0.85798  0.37732  Biso   1.000  C
  C2202    1.0000 0.87730  0.93204  0.35796  Biso   1.000  C
  C2203    1.0000 0.06793  0.85794  0.62264  Biso   1.000  C
  C2204    1.0000 0.08893  0.79752  0.54647  Biso   1.000  C
  C2205    1.0000 0.06793  0.85798  0.62264  Biso   1.000  C
  C2206    1.0000 0.08889  0.79752  0.54647  Biso   1.000  C
  C2207    1.0000 0.04645  0.91107  0.70246  Biso   1.000  C
  C2208    1.0000 0.87734  0.06793  0.64200  Biso   1.000  C
  C2209    1.0000 0.95351  0.08893  0.70246  Biso   1.000  C
  C2210    1.0000 0.95351  0.08889  0.70246  Biso   1.000  C
  C2211    1.0000 0.87730  0.06793  0.64200  Biso   1.000  C
  C2212    1.0000 0.79752  0.04645  0.58891  Biso   1.000  C
  C2213    1.0000 0.84589  0.92018  0.40112  Biso   1.000  C
  H3709    1.0000 0.86921  0.96160  0.33668  Biso   1.000  H
  H3710    1.0000 0.86917  0.96160  0.33668  Biso   1.000  H
  H3711    1.0000 0.96160  0.83666  0.36919  Biso   1.000  H
  C2214    1.0000 0.90110  0.84589  0.42020  Biso   1.000  C
  H3712    1.0000 0.03840  0.83666  0.63081  Biso   1.000  H
  H3713    1.0000 0.03836  0.83666  0.63081  Biso   1.000  H
  H3714    1.0000 0.10491  0.80309  0.51148  Biso   1.000  H
  H3715    1.0000 0.10691  0.76725  0.56288  Biso   1.000  H
  N278     1.0000 0.03365  0.78425  0.53940  Biso   1.000  N
  H3716    1.0000 0.10691  0.76729  0.56288  Biso   1.000  H
  H3717    1.0000 0.10487  0.80309  0.51148  Biso   1.000  H
  H3718    1.0000 0.10688  0.76725  0.56288  Biso   1.000  H
  H3719    1.0000 0.10688  0.76729  0.56288  Biso   1.000  H
  H3720    1.0000 0.01150  0.89509  0.69689  Biso   1.000  H
  H3721    1.0000 0.06290  0.89305  0.73269  Biso   1.000  H
  N279     1.0000 0.03938  0.96631  0.71573  Biso   1.000  N
  H3722    1.0000 0.06290  0.89309  0.73269  Biso   1.000  H
  H3723    1.0000 0.01146  0.89509  0.69689  Biso   1.000  H
  H3724    1.0000 0.06286  0.89305  0.73269  Biso   1.000  H
  H3725    1.0000 0.06286  0.89309  0.73269  Biso   1.000  H
  H3726    1.0000 0.86921  0.03840  0.66328  Biso   1.000  H
  H3727    1.0000 0.86921  0.03836  0.66328  Biso   1.000  H
  H3728    1.0000 0.86917  0.03840  0.66328  Biso   1.000  H
  H3729    1.0000 0.86917  0.03836  0.66328  Biso   1.000  H
  H3730    1.0000 0.98850  0.10491  0.69689  Biso   1.000  H
  H3731    1.0000 0.93706  0.10691  0.73269  Biso   1.000  H
  N280     1.0000 0.96062  0.03365  0.71573  Biso   1.000  N
  H3732    1.0000 0.98850  0.10487  0.69689  Biso   1.000  H
  H3733    1.0000 0.93706  0.10688  0.73269  Biso   1.000  H
  H3734    1.0000 0.93710  0.10691  0.73269  Biso   1.000  H
  N281     1.0000 0.96058  0.03365  0.71573  Biso   1.000  N
  H3735    1.0000 0.93710  0.10688  0.73269  Biso   1.000  H
  H3736    1.0000 0.80309  0.01150  0.60489  Biso   1.000  H
  H3737    1.0000 0.76725  0.06290  0.60689  Biso   1.000  H
  N282     1.0000 0.78425  0.03938  0.53367  Biso   1.000  N
  H3738    1.0000 0.80309  0.01146  0.60489  Biso   1.000  H
  H3739    1.0000 0.76725  0.06286  0.60689  Biso   1.000  H
  H3740    1.0000 0.76729  0.06290  0.60689  Biso   1.000  H
  H3741    1.0000 0.76729  0.06286  0.60689  Biso   1.000  H
  C2215    1.0000 0.85794  0.87734  0.43205  Biso   1.000  C
  C2216    1.0000 0.79752  0.95351  0.41109  Biso   1.000  C
  C2217    1.0000 0.85794  0.87730  0.43205  Biso   1.000  C
  C2218    1.0000 0.85798  0.87734  0.43205  Biso   1.000  C
  C2219    1.0000 0.85798  0.87730  0.43205  Biso   1.000  C
  C2220    1.0000 0.91107  0.79752  0.45353  Biso   1.000  C
  C2221    1.0000 0.02776  0.73474  0.51145  Biso   1.000  C
  C2222    1.0000 0.00000  0.82292  0.49998  Biso   1.000  C
  C2223    1.0000 0.00000  0.82288  0.49998  Biso   1.000  C
  H3742    1.0000 0.02120  0.81468  0.52888  Biso   1.000  H
  C2224    1.0000 0.00000  0.00000  0.67710  Biso   1.000  C
  C2225    1.0000 0.01146  0.97220  0.76520  Biso   1.000  C
  H3743    1.0000 0.02890  0.97880  0.68530  Biso   1.000  H
  H3744    1.0000 0.97106  0.02120  0.68530  Biso   1.000  H
  C2226    1.0000 0.98854  0.02776  0.76520  Biso   1.000  C
  C2227    1.0000 0.98850  0.02776  0.76520  Biso   1.000  C
  C2228    1.0000 0.82292  0.00000  0.49998  Biso   1.000  C
  C2229    1.0000 0.82288  0.00000  0.49998  Biso   1.000  C
  C2230    1.0000 0.73474  0.01146  0.52778  Biso   1.000  C
  H3745    1.0000 0.81468  0.02890  0.52118  Biso   1.000  H
  H3746    1.0000 0.83666  0.86921  0.46158  Biso   1.000  H
  H3747    1.0000 0.83666  0.86917  0.46158  Biso   1.000  H
  H3748    1.0000 0.80309  0.98850  0.39511  Biso   1.000  H
  H3749    1.0000 0.76725  0.93706  0.39311  Biso   1.000  H
  N283     1.0000 0.78425  0.96062  0.46633  Biso   1.000  N
  H3750    1.0000 0.76725  0.93710  0.39311  Biso   1.000  H
  N284     1.0000 0.78425  0.96058  0.46633  Biso   1.000  N
  H3751    1.0000 0.76729  0.93706  0.39311  Biso   1.000  H
  H3752    1.0000 0.76729  0.93710  0.39311  Biso   1.000  H
  H3753    1.0000 0.89509  0.80309  0.48848  Biso   1.000  H
  H3754    1.0000 0.89305  0.76725  0.43708  Biso   1.000  H
  N285     1.0000 0.96631  0.78425  0.46060  Biso   1.000  N
  H3755    1.0000 0.89305  0.76729  0.43708  Biso   1.000  H
  H3756    1.0000 0.89309  0.76725  0.43708  Biso   1.000  H
  H3757    1.0000 0.89309  0.76729  0.43708  Biso   1.000  H
  C2231    1.0000 0.97220  0.73474  0.48852  Biso   1.000  C
  C2232    1.0000 0.03632  0.68601  0.54490  Biso   1.000  C
  H3758    1.0000 0.05352  0.73411  0.48180  Biso   1.000  H
  H3759    1.0000 0.05352  0.73407  0.48180  Biso   1.000  H
  H3760    1.0000 0.05348  0.73411  0.48180  Biso   1.000  H
  H3761    1.0000 0.05348  0.73407  0.48180  Biso   1.000  H
  H3762    1.0000 0.97880  0.81468  0.47108  Biso   1.000  H
  C2233    1.0000 0.96678  0.85732  0.53559  Biso   1.000  C
  C2234    1.0000 0.96678  0.85728  0.53559  Biso   1.000  C
  C2235    1.0000 0.03322  0.85732  0.46441  Biso   1.000  C
  C2236    1.0000 0.03322  0.85728  0.46441  Biso   1.000  C
  C2237    1.0000 0.03318  0.85732  0.46441  Biso   1.000  C
  C2238    1.0000 0.03318  0.85728  0.46441  Biso   1.000  C
  C2239    1.0000 0.96435  0.96678  0.64270  Biso   1.000  C
  C2240    1.0000 0.96439  0.96678  0.64270  Biso   1.000  C
  C2241    1.0000 0.03561  0.03322  0.64270  Biso   1.000  C
  C2242    1.0000 0.03561  0.03318  0.64270  Biso   1.000  C
  C2243    1.0000 0.03557  0.03322  0.64270  Biso   1.000  C
  C2244    1.0000 0.03557  0.03318  0.64270  Biso   1.000  C
  H3763    1.0000 0.98178  0.94644  0.76587  Biso   1.000  H
  H3764    1.0000 0.98178  0.94648  0.76587  Biso   1.000  H
  C2245    1.0000 0.04492  0.96368  0.81397  Biso   1.000  C
  C2246    1.0000 0.04492  0.96364  0.81397  Biso   1.000  C
  C2247    1.0000 0.04488  0.96368  0.81397  Biso   1.000  C
  C2248    1.0000 0.04488  0.96364  0.81397  Biso   1.000  C
  C2249    1.0000 0.95508  0.03632  0.81397  Biso   1.000  C
  H3765    1.0000 0.01822  0.05352  0.76587  Biso   1.000  H
  H3766    1.0000 0.01822  0.05348  0.76587  Biso   1.000  H
  H3767    1.0000 0.01818  0.05352  0.76587  Biso   1.000  H
  H3768    1.0000 0.01818  0.05348  0.76587  Biso   1.000  H
  H3769    1.0000 0.81468  0.97106  0.47878  Biso   1.000  H
  C2250    1.0000 0.85732  0.96435  0.53320  Biso   1.000  C
  C2251    1.0000 0.85732  0.96439  0.53320  Biso   1.000  C
  C2252    1.0000 0.85728  0.96435  0.53320  Biso   1.000  C
  C2253    1.0000 0.85728  0.96439  0.53320  Biso   1.000  C
  C2254    1.0000 0.85732  0.03561  0.46680  Biso   1.000  C
  C2255    1.0000 0.85732  0.03557  0.46680  Biso   1.000  C
  C2256    1.0000 0.85728  0.03561  0.46680  Biso   1.000  C
  C2257    1.0000 0.85728  0.03557  0.46680  Biso   1.000  C
  C2258    1.0000 0.73474  0.98854  0.47222  Biso   1.000  C
  C2259    1.0000 0.73474  0.98850  0.47222  Biso   1.000  C
  H3770    1.0000 0.73411  0.98178  0.55350  Biso   1.000  H
  H3771    1.0000 0.73407  0.98178  0.55350  Biso   1.000  H
  C2260    1.0000 0.68601  0.04492  0.53630  Biso   1.000  C
  C2261    1.0000 0.68601  0.04488  0.53630  Biso   1.000  C
  C2262    1.0000 0.96368  0.68601  0.45510  Biso   1.000  C
  H3772    1.0000 0.94644  0.73411  0.51820  Biso   1.000  H
  H3773    1.0000 0.94644  0.73407  0.51820  Biso   1.000  H
  C2263    1.0000 0.96364  0.68601  0.45510  Biso   1.000  C
  H3774    1.0000 0.94648  0.73411  0.51820  Biso   1.000  H
  H3775    1.0000 0.94648  0.73407  0.51820  Biso   1.000  H
  H3776    1.0000 0.01182  0.68648  0.57509  Biso   1.000  H
  H3777    1.0000 0.07260  0.68601  0.55880  Biso   1.000  H
  C2264    1.0000 0.02729  0.63619  0.51239  Biso   1.000  C
  H3778    1.0000 0.07260  0.68597  0.55880  Biso   1.000  H
  H3779    1.0000 0.01178  0.68648  0.57509  Biso   1.000  H
  C2265    1.0000 0.02725  0.63619  0.51239  Biso   1.000  C
  H3780    1.0000 0.95088  0.88570  0.51498  Biso   1.000  H
  H3781    1.0000 0.98901  0.87251  0.56319  Biso   1.000  H
  H3782    1.0000 0.95088  0.88566  0.51498  Biso   1.000  H
  H3783    1.0000 0.98901  0.87247  0.56319  Biso   1.000  H
  H3784    1.0000 0.98897  0.87251  0.56319  Biso   1.000  H
  H3785    1.0000 0.98897  0.87247  0.56319  Biso   1.000  H
  H3786    1.0000 0.93898  0.83608  0.55169  Biso   1.000  H
  H3787    1.0000 0.04912  0.88570  0.48498  Biso   1.000  H
  H3788    1.0000 0.01099  0.87251  0.43681  Biso   1.000  H
  H3789    1.0000 0.04912  0.88566  0.48498  Biso   1.000  H
  H3790    1.0000 0.01099  0.87247  0.43681  Biso   1.000  H
  H3791    1.0000 0.04908  0.88570  0.48498  Biso   1.000  H
  H3792    1.0000 0.04908  0.88566  0.48498  Biso   1.000  H
  H3793    1.0000 0.06098  0.83608  0.44831  Biso   1.000  H
  H3794    1.0000 0.98500  0.95088  0.61428  Biso   1.000  H
  H3795    1.0000 0.93675  0.98901  0.62747  Biso   1.000  H
  H3796    1.0000 0.93675  0.98897  0.62747  Biso   1.000  H
  H3797    1.0000 0.98496  0.95088  0.61428  Biso   1.000  H
  H3798    1.0000 0.93679  0.98901  0.62747  Biso   1.000  H
  H3799    1.0000 0.93679  0.98897  0.62747  Biso   1.000  H
  H3800    1.0000 0.94829  0.93898  0.66391  Biso   1.000  H
  H3801    1.0000 0.01500  0.04912  0.61428  Biso   1.000  H
  H3802    1.0000 0.06321  0.01099  0.62747  Biso   1.000  H
  H3803    1.0000 0.01500  0.04908  0.61428  Biso   1.000  H
  H3804    1.0000 0.06317  0.01099  0.62747  Biso   1.000  H
  H3805    1.0000 0.05171  0.06098  0.66391  Biso   1.000  H
  H3806    1.0000 0.07511  0.98818  0.81350  Biso   1.000  H
  H3807    1.0000 0.05882  0.92736  0.81397  Biso   1.000  H
  C2266    1.0000 0.01237  0.97267  0.86380  Biso   1.000  C
  C2267    1.0000 0.01237  0.97271  0.86380  Biso   1.000  C
  H3808    1.0000 0.07507  0.98818  0.81350  Biso   1.000  H
  H3809    1.0000 0.92485  0.01182  0.81350  Biso   1.000  H
  H3810    1.0000 0.94118  0.07260  0.81397  Biso   1.000  H
  C2268    1.0000 0.98763  0.02729  0.86380  Biso   1.000  C
  H3811    1.0000 0.92485  0.01178  0.81350  Biso   1.000  H
  C2269    1.0000 0.98763  0.02725  0.86380  Biso   1.000  C
  H3812    1.0000 0.92489  0.01182  0.81350  Biso   1.000  H
  C2270    1.0000 0.98759  0.02729  0.86380  Biso   1.000  C
  H3813    1.0000 0.92489  0.01178  0.81350  Biso   1.000  H
  C2271    1.0000 0.98759  0.02725  0.86380  Biso   1.000  C
  H3814    1.0000 0.88570  0.98500  0.54910  Biso   1.000  H
  H3815    1.0000 0.87251  0.93675  0.51097  Biso   1.000  H
  H3816    1.0000 0.88570  0.98496  0.54910  Biso   1.000  H
  H3817    1.0000 0.87251  0.93679  0.51097  Biso   1.000  H
  H3818    1.0000 0.88566  0.98500  0.54910  Biso   1.000  H
  H3819    1.0000 0.87247  0.93675  0.51097  Biso   1.000  H
  H3820    1.0000 0.88566  0.98496  0.54910  Biso   1.000  H
  H3821    1.0000 0.87247  0.93679  0.51097  Biso   1.000  H
  H3822    1.0000 0.83608  0.94829  0.56100  Biso   1.000  H
  H3823    1.0000 0.88570  0.01500  0.45090  Biso   1.000  H
  H3824    1.0000 0.87251  0.06321  0.48899  Biso   1.000  H
  H3825    1.0000 0.87251  0.06317  0.48899  Biso   1.000  H
  H3826    1.0000 0.88566  0.01500  0.45090  Biso   1.000  H
  H3827    1.0000 0.87247  0.06321  0.48899  Biso   1.000  H
  H3828    1.0000 0.87247  0.06317  0.48899  Biso   1.000  H
  H3829    1.0000 0.83608  0.05171  0.43900  Biso   1.000  H
  C2272    1.0000 0.68601  0.95508  0.46366  Biso   1.000  C
  H3830    1.0000 0.73411  0.01822  0.44650  Biso   1.000  H
  H3831    1.0000 0.73411  0.01818  0.44650  Biso   1.000  H
  H3832    1.0000 0.73407  0.01822  0.44650  Biso   1.000  H
  H3833    1.0000 0.73407  0.01818  0.44650  Biso   1.000  H
  C2273    1.0000 0.63619  0.01237  0.52727  Biso   1.000  C
  H3834    1.0000 0.68648  0.07511  0.51180  Biso   1.000  H
  H3835    1.0000 0.68601  0.05882  0.57258  Biso   1.000  H
  H3836    1.0000 0.68648  0.07507  0.51180  Biso   1.000  H
  H3837    1.0000 0.68597  0.05882  0.57258  Biso   1.000  H
  H3838    1.0000 0.98818  0.68648  0.42491  Biso   1.000  H
  H3839    1.0000 0.92736  0.68601  0.44120  Biso   1.000  H
  C2274    1.0000 0.97267  0.63619  0.48761  Biso   1.000  C
  H3840    1.0000 0.92736  0.68597  0.44120  Biso   1.000  H
  C2275    1.0000 0.97271  0.63619  0.48761  Biso   1.000  C
  H3841    1.0000 0.05418  0.63403  0.48439  Biso   1.000  H
  H3842    1.0000 0.03110  0.60501  0.53520  Biso   1.000  H
  H3843    1.0000 0.05418  0.63399  0.48439  Biso   1.000  H
  H3844    1.0000 0.03110  0.60497  0.53520  Biso   1.000  H
  H3845    1.0000 0.98441  0.94578  0.86599  Biso   1.000  H
  H3846    1.0000 0.98437  0.94578  0.86599  Biso   1.000  H
  H3847    1.0000 0.03518  0.96886  0.89497  Biso   1.000  H
  H3848    1.0000 0.01559  0.05418  0.86599  Biso   1.000  H
  H3849    1.0000 0.96482  0.03110  0.89497  Biso   1.000  H
  H3850    1.0000 0.96478  0.03110  0.89497  Biso   1.000  H
  H3851    1.0000 0.68648  0.92485  0.48820  Biso   1.000  H
  H3852    1.0000 0.68601  0.94118  0.42738  Biso   1.000  H
  C2276    1.0000 0.63619  0.98763  0.47273  Biso   1.000  C
  H3853    1.0000 0.68648  0.92489  0.48820  Biso   1.000  H
  C2277    1.0000 0.63619  0.98759  0.47273  Biso   1.000  C
  H3854    1.0000 0.68597  0.94118  0.42738  Biso   1.000  H
  H3855    1.0000 0.63403  0.98441  0.55420  Biso   1.000  H
  H3856    1.0000 0.63403  0.98437  0.55420  Biso   1.000  H
  H3857    1.0000 0.63399  0.98441  0.55420  Biso   1.000  H
  H3858    1.0000 0.63399  0.98437  0.55420  Biso   1.000  H
  H3859    1.0000 0.60501  0.03518  0.53108  Biso   1.000  H
  H3860    1.0000 0.60497  0.03518  0.53108  Biso   1.000  H
  H3861    1.0000 0.94578  0.63403  0.51561  Biso   1.000  H
  H3862    1.0000 0.96886  0.60501  0.46480  Biso   1.000  H
  H3863    1.0000 0.94578  0.63399  0.51561  Biso   1.000  H
  H3864    1.0000 0.96886  0.60497  0.46480  Biso   1.000  H
  H3865    1.0000 0.60501  0.96482  0.46888  Biso   1.000  H
  H3866    1.0000 0.60501  0.96478  0.46888  Biso   1.000  H
  H3867    1.0000 0.60497  0.96482  0.46888  Biso   1.000  H
  H3868    1.0000 0.60497  0.96478  0.46888  Biso   1.000  H
  H3869    1.0000 0.63403  0.01559  0.44580  Biso   1.000  H
  H3870    1.0000 0.63399  0.01559  0.44580  Biso   1.000  H
  C2278    1.0000 0.14202  0.12266  0.43205  Biso   1.000  C
  C2279    1.0000 0.09887  0.15407  0.42020  Biso   1.000  C
  C2280    1.0000 0.15407  0.07982  0.40112  Biso   1.000  C
  C2281    1.0000 0.15407  0.07978  0.40112  Biso   1.000  C
  H3871    1.0000 0.16330  0.13079  0.46158  Biso   1.000  H
  C2282    1.0000 0.06793  0.14202  0.37732  Biso   1.000  C
  C2283    1.0000 0.06793  0.14198  0.37732  Biso   1.000  C
  C2284    1.0000 0.08893  0.20248  0.45353  Biso   1.000  C
  C2285    1.0000 0.08893  0.20244  0.45353  Biso   1.000  C
  C2286    1.0000 0.14198  0.12266  0.43205  Biso   1.000  C
  C2287    1.0000 0.08889  0.20248  0.45353  Biso   1.000  C
  C2288    1.0000 0.08889  0.20244  0.45353  Biso   1.000  C
  C2289    1.0000 0.12266  0.06793  0.35796  Biso   1.000  C
  C2290    1.0000 0.20248  0.04645  0.41109  Biso   1.000  C
  C2291    1.0000 0.20244  0.04645  0.41109  Biso   1.000  C
  C2292    1.0000 0.07982  0.09887  0.34591  Biso   1.000  C
  C2293    1.0000 0.07978  0.09887  0.34591  Biso   1.000  C
  H3872    1.0000 0.03840  0.16330  0.36919  Biso   1.000  H
  H3873    1.0000 0.03836  0.16330  0.36919  Biso   1.000  H
  H3874    1.0000 0.10491  0.19691  0.48848  Biso   1.000  H
  H3875    1.0000 0.10691  0.23271  0.43708  Biso   1.000  H
  N286     1.0000 0.03365  0.21575  0.46060  Biso   1.000  N
  H3876    1.0000 0.10491  0.19687  0.48848  Biso   1.000  H
  H3877    1.0000 0.10691  0.23268  0.43708  Biso   1.000  H
  N287     1.0000 0.03365  0.21571  0.46060  Biso   1.000  N
  H3878    1.0000 0.10487  0.19691  0.48848  Biso   1.000  H
  H3879    1.0000 0.10688  0.23271  0.43708  Biso   1.000  H
  H3880    1.0000 0.10487  0.19687  0.48848  Biso   1.000  H
  H3881    1.0000 0.10688  0.23268  0.43708  Biso   1.000  H
  H3882    1.0000 0.13079  0.03840  0.33668  Biso   1.000  H
  H3883    1.0000 0.13079  0.03836  0.33668  Biso   1.000  H
  H3884    1.0000 0.19691  0.01150  0.39511  Biso   1.000  H
  H3885    1.0000 0.23271  0.06290  0.39311  Biso   1.000  H
  N288     1.0000 0.21575  0.03938  0.46633  Biso   1.000  N
  H3886    1.0000 0.19691  0.01146  0.39511  Biso   1.000  H
  H3887    1.0000 0.23271  0.06286  0.39311  Biso   1.000  H
  H3888    1.0000 0.19687  0.01150  0.39511  Biso   1.000  H
  H3889    1.0000 0.23268  0.06290  0.39311  Biso   1.000  H
  N289     1.0000 0.21571  0.03938  0.46633  Biso   1.000  N
  H3890    1.0000 0.19687  0.01146  0.39511  Biso   1.000  H
  H3891    1.0000 0.23268  0.06286  0.39311  Biso   1.000  H
  C2294    1.0000 0.04645  0.08893  0.29754  Biso   1.000  C
  C2295    1.0000 0.04645  0.08889  0.29754  Biso   1.000  C
  C2296    1.0000 0.02776  0.26522  0.48852  Biso   1.000  C
  C2297    1.0000 0.00000  0.17708  0.49998  Biso   1.000  C
  H3892    1.0000 0.02120  0.18528  0.47108  Biso   1.000  H
  C2298    1.0000 0.26522  0.01146  0.47222  Biso   1.000  C
  C2299    1.0000 0.17708  0.00000  0.49998  Biso   1.000  C
  H3893    1.0000 0.18528  0.02890  0.47878  Biso   1.000  H
  N290     1.0000 0.03938  0.03365  0.28427  Biso   1.000  N
  H3894    1.0000 0.01150  0.10491  0.30311  Biso   1.000  H
  H3895    1.0000 0.06290  0.10691  0.26731  Biso   1.000  H
  H3896    1.0000 0.01150  0.10487  0.30311  Biso   1.000  H
  H3897    1.0000 0.06290  0.10688  0.26731  Biso   1.000  H
  H3898    1.0000 0.01146  0.10491  0.30311  Biso   1.000  H
  H3899    1.0000 0.06286  0.10691  0.26731  Biso   1.000  H
  H3900    1.0000 0.01146  0.10487  0.30311  Biso   1.000  H
  H3901    1.0000 0.06286  0.10688  0.26731  Biso   1.000  H
  C2300    1.0000 0.97220  0.26522  0.51145  Biso   1.000  C
  C2301    1.0000 0.03632  0.31399  0.45510  Biso   1.000  C
  H3902    1.0000 0.05352  0.26589  0.51820  Biso   1.000  H
  C2302    1.0000 0.03632  0.31395  0.45510  Biso   1.000  C
  H3903    1.0000 0.05348  0.26589  0.51820  Biso   1.000  H
  C2303    1.0000 0.96678  0.14268  0.46441  Biso   1.000  C
  N291     1.0000 0.96631  0.21575  0.53940  Biso   1.000  N
  N292     1.0000 0.96631  0.21571  0.53940  Biso   1.000  N
  H3904    1.0000 0.97880  0.18528  0.52888  Biso   1.000  H
  C2304    1.0000 0.03322  0.14268  0.53559  Biso   1.000  C
  C2305    1.0000 0.03318  0.14268  0.53559  Biso   1.000  C
  H3905    1.0000 0.26589  0.98178  0.44650  Biso   1.000  H
  C2306    1.0000 0.26522  0.98854  0.52778  Biso   1.000  C
  C2307    1.0000 0.26522  0.98850  0.52778  Biso   1.000  C
  C2308    1.0000 0.31399  0.04492  0.46366  Biso   1.000  C
  C2309    1.0000 0.31399  0.04488  0.46366  Biso   1.000  C
  C2310    1.0000 0.31395  0.04492  0.46366  Biso   1.000  C
  C2311    1.0000 0.31395  0.04488  0.46366  Biso   1.000  C
  N293     1.0000 0.21575  0.96062  0.53367  Biso   1.000  N
  C2312    1.0000 0.14268  0.96435  0.46680  Biso   1.000  C
  N294     1.0000 0.21575  0.96058  0.53367  Biso   1.000  N
  C2313    1.0000 0.14268  0.96439  0.46680  Biso   1.000  C
  N295     1.0000 0.21571  0.96062  0.53367  Biso   1.000  N
  N296     1.0000 0.21571  0.96058  0.53367  Biso   1.000  N
  H3906    1.0000 0.18528  0.97106  0.52118  Biso   1.000  H
  C2314    1.0000 0.14268  0.03561  0.53320  Biso   1.000  C
  C2315    1.0000 0.14268  0.03557  0.53320  Biso   1.000  C
  C2316    1.0000 0.01146  0.02776  0.23476  Biso   1.000  C
  C2317    1.0000 0.00000  0.00000  0.32290  Biso   1.000  C
  H3907    1.0000 0.02890  0.02120  0.31470  Biso   1.000  H
  C2318    1.0000 0.96368  0.31399  0.54490  Biso   1.000  C
  H3908    1.0000 0.94644  0.26589  0.48180  Biso   1.000  H
  C2319    1.0000 0.96368  0.31395  0.54490  Biso   1.000  C
  C2320    1.0000 0.96364  0.31399  0.54490  Biso   1.000  C
  H3909    1.0000 0.94648  0.26589  0.48180  Biso   1.000  H
  C2321    1.0000 0.96364  0.31395  0.54490  Biso   1.000  C
  H3910    1.0000 0.01182  0.31348  0.42491  Biso   1.000  H
  H3911    1.0000 0.07260  0.31399  0.44120  Biso   1.000  H
  C2322    1.0000 0.02729  0.36378  0.48761  Biso   1.000  C
  H3912    1.0000 0.01178  0.31348  0.42491  Biso   1.000  H
  C2323    1.0000 0.02725  0.36378  0.48761  Biso   1.000  C
  H3913    1.0000 0.95088  0.11430  0.48498  Biso   1.000  H
  H3914    1.0000 0.98901  0.12749  0.43681  Biso   1.000  H
  H3915    1.0000 0.98897  0.12749  0.43681  Biso   1.000  H
  H3916    1.0000 0.93898  0.16389  0.44831  Biso   1.000  H
  C2324    1.0000 0.91107  0.20248  0.54647  Biso   1.000  C
  C2325    1.0000 0.91107  0.20244  0.54647  Biso   1.000  C
  H3917    1.0000 0.04912  0.11430  0.51498  Biso   1.000  H
  H3918    1.0000 0.01099  0.12749  0.56319  Biso   1.000  H
  H3919    1.0000 0.04908  0.11430  0.51498  Biso   1.000  H
  H3920    1.0000 0.06098  0.16389  0.55169  Biso   1.000  H
  C2326    1.0000 0.31399  0.95508  0.53630  Biso   1.000  C
  C2327    1.0000 0.31395  0.95508  0.53630  Biso   1.000  C
  H3921    1.0000 0.26589  0.01822  0.55350  Biso   1.000  H
  H3922    1.0000 0.26589  0.01818  0.55350  Biso   1.000  H
  H3923    1.0000 0.31348  0.07511  0.48820  Biso   1.000  H
  H3924    1.0000 0.31399  0.05882  0.42738  Biso   1.000  H
  C2328    1.0000 0.36378  0.01237  0.47273  Biso   1.000  C
  H3925    1.0000 0.31348  0.07507  0.48820  Biso   1.000  H
  C2329    1.0000 0.20248  0.95351  0.58891  Biso   1.000  C
  C2330    1.0000 0.20244  0.95351  0.58891  Biso   1.000  C
  H3926    1.0000 0.11430  0.98500  0.45090  Biso   1.000  H
  H3927    1.0000 0.12749  0.93675  0.48899  Biso   1.000  H
  H3928    1.0000 0.11430  0.98496  0.45090  Biso   1.000  H
  H3929    1.0000 0.12749  0.93679  0.48899  Biso   1.000  H
  H3930    1.0000 0.16389  0.94829  0.43900  Biso   1.000  H
  H3931    1.0000 0.11430  0.01500  0.54910  Biso   1.000  H
  H3932    1.0000 0.12749  0.06321  0.51097  Biso   1.000  H
  H3933    1.0000 0.12749  0.06317  0.51097  Biso   1.000  H
  H3934    1.0000 0.16389  0.05171  0.56100  Biso   1.000  H
  C2331    1.0000 0.98854  0.97220  0.23476  Biso   1.000  C
  C2332    1.0000 0.98850  0.97220  0.23476  Biso   1.000  C
  H3935    1.0000 0.98178  0.05352  0.23409  Biso   1.000  H
  H3936    1.0000 0.98178  0.05348  0.23409  Biso   1.000  H
  C2333    1.0000 0.04492  0.03632  0.18599  Biso   1.000  C
  C2334    1.0000 0.04488  0.03632  0.18599  Biso   1.000  C
  N297     1.0000 0.96062  0.96631  0.28427  Biso   1.000  N
  N298     1.0000 0.96058  0.96631  0.28427  Biso   1.000  N
  H3937    1.0000 0.97106  0.97880  0.31470  Biso   1.000  H
  C2335    1.0000 0.96435  0.03322  0.35730  Biso   1.000  C
  C2336    1.0000 0.96435  0.03318  0.35730  Biso   1.000  C
  C2337    1.0000 0.96439  0.03322  0.35730  Biso   1.000  C
  C2338    1.0000 0.96439  0.03318  0.35730  Biso   1.000  C
  C2339    1.0000 0.03561  0.96678  0.35730  Biso   1.000  C
  C2340    1.0000 0.03557  0.96678  0.35730  Biso   1.000  C
  H3938    1.0000 0.98818  0.31348  0.57509  Biso   1.000  H
  H3939    1.0000 0.92736  0.31399  0.55880  Biso   1.000  H
  C2341    1.0000 0.97267  0.36378  0.51239  Biso   1.000  C
  C2342    1.0000 0.97271  0.36378  0.51239  Biso   1.000  C
  H3940    1.0000 0.05418  0.36597  0.51561  Biso   1.000  H
  H3941    1.0000 0.03110  0.39499  0.46480  Biso   1.000  H
  H3942    1.0000 0.03110  0.39503  0.46480  Biso   1.000  H
  C2343    1.0000 0.90110  0.15407  0.57980  Biso   1.000  C
  H3943    1.0000 0.89509  0.19691  0.51148  Biso   1.000  H
  H3944    1.0000 0.89305  0.23271  0.56288  Biso   1.000  H
  H3945    1.0000 0.89509  0.19687  0.51148  Biso   1.000  H
  H3946    1.0000 0.89305  0.23268  0.56288  Biso   1.000  H
  H3947    1.0000 0.89309  0.23271  0.56288  Biso   1.000  H
  H3948    1.0000 0.89309  0.23268  0.56288  Biso   1.000  H
  H3949    1.0000 0.31348  0.92485  0.51180  Biso   1.000  H
  H3950    1.0000 0.31399  0.94118  0.57258  Biso   1.000  H
  C2344    1.0000 0.36378  0.98763  0.52727  Biso   1.000  C
  H3951    1.0000 0.31348  0.92489  0.51180  Biso   1.000  H
  C2345    1.0000 0.36378  0.98759  0.52727  Biso   1.000  C
  H3952    1.0000 0.36597  0.98441  0.44580  Biso   1.000  H
  H3953    1.0000 0.36597  0.98437  0.44580  Biso   1.000  H
  H3954    1.0000 0.39499  0.03518  0.46888  Biso   1.000  H
  H3955    1.0000 0.39503  0.03518  0.46888  Biso   1.000  H
  C2346    1.0000 0.15407  0.92018  0.59888  Biso   1.000  C
  H3956    1.0000 0.19691  0.98850  0.60489  Biso   1.000  H
  H3957    1.0000 0.23271  0.93706  0.60689  Biso   1.000  H
  H3958    1.0000 0.23271  0.93710  0.60689  Biso   1.000  H
  H3959    1.0000 0.19687  0.98850  0.60489  Biso   1.000  H
  H3960    1.0000 0.23268  0.93706  0.60689  Biso   1.000  H
  H3961    1.0000 0.23268  0.93710  0.60689  Biso   1.000  H
  C2347    1.0000 0.95508  0.96368  0.18599  Biso   1.000  C
  C2348    1.0000 0.95508  0.96364  0.18599  Biso   1.000  C
  H3962    1.0000 0.01822  0.94644  0.23409  Biso   1.000  H
  H3963    1.0000 0.01822  0.94648  0.23409  Biso   1.000  H
  H3964    1.0000 0.01818  0.94644  0.23409  Biso   1.000  H
  H3965    1.0000 0.01818  0.94648  0.23409  Biso   1.000  H
  H3966    1.0000 0.07511  0.01182  0.18650  Biso   1.000  H
  H3967    1.0000 0.05882  0.07260  0.18599  Biso   1.000  H
  C2349    1.0000 0.01237  0.02729  0.13620  Biso   1.000  C
  H3968    1.0000 0.07511  0.01178  0.18650  Biso   1.000  H
  C2350    1.0000 0.01237  0.02725  0.13620  Biso   1.000  C
  H3969    1.0000 0.07507  0.01182  0.18650  Biso   1.000  H
  H3970    1.0000 0.07507  0.01178  0.18650  Biso   1.000  H
  C2351    1.0000 0.95351  0.91107  0.29754  Biso   1.000  C
  H3971    1.0000 0.98500  0.04912  0.38568  Biso   1.000  H
  H3972    1.0000 0.93675  0.01099  0.37249  Biso   1.000  H
  H3973    1.0000 0.98500  0.04908  0.38568  Biso   1.000  H
  H3974    1.0000 0.98496  0.04912  0.38568  Biso   1.000  H
  H3975    1.0000 0.93679  0.01099  0.37249  Biso   1.000  H
  H3976    1.0000 0.98496  0.04908  0.38568  Biso   1.000  H
  H3977    1.0000 0.94829  0.06098  0.33609  Biso   1.000  H
  H3978    1.0000 0.01500  0.95088  0.38568  Biso   1.000  H
  H3979    1.0000 0.06321  0.98901  0.37249  Biso   1.000  H
  H3980    1.0000 0.06321  0.98897  0.37249  Biso   1.000  H
  H3981    1.0000 0.06317  0.98901  0.37249  Biso   1.000  H
  H3982    1.0000 0.06317  0.98897  0.37249  Biso   1.000  H
  H3983    1.0000 0.05171  0.93898  0.33609  Biso   1.000  H
  H3984    1.0000 0.94578  0.36597  0.48439  Biso   1.000  H
  H3985    1.0000 0.96886  0.39499  0.53520  Biso   1.000  H
  H3986    1.0000 0.96886  0.39503  0.53520  Biso   1.000  H
  C2352    1.0000 0.93204  0.14202  0.62264  Biso   1.000  C
  C2353    1.0000 0.85794  0.12266  0.56795  Biso   1.000  C
  C2354    1.0000 0.93204  0.14198  0.62264  Biso   1.000  C
  C2355    1.0000 0.85798  0.12266  0.56795  Biso   1.000  C
  H3987    1.0000 0.39499  0.96482  0.53108  Biso   1.000  H
  H3988    1.0000 0.39499  0.96478  0.53108  Biso   1.000  H
  H3989    1.0000 0.39503  0.96482  0.53108  Biso   1.000  H
  H3990    1.0000 0.39503  0.96478  0.53108  Biso   1.000  H
  H3991    1.0000 0.36597  0.01559  0.55420  Biso   1.000  H
  C2356    1.0000 0.14202  0.87734  0.56795  Biso   1.000  C
  C2357    1.0000 0.12266  0.93204  0.64200  Biso   1.000  C
  C2358    1.0000 0.14202  0.87730  0.56795  Biso   1.000  C
  C2359    1.0000 0.14198  0.87734  0.56795  Biso   1.000  C
  C2360    1.0000 0.14198  0.87730  0.56795  Biso   1.000  C
  H3992    1.0000 0.92485  0.98818  0.18650  Biso   1.000  H
  H3993    1.0000 0.94118  0.92736  0.18599  Biso   1.000  H
  C2361    1.0000 0.98763  0.97267  0.13620  Biso   1.000  C
  C2362    1.0000 0.98763  0.97271  0.13620  Biso   1.000  C
  H3994    1.0000 0.92489  0.98818  0.18650  Biso   1.000  H
  C2363    1.0000 0.98759  0.97267  0.13620  Biso   1.000  C
  C2364    1.0000 0.98759  0.97271  0.13620  Biso   1.000  C
  H3995    1.0000 0.98441  0.05418  0.13401  Biso   1.000  H
  H3996    1.0000 0.98437  0.05418  0.13401  Biso   1.000  H
  H3997    1.0000 0.03518  0.03110  0.10499  Biso   1.000  H
  C2365    1.0000 0.92018  0.90110  0.34591  Biso   1.000  C
  H3998    1.0000 0.98850  0.89509  0.30311  Biso   1.000  H
  H3999    1.0000 0.93706  0.89305  0.26731  Biso   1.000  H
  H4000    1.0000 0.93706  0.89309  0.26731  Biso   1.000  H
  H4001    1.0000 0.93710  0.89305  0.26731  Biso   1.000  H
  H4002    1.0000 0.93710  0.89309  0.26731  Biso   1.000  H
  H4003    1.0000 0.96160  0.16330  0.63081  Biso   1.000  H
  C2366    1.0000 0.92018  0.09887  0.65405  Biso   1.000  C
  H4004    1.0000 0.83666  0.13079  0.53838  Biso   1.000  H
  C2367    1.0000 0.84589  0.07982  0.59888  Biso   1.000  C
  C2368    1.0000 0.84589  0.07978  0.59888  Biso   1.000  C
  H4005    1.0000 0.16330  0.86921  0.53838  Biso   1.000  H
  C2369    1.0000 0.09887  0.84589  0.57980  Biso   1.000  C
  H4006    1.0000 0.16330  0.86917  0.53838  Biso   1.000  H
  H4007    1.0000 0.13079  0.96160  0.66328  Biso   1.000  H
  C2370    1.0000 0.07982  0.90110  0.65405  Biso   1.000  C
  C2371    1.0000 0.07978  0.90110  0.65405  Biso   1.000  C
  H4008    1.0000 0.96482  0.96886  0.10499  Biso   1.000  H
  H4009    1.0000 0.96478  0.96886  0.10499  Biso   1.000  H
  H4010    1.0000 0.01559  0.94578  0.13401  Biso   1.000  H
  C2372    1.0000 0.87734  0.93204  0.35796  Biso   1.000  C
  C2373    1.0000 0.93204  0.85794  0.37732  Biso   1.000  C
  C2374    1.0000 0.93204  0.85798  0.37732  Biso   1.000  C
  C2375    1.0000 0.87730  0.93204  0.35796  Biso   1.000  C
  C2376    1.0000 0.87734  0.06793  0.64200  Biso   1.000  C
  C2377    1.0000 0.95351  0.08893  0.70246  Biso   1.000  C
  C2378    1.0000 0.95351  0.08889  0.70246  Biso   1.000  C
  C2379    1.0000 0.87730  0.06793  0.64200  Biso   1.000  C
  C2380    1.0000 0.79752  0.04645  0.58891  Biso   1.000  C
  C2381    1.0000 0.08893  0.79752  0.54647  Biso   1.000  C
  C2382    1.0000 0.08889  0.79752  0.54647  Biso   1.000  C
  C2383    1.0000 0.06793  0.85794  0.62264  Biso   1.000  C
  C2384    1.0000 0.06793  0.85798  0.62264  Biso   1.000  C
  C2385    1.0000 0.04645  0.91107  0.70246  Biso   1.000  C
  C2386    1.0000 0.84589  0.92018  0.40112  Biso   1.000  C
  H4011    1.0000 0.86921  0.96160  0.33668  Biso   1.000  H
  H4012    1.0000 0.86917  0.96160  0.33668  Biso   1.000  H
  H4013    1.0000 0.96160  0.83666  0.36919  Biso   1.000  H
  C2387    1.0000 0.90110  0.84589  0.42020  Biso   1.000  C
  H4014    1.0000 0.86921  0.03840  0.66328  Biso   1.000  H
  H4015    1.0000 0.86921  0.03836  0.66328  Biso   1.000  H
  H4016    1.0000 0.86917  0.03840  0.66328  Biso   1.000  H
  H4017    1.0000 0.86917  0.03836  0.66328  Biso   1.000  H
  H4018    1.0000 0.98850  0.10491  0.69689  Biso   1.000  H
  H4019    1.0000 0.93706  0.10691  0.73269  Biso   1.000  H
  N299     1.0000 0.96062  0.03365  0.71573  Biso   1.000  N
  H4020    1.0000 0.98850  0.10487  0.69689  Biso   1.000  H
  H4021    1.0000 0.93706  0.10688  0.73269  Biso   1.000  H
  H4022    1.0000 0.93710  0.10691  0.73269  Biso   1.000  H
  N300     1.0000 0.96058  0.03365  0.71573  Biso   1.000  N
  H4023    1.0000 0.93710  0.10688  0.73269  Biso   1.000  H
  N301     1.0000 0.78425  0.03938  0.53367  Biso   1.000  N
  H4024    1.0000 0.80309  0.01150  0.60489  Biso   1.000  H
  H4025    1.0000 0.76725  0.06290  0.60689  Biso   1.000  H
  H4026    1.0000 0.80309  0.01146  0.60489  Biso   1.000  H
  H4027    1.0000 0.76725  0.06286  0.60689  Biso   1.000  H
  H4028    1.0000 0.76729  0.06290  0.60689  Biso   1.000  H
  H4029    1.0000 0.76729  0.06286  0.60689  Biso   1.000  H
  N302     1.0000 0.03365  0.78425  0.53940  Biso   1.000  N
  H4030    1.0000 0.10491  0.80309  0.51148  Biso   1.000  H
  H4031    1.0000 0.10691  0.76725  0.56288  Biso   1.000  H
  H4032    1.0000 0.10691  0.76729  0.56288  Biso   1.000  H
  H4033    1.0000 0.10487  0.80309  0.51148  Biso   1.000  H
  H4034    1.0000 0.10688  0.76725  0.56288  Biso   1.000  H
  H4035    1.0000 0.10688  0.76729  0.56288  Biso   1.000  H
  H4036    1.0000 0.03840  0.83666  0.63081  Biso   1.000  H
  H4037    1.0000 0.03836  0.83666  0.63081  Biso   1.000  H
  H4038    1.0000 0.01150  0.89509  0.69689  Biso   1.000  H
  H4039    1.0000 0.06290  0.89305  0.73269  Biso   1.000  H
  N303     1.0000 0.03938  0.96631  0.71573  Biso   1.000  N
  H4040    1.0000 0.06290  0.89309  0.73269  Biso   1.000  H
  H4041    1.0000 0.01146  0.89509  0.69689  Biso   1.000  H
  H4042    1.0000 0.06286  0.89305  0.73269  Biso   1.000  H
  H4043    1.0000 0.06286  0.89309  0.73269  Biso   1.000  H
  C2388    1.0000 0.85794  0.87734  0.43205  Biso   1.000  C
  C2389    1.0000 0.79752  0.95351  0.41109  Biso   1.000  C
  C2390    1.0000 0.85794  0.87730  0.43205  Biso   1.000  C
  C2391    1.0000 0.85798  0.87734  0.43205  Biso   1.000  C
  C2392    1.0000 0.85798  0.87730  0.43205  Biso   1.000  C
  C2393    1.0000 0.91107  0.79752  0.45353  Biso   1.000  C
  C2394    1.0000 0.98854  0.02776  0.76520  Biso   1.000  C
  C2395    1.0000 0.98850  0.02776  0.76520  Biso   1.000  C
  H4044    1.0000 0.97106  0.02120  0.68530  Biso   1.000  H
  C2396    1.0000 0.00000  0.00000  0.67710  Biso   1.000  C
  C2397    1.0000 0.82292  0.00000  0.49998  Biso   1.000  C
  C2398    1.0000 0.82288  0.00000  0.49998  Biso   1.000  C
  C2399    1.0000 0.73474  0.01146  0.52778  Biso   1.000  C
  H4045    1.0000 0.81468  0.02890  0.52118  Biso   1.000  H
  C2400    1.0000 0.00000  0.82292  0.49998  Biso   1.000  C
  C2401    1.0000 0.00000  0.82288  0.49998  Biso   1.000  C
  C2402    1.0000 0.02776  0.73474  0.51145  Biso   1.000  C
  H4046    1.0000 0.02120  0.81468  0.52888  Biso   1.000  H
  C2403    1.0000 0.01146  0.97220  0.76520  Biso   1.000  C
  H4047    1.0000 0.02890  0.97880  0.68530  Biso   1.000  H
  H4048    1.0000 0.83666  0.86921  0.46158  Biso   1.000  H
  H4049    1.0000 0.83666  0.86917  0.46158  Biso   1.000  H
  H4050    1.0000 0.80309  0.98850  0.39511  Biso   1.000  H
  H4051    1.0000 0.76725  0.93706  0.39311  Biso   1.000  H
  N304     1.0000 0.78425  0.96062  0.46633  Biso   1.000  N
  H4052    1.0000 0.76725  0.93710  0.39311  Biso   1.000  H
  N305     1.0000 0.78425  0.96058  0.46633  Biso   1.000  N
  H4053    1.0000 0.76729  0.93706  0.39311  Biso   1.000  H
  H4054    1.0000 0.76729  0.93710  0.39311  Biso   1.000  H
  H4055    1.0000 0.89509  0.80309  0.48848  Biso   1.000  H
  H4056    1.0000 0.89305  0.76725  0.43708  Biso   1.000  H
  N306     1.0000 0.96631  0.78425  0.46060  Biso   1.000  N
  H4057    1.0000 0.89305  0.76729  0.43708  Biso   1.000  H
  H4058    1.0000 0.89309  0.76725  0.43708  Biso   1.000  H
  H4059    1.0000 0.89309  0.76729  0.43708  Biso   1.000  H
  C2404    1.0000 0.95508  0.03632  0.81397  Biso   1.000  C
  H4060    1.0000 0.01822  0.05352  0.76587  Biso   1.000  H
  H4061    1.0000 0.01822  0.05348  0.76587  Biso   1.000  H
  H4062    1.0000 0.01818  0.05352  0.76587  Biso   1.000  H
  H4063    1.0000 0.01818  0.05348  0.76587  Biso   1.000  H
  C2405    1.0000 0.96435  0.96678  0.64270  Biso   1.000  C
  C2406    1.0000 0.96439  0.96678  0.64270  Biso   1.000  C
  C2407    1.0000 0.03561  0.03322  0.64270  Biso   1.000  C
  C2408    1.0000 0.03561  0.03318  0.64270  Biso   1.000  C
  C2409    1.0000 0.03557  0.03322  0.64270  Biso   1.000  C
  C2410    1.0000 0.03557  0.03318  0.64270  Biso   1.000  C
  H4064    1.0000 0.81468  0.97106  0.47878  Biso   1.000  H
  C2411    1.0000 0.85732  0.96435  0.53320  Biso   1.000  C
  C2412    1.0000 0.85732  0.96439  0.53320  Biso   1.000  C
  C2413    1.0000 0.85728  0.96435  0.53320  Biso   1.000  C
  C2414    1.0000 0.85728  0.96439  0.53320  Biso   1.000  C
  C2415    1.0000 0.85732  0.03561  0.46680  Biso   1.000  C
  C2416    1.0000 0.85732  0.03557  0.46680  Biso   1.000  C
  C2417    1.0000 0.85728  0.03561  0.46680  Biso   1.000  C
  C2418    1.0000 0.85728  0.03557  0.46680  Biso   1.000  C
  C2419    1.0000 0.73474  0.98854  0.47222  Biso   1.000  C
  C2420    1.0000 0.73474  0.98850  0.47222  Biso   1.000  C
  H4065    1.0000 0.73411  0.98178  0.55350  Biso   1.000  H
  H4066    1.0000 0.73407  0.98178  0.55350  Biso   1.000  H
  C2421    1.0000 0.68601  0.04492  0.53630  Biso   1.000  C
  C2422    1.0000 0.68601  0.04488  0.53630  Biso   1.000  C
  H4067    1.0000 0.97880  0.81468  0.47108  Biso   1.000  H
  C2423    1.0000 0.96678  0.85732  0.53559  Biso   1.000  C
  C2424    1.0000 0.96678  0.85728  0.53559  Biso   1.000  C
  C2425    1.0000 0.03322  0.85732  0.46441  Biso   1.000  C
  C2426    1.0000 0.03322  0.85728  0.46441  Biso   1.000  C
  C2427    1.0000 0.03318  0.85732  0.46441  Biso   1.000  C
  C2428    1.0000 0.03318  0.85728  0.46441  Biso   1.000  C
  C2429    1.0000 0.97220  0.73474  0.48852  Biso   1.000  C
  C2430    1.0000 0.03632  0.68601  0.54490  Biso   1.000  C
  H4068    1.0000 0.05352  0.73411  0.48180  Biso   1.000  H
  H4069    1.0000 0.05352  0.73407  0.48180  Biso   1.000  H
  H4070    1.0000 0.05348  0.73411  0.48180  Biso   1.000  H
  H4071    1.0000 0.05348  0.73407  0.48180  Biso   1.000  H
  H4072    1.0000 0.98178  0.94644  0.76587  Biso   1.000  H
  H4073    1.0000 0.98178  0.94648  0.76587  Biso   1.000  H
  C2431    1.0000 0.04492  0.96368  0.81397  Biso   1.000  C
  C2432    1.0000 0.04492  0.96364  0.81397  Biso   1.000  C
  C2433    1.0000 0.04488  0.96368  0.81397  Biso   1.000  C
  C2434    1.0000 0.04488  0.96364  0.81397  Biso   1.000  C
  H4074    1.0000 0.92485  0.01182  0.81350  Biso   1.000  H
  H4075    1.0000 0.94118  0.07260  0.81397  Biso   1.000  H
  C2435    1.0000 0.98763  0.02729  0.86380  Biso   1.000  C
  H4076    1.0000 0.92485  0.01178  0.81350  Biso   1.000  H
  C2436    1.0000 0.98763  0.02725  0.86380  Biso   1.000  C
  H4077    1.0000 0.92489  0.01182  0.81350  Biso   1.000  H
  C2437    1.0000 0.98759  0.02729  0.86380  Biso   1.000  C
  H4078    1.0000 0.92489  0.01178  0.81350  Biso   1.000  H
  C2438    1.0000 0.98759  0.02725  0.86380  Biso   1.000  C
  H4079    1.0000 0.98500  0.95088  0.61428  Biso   1.000  H
  H4080    1.0000 0.93675  0.98901  0.62747  Biso   1.000  H
  H4081    1.0000 0.93675  0.98897  0.62747  Biso   1.000  H
  H4082    1.0000 0.98496  0.95088  0.61428  Biso   1.000  H
  H4083    1.0000 0.93679  0.98901  0.62747  Biso   1.000  H
  H4084    1.0000 0.93679  0.98897  0.62747  Biso   1.000  H
  H4085    1.0000 0.94829  0.93898  0.66391  Biso   1.000  H
  H4086    1.0000 0.01500  0.04912  0.61428  Biso   1.000  H
  H4087    1.0000 0.06321  0.01099  0.62747  Biso   1.000  H
  H4088    1.0000 0.01500  0.04908  0.61428  Biso   1.000  H
  H4089    1.0000 0.06317  0.01099  0.62747  Biso   1.000  H
  H4090    1.0000 0.05171  0.06098  0.66391  Biso   1.000  H
  H4091    1.0000 0.88570  0.98500  0.54910  Biso   1.000  H
  H4092    1.0000 0.87251  0.93675  0.51097  Biso   1.000  H
  H4093    1.0000 0.88570  0.98496  0.54910  Biso   1.000  H
  H4094    1.0000 0.87251  0.93679  0.51097  Biso   1.000  H
  H4095    1.0000 0.88566  0.98500  0.54910  Biso   1.000  H
  H4096    1.0000 0.87247  0.93675  0.51097  Biso   1.000  H
  H4097    1.0000 0.88566  0.98496  0.54910  Biso   1.000  H
  H4098    1.0000 0.87247  0.93679  0.51097  Biso   1.000  H
  H4099    1.0000 0.83608  0.94829  0.56100  Biso   1.000  H
  H4100    1.0000 0.88570  0.01500  0.45090  Biso   1.000  H
  H4101    1.0000 0.87251  0.06321  0.48899  Biso   1.000  H
  H4102    1.0000 0.87251  0.06317  0.48899  Biso   1.000  H
  H4103    1.0000 0.88566  0.01500  0.45090  Biso   1.000  H
  H4104    1.0000 0.87247  0.06321  0.48899  Biso   1.000  H
  H4105    1.0000 0.87247  0.06317  0.48899  Biso   1.000  H
  H4106    1.0000 0.83608  0.05171  0.43900  Biso   1.000  H
  C2439    1.0000 0.68601  0.95508  0.46366  Biso   1.000  C
  H4107    1.0000 0.73411  0.01822  0.44650  Biso   1.000  H
  H4108    1.0000 0.73411  0.01818  0.44650  Biso   1.000  H
  H4109    1.0000 0.73407  0.01822  0.44650  Biso   1.000  H
  H4110    1.0000 0.73407  0.01818  0.44650  Biso   1.000  H
  C2440    1.0000 0.63619  0.01237  0.52727  Biso   1.000  C
  H4111    1.0000 0.68648  0.07511  0.51180  Biso   1.000  H
  H4112    1.0000 0.68601  0.05882  0.57258  Biso   1.000  H
  H4113    1.0000 0.68648  0.07507  0.51180  Biso   1.000  H
  H4114    1.0000 0.68597  0.05882  0.57258  Biso   1.000  H
  H4115    1.0000 0.95088  0.88570  0.51498  Biso   1.000  H
  H4116    1.0000 0.98901  0.87251  0.56319  Biso   1.000  H
  H4117    1.0000 0.95088  0.88566  0.51498  Biso   1.000  H
  H4118    1.0000 0.98901  0.87247  0.56319  Biso   1.000  H
  H4119    1.0000 0.98897  0.87251  0.56319  Biso   1.000  H
  H4120    1.0000 0.98897  0.87247  0.56319  Biso   1.000  H
  H4121    1.0000 0.93898  0.83608  0.55169  Biso   1.000  H
  H4122    1.0000 0.04912  0.88570  0.48498  Biso   1.000  H
  H4123    1.0000 0.01099  0.87251  0.43681  Biso   1.000  H
  H4124    1.0000 0.04912  0.88566  0.48498  Biso   1.000  H
  H4125    1.0000 0.01099  0.87247  0.43681  Biso   1.000  H
  H4126    1.0000 0.04908  0.88570  0.48498  Biso   1.000  H
  H4127    1.0000 0.04908  0.88566  0.48498  Biso   1.000  H
  H4128    1.0000 0.06098  0.83608  0.44831  Biso   1.000  H
  C2441    1.0000 0.96368  0.68601  0.45510  Biso   1.000  C
  H4129    1.0000 0.94644  0.73411  0.51820  Biso   1.000  H
  H4130    1.0000 0.94644  0.73407  0.51820  Biso   1.000  H
  C2442    1.0000 0.96364  0.68601  0.45510  Biso   1.000  C
  H4131    1.0000 0.94648  0.73411  0.51820  Biso   1.000  H
  H4132    1.0000 0.94648  0.73407  0.51820  Biso   1.000  H
  C2443    1.0000 0.02729  0.63619  0.51239  Biso   1.000  C
  C2444    1.0000 0.02725  0.63619  0.51239  Biso   1.000  C
  H4133    1.0000 0.01182  0.68648  0.57509  Biso   1.000  H
  H4134    1.0000 0.07260  0.68601  0.55880  Biso   1.000  H
  H4135    1.0000 0.07260  0.68597  0.55880  Biso   1.000  H
  H4136    1.0000 0.01178  0.68648  0.57509  Biso   1.000  H
  H4137    1.0000 0.07511  0.98818  0.81350  Biso   1.000  H
  H4138    1.0000 0.05882  0.92736  0.81397  Biso   1.000  H
  C2445    1.0000 0.01237  0.97267  0.86380  Biso   1.000  C
  C2446    1.0000 0.01237  0.97271  0.86380  Biso   1.000  C
  H4139    1.0000 0.07507  0.98818  0.81350  Biso   1.000  H
  H4140    1.0000 0.96482  0.03110  0.89497  Biso   1.000  H
  H4141    1.0000 0.96478  0.03110  0.89497  Biso   1.000  H
  H4142    1.0000 0.01559  0.05418  0.86599  Biso   1.000  H
  H4143    1.0000 0.68648  0.92485  0.48820  Biso   1.000  H
  H4144    1.0000 0.68601  0.94118  0.42738  Biso   1.000  H
  C2447    1.0000 0.63619  0.98763  0.47273  Biso   1.000  C
  H4145    1.0000 0.68648  0.92489  0.48820  Biso   1.000  H
  C2448    1.0000 0.63619  0.98759  0.47273  Biso   1.000  C
  H4146    1.0000 0.68597  0.94118  0.42738  Biso   1.000  H
  H4147    1.0000 0.63403  0.98441  0.55420  Biso   1.000  H
  H4148    1.0000 0.63403  0.98437  0.55420  Biso   1.000  H
  H4149    1.0000 0.63399  0.98441  0.55420  Biso   1.000  H
  H4150    1.0000 0.63399  0.98437  0.55420  Biso   1.000  H
  H4151    1.0000 0.60501  0.03518  0.53108  Biso   1.000  H
  H4152    1.0000 0.60497  0.03518  0.53108  Biso   1.000  H
  H4153    1.0000 0.98818  0.68648  0.42491  Biso   1.000  H
  H4154    1.0000 0.92736  0.68601  0.44120  Biso   1.000  H
  C2449    1.0000 0.97267  0.63619  0.48761  Biso   1.000  C
  H4155    1.0000 0.92736  0.68597  0.44120  Biso   1.000  H
  C2450    1.0000 0.97271  0.63619  0.48761  Biso   1.000  C
  H4156    1.0000 0.05418  0.63403  0.48439  Biso   1.000  H
  H4157    1.0000 0.03110  0.60501  0.53520  Biso   1.000  H
  H4158    1.0000 0.05418  0.63399  0.48439  Biso   1.000  H
  H4159    1.0000 0.03110  0.60497  0.53520  Biso   1.000  H
  H4160    1.0000 0.98441  0.94578  0.86599  Biso   1.000  H
  H4161    1.0000 0.98437  0.94578  0.86599  Biso   1.000  H
  H4162    1.0000 0.03518  0.96886  0.89497  Biso   1.000  H
  H4163    1.0000 0.60501  0.96482  0.46888  Biso   1.000  H
  H4164    1.0000 0.60501  0.96478  0.46888  Biso   1.000  H
  H4165    1.0000 0.60497  0.96482  0.46888  Biso   1.000  H
  H4166    1.0000 0.60497  0.96478  0.46888  Biso   1.000  H
  H4167    1.0000 0.63403  0.01559  0.44580  Biso   1.000  H
  H4168    1.0000 0.63399  0.01559  0.44580  Biso   1.000  H
  H4169    1.0000 0.94578  0.63403  0.51561  Biso   1.000  H
  H4170    1.0000 0.96886  0.60501  0.46480  Biso   1.000  H
  H4171    1.0000 0.94578  0.63399  0.51561  Biso   1.000  H
  H4172    1.0000 0.96886  0.60497  0.46480  Biso   1.000  H
  C2451    1.0000 0.12266  0.43205  0.14202  Biso   1.000  C
  C2452    1.0000 0.15407  0.42020  0.09887  Biso   1.000  C
  H4173    1.0000 0.13079  0.46158  0.16330  Biso   1.000  H
  C2453    1.0000 0.07982  0.40112  0.15407  Biso   1.000  C
  C2454    1.0000 0.07978  0.40112  0.15407  Biso   1.000  C
  C2455    1.0000 0.14202  0.37732  0.06793  Biso   1.000  C
  C2456    1.0000 0.20248  0.45353  0.08893  Biso   1.000  C
  C2457    1.0000 0.12266  0.43205  0.14198  Biso   1.000  C
  C2458    1.0000 0.20248  0.45353  0.08889  Biso   1.000  C
  C2459    1.0000 0.14198  0.37732  0.06793  Biso   1.000  C
  C2460    1.0000 0.20244  0.45353  0.08893  Biso   1.000  C
  C2461    1.0000 0.20244  0.45353  0.08889  Biso   1.000  C
  C2462    1.0000 0.04645  0.41109  0.20248  Biso   1.000  C
  C2463    1.0000 0.06793  0.35796  0.12266  Biso   1.000  C
  C2464    1.0000 0.04645  0.41109  0.20244  Biso   1.000  C
  H4174    1.0000 0.16330  0.36919  0.03840  Biso   1.000  H
  C2465    1.0000 0.09887  0.34591  0.07982  Biso   1.000  C
  H4175    1.0000 0.16330  0.36919  0.03836  Biso   1.000  H
  C2466    1.0000 0.09887  0.34591  0.07978  Biso   1.000  C
  H4176    1.0000 0.19691  0.48848  0.10491  Biso   1.000  H
  H4177    1.0000 0.23271  0.43708  0.10691  Biso   1.000  H
  N307     1.0000 0.21575  0.46060  0.03365  Biso   1.000  N
  H4178    1.0000 0.19691  0.48848  0.10487  Biso   1.000  H
  H4179    1.0000 0.23271  0.43708  0.10688  Biso   1.000  H
  H4180    1.0000 0.19687  0.48848  0.10491  Biso   1.000  H
  H4181    1.0000 0.23268  0.43708  0.10691  Biso   1.000  H
  N308     1.0000 0.21571  0.46060  0.03365  Biso   1.000  N
  H4182    1.0000 0.19687  0.48848  0.10487  Biso   1.000  H
  H4183    1.0000 0.23268  0.43708  0.10688  Biso   1.000  H
  H4184    1.0000 0.01150  0.39511  0.19691  Biso   1.000  H
  H4185    1.0000 0.06290  0.39311  0.23271  Biso   1.000  H
  N309     1.0000 0.03938  0.46633  0.21575  Biso   1.000  N
  H4186    1.0000 0.01150  0.39511  0.19687  Biso   1.000  H
  H4187    1.0000 0.06290  0.39311  0.23268  Biso   1.000  H
  N310     1.0000 0.03938  0.46633  0.21571  Biso   1.000  N
  H4188    1.0000 0.01146  0.39511  0.19691  Biso   1.000  H
  H4189    1.0000 0.06286  0.39311  0.23271  Biso   1.000  H
  H4190    1.0000 0.01146  0.39511  0.19687  Biso   1.000  H
  H4191    1.0000 0.06286  0.39311  0.23268  Biso   1.000  H
  H4192    1.0000 0.03840  0.33668  0.13079  Biso   1.000  H
  H4193    1.0000 0.03836  0.33668  0.13079  Biso   1.000  H
  C2467    1.0000 0.08893  0.29754  0.04645  Biso   1.000  C
  C2468    1.0000 0.08889  0.29754  0.04645  Biso   1.000  C
  C2469    1.0000 0.26522  0.48852  0.02776  Biso   1.000  C
  C2470    1.0000 0.17708  0.49998  0.00000  Biso   1.000  C
  H4194    1.0000 0.18528  0.47108  0.02120  Biso   1.000  H
  C2471    1.0000 0.01146  0.47222  0.26522  Biso   1.000  C
  C2472    1.0000 0.00000  0.49998  0.17708  Biso   1.000  C
  H4195    1.0000 0.02890  0.47878  0.18528  Biso   1.000  H
  H4196    1.0000 0.10491  0.30311  0.01150  Biso   1.000  H
  H4197    1.0000 0.10691  0.26731  0.06290  Biso   1.000  H
  N311     1.0000 0.03365  0.28427  0.03938  Biso   1.000  N
  H4198    1.0000 0.10491  0.30311  0.01146  Biso   1.000  H
  H4199    1.0000 0.10691  0.26731  0.06286  Biso   1.000  H
  H4200    1.0000 0.10487  0.30311  0.01150  Biso   1.000  H
  H4201    1.0000 0.10688  0.26731  0.06290  Biso   1.000  H
  H4202    1.0000 0.10487  0.30311  0.01146  Biso   1.000  H
  H4203    1.0000 0.10688  0.26731  0.06286  Biso   1.000  H
  C2473    1.0000 0.31399  0.45510  0.03632  Biso   1.000  C
  H4204    1.0000 0.26589  0.51820  0.05352  Biso   1.000  H
  H4205    1.0000 0.26589  0.51820  0.05348  Biso   1.000  H
  C2474    1.0000 0.31395  0.45510  0.03632  Biso   1.000  C
  C2475    1.0000 0.26522  0.51145  0.97220  Biso   1.000  C
  C2476    1.0000 0.14268  0.53559  0.03322  Biso   1.000  C
  C2477    1.0000 0.14268  0.53559  0.03318  Biso   1.000  C
  C2478    1.0000 0.14268  0.46441  0.96678  Biso   1.000  C
  N312     1.0000 0.21575  0.53940  0.96631  Biso   1.000  N
  N313     1.0000 0.21571  0.53940  0.96631  Biso   1.000  N
  H4206    1.0000 0.18528  0.52888  0.97880  Biso   1.000  H
  C2479    1.0000 0.04492  0.46366  0.31399  Biso   1.000  C
  C2480    1.0000 0.04492  0.46366  0.31395  Biso   1.000  C
  C2481    1.0000 0.04488  0.46366  0.31399  Biso   1.000  C
  C2482    1.0000 0.04488  0.46366  0.31395  Biso   1.000  C
  H4207    1.0000 0.98178  0.44650  0.26589  Biso   1.000  H
  C2483    1.0000 0.98854  0.52778  0.26522  Biso   1.000  C
  C2484    1.0000 0.98850  0.52778  0.26522  Biso   1.000  C
  C2485    1.0000 0.03561  0.53320  0.14268  Biso   1.000  C
  C2486    1.0000 0.03557  0.53320  0.14268  Biso   1.000  C
  N314     1.0000 0.96062  0.53367  0.21575  Biso   1.000  N
  C2487    1.0000 0.96435  0.46680  0.14268  Biso   1.000  C
  N315     1.0000 0.96062  0.53367  0.21571  Biso   1.000  N
  N316     1.0000 0.96058  0.53367  0.21575  Biso   1.000  N
  C2488    1.0000 0.96439  0.46680  0.14268  Biso   1.000  C
  N317     1.0000 0.96058  0.53367  0.21571  Biso   1.000  N
  H4208    1.0000 0.97106  0.52118  0.18528  Biso   1.000  H
  C2489    1.0000 0.02776  0.23476  0.01146  Biso   1.000  C
  C2490    1.0000 0.00000  0.32290  0.00000  Biso   1.000  C
  H4209    1.0000 0.02120  0.31470  0.02890  Biso   1.000  H
  H4210    1.0000 0.31348  0.42491  0.01182  Biso   1.000  H
  H4211    1.0000 0.31399  0.44120  0.07260  Biso   1.000  H
  C2491    1.0000 0.36378  0.48761  0.02729  Biso   1.000  C
  H4212    1.0000 0.31348  0.42491  0.01178  Biso   1.000  H
  C2492    1.0000 0.36378  0.48761  0.02725  Biso   1.000  C
  C2493    1.0000 0.31399  0.54490  0.96368  Biso   1.000  C
  H4213    1.0000 0.26589  0.48180  0.94644  Biso   1.000  H
  C2494    1.0000 0.31399  0.54490  0.96364  Biso   1.000  C
  H4214    1.0000 0.26589  0.48180  0.94648  Biso   1.000  H
  C2495    1.0000 0.31395  0.54490  0.96368  Biso   1.000  C
  C2496    1.0000 0.31395  0.54490  0.96364  Biso   1.000  C
  H4215    1.0000 0.11430  0.51498  0.04912  Biso   1.000  H
  H4216    1.0000 0.12749  0.56319  0.01099  Biso   1.000  H
  H4217    1.0000 0.11430  0.51498  0.04908  Biso   1.000  H
  H4218    1.0000 0.16389  0.55169  0.06098  Biso   1.000  H
  H4219    1.0000 0.11430  0.48498  0.95088  Biso   1.000  H
  H4220    1.0000 0.12749  0.43681  0.98901  Biso   1.000  H
  H4221    1.0000 0.12749  0.43681  0.98897  Biso   1.000  H
  H4222    1.0000 0.16389  0.44831  0.93898  Biso   1.000  H
  C2497    1.0000 0.20248  0.54647  0.91107  Biso   1.000  C
  C2498    1.0000 0.20244  0.54647  0.91107  Biso   1.000  C
  H4223    1.0000 0.07511  0.48820  0.31348  Biso   1.000  H
  H4224    1.0000 0.05882  0.42738  0.31399  Biso   1.000  H
  C2499    1.0000 0.01237  0.47273  0.36378  Biso   1.000  C
  H4225    1.0000 0.07507  0.48820  0.31348  Biso   1.000  H
  H4226    1.0000 0.01822  0.55350  0.26589  Biso   1.000  H
  H4227    1.0000 0.01818  0.55350  0.26589  Biso   1.000  H
  C2500    1.0000 0.95508  0.53630  0.31399  Biso   1.000  C
  C2501    1.0000 0.95508  0.53630  0.31395  Biso   1.000  C
  H4228    1.0000 0.01500  0.54910  0.11430  Biso   1.000  H
  H4229    1.0000 0.06321  0.51097  0.12749  Biso   1.000  H
  H4230    1.0000 0.06317  0.51097  0.12749  Biso   1.000  H
  H4231    1.0000 0.05171  0.56100  0.16389  Biso   1.000  H
  C2502    1.0000 0.95351  0.58891  0.20248  Biso   1.000  C
  C2503    1.0000 0.95351  0.58891  0.20244  Biso   1.000  C
  H4232    1.0000 0.98500  0.45090  0.11430  Biso   1.000  H
  H4233    1.0000 0.93675  0.48899  0.12749  Biso   1.000  H
  H4234    1.0000 0.98496  0.45090  0.11430  Biso   1.000  H
  H4235    1.0000 0.93679  0.48899  0.12749  Biso   1.000  H
  H4236    1.0000 0.94829  0.43900  0.16389  Biso   1.000  H
  C2504    1.0000 0.03632  0.18599  0.04492  Biso   1.000  C
  C2505    1.0000 0.03632  0.18599  0.04488  Biso   1.000  C
  C2506    1.0000 0.97220  0.23476  0.98854  Biso   1.000  C
  C2507    1.0000 0.97220  0.23476  0.98850  Biso   1.000  C
  H4237    1.0000 0.05352  0.23409  0.98178  Biso   1.000  H
  H4238    1.0000 0.05348  0.23409  0.98178  Biso   1.000  H
  N318     1.0000 0.96631  0.28427  0.96062  Biso   1.000  N
  N319     1.0000 0.96631  0.28427  0.96058  Biso   1.000  N
  H4239    1.0000 0.97880  0.31470  0.97106  Biso   1.000  H
  C2508    1.0000 0.96678  0.35730  0.03561  Biso   1.000  C
  C2509    1.0000 0.96678  0.35730  0.03557  Biso   1.000  C
  C2510    1.0000 0.03322  0.35730  0.96435  Biso   1.000  C
  C2511    1.0000 0.03322  0.35730  0.96439  Biso   1.000  C
  C2512    1.0000 0.03318  0.35730  0.96435  Biso   1.000  C
  C2513    1.0000 0.03318  0.35730  0.96439  Biso   1.000  C
  H4240    1.0000 0.36597  0.51561  0.05418  Biso   1.000  H
  H4241    1.0000 0.39499  0.46480  0.03110  Biso   1.000  H
  H4242    1.0000 0.39503  0.46480  0.03110  Biso   1.000  H
  C2514    1.0000 0.36378  0.51239  0.97267  Biso   1.000  C
  C2515    1.0000 0.36378  0.51239  0.97271  Biso   1.000  C
  H4243    1.0000 0.31348  0.57509  0.98818  Biso   1.000  H
  H4244    1.0000 0.31399  0.55880  0.92736  Biso   1.000  H
  C2516    1.0000 0.15407  0.57980  0.90110  Biso   1.000  C
  H4245    1.0000 0.19691  0.51148  0.89509  Biso   1.000  H
  H4246    1.0000 0.23271  0.56288  0.89305  Biso   1.000  H
  H4247    1.0000 0.23271  0.56288  0.89309  Biso   1.000  H
  H4248    1.0000 0.19687  0.51148  0.89509  Biso   1.000  H
  H4249    1.0000 0.23268  0.56288  0.89305  Biso   1.000  H
  H4250    1.0000 0.23268  0.56288  0.89309  Biso   1.000  H
  H4251    1.0000 0.03518  0.46888  0.39499  Biso   1.000  H
  H4252    1.0000 0.03518  0.46888  0.39503  Biso   1.000  H
  H4253    1.0000 0.98441  0.44580  0.36597  Biso   1.000  H
  C2517    1.0000 0.98763  0.52727  0.36378  Biso   1.000  C
  H4254    1.0000 0.98437  0.44580  0.36597  Biso   1.000  H
  C2518    1.0000 0.98759  0.52727  0.36378  Biso   1.000  C
  H4255    1.0000 0.92485  0.51180  0.31348  Biso   1.000  H
  H4256    1.0000 0.94118  0.57258  0.31399  Biso   1.000  H
  H4257    1.0000 0.92489  0.51180  0.31348  Biso   1.000  H
  C2519    1.0000 0.92018  0.59888  0.15407  Biso   1.000  C
  H4258    1.0000 0.98850  0.60489  0.19691  Biso   1.000  H
  H4259    1.0000 0.93706  0.60689  0.23271  Biso   1.000  H
  H4260    1.0000 0.98850  0.60489  0.19687  Biso   1.000  H
  H4261    1.0000 0.93706  0.60689  0.23268  Biso   1.000  H
  H4262    1.0000 0.93710  0.60689  0.23271  Biso   1.000  H
  H4263    1.0000 0.93710  0.60689  0.23268  Biso   1.000  H
  H4264    1.0000 0.01182  0.18650  0.07511  Biso   1.000  H
  H4265    1.0000 0.07260  0.18599  0.05882  Biso   1.000  H
  C2520    1.0000 0.02729  0.13620  0.01237  Biso   1.000  C
  H4266    1.0000 0.01182  0.18650  0.07507  Biso   1.000  H
  H4267    1.0000 0.01178  0.18650  0.07511  Biso   1.000  H
  C2521    1.0000 0.02725  0.13620  0.01237  Biso   1.000  C
  H4268    1.0000 0.01178  0.18650  0.07507  Biso   1.000  H
  C2522    1.0000 0.96368  0.18599  0.95508  Biso   1.000  C
  C2523    1.0000 0.96364  0.18599  0.95508  Biso   1.000  C
  H4269    1.0000 0.94644  0.23409  0.01822  Biso   1.000  H
  H4270    1.0000 0.94644  0.23409  0.01818  Biso   1.000  H
  H4271    1.0000 0.94648  0.23409  0.01822  Biso   1.000  H
  H4272    1.0000 0.94648  0.23409  0.01818  Biso   1.000  H
  C2524    1.0000 0.91107  0.29754  0.95351  Biso   1.000  C
  H4273    1.0000 0.95088  0.38568  0.01500  Biso   1.000  H
  H4274    1.0000 0.98901  0.37249  0.06321  Biso   1.000  H
  H4275    1.0000 0.98901  0.37249  0.06317  Biso   1.000  H
  H4276    1.0000 0.98897  0.37249  0.06321  Biso   1.000  H
  H4277    1.0000 0.98897  0.37249  0.06317  Biso   1.000  H
  H4278    1.0000 0.93898  0.33609  0.05171  Biso   1.000  H
  H4279    1.0000 0.04912  0.38568  0.98500  Biso   1.000  H
  H4280    1.0000 0.01099  0.37249  0.93675  Biso   1.000  H
  H4281    1.0000 0.04912  0.38568  0.98496  Biso   1.000  H
  H4282    1.0000 0.01099  0.37249  0.93679  Biso   1.000  H
  H4283    1.0000 0.04908  0.38568  0.98500  Biso   1.000  H
  H4284    1.0000 0.04908  0.38568  0.98496  Biso   1.000  H
  H4285    1.0000 0.06098  0.33609  0.94829  Biso   1.000  H
  H4286    1.0000 0.36597  0.48439  0.94578  Biso   1.000  H
  H4287    1.0000 0.39499  0.53520  0.96886  Biso   1.000  H
  H4288    1.0000 0.39503  0.53520  0.96886  Biso   1.000  H
  C2525    1.0000 0.14202  0.62264  0.93204  Biso   1.000  C
  C2526    1.0000 0.12266  0.56795  0.85794  Biso   1.000  C
  C2527    1.0000 0.12266  0.56795  0.85798  Biso   1.000  C
  C2528    1.0000 0.14198  0.62264  0.93204  Biso   1.000  C
  H4289    1.0000 0.01559  0.55420  0.36597  Biso   1.000  H
  H4290    1.0000 0.96482  0.53108  0.39499  Biso   1.000  H
  H4291    1.0000 0.96482  0.53108  0.39503  Biso   1.000  H
  H4292    1.0000 0.96478  0.53108  0.39499  Biso   1.000  H
  H4293    1.0000 0.96478  0.53108  0.39503  Biso   1.000  H
  C2529    1.0000 0.87734  0.56795  0.14202  Biso   1.000  C
  C2530    1.0000 0.93204  0.64200  0.12266  Biso   1.000  C
  C2531    1.0000 0.87734  0.56795  0.14198  Biso   1.000  C
  C2532    1.0000 0.87730  0.56795  0.14202  Biso   1.000  C
  C2533    1.0000 0.87730  0.56795  0.14198  Biso   1.000  C
  H4294    1.0000 0.03110  0.10499  0.03518  Biso   1.000  H
  C2534    1.0000 0.97267  0.13620  0.98763  Biso   1.000  C
  C2535    1.0000 0.97267  0.13620  0.98759  Biso   1.000  C
  C2536    1.0000 0.97271  0.13620  0.98763  Biso   1.000  C
  C2537    1.0000 0.97271  0.13620  0.98759  Biso   1.000  C
  H4295    1.0000 0.05418  0.13401  0.98441  Biso   1.000  H
  H4296    1.0000 0.05418  0.13401  0.98437  Biso   1.000  H
  H4297    1.0000 0.98818  0.18650  0.92485  Biso   1.000  H
  H4298    1.0000 0.92736  0.18599  0.94118  Biso   1.000  H
  H4299    1.0000 0.98818  0.18650  0.92489  Biso   1.000  H
  C2538    1.0000 0.90110  0.34591  0.92018  Biso   1.000  C
  H4300    1.0000 0.89509  0.30311  0.98850  Biso   1.000  H
  H4301    1.0000 0.89305  0.26731  0.93706  Biso   1.000  H
  H4302    1.0000 0.89305  0.26731  0.93710  Biso   1.000  H
  H4303    1.0000 0.89309  0.26731  0.93706  Biso   1.000  H
  H4304    1.0000 0.89309  0.26731  0.93710  Biso   1.000  H
  H4305    1.0000 0.16330  0.63081  0.96160  Biso   1.000  H
  C2539    1.0000 0.09887  0.65405  0.92018  Biso   1.000  C
  H4306    1.0000 0.13079  0.53838  0.83666  Biso   1.000  H
  C2540    1.0000 0.07982  0.59888  0.84589  Biso   1.000  C
  C2541    1.0000 0.07978  0.59888  0.84589  Biso   1.000  C
  H4307    1.0000 0.86921  0.53838  0.16330  Biso   1.000  H
  C2542    1.0000 0.84589  0.57980  0.09887  Biso   1.000  C
  H4308    1.0000 0.86917  0.53838  0.16330  Biso   1.000  H
  H4309    1.0000 0.96160  0.66328  0.13079  Biso   1.000  H
  C2543    1.0000 0.90110  0.65405  0.07982  Biso   1.000  C
  C2544    1.0000 0.90110  0.65405  0.07978  Biso   1.000  C
  H4310    1.0000 0.96886  0.10499  0.96482  Biso   1.000  H
  H4311    1.0000 0.96886  0.10499  0.96478  Biso   1.000  H
  H4312    1.0000 0.94578  0.13401  0.01559  Biso   1.000  H
  C2545    1.0000 0.93204  0.35796  0.87734  Biso   1.000  C
  C2546    1.0000 0.85794  0.37732  0.93204  Biso   1.000  C
  C2547    1.0000 0.93204  0.35796  0.87730  Biso   1.000  C
  C2548    1.0000 0.85798  0.37732  0.93204  Biso   1.000  C
  C2549    1.0000 0.06793  0.64200  0.87734  Biso   1.000  C
  C2550    1.0000 0.08893  0.70246  0.95351  Biso   1.000  C
  C2551    1.0000 0.06793  0.64200  0.87730  Biso   1.000  C
  C2552    1.0000 0.08889  0.70246  0.95351  Biso   1.000  C
  C2553    1.0000 0.04645  0.58891  0.79752  Biso   1.000  C
  C2554    1.0000 0.85794  0.62264  0.06793  Biso   1.000  C
  C2555    1.0000 0.79752  0.54647  0.08893  Biso   1.000  C
  C2556    1.0000 0.79752  0.54647  0.08889  Biso   1.000  C
  C2557    1.0000 0.85798  0.62264  0.06793  Biso   1.000  C
  C2558    1.0000 0.91107  0.70246  0.04645  Biso   1.000  C
  C2559    1.0000 0.92018  0.40112  0.84589  Biso   1.000  C
  H4313    1.0000 0.96160  0.33668  0.86921  Biso   1.000  H
  H4314    1.0000 0.96160  0.33668  0.86917  Biso   1.000  H
  H4315    1.0000 0.83666  0.36919  0.96160  Biso   1.000  H
  C2560    1.0000 0.84589  0.42020  0.90110  Biso   1.000  C
  H4316    1.0000 0.03840  0.66328  0.86921  Biso   1.000  H
  H4317    1.0000 0.03840  0.66328  0.86917  Biso   1.000  H
  H4318    1.0000 0.03836  0.66328  0.86921  Biso   1.000  H
  H4319    1.0000 0.03836  0.66328  0.86917  Biso   1.000  H
  H4320    1.0000 0.10491  0.69689  0.98850  Biso   1.000  H
  H4321    1.0000 0.10691  0.73269  0.93706  Biso   1.000  H
  N320     1.0000 0.03365  0.71573  0.96062  Biso   1.000  N
  H4322    1.0000 0.10691  0.73269  0.93710  Biso   1.000  H
  N321     1.0000 0.03365  0.71573  0.96058  Biso   1.000  N
  H4323    1.0000 0.10487  0.69689  0.98850  Biso   1.000  H
  H4324    1.0000 0.10688  0.73269  0.93706  Biso   1.000  H
  H4325    1.0000 0.10688  0.73269  0.93710  Biso   1.000  H
  H4326    1.0000 0.01150  0.60489  0.80309  Biso   1.000  H
  H4327    1.0000 0.06290  0.60689  0.76725  Biso   1.000  H
  N322     1.0000 0.03938  0.53367  0.78425  Biso   1.000  N
  H4328    1.0000 0.06290  0.60689  0.76729  Biso   1.000  H
  H4329    1.0000 0.01146  0.60489  0.80309  Biso   1.000  H
  H4330    1.0000 0.06286  0.60689  0.76725  Biso   1.000  H
  H4331    1.0000 0.06286  0.60689  0.76729  Biso   1.000  H
  H4332    1.0000 0.83666  0.63081  0.03840  Biso   1.000  H
  H4333    1.0000 0.83666  0.63081  0.03836  Biso   1.000  H
  H4334    1.0000 0.80309  0.51148  0.10491  Biso   1.000  H
  H4335    1.0000 0.76725  0.56288  0.10691  Biso   1.000  H
  N323     1.0000 0.78425  0.53940  0.03365  Biso   1.000  N
  H4336    1.0000 0.80309  0.51148  0.10487  Biso   1.000  H
  H4337    1.0000 0.76725  0.56288  0.10688  Biso   1.000  H
  H4338    1.0000 0.76729  0.56288  0.10691  Biso   1.000  H
  H4339    1.0000 0.76729  0.56288  0.10688  Biso   1.000  H
  H4340    1.0000 0.89509  0.69689  0.01150  Biso   1.000  H
  H4341    1.0000 0.89305  0.73269  0.06290  Biso   1.000  H
  N324     1.0000 0.96631  0.71573  0.03938  Biso   1.000  N
  H4342    1.0000 0.89509  0.69689  0.01146  Biso   1.000  H
  H4343    1.0000 0.89305  0.73269  0.06286  Biso   1.000  H
  H4344    1.0000 0.89309  0.73269  0.06290  Biso   1.000  H
  H4345    1.0000 0.89309  0.73269  0.06286  Biso   1.000  H
  C2561    1.0000 0.87734  0.43205  0.85794  Biso   1.000  C
  C2562    1.0000 0.95351  0.41109  0.79752  Biso   1.000  C
  C2563    1.0000 0.87734  0.43205  0.85798  Biso   1.000  C
  C2564    1.0000 0.87730  0.43205  0.85794  Biso   1.000  C
  C2565    1.0000 0.87730  0.43205  0.85798  Biso   1.000  C
  C2566    1.0000 0.79752  0.45353  0.91107  Biso   1.000  C
  C2567    1.0000 0.00000  0.67710  0.00000  Biso   1.000  C
  C2568    1.0000 0.02776  0.76520  0.98854  Biso   1.000  C
  C2569    1.0000 0.02776  0.76520  0.98850  Biso   1.000  C
  H4346    1.0000 0.02120  0.68530  0.97106  Biso   1.000  H
  C2570    1.0000 0.01146  0.52778  0.73474  Biso   1.000  C
  C2571    1.0000 0.00000  0.49998  0.82292  Biso   1.000  C
  C2572    1.0000 0.00000  0.49998  0.82288  Biso   1.000  C
  H4347    1.0000 0.02890  0.52118  0.81468  Biso   1.000  H
  C2573    1.0000 0.73474  0.51145  0.02776  Biso   1.000  C
  C2574    1.0000 0.82292  0.49998  0.00000  Biso   1.000  C
  C2575    1.0000 0.82288  0.49998  0.00000  Biso   1.000  C
  H4348    1.0000 0.81468  0.52888  0.02120  Biso   1.000  H
  H4349    1.0000 0.97880  0.68530  0.02890  Biso   1.000  H
  C2576    1.0000 0.97220  0.76520  0.01146  Biso   1.000  C
  H4350    1.0000 0.86921  0.46158  0.83666  Biso   1.000  H
  H4351    1.0000 0.86917  0.46158  0.83666  Biso   1.000  H
  H4352    1.0000 0.98850  0.39511  0.80309  Biso   1.000  H
  H4353    1.0000 0.93706  0.39311  0.76725  Biso   1.000  H
  N325     1.0000 0.96062  0.46633  0.78425  Biso   1.000  N
  H4354    1.0000 0.93706  0.39311  0.76729  Biso   1.000  H
  H4355    1.0000 0.93710  0.39311  0.76725  Biso   1.000  H
  N326     1.0000 0.96058  0.46633  0.78425  Biso   1.000  N
  H4356    1.0000 0.93710  0.39311  0.76729  Biso   1.000  H
  H4357    1.0000 0.80309  0.48848  0.89509  Biso   1.000  H
  H4358    1.0000 0.76725  0.43708  0.89305  Biso   1.000  H
  N327     1.0000 0.78425  0.46060  0.96631  Biso   1.000  N
  H4359    1.0000 0.76725  0.43708  0.89309  Biso   1.000  H
  H4360    1.0000 0.76729  0.43708  0.89305  Biso   1.000  H
  H4361    1.0000 0.76729  0.43708  0.89309  Biso   1.000  H
  C2577    1.0000 0.03322  0.64270  0.03561  Biso   1.000  C
  C2578    1.0000 0.03322  0.64270  0.03557  Biso   1.000  C
  C2579    1.0000 0.03318  0.64270  0.03561  Biso   1.000  C
  C2580    1.0000 0.03318  0.64270  0.03557  Biso   1.000  C
  C2581    1.0000 0.96678  0.64270  0.96435  Biso   1.000  C
  C2582    1.0000 0.96678  0.64270  0.96439  Biso   1.000  C
  H4362    1.0000 0.05352  0.76587  0.01822  Biso   1.000  H
  H4363    1.0000 0.05352  0.76587  0.01818  Biso   1.000  H
  H4364    1.0000 0.05348  0.76587  0.01822  Biso   1.000  H
  H4365    1.0000 0.05348  0.76587  0.01818  Biso   1.000  H
  C2583    1.0000 0.03632  0.81397  0.95508  Biso   1.000  C
  H4366    1.0000 0.98178  0.55350  0.73411  Biso   1.000  H
  C2584    1.0000 0.98854  0.47222  0.73474  Biso   1.000  C
  H4367    1.0000 0.98178  0.55350  0.73407  Biso   1.000  H
  C2585    1.0000 0.98850  0.47222  0.73474  Biso   1.000  C
  C2586    1.0000 0.04492  0.53630  0.68601  Biso   1.000  C
  C2587    1.0000 0.04488  0.53630  0.68601  Biso   1.000  C
  C2588    1.0000 0.96435  0.53320  0.85732  Biso   1.000  C
  C2589    1.0000 0.96435  0.53320  0.85728  Biso   1.000  C
  C2590    1.0000 0.96439  0.53320  0.85732  Biso   1.000  C
  C2591    1.0000 0.96439  0.53320  0.85728  Biso   1.000  C
  H4368    1.0000 0.97106  0.47878  0.81468  Biso   1.000  H
  C2592    1.0000 0.03561  0.46680  0.85732  Biso   1.000  C
  C2593    1.0000 0.03561  0.46680  0.85728  Biso   1.000  C
  C2594    1.0000 0.03557  0.46680  0.85732  Biso   1.000  C
  C2595    1.0000 0.03557  0.46680  0.85728  Biso   1.000  C
  C2596    1.0000 0.73474  0.48852  0.97220  Biso   1.000  C
  C2597    1.0000 0.68601  0.54490  0.03632  Biso   1.000  C
  H4369    1.0000 0.73411  0.48180  0.05352  Biso   1.000  H
  H4370    1.0000 0.73411  0.48180  0.05348  Biso   1.000  H
  H4371    1.0000 0.73407  0.48180  0.05352  Biso   1.000  H
  H4372    1.0000 0.73407  0.48180  0.05348  Biso   1.000  H
  H4373    1.0000 0.81468  0.47108  0.97880  Biso   1.000  H
  C2598    1.0000 0.85732  0.53559  0.96678  Biso   1.000  C
  C2599    1.0000 0.85728  0.53559  0.96678  Biso   1.000  C
  C2600    1.0000 0.85732  0.46441  0.03322  Biso   1.000  C
  C2601    1.0000 0.85732  0.46441  0.03318  Biso   1.000  C
  C2602    1.0000 0.85728  0.46441  0.03322  Biso   1.000  C
  C2603    1.0000 0.85728  0.46441  0.03318  Biso   1.000  C
  H4374    1.0000 0.94644  0.76587  0.98178  Biso   1.000  H
  H4375    1.0000 0.94648  0.76587  0.98178  Biso   1.000  H
  C2604    1.0000 0.96368  0.81397  0.04492  Biso   1.000  C
  C2605    1.0000 0.96368  0.81397  0.04488  Biso   1.000  C
  C2606    1.0000 0.96364  0.81397  0.04492  Biso   1.000  C
  C2607    1.0000 0.96364  0.81397  0.04488  Biso   1.000  C
  H4376    1.0000 0.04912  0.61428  0.01500  Biso   1.000  H
  H4377    1.0000 0.01099  0.62747  0.06321  Biso   1.000  H
  H4378    1.0000 0.01099  0.62747  0.06317  Biso   1.000  H
  H4379    1.0000 0.04908  0.61428  0.01500  Biso   1.000  H
  H4380    1.0000 0.06098  0.66391  0.05171  Biso   1.000  H
  H4381    1.0000 0.95088  0.61428  0.98500  Biso   1.000  H
  H4382    1.0000 0.98901  0.62747  0.93675  Biso   1.000  H
  H4383    1.0000 0.95088  0.61428  0.98496  Biso   1.000  H
  H4384    1.0000 0.98901  0.62747  0.93679  Biso   1.000  H
  H4385    1.0000 0.98897  0.62747  0.93675  Biso   1.000  H
  H4386    1.0000 0.98897  0.62747  0.93679  Biso   1.000  H
  H4387    1.0000 0.93898  0.66391  0.94829  Biso   1.000  H
  H4388    1.0000 0.01182  0.81350  0.92485  Biso   1.000  H
  H4389    1.0000 0.07260  0.81397  0.94118  Biso   1.000  H
  C2608    1.0000 0.02729  0.86380  0.98763  Biso   1.000  C
  H4390    1.0000 0.01182  0.81350  0.92489  Biso   1.000  H
  C2609    1.0000 0.02729  0.86380  0.98759  Biso   1.000  C
  H4391    1.0000 0.01178  0.81350  0.92485  Biso   1.000  H
  C2610    1.0000 0.02725  0.86380  0.98763  Biso   1.000  C
  H4392    1.0000 0.01178  0.81350  0.92489  Biso   1.000  H
  C2611    1.0000 0.02725  0.86380  0.98759  Biso   1.000  C
  C2612    1.0000 0.95508  0.46366  0.68601  Biso   1.000  C
  H4393    1.0000 0.01822  0.44650  0.73411  Biso   1.000  H
  H4394    1.0000 0.01822  0.44650  0.73407  Biso   1.000  H
  H4395    1.0000 0.01818  0.44650  0.73411  Biso   1.000  H
  H4396    1.0000 0.01818  0.44650  0.73407  Biso   1.000  H
  H4397    1.0000 0.07511  0.51180  0.68648  Biso   1.000  H
  H4398    1.0000 0.05882  0.57258  0.68601  Biso   1.000  H
  C2613    1.0000 0.01237  0.52727  0.63619  Biso   1.000  C
  H4399    1.0000 0.05882  0.57258  0.68597  Biso   1.000  H
  H4400    1.0000 0.07507  0.51180  0.68648  Biso   1.000  H
  H4401    1.0000 0.98500  0.54910  0.88570  Biso   1.000  H
  H4402    1.0000 0.93675  0.51097  0.87251  Biso   1.000  H
  H4403    1.0000 0.98500  0.54910  0.88566  Biso   1.000  H
  H4404    1.0000 0.93675  0.51097  0.87247  Biso   1.000  H
  H4405    1.0000 0.98496  0.54910  0.88570  Biso   1.000  H
  H4406    1.0000 0.93679  0.51097  0.87251  Biso   1.000  H
  H4407    1.0000 0.98496  0.54910  0.88566  Biso   1.000  H
  H4408    1.0000 0.93679  0.51097  0.87247  Biso   1.000  H
  H4409    1.0000 0.94829  0.56100  0.83608  Biso   1.000  H
  H4410    1.0000 0.01500  0.45090  0.88570  Biso   1.000  H
  H4411    1.0000 0.06321  0.48899  0.87251  Biso   1.000  H
  H4412    1.0000 0.01500  0.45090  0.88566  Biso   1.000  H
  H4413    1.0000 0.06321  0.48899  0.87247  Biso   1.000  H
  H4414    1.0000 0.06317  0.48899  0.87251  Biso   1.000  H
  H4415    1.0000 0.06317  0.48899  0.87247  Biso   1.000  H
  H4416    1.0000 0.05171  0.43900  0.83608  Biso   1.000  H
  C2614    1.0000 0.68601  0.45510  0.96368  Biso   1.000  C
  H4417    1.0000 0.73411  0.51820  0.94644  Biso   1.000  H
  C2615    1.0000 0.68601  0.45510  0.96364  Biso   1.000  C
  H4418    1.0000 0.73411  0.51820  0.94648  Biso   1.000  H
  H4419    1.0000 0.73407  0.51820  0.94644  Biso   1.000  H
  H4420    1.0000 0.73407  0.51820  0.94648  Biso   1.000  H
  H4421    1.0000 0.68648  0.57509  0.01182  Biso   1.000  H
  H4422    1.0000 0.68601  0.55880  0.07260  Biso   1.000  H
  C2616    1.0000 0.63619  0.51239  0.02729  Biso   1.000  C
  H4423    1.0000 0.68648  0.57509  0.01178  Biso   1.000  H
  C2617    1.0000 0.63619  0.51239  0.02725  Biso   1.000  C
  H4424    1.0000 0.68597  0.55880  0.07260  Biso   1.000  H
  H4425    1.0000 0.88570  0.51498  0.95088  Biso   1.000  H
  H4426    1.0000 0.87251  0.56319  0.98901  Biso   1.000  H
  H4427    1.0000 0.87251  0.56319  0.98897  Biso   1.000  H
  H4428    1.0000 0.88566  0.51498  0.95088  Biso   1.000  H
  H4429    1.0000 0.87247  0.56319  0.98901  Biso   1.000  H
  H4430    1.0000 0.87247  0.56319  0.98897  Biso   1.000  H
  H4431    1.0000 0.83608  0.55169  0.93898  Biso   1.000  H
  H4432    1.0000 0.88570  0.48498  0.04912  Biso   1.000  H
  H4433    1.0000 0.87251  0.43681  0.01099  Biso   1.000  H
  H4434    1.0000 0.88570  0.48498  0.04908  Biso   1.000  H
  H4435    1.0000 0.88566  0.48498  0.04912  Biso   1.000  H
  H4436    1.0000 0.87247  0.43681  0.01099  Biso   1.000  H
  H4437    1.0000 0.88566  0.48498  0.04908  Biso   1.000  H
  H4438    1.0000 0.83608  0.44831  0.06098  Biso   1.000  H
  H4439    1.0000 0.98818  0.81350  0.07511  Biso   1.000  H
  H4440    1.0000 0.92736  0.81397  0.05882  Biso   1.000  H
  C2618    1.0000 0.97267  0.86380  0.01237  Biso   1.000  C
  H4441    1.0000 0.98818  0.81350  0.07507  Biso   1.000  H
  C2619    1.0000 0.97271  0.86380  0.01237  Biso   1.000  C
  H4442    1.0000 0.05418  0.86599  0.01559  Biso   1.000  H
  H4443    1.0000 0.03110  0.89497  0.96482  Biso   1.000  H
  H4444    1.0000 0.03110  0.89497  0.96478  Biso   1.000  H
  H4445    1.0000 0.92485  0.48820  0.68648  Biso   1.000  H
  H4446    1.0000 0.94118  0.42738  0.68601  Biso   1.000  H
  C2620    1.0000 0.98763  0.47273  0.63619  Biso   1.000  C
  H4447    1.0000 0.94118  0.42738  0.68597  Biso   1.000  H
  H4448    1.0000 0.92489  0.48820  0.68648  Biso   1.000  H
  C2621    1.0000 0.98759  0.47273  0.63619  Biso   1.000  C
  H4449    1.0000 0.98441  0.55420  0.63403  Biso   1.000  H
  H4450    1.0000 0.98441  0.55420  0.63399  Biso   1.000  H
  H4451    1.0000 0.98437  0.55420  0.63403  Biso   1.000  H
  H4452    1.0000 0.98437  0.55420  0.63399  Biso   1.000  H
  H4453    1.0000 0.03518  0.53108  0.60501  Biso   1.000  H
  H4454    1.0000 0.03518  0.53108  0.60497  Biso   1.000  H
  H4455    1.0000 0.68648  0.42491  0.98818  Biso   1.000  H
  H4456    1.0000 0.68601  0.44120  0.92736  Biso   1.000  H
  C2622    1.0000 0.63619  0.48761  0.97267  Biso   1.000  C
  C2623    1.0000 0.63619  0.48761  0.97271  Biso   1.000  C
  H4457    1.0000 0.68597  0.44120  0.92736  Biso   1.000  H
  H4458    1.0000 0.63403  0.48439  0.05418  Biso   1.000  H
  H4459    1.0000 0.60501  0.53520  0.03110  Biso   1.000  H
  H4460    1.0000 0.63399  0.48439  0.05418  Biso   1.000  H
  H4461    1.0000 0.60497  0.53520  0.03110  Biso   1.000  H
  H4462    1.0000 0.94578  0.86599  0.98441  Biso   1.000  H
  H4463    1.0000 0.94578  0.86599  0.98437  Biso   1.000  H
  H4464    1.0000 0.96886  0.89497  0.03518  Biso   1.000  H
  H4465    1.0000 0.96482  0.46888  0.60501  Biso   1.000  H
  H4466    1.0000 0.96482  0.46888  0.60497  Biso   1.000  H
  H4467    1.0000 0.96478  0.46888  0.60501  Biso   1.000  H
  H4468    1.0000 0.96478  0.46888  0.60497  Biso   1.000  H
  H4469    1.0000 0.01559  0.44580  0.63403  Biso   1.000  H
  H4470    1.0000 0.01559  0.44580  0.63399  Biso   1.000  H
  H4471    1.0000 0.63403  0.51561  0.94578  Biso   1.000  H
  H4472    1.0000 0.60501  0.46480  0.96886  Biso   1.000  H
  H4473    1.0000 0.63399  0.51561  0.94578  Biso   1.000  H
  H4474    1.0000 0.60497  0.46480  0.96886  Biso   1.000  H
  C2624    1.0000 0.12266  0.43205  0.14202  Biso   1.000  C
  C2625    1.0000 0.15407  0.42020  0.09887  Biso   1.000  C
  H4475    1.0000 0.13079  0.46158  0.16330  Biso   1.000  H
  C2626    1.0000 0.07982  0.40112  0.15407  Biso   1.000  C
  C2627    1.0000 0.07978  0.40112  0.15407  Biso   1.000  C
  C2628    1.0000 0.14202  0.37732  0.06793  Biso   1.000  C
  C2629    1.0000 0.12266  0.43205  0.14198  Biso   1.000  C
  C2630    1.0000 0.14198  0.37732  0.06793  Biso   1.000  C
  C2631    1.0000 0.20248  0.45353  0.08893  Biso   1.000  C
  C2632    1.0000 0.20248  0.45353  0.08889  Biso   1.000  C
  C2633    1.0000 0.20244  0.45353  0.08893  Biso   1.000  C
  C2634    1.0000 0.20244  0.45353  0.08889  Biso   1.000  C
  C2635    1.0000 0.06793  0.35796  0.12266  Biso   1.000  C
  C2636    1.0000 0.04645  0.41109  0.20248  Biso   1.000  C
  C2637    1.0000 0.04645  0.41109  0.20244  Biso   1.000  C
  H4476    1.0000 0.16330  0.36919  0.03840  Biso   1.000  H
  C2638    1.0000 0.09887  0.34591  0.07982  Biso   1.000  C
  H4477    1.0000 0.16330  0.36919  0.03836  Biso   1.000  H
  C2639    1.0000 0.09887  0.34591  0.07978  Biso   1.000  C
  N328     1.0000 0.21575  0.46060  0.03365  Biso   1.000  N
  N329     1.0000 0.21571  0.46060  0.03365  Biso   1.000  N
  H4478    1.0000 0.19691  0.48848  0.10491  Biso   1.000  H
  H4479    1.0000 0.23271  0.43708  0.10691  Biso   1.000  H
  H4480    1.0000 0.19691  0.48848  0.10487  Biso   1.000  H
  H4481    1.0000 0.23271  0.43708  0.10688  Biso   1.000  H
  H4482    1.0000 0.19687  0.48848  0.10491  Biso   1.000  H
  H4483    1.0000 0.23268  0.43708  0.10691  Biso   1.000  H
  H4484    1.0000 0.19687  0.48848  0.10487  Biso   1.000  H
  H4485    1.0000 0.23268  0.43708  0.10688  Biso   1.000  H
  H4486    1.0000 0.03840  0.33668  0.13079  Biso   1.000  H
  H4487    1.0000 0.03836  0.33668  0.13079  Biso   1.000  H
  N330     1.0000 0.03938  0.46633  0.21575  Biso   1.000  N
  N331     1.0000 0.03938  0.46633  0.21571  Biso   1.000  N
  H4488    1.0000 0.01150  0.39511  0.19691  Biso   1.000  H
  H4489    1.0000 0.06290  0.39311  0.23271  Biso   1.000  H
  H4490    1.0000 0.01150  0.39511  0.19687  Biso   1.000  H
  H4491    1.0000 0.06290  0.39311  0.23268  Biso   1.000  H
  H4492    1.0000 0.01146  0.39511  0.19691  Biso   1.000  H
  H4493    1.0000 0.06286  0.39311  0.23271  Biso   1.000  H
  H4494    1.0000 0.01146  0.39511  0.19687  Biso   1.000  H
  H4495    1.0000 0.06286  0.39311  0.23268  Biso   1.000  H
  C2640    1.0000 0.08893  0.29754  0.04645  Biso   1.000  C
  C2641    1.0000 0.08889  0.29754  0.04645  Biso   1.000  C
  C2642    1.0000 0.26522  0.48852  0.02776  Biso   1.000  C
  C2643    1.0000 0.17708  0.49998  0.00000  Biso   1.000  C
  H4496    1.0000 0.18528  0.47108  0.02120  Biso   1.000  H
  C2644    1.0000 0.01146  0.47222  0.26522  Biso   1.000  C
  C2645    1.0000 0.00000  0.49998  0.17708  Biso   1.000  C
  H4497    1.0000 0.02890  0.47878  0.18528  Biso   1.000  H
  N332     1.0000 0.03365  0.28427  0.03938  Biso   1.000  N
  H4498    1.0000 0.10491  0.30311  0.01150  Biso   1.000  H
  H4499    1.0000 0.10691  0.26731  0.06290  Biso   1.000  H
  H4500    1.0000 0.10491  0.30311  0.01146  Biso   1.000  H
  H4501    1.0000 0.10691  0.26731  0.06286  Biso   1.000  H
  H4502    1.0000 0.10487  0.30311  0.01150  Biso   1.000  H
  H4503    1.0000 0.10688  0.26731  0.06290  Biso   1.000  H
  H4504    1.0000 0.10487  0.30311  0.01146  Biso   1.000  H
  H4505    1.0000 0.10688  0.26731  0.06286  Biso   1.000  H
  C2646    1.0000 0.31399  0.45510  0.03632  Biso   1.000  C
  H4506    1.0000 0.26589  0.51820  0.05352  Biso   1.000  H
  C2647    1.0000 0.31395  0.45510  0.03632  Biso   1.000  C
  H4507    1.0000 0.26589  0.51820  0.05348  Biso   1.000  H
  C2648    1.0000 0.26522  0.51145  0.97220  Biso   1.000  C
  C2649    1.0000 0.14268  0.53559  0.03322  Biso   1.000  C
  C2650    1.0000 0.14268  0.53559  0.03318  Biso   1.000  C
  C2651    1.0000 0.14268  0.46441  0.96678  Biso   1.000  C
  N333     1.0000 0.21575  0.53940  0.96631  Biso   1.000  N
  N334     1.0000 0.21571  0.53940  0.96631  Biso   1.000  N
  H4508    1.0000 0.18528  0.52888  0.97880  Biso   1.000  H
  H4509    1.0000 0.98178  0.44650  0.26589  Biso   1.000  H
  C2652    1.0000 0.98854  0.52778  0.26522  Biso   1.000  C
  C2653    1.0000 0.98850  0.52778  0.26522  Biso   1.000  C
  C2654    1.0000 0.04492  0.46366  0.31399  Biso   1.000  C
  C2655    1.0000 0.04492  0.46366  0.31395  Biso   1.000  C
  C2656    1.0000 0.04488  0.46366  0.31399  Biso   1.000  C
  C2657    1.0000 0.04488  0.46366  0.31395  Biso   1.000  C
  C2658    1.0000 0.03561  0.53320  0.14268  Biso   1.000  C
  C2659    1.0000 0.03557  0.53320  0.14268  Biso   1.000  C
  N335     1.0000 0.96062  0.53367  0.21575  Biso   1.000  N
  C2660    1.0000 0.96435  0.46680  0.14268  Biso   1.000  C
  N336     1.0000 0.96062  0.53367  0.21571  Biso   1.000  N
  N337     1.0000 0.96058  0.53367  0.21575  Biso   1.000  N
  C2661    1.0000 0.96439  0.46680  0.14268  Biso   1.000  C
  N338     1.0000 0.96058  0.53367  0.21571  Biso   1.000  N
  H4510    1.0000 0.97106  0.52118  0.18528  Biso   1.000  H
  C2662    1.0000 0.02776  0.23476  0.01146  Biso   1.000  C
  C2663    1.0000 0.00000  0.32290  0.00000  Biso   1.000  C
  H4511    1.0000 0.02120  0.31470  0.02890  Biso   1.000  H
  H4512    1.0000 0.31399  0.44120  0.07260  Biso   1.000  H
  H4513    1.0000 0.31348  0.42491  0.01182  Biso   1.000  H
  C2664    1.0000 0.36378  0.48761  0.02729  Biso   1.000  C
  H4514    1.0000 0.31348  0.42491  0.01178  Biso   1.000  H
  C2665    1.0000 0.36378  0.48761  0.02725  Biso   1.000  C
  C2666    1.0000 0.31399  0.54490  0.96368  Biso   1.000  C
  H4515    1.0000 0.26589  0.48180  0.94644  Biso   1.000  H
  C2667    1.0000 0.31399  0.54490  0.96364  Biso   1.000  C
  H4516    1.0000 0.26589  0.48180  0.94648  Biso   1.000  H
  C2668    1.0000 0.31395  0.54490  0.96368  Biso   1.000  C
  C2669    1.0000 0.31395  0.54490  0.96364  Biso   1.000  C
  H4517    1.0000 0.12749  0.56319  0.01099  Biso   1.000  H
  H4518    1.0000 0.11430  0.51498  0.04912  Biso   1.000  H
  H4519    1.0000 0.11430  0.51498  0.04908  Biso   1.000  H
  H4520    1.0000 0.16389  0.55169  0.06098  Biso   1.000  H
  H4521    1.0000 0.11430  0.48498  0.95088  Biso   1.000  H
  H4522    1.0000 0.12749  0.43681  0.98901  Biso   1.000  H
  H4523    1.0000 0.12749  0.43681  0.98897  Biso   1.000  H
  H4524    1.0000 0.16389  0.44831  0.93898  Biso   1.000  H
  C2670    1.0000 0.20248  0.54647  0.91107  Biso   1.000  C
  C2671    1.0000 0.20244  0.54647  0.91107  Biso   1.000  C
  H4525    1.0000 0.01822  0.55350  0.26589  Biso   1.000  H
  H4526    1.0000 0.01818  0.55350  0.26589  Biso   1.000  H
  C2672    1.0000 0.95508  0.53630  0.31399  Biso   1.000  C
  C2673    1.0000 0.95508  0.53630  0.31395  Biso   1.000  C
  H4527    1.0000 0.07511  0.48820  0.31348  Biso   1.000  H
  H4528    1.0000 0.05882  0.42738  0.31399  Biso   1.000  H
  C2674    1.0000 0.01237  0.47273  0.36378  Biso   1.000  C
  H4529    1.0000 0.07507  0.48820  0.31348  Biso   1.000  H
  H4530    1.0000 0.01500  0.54910  0.11430  Biso   1.000  H
  H4531    1.0000 0.06321  0.51097  0.12749  Biso   1.000  H
  H4532    1.0000 0.06317  0.51097  0.12749  Biso   1.000  H
  H4533    1.0000 0.05171  0.56100  0.16389  Biso   1.000  H
  C2675    1.0000 0.95351  0.58891  0.20248  Biso   1.000  C
  C2676    1.0000 0.95351  0.58891  0.20244  Biso   1.000  C
  H4534    1.0000 0.98500  0.45090  0.11430  Biso   1.000  H
  H4535    1.0000 0.93675  0.48899  0.12749  Biso   1.000  H
  H4536    1.0000 0.98496  0.45090  0.11430  Biso   1.000  H
  H4537    1.0000 0.93679  0.48899  0.12749  Biso   1.000  H
  H4538    1.0000 0.94829  0.43900  0.16389  Biso   1.000  H
  C2677    1.0000 0.03632  0.18599  0.04492  Biso   1.000  C
  C2678    1.0000 0.03632  0.18599  0.04488  Biso   1.000  C
  C2679    1.0000 0.97220  0.23476  0.98854  Biso   1.000  C
  C2680    1.0000 0.97220  0.23476  0.98850  Biso   1.000  C
  H4539    1.0000 0.05352  0.23409  0.98178  Biso   1.000  H
  H4540    1.0000 0.05348  0.23409  0.98178  Biso   1.000  H
  N339     1.0000 0.96631  0.28427  0.96062  Biso   1.000  N
  N340     1.0000 0.96631  0.28427  0.96058  Biso   1.000  N
  H4541    1.0000 0.97880  0.31470  0.97106  Biso   1.000  H
  C2681    1.0000 0.96678  0.35730  0.03561  Biso   1.000  C
  C2682    1.0000 0.96678  0.35730  0.03557  Biso   1.000  C
  C2683    1.0000 0.03322  0.35730  0.96435  Biso   1.000  C
  C2684    1.0000 0.03322  0.35730  0.96439  Biso   1.000  C
  C2685    1.0000 0.03318  0.35730  0.96435  Biso   1.000  C
  C2686    1.0000 0.03318  0.35730  0.96439  Biso   1.000  C
  H4542    1.0000 0.36597  0.51561  0.05418  Biso   1.000  H
  H4543    1.0000 0.39499  0.46480  0.03110  Biso   1.000  H
  H4544    1.0000 0.39503  0.46480  0.03110  Biso   1.000  H
  C2687    1.0000 0.36378  0.51239  0.97267  Biso   1.000  C
  C2688    1.0000 0.36378  0.51239  0.97271  Biso   1.000  C
  H4545    1.0000 0.31348  0.57509  0.98818  Biso   1.000  H
  H4546    1.0000 0.31399  0.55880  0.92736  Biso   1.000  H
  C2689    1.0000 0.15407  0.57980  0.90110  Biso   1.000  C
  H4547    1.0000 0.19691  0.51148  0.89509  Biso   1.000  H
  H4548    1.0000 0.23271  0.56288  0.89305  Biso   1.000  H
  H4549    1.0000 0.23271  0.56288  0.89309  Biso   1.000  H
  H4550    1.0000 0.19687  0.51148  0.89509  Biso   1.000  H
  H4551    1.0000 0.23268  0.56288  0.89305  Biso   1.000  H
  H4552    1.0000 0.23268  0.56288  0.89309  Biso   1.000  H
  H4553    1.0000 0.92485  0.51180  0.31348  Biso   1.000  H
  H4554    1.0000 0.94118  0.57258  0.31399  Biso   1.000  H
  C2690    1.0000 0.98763  0.52727  0.36378  Biso   1.000  C
  H4555    1.0000 0.92489  0.51180  0.31348  Biso   1.000  H
  C2691    1.0000 0.98759  0.52727  0.36378  Biso   1.000  C
  H4556    1.0000 0.03518  0.46888  0.39499  Biso   1.000  H
  H4557    1.0000 0.03518  0.46888  0.39503  Biso   1.000  H
  H4558    1.0000 0.98441  0.44580  0.36597  Biso   1.000  H
  H4559    1.0000 0.98437  0.44580  0.36597  Biso   1.000  H
  C2692    1.0000 0.92018  0.59888  0.15407  Biso   1.000  C
  H4560    1.0000 0.98850  0.60489  0.19691  Biso   1.000  H
  H4561    1.0000 0.93706  0.60689  0.23271  Biso   1.000  H
  H4562    1.0000 0.98850  0.60489  0.19687  Biso   1.000  H
  H4563    1.0000 0.93706  0.60689  0.23268  Biso   1.000  H
  H4564    1.0000 0.93710  0.60689  0.23271  Biso   1.000  H
  H4565    1.0000 0.93710  0.60689  0.23268  Biso   1.000  H
  H4566    1.0000 0.07260  0.18599  0.05882  Biso   1.000  H
  C2693    1.0000 0.02729  0.13620  0.01237  Biso   1.000  C
  C2694    1.0000 0.02725  0.13620  0.01237  Biso   1.000  C
  H4567    1.0000 0.01182  0.18650  0.07511  Biso   1.000  H
  H4568    1.0000 0.01182  0.18650  0.07507  Biso   1.000  H
  H4569    1.0000 0.01178  0.18650  0.07511  Biso   1.000  H
  H4570    1.0000 0.01178  0.18650  0.07507  Biso   1.000  H
  C2695    1.0000 0.96368  0.18599  0.95508  Biso   1.000  C
  C2696    1.0000 0.96364  0.18599  0.95508  Biso   1.000  C
  H4571    1.0000 0.94644  0.23409  0.01822  Biso   1.000  H
  H4572    1.0000 0.94644  0.23409  0.01818  Biso   1.000  H
  H4573    1.0000 0.94648  0.23409  0.01822  Biso   1.000  H
  H4574    1.0000 0.94648  0.23409  0.01818  Biso   1.000  H
  C2697    1.0000 0.91107  0.29754  0.95351  Biso   1.000  C
  H4575    1.0000 0.95088  0.38568  0.01500  Biso   1.000  H
  H4576    1.0000 0.98901  0.37249  0.06321  Biso   1.000  H
  H4577    1.0000 0.98901  0.37249  0.06317  Biso   1.000  H
  H4578    1.0000 0.98897  0.37249  0.06321  Biso   1.000  H
  H4579    1.0000 0.98897  0.37249  0.06317  Biso   1.000  H
  H4580    1.0000 0.93898  0.33609  0.05171  Biso   1.000  H
  H4581    1.0000 0.04912  0.38568  0.98500  Biso   1.000  H
  H4582    1.0000 0.01099  0.37249  0.93675  Biso   1.000  H
  H4583    1.0000 0.04912  0.38568  0.98496  Biso   1.000  H
  H4584    1.0000 0.01099  0.37249  0.93679  Biso   1.000  H
  H4585    1.0000 0.04908  0.38568  0.98500  Biso   1.000  H
  H4586    1.0000 0.04908  0.38568  0.98496  Biso   1.000  H
  H4587    1.0000 0.06098  0.33609  0.94829  Biso   1.000  H
  H4588    1.0000 0.36597  0.48439  0.94578  Biso   1.000  H
  H4589    1.0000 0.39499  0.53520  0.96886  Biso   1.000  H
  H4590    1.0000 0.39503  0.53520  0.96886  Biso   1.000  H
  C2698    1.0000 0.14202  0.62264  0.93204  Biso   1.000  C
  C2699    1.0000 0.12266  0.56795  0.85794  Biso   1.000  C
  C2700    1.0000 0.12266  0.56795  0.85798  Biso   1.000  C
  C2701    1.0000 0.14198  0.62264  0.93204  Biso   1.000  C
  H4591    1.0000 0.01559  0.55420  0.36597  Biso   1.000  H
  H4592    1.0000 0.96482  0.53108  0.39499  Biso   1.000  H
  H4593    1.0000 0.96482  0.53108  0.39503  Biso   1.000  H
  H4594    1.0000 0.96478  0.53108  0.39499  Biso   1.000  H
  H4595    1.0000 0.96478  0.53108  0.39503  Biso   1.000  H
  C2702    1.0000 0.87734  0.56795  0.14202  Biso   1.000  C
  C2703    1.0000 0.93204  0.64200  0.12266  Biso   1.000  C
  C2704    1.0000 0.87734  0.56795  0.14198  Biso   1.000  C
  C2705    1.0000 0.87730  0.56795  0.14202  Biso   1.000  C
  C2706    1.0000 0.87730  0.56795  0.14198  Biso   1.000  C
  H4596    1.0000 0.03110  0.10499  0.03518  Biso   1.000  H
  C2707    1.0000 0.97267  0.13620  0.98763  Biso   1.000  C
  C2708    1.0000 0.97267  0.13620  0.98759  Biso   1.000  C
  C2709    1.0000 0.97271  0.13620  0.98763  Biso   1.000  C
  C2710    1.0000 0.97271  0.13620  0.98759  Biso   1.000  C
  H4597    1.0000 0.05418  0.13401  0.98441  Biso   1.000  H
  H4598    1.0000 0.05418  0.13401  0.98437  Biso   1.000  H
  H4599    1.0000 0.98818  0.18650  0.92485  Biso   1.000  H
  H4600    1.0000 0.92736  0.18599  0.94118  Biso   1.000  H
  H4601    1.0000 0.98818  0.18650  0.92489  Biso   1.000  H
  C2711    1.0000 0.90110  0.34591  0.92018  Biso   1.000  C
  H4602    1.0000 0.89509  0.30311  0.98850  Biso   1.000  H
  H4603    1.0000 0.89305  0.26731  0.93706  Biso   1.000  H
  H4604    1.0000 0.89305  0.26731  0.93710  Biso   1.000  H
  H4605    1.0000 0.89309  0.26731  0.93706  Biso   1.000  H
  H4606    1.0000 0.89309  0.26731  0.93710  Biso   1.000  H
  H4607    1.0000 0.16330  0.63081  0.96160  Biso   1.000  H
  C2712    1.0000 0.09887  0.65405  0.92018  Biso   1.000  C
  H4608    1.0000 0.13079  0.53838  0.83666  Biso   1.000  H
  C2713    1.0000 0.07982  0.59888  0.84589  Biso   1.000  C
  C2714    1.0000 0.07978  0.59888  0.84589  Biso   1.000  C
  H4609    1.0000 0.86921  0.53838  0.16330  Biso   1.000  H
  C2715    1.0000 0.84589  0.57980  0.09887  Biso   1.000  C
  H4610    1.0000 0.86917  0.53838  0.16330  Biso   1.000  H
  H4611    1.0000 0.96160  0.66328  0.13079  Biso   1.000  H
  C2716    1.0000 0.90110  0.65405  0.07982  Biso   1.000  C
  C2717    1.0000 0.90110  0.65405  0.07978  Biso   1.000  C
  H4612    1.0000 0.96886  0.10499  0.96482  Biso   1.000  H
  H4613    1.0000 0.96886  0.10499  0.96478  Biso   1.000  H
  H4614    1.0000 0.94578  0.13401  0.01559  Biso   1.000  H
  C2718    1.0000 0.93204  0.35796  0.87734  Biso   1.000  C
  C2719    1.0000 0.85794  0.37732  0.93204  Biso   1.000  C
  C2720    1.0000 0.93204  0.35796  0.87730  Biso   1.000  C
  C2721    1.0000 0.85798  0.37732  0.93204  Biso   1.000  C
  C2722    1.0000 0.06793  0.64200  0.87734  Biso   1.000  C
  C2723    1.0000 0.08893  0.70246  0.95351  Biso   1.000  C
  C2724    1.0000 0.06793  0.64200  0.87730  Biso   1.000  C
  C2725    1.0000 0.08889  0.70246  0.95351  Biso   1.000  C
  C2726    1.0000 0.04645  0.58891  0.79752  Biso   1.000  C
  C2727    1.0000 0.85794  0.62264  0.06793  Biso   1.000  C
  C2728    1.0000 0.79752  0.54647  0.08893  Biso   1.000  C
  C2729    1.0000 0.79752  0.54647  0.08889  Biso   1.000  C
  C2730    1.0000 0.85798  0.62264  0.06793  Biso   1.000  C
  C2731    1.0000 0.91107  0.70246  0.04645  Biso   1.000  C
  C2732    1.0000 0.92018  0.40112  0.84589  Biso   1.000  C
  H4615    1.0000 0.96160  0.33668  0.86921  Biso   1.000  H
  H4616    1.0000 0.96160  0.33668  0.86917  Biso   1.000  H
  H4617    1.0000 0.83666  0.36919  0.96160  Biso   1.000  H
  C2733    1.0000 0.84589  0.42020  0.90110  Biso   1.000  C
  H4618    1.0000 0.03840  0.66328  0.86921  Biso   1.000  H
  H4619    1.0000 0.03840  0.66328  0.86917  Biso   1.000  H
  H4620    1.0000 0.03836  0.66328  0.86921  Biso   1.000  H
  H4621    1.0000 0.03836  0.66328  0.86917  Biso   1.000  H
  H4622    1.0000 0.10491  0.69689  0.98850  Biso   1.000  H
  H4623    1.0000 0.10691  0.73269  0.93706  Biso   1.000  H
  N341     1.0000 0.03365  0.71573  0.96062  Biso   1.000  N
  H4624    1.0000 0.10691  0.73269  0.93710  Biso   1.000  H
  N342     1.0000 0.03365  0.71573  0.96058  Biso   1.000  N
  H4625    1.0000 0.10487  0.69689  0.98850  Biso   1.000  H
  H4626    1.0000 0.10688  0.73269  0.93706  Biso   1.000  H
  H4627    1.0000 0.10688  0.73269  0.93710  Biso   1.000  H
  H4628    1.0000 0.01150  0.60489  0.80309  Biso   1.000  H
  H4629    1.0000 0.06290  0.60689  0.76725  Biso   1.000  H
  N343     1.0000 0.03938  0.53367  0.78425  Biso   1.000  N
  H4630    1.0000 0.06290  0.60689  0.76729  Biso   1.000  H
  H4631    1.0000 0.01146  0.60489  0.80309  Biso   1.000  H
  H4632    1.0000 0.06286  0.60689  0.76725  Biso   1.000  H
  H4633    1.0000 0.06286  0.60689  0.76729  Biso   1.000  H
  H4634    1.0000 0.83666  0.63081  0.03840  Biso   1.000  H
  H4635    1.0000 0.83666  0.63081  0.03836  Biso   1.000  H
  H4636    1.0000 0.80309  0.51148  0.10491  Biso   1.000  H
  H4637    1.0000 0.76725  0.56288  0.10691  Biso   1.000  H
  N344     1.0000 0.78425  0.53940  0.03365  Biso   1.000  N
  H4638    1.0000 0.80309  0.51148  0.10487  Biso   1.000  H
  H4639    1.0000 0.76725  0.56288  0.10688  Biso   1.000  H
  H4640    1.0000 0.76729  0.56288  0.10691  Biso   1.000  H
  H4641    1.0000 0.76729  0.56288  0.10688  Biso   1.000  H
  H4642    1.0000 0.89509  0.69689  0.01150  Biso   1.000  H
  H4643    1.0000 0.89305  0.73269  0.06290  Biso   1.000  H
  N345     1.0000 0.96631  0.71573  0.03938  Biso   1.000  N
  H4644    1.0000 0.89509  0.69689  0.01146  Biso   1.000  H
  H4645    1.0000 0.89305  0.73269  0.06286  Biso   1.000  H
  H4646    1.0000 0.89309  0.73269  0.06290  Biso   1.000  H
  H4647    1.0000 0.89309  0.73269  0.06286  Biso   1.000  H
  C2734    1.0000 0.87734  0.43205  0.85794  Biso   1.000  C
  C2735    1.0000 0.95351  0.41109  0.79752  Biso   1.000  C
  C2736    1.0000 0.87734  0.43205  0.85798  Biso   1.000  C
  C2737    1.0000 0.87730  0.43205  0.85794  Biso   1.000  C
  C2738    1.0000 0.87730  0.43205  0.85798  Biso   1.000  C
  C2739    1.0000 0.79752  0.45353  0.91107  Biso   1.000  C
  C2740    1.0000 0.00000  0.67710  0.00000  Biso   1.000  C
  C2741    1.0000 0.02776  0.76520  0.98854  Biso   1.000  C
  C2742    1.0000 0.02776  0.76520  0.98850  Biso   1.000  C
  H4648    1.0000 0.02120  0.68530  0.97106  Biso   1.000  H
  C2743    1.0000 0.01146  0.52778  0.73474  Biso   1.000  C
  C2744    1.0000 0.00000  0.49998  0.82292  Biso   1.000  C
  C2745    1.0000 0.00000  0.49998  0.82288  Biso   1.000  C
  H4649    1.0000 0.02890  0.52118  0.81468  Biso   1.000  H
  C2746    1.0000 0.82292  0.49998  0.00000  Biso   1.000  C
  C2747    1.0000 0.82288  0.49998  0.00000  Biso   1.000  C
  C2748    1.0000 0.73474  0.51145  0.02776  Biso   1.000  C
  H4650    1.0000 0.81468  0.52888  0.02120  Biso   1.000  H
  H4651    1.0000 0.97880  0.68530  0.02890  Biso   1.000  H
  C2749    1.0000 0.97220  0.76520  0.01146  Biso   1.000  C
  H4652    1.0000 0.86921  0.46158  0.83666  Biso   1.000  H
  H4653    1.0000 0.86917  0.46158  0.83666  Biso   1.000  H
  H4654    1.0000 0.98850  0.39511  0.80309  Biso   1.000  H
  H4655    1.0000 0.93706  0.39311  0.76725  Biso   1.000  H
  N346     1.0000 0.96062  0.46633  0.78425  Biso   1.000  N
  H4656    1.0000 0.93706  0.39311  0.76729  Biso   1.000  H
  H4657    1.0000 0.93710  0.39311  0.76725  Biso   1.000  H
  N347     1.0000 0.96058  0.46633  0.78425  Biso   1.000  N
  H4658    1.0000 0.93710  0.39311  0.76729  Biso   1.000  H
  H4659    1.0000 0.80309  0.48848  0.89509  Biso   1.000  H
  H4660    1.0000 0.76725  0.43708  0.89305  Biso   1.000  H
  N348     1.0000 0.78425  0.46060  0.96631  Biso   1.000  N
  H4661    1.0000 0.76725  0.43708  0.89309  Biso   1.000  H
  H4662    1.0000 0.76729  0.43708  0.89305  Biso   1.000  H
  H4663    1.0000 0.76729  0.43708  0.89309  Biso   1.000  H
  C2750    1.0000 0.96678  0.64270  0.96435  Biso   1.000  C
  C2751    1.0000 0.96678  0.64270  0.96439  Biso   1.000  C
  C2752    1.0000 0.03322  0.64270  0.03561  Biso   1.000  C
  C2753    1.0000 0.03322  0.64270  0.03557  Biso   1.000  C
  C2754    1.0000 0.03318  0.64270  0.03561  Biso   1.000  C
  C2755    1.0000 0.03318  0.64270  0.03557  Biso   1.000  C
  H4664    1.0000 0.05352  0.76587  0.01818  Biso   1.000  H
  C2756    1.0000 0.03632  0.81397  0.95508  Biso   1.000  C
  H4665    1.0000 0.05352  0.76587  0.01822  Biso   1.000  H
  H4666    1.0000 0.05348  0.76587  0.01822  Biso   1.000  H
  H4667    1.0000 0.05348  0.76587  0.01818  Biso   1.000  H
  H4668    1.0000 0.98178  0.55350  0.73411  Biso   1.000  H
  C2757    1.0000 0.98854  0.47222  0.73474  Biso   1.000  C
  H4669    1.0000 0.98178  0.55350  0.73407  Biso   1.000  H
  C2758    1.0000 0.98850  0.47222  0.73474  Biso   1.000  C
  C2759    1.0000 0.04492  0.53630  0.68601  Biso   1.000  C
  C2760    1.0000 0.04488  0.53630  0.68601  Biso   1.000  C
  C2761    1.0000 0.96435  0.53320  0.85732  Biso   1.000  C
  C2762    1.0000 0.96435  0.53320  0.85728  Biso   1.000  C
  C2763    1.0000 0.96439  0.53320  0.85732  Biso   1.000  C
  C2764    1.0000 0.96439  0.53320  0.85728  Biso   1.000  C
  H4670    1.0000 0.97106  0.47878  0.81468  Biso   1.000  H
  C2765    1.0000 0.03561  0.46680  0.85732  Biso   1.000  C
  C2766    1.0000 0.03561  0.46680  0.85728  Biso   1.000  C
  C2767    1.0000 0.03557  0.46680  0.85732  Biso   1.000  C
  C2768    1.0000 0.03557  0.46680  0.85728  Biso   1.000  C
  H4671    1.0000 0.81468  0.47108  0.97880  Biso   1.000  H
  C2769    1.0000 0.85732  0.53559  0.96678  Biso   1.000  C
  C2770    1.0000 0.85728  0.53559  0.96678  Biso   1.000  C
  C2771    1.0000 0.85732  0.46441  0.03322  Biso   1.000  C
  C2772    1.0000 0.85732  0.46441  0.03318  Biso   1.000  C
  C2773    1.0000 0.85728  0.46441  0.03322  Biso   1.000  C
  C2774    1.0000 0.85728  0.46441  0.03318  Biso   1.000  C
  C2775    1.0000 0.73474  0.48852  0.97220  Biso   1.000  C
  C2776    1.0000 0.68601  0.54490  0.03632  Biso   1.000  C
  H4672    1.0000 0.73411  0.48180  0.05352  Biso   1.000  H
  H4673    1.0000 0.73411  0.48180  0.05348  Biso   1.000  H
  H4674    1.0000 0.73407  0.48180  0.05352  Biso   1.000  H
  H4675    1.0000 0.73407  0.48180  0.05348  Biso   1.000  H
  H4676    1.0000 0.94644  0.76587  0.98178  Biso   1.000  H
  H4677    1.0000 0.94648  0.76587  0.98178  Biso   1.000  H
  C2777    1.0000 0.96368  0.81397  0.04492  Biso   1.000  C
  C2778    1.0000 0.96368  0.81397  0.04488  Biso   1.000  C
  C2779    1.0000 0.96364  0.81397  0.04492  Biso   1.000  C
  C2780    1.0000 0.96364  0.81397  0.04488  Biso   1.000  C
  H4678    1.0000 0.95088  0.61428  0.98500  Biso   1.000  H
  H4679    1.0000 0.98901  0.62747  0.93675  Biso   1.000  H
  H4680    1.0000 0.95088  0.61428  0.98496  Biso   1.000  H
  H4681    1.0000 0.98901  0.62747  0.93679  Biso   1.000  H
  H4682    1.0000 0.98897  0.62747  0.93675  Biso   1.000  H
  H4683    1.0000 0.98897  0.62747  0.93679  Biso   1.000  H
  H4684    1.0000 0.93898  0.66391  0.94829  Biso   1.000  H
  H4685    1.0000 0.04912  0.61428  0.01500  Biso   1.000  H
  H4686    1.0000 0.01099  0.62747  0.06321  Biso   1.000  H
  H4687    1.0000 0.04908  0.61428  0.01500  Biso   1.000  H
  H4688    1.0000 0.01099  0.62747  0.06317  Biso   1.000  H
  H4689    1.0000 0.06098  0.66391  0.05171  Biso   1.000  H
  H4690    1.0000 0.01182  0.81350  0.92485  Biso   1.000  H
  H4691    1.0000 0.07260  0.81397  0.94118  Biso   1.000  H
  C2781    1.0000 0.02729  0.86380  0.98763  Biso   1.000  C
  H4692    1.0000 0.01182  0.81350  0.92489  Biso   1.000  H
  C2782    1.0000 0.02729  0.86380  0.98759  Biso   1.000  C
  H4693    1.0000 0.01178  0.81350  0.92485  Biso   1.000  H
  C2783    1.0000 0.02725  0.86380  0.98763  Biso   1.000  C
  H4694    1.0000 0.01178  0.81350  0.92489  Biso   1.000  H
  C2784    1.0000 0.02725  0.86380  0.98759  Biso   1.000  C
  C2785    1.0000 0.95508  0.46366  0.68601  Biso   1.000  C
  H4695    1.0000 0.01822  0.44650  0.73411  Biso   1.000  H
  H4696    1.0000 0.01822  0.44650  0.73407  Biso   1.000  H
  H4697    1.0000 0.01818  0.44650  0.73411  Biso   1.000  H
  H4698    1.0000 0.01818  0.44650  0.73407  Biso   1.000  H
  H4699    1.0000 0.07511  0.51180  0.68648  Biso   1.000  H
  H4700    1.0000 0.05882  0.57258  0.68601  Biso   1.000  H
  C2786    1.0000 0.01237  0.52727  0.63619  Biso   1.000  C
  H4701    1.0000 0.05882  0.57258  0.68597  Biso   1.000  H
  H4702    1.0000 0.07507  0.51180  0.68648  Biso   1.000  H
  H4703    1.0000 0.98500  0.54910  0.88570  Biso   1.000  H
  H4704    1.0000 0.93675  0.51097  0.87251  Biso   1.000  H
  H4705    1.0000 0.98500  0.54910  0.88566  Biso   1.000  H
  H4706    1.0000 0.93675  0.51097  0.87247  Biso   1.000  H
  H4707    1.0000 0.98496  0.54910  0.88570  Biso   1.000  H
  H4708    1.0000 0.93679  0.51097  0.87251  Biso   1.000  H
  H4709    1.0000 0.98496  0.54910  0.88566  Biso   1.000  H
  H4710    1.0000 0.93679  0.51097  0.87247  Biso   1.000  H
  H4711    1.0000 0.94829  0.56100  0.83608  Biso   1.000  H
  H4712    1.0000 0.01500  0.45090  0.88570  Biso   1.000  H
  H4713    1.0000 0.06321  0.48899  0.87251  Biso   1.000  H
  H4714    1.0000 0.01500  0.45090  0.88566  Biso   1.000  H
  H4715    1.0000 0.06321  0.48899  0.87247  Biso   1.000  H
  H4716    1.0000 0.06317  0.48899  0.87251  Biso   1.000  H
  H4717    1.0000 0.06317  0.48899  0.87247  Biso   1.000  H
  H4718    1.0000 0.05171  0.43900  0.83608  Biso   1.000  H
  H4719    1.0000 0.88570  0.51498  0.95088  Biso   1.000  H
  H4720    1.0000 0.87251  0.56319  0.98901  Biso   1.000  H
  H4721    1.0000 0.87251  0.56319  0.98897  Biso   1.000  H
  H4722    1.0000 0.88566  0.51498  0.95088  Biso   1.000  H
  H4723    1.0000 0.87247  0.56319  0.98901  Biso   1.000  H
  H4724    1.0000 0.87247  0.56319  0.98897  Biso   1.000  H
  H4725    1.0000 0.83608  0.55169  0.93898  Biso   1.000  H
  H4726    1.0000 0.88570  0.48498  0.04912  Biso   1.000  H
  H4727    1.0000 0.87251  0.43681  0.01099  Biso   1.000  H
  H4728    1.0000 0.88570  0.48498  0.04908  Biso   1.000  H
  H4729    1.0000 0.88566  0.48498  0.04912  Biso   1.000  H
  H4730    1.0000 0.87247  0.43681  0.01099  Biso   1.000  H
  H4731    1.0000 0.88566  0.48498  0.04908  Biso   1.000  H
  H4732    1.0000 0.83608  0.44831  0.06098  Biso   1.000  H
  C2787    1.0000 0.68601  0.45510  0.96368  Biso   1.000  C
  H4733    1.0000 0.73411  0.51820  0.94644  Biso   1.000  H
  C2788    1.0000 0.68601  0.45510  0.96364  Biso   1.000  C
  H4734    1.0000 0.73411  0.51820  0.94648  Biso   1.000  H
  H4735    1.0000 0.73407  0.51820  0.94644  Biso   1.000  H
  H4736    1.0000 0.73407  0.51820  0.94648  Biso   1.000  H
  H4737    1.0000 0.68648  0.57509  0.01182  Biso   1.000  H
  H4738    1.0000 0.68601  0.55880  0.07260  Biso   1.000  H
  C2789    1.0000 0.63619  0.51239  0.02729  Biso   1.000  C
  H4739    1.0000 0.68648  0.57509  0.01178  Biso   1.000  H
  C2790    1.0000 0.63619  0.51239  0.02725  Biso   1.000  C
  H4740    1.0000 0.68597  0.55880  0.07260  Biso   1.000  H
  H4741    1.0000 0.98818  0.81350  0.07511  Biso   1.000  H
  H4742    1.0000 0.92736  0.81397  0.05882  Biso   1.000  H
  C2791    1.0000 0.97267  0.86380  0.01237  Biso   1.000  C
  H4743    1.0000 0.98818  0.81350  0.07507  Biso   1.000  H
  C2792    1.0000 0.97271  0.86380  0.01237  Biso   1.000  C
  H4744    1.0000 0.05418  0.86599  0.01559  Biso   1.000  H
  H4745    1.0000 0.03110  0.89497  0.96482  Biso   1.000  H
  H4746    1.0000 0.03110  0.89497  0.96478  Biso   1.000  H
  H4747    1.0000 0.92485  0.48820  0.68648  Biso   1.000  H
  H4748    1.0000 0.94118  0.42738  0.68601  Biso   1.000  H
  C2793    1.0000 0.98763  0.47273  0.63619  Biso   1.000  C
  H4749    1.0000 0.94118  0.42738  0.68597  Biso   1.000  H
  H4750    1.0000 0.92489  0.48820  0.68648  Biso   1.000  H
  C2794    1.0000 0.98759  0.47273  0.63619  Biso   1.000  C
  H4751    1.0000 0.98441  0.55420  0.63403  Biso   1.000  H
  H4752    1.0000 0.98441  0.55420  0.63399  Biso   1.000  H
  H4753    1.0000 0.98437  0.55420  0.63403  Biso   1.000  H
  H4754    1.0000 0.98437  0.55420  0.63399  Biso   1.000  H
  H4755    1.0000 0.03518  0.53108  0.60501  Biso   1.000  H
  H4756    1.0000 0.03518  0.53108  0.60497  Biso   1.000  H
  H4757    1.0000 0.68648  0.42491  0.98818  Biso   1.000  H
  H4758    1.0000 0.68601  0.44120  0.92736  Biso   1.000  H
  C2795    1.0000 0.63619  0.48761  0.97267  Biso   1.000  C
  C2796    1.0000 0.63619  0.48761  0.97271  Biso   1.000  C
  H4759    1.0000 0.68597  0.44120  0.92736  Biso   1.000  H
  H4760    1.0000 0.63403  0.48439  0.05418  Biso   1.000  H
  H4761    1.0000 0.60501  0.53520  0.03110  Biso   1.000  H
  H4762    1.0000 0.63399  0.48439  0.05418  Biso   1.000  H
  H4763    1.0000 0.60497  0.53520  0.03110  Biso   1.000  H
  H4764    1.0000 0.94578  0.86599  0.98441  Biso   1.000  H
  H4765    1.0000 0.94578  0.86599  0.98437  Biso   1.000  H
  H4766    1.0000 0.96886  0.89497  0.03518  Biso   1.000  H
  H4767    1.0000 0.96482  0.46888  0.60501  Biso   1.000  H
  H4768    1.0000 0.96482  0.46888  0.60497  Biso   1.000  H
  H4769    1.0000 0.96478  0.46888  0.60501  Biso   1.000  H
  H4770    1.0000 0.96478  0.46888  0.60497  Biso   1.000  H
  H4771    1.0000 0.01559  0.44580  0.63403  Biso   1.000  H
  H4772    1.0000 0.01559  0.44580  0.63399  Biso   1.000  H
  H4773    1.0000 0.63403  0.51561  0.94578  Biso   1.000  H
  H4774    1.0000 0.60501  0.46480  0.96886  Biso   1.000  H
  H4775    1.0000 0.63399  0.51561  0.94578  Biso   1.000  H
  H4776    1.0000 0.60497  0.46480  0.96886  Biso   1.000  H
  C2797    1.0000 0.12266  0.43205  0.14202  Biso   1.000  C
  C2798    1.0000 0.15407  0.42020  0.09887  Biso   1.000  C
  H4777    1.0000 0.13079  0.46158  0.16330  Biso   1.000  H
  C2799    1.0000 0.07982  0.40112  0.15407  Biso   1.000  C
  C2800    1.0000 0.07978  0.40112  0.15407  Biso   1.000  C
  C2801    1.0000 0.14202  0.37732  0.06793  Biso   1.000  C
  C2802    1.0000 0.20248  0.45353  0.08893  Biso   1.000  C
  C2803    1.0000 0.12266  0.43205  0.14198  Biso   1.000  C
  C2804    1.0000 0.20248  0.45353  0.08889  Biso   1.000  C
  C2805    1.0000 0.14198  0.37732  0.06793  Biso   1.000  C
  C2806    1.0000 0.20244  0.45353  0.08893  Biso   1.000  C
  C2807    1.0000 0.20244  0.45353  0.08889  Biso   1.000  C
  C2808    1.0000 0.06793  0.35796  0.12266  Biso   1.000  C
  C2809    1.0000 0.04645  0.41109  0.20248  Biso   1.000  C
  C2810    1.0000 0.04645  0.41109  0.20244  Biso   1.000  C
  H4778    1.0000 0.16330  0.36919  0.03840  Biso   1.000  H
  C2811    1.0000 0.09887  0.34591  0.07982  Biso   1.000  C
  H4779    1.0000 0.16330  0.36919  0.03836  Biso   1.000  H
  C2812    1.0000 0.09887  0.34591  0.07978  Biso   1.000  C
  N349     1.0000 0.21575  0.46060  0.03365  Biso   1.000  N
  H4780    1.0000 0.19691  0.48848  0.10491  Biso   1.000  H
  H4781    1.0000 0.23271  0.43708  0.10691  Biso   1.000  H
  H4782    1.0000 0.19691  0.48848  0.10487  Biso   1.000  H
  H4783    1.0000 0.23271  0.43708  0.10688  Biso   1.000  H
  H4784    1.0000 0.19687  0.48848  0.10491  Biso   1.000  H
  H4785    1.0000 0.23268  0.43708  0.10691  Biso   1.000  H
  N350     1.0000 0.21571  0.46060  0.03365  Biso   1.000  N
  H4786    1.0000 0.19687  0.48848  0.10487  Biso   1.000  H
  H4787    1.0000 0.23268  0.43708  0.10688  Biso   1.000  H
  H4788    1.0000 0.03840  0.33668  0.13079  Biso   1.000  H
  H4789    1.0000 0.03836  0.33668  0.13079  Biso   1.000  H
  N351     1.0000 0.03938  0.46633  0.21575  Biso   1.000  N
  H4790    1.0000 0.01150  0.39511  0.19691  Biso   1.000  H
  H4791    1.0000 0.06290  0.39311  0.23271  Biso   1.000  H
  H4792    1.0000 0.01150  0.39511  0.19687  Biso   1.000  H
  H4793    1.0000 0.06290  0.39311  0.23268  Biso   1.000  H
  N352     1.0000 0.03938  0.46633  0.21571  Biso   1.000  N
  H4794    1.0000 0.01146  0.39511  0.19691  Biso   1.000  H
  H4795    1.0000 0.06286  0.39311  0.23271  Biso   1.000  H
  H4796    1.0000 0.01146  0.39511  0.19687  Biso   1.000  H
  H4797    1.0000 0.06286  0.39311  0.23268  Biso   1.000  H
  C2813    1.0000 0.08893  0.29754  0.04645  Biso   1.000  C
  C2814    1.0000 0.08889  0.29754  0.04645  Biso   1.000  C
  C2815    1.0000 0.26522  0.48852  0.02776  Biso   1.000  C
  C2816    1.0000 0.17708  0.49998  0.00000  Biso   1.000  C
  H4798    1.0000 0.18528  0.47108  0.02120  Biso   1.000  H
  C2817    1.0000 0.01146  0.47222  0.26522  Biso   1.000  C
  C2818    1.0000 0.00000  0.49998  0.17708  Biso   1.000  C
  H4799    1.0000 0.02890  0.47878  0.18528  Biso   1.000  H
  N353     1.0000 0.03365  0.28427  0.03938  Biso   1.000  N
  H4800    1.0000 0.10491  0.30311  0.01150  Biso   1.000  H
  H4801    1.0000 0.10691  0.26731  0.06290  Biso   1.000  H
  H4802    1.0000 0.10491  0.30311  0.01146  Biso   1.000  H
  H4803    1.0000 0.10691  0.26731  0.06286  Biso   1.000  H
  H4804    1.0000 0.10487  0.30311  0.01150  Biso   1.000  H
  H4805    1.0000 0.10688  0.26731  0.06290  Biso   1.000  H
  H4806    1.0000 0.10487  0.30311  0.01146  Biso   1.000  H
  H4807    1.0000 0.10688  0.26731  0.06286  Biso   1.000  H
  H4808    1.0000 0.26589  0.51820  0.05352  Biso   1.000  H
  C2819    1.0000 0.26522  0.51145  0.97220  Biso   1.000  C
  C2820    1.0000 0.31399  0.45510  0.03632  Biso   1.000  C
  H4809    1.0000 0.26589  0.51820  0.05348  Biso   1.000  H
  C2821    1.0000 0.31395  0.45510  0.03632  Biso   1.000  C
  C2822    1.0000 0.14268  0.46441  0.96678  Biso   1.000  C
  N354     1.0000 0.21575  0.53940  0.96631  Biso   1.000  N
  N355     1.0000 0.21571  0.53940  0.96631  Biso   1.000  N
  H4810    1.0000 0.18528  0.52888  0.97880  Biso   1.000  H
  C2823    1.0000 0.14268  0.53559  0.03322  Biso   1.000  C
  C2824    1.0000 0.14268  0.53559  0.03318  Biso   1.000  C
  H4811    1.0000 0.98178  0.44650  0.26589  Biso   1.000  H
  C2825    1.0000 0.98854  0.52778  0.26522  Biso   1.000  C
  C2826    1.0000 0.98850  0.52778  0.26522  Biso   1.000  C
  C2827    1.0000 0.04492  0.46366  0.31399  Biso   1.000  C
  C2828    1.0000 0.04492  0.46366  0.31395  Biso   1.000  C
  C2829    1.0000 0.04488  0.46366  0.31399  Biso   1.000  C
  C2830    1.0000 0.04488  0.46366  0.31395  Biso   1.000  C
  N356     1.0000 0.96062  0.53367  0.21575  Biso   1.000  N
  C2831    1.0000 0.96435  0.46680  0.14268  Biso   1.000  C
  N357     1.0000 0.96062  0.53367  0.21571  Biso   1.000  N
  N358     1.0000 0.96058  0.53367  0.21575  Biso   1.000  N
  C2832    1.0000 0.96439  0.46680  0.14268  Biso   1.000  C
  N359     1.0000 0.96058  0.53367  0.21571  Biso   1.000  N
  H4812    1.0000 0.97106  0.52118  0.18528  Biso   1.000  H
  C2833    1.0000 0.03561  0.53320  0.14268  Biso   1.000  C
  C2834    1.0000 0.03557  0.53320  0.14268  Biso   1.000  C
  C2835    1.0000 0.02776  0.23476  0.01146  Biso   1.000  C
  C2836    1.0000 0.00000  0.32290  0.00000  Biso   1.000  C
  H4813    1.0000 0.02120  0.31470  0.02890  Biso   1.000  H
  C2837    1.0000 0.31399  0.54490  0.96368  Biso   1.000  C
  H4814    1.0000 0.26589  0.48180  0.94644  Biso   1.000  H
  C2838    1.0000 0.31399  0.54490  0.96364  Biso   1.000  C
  H4815    1.0000 0.26589  0.48180  0.94648  Biso   1.000  H
  C2839    1.0000 0.31395  0.54490  0.96368  Biso   1.000  C
  C2840    1.0000 0.31395  0.54490  0.96364  Biso   1.000  C
  H4816    1.0000 0.31399  0.44120  0.07260  Biso   1.000  H
  H4817    1.0000 0.31348  0.42491  0.01182  Biso   1.000  H
  C2841    1.0000 0.36378  0.48761  0.02729  Biso   1.000  C
  H4818    1.0000 0.31348  0.42491  0.01178  Biso   1.000  H
  C2842    1.0000 0.36378  0.48761  0.02725  Biso   1.000  C
  H4819    1.0000 0.11430  0.48498  0.95088  Biso   1.000  H
  H4820    1.0000 0.12749  0.43681  0.98901  Biso   1.000  H
  H4821    1.0000 0.12749  0.43681  0.98897  Biso   1.000  H
  H4822    1.0000 0.16389  0.44831  0.93898  Biso   1.000  H
  C2843    1.0000 0.20248  0.54647  0.91107  Biso   1.000  C
  C2844    1.0000 0.20244  0.54647  0.91107  Biso   1.000  C
  H4823    1.0000 0.12749  0.56319  0.01099  Biso   1.000  H
  H4824    1.0000 0.11430  0.51498  0.04912  Biso   1.000  H
  H4825    1.0000 0.11430  0.51498  0.04908  Biso   1.000  H
  H4826    1.0000 0.16389  0.55169  0.06098  Biso   1.000  H
  H4827    1.0000 0.01818  0.55350  0.26589  Biso   1.000  H
  C2845    1.0000 0.95508  0.53630  0.31399  Biso   1.000  C
  C2846    1.0000 0.95508  0.53630  0.31395  Biso   1.000  C
  H4828    1.0000 0.01822  0.55350  0.26589  Biso   1.000  H
  H4829    1.0000 0.05882  0.42738  0.31399  Biso   1.000  H
  C2847    1.0000 0.01237  0.47273  0.36378  Biso   1.000  C
  H4830    1.0000 0.07511  0.48820  0.31348  Biso   1.000  H
  H4831    1.0000 0.07507  0.48820  0.31348  Biso   1.000  H
  C2848    1.0000 0.95351  0.58891  0.20248  Biso   1.000  C
  C2849    1.0000 0.95351  0.58891  0.20244  Biso   1.000  C
  H4832    1.0000 0.98500  0.45090  0.11430  Biso   1.000  H
  H4833    1.0000 0.93675  0.48899  0.12749  Biso   1.000  H
  H4834    1.0000 0.98496  0.45090  0.11430  Biso   1.000  H
  H4835    1.0000 0.93679  0.48899  0.12749  Biso   1.000  H
  H4836    1.0000 0.94829  0.43900  0.16389  Biso   1.000  H
  H4837    1.0000 0.01500  0.54910  0.11430  Biso   1.000  H
  H4838    1.0000 0.06321  0.51097  0.12749  Biso   1.000  H
  H4839    1.0000 0.06317  0.51097  0.12749  Biso   1.000  H
  H4840    1.0000 0.05171  0.56100  0.16389  Biso   1.000  H
  C2850    1.0000 0.97220  0.23476  0.98854  Biso   1.000  C
  C2851    1.0000 0.97220  0.23476  0.98850  Biso   1.000  C
  H4841    1.0000 0.05352  0.23409  0.98178  Biso   1.000  H
  H4842    1.0000 0.05348  0.23409  0.98178  Biso   1.000  H
  C2852    1.0000 0.03632  0.18599  0.04492  Biso   1.000  C
  C2853    1.0000 0.03632  0.18599  0.04488  Biso   1.000  C
  N360     1.0000 0.96631  0.28427  0.96062  Biso   1.000  N
  N361     1.0000 0.96631  0.28427  0.96058  Biso   1.000  N
  H4843    1.0000 0.97880  0.31470  0.97106  Biso   1.000  H
  C2854    1.0000 0.96678  0.35730  0.03561  Biso   1.000  C
  C2855    1.0000 0.96678  0.35730  0.03557  Biso   1.000  C
  C2856    1.0000 0.03322  0.35730  0.96435  Biso   1.000  C
  C2857    1.0000 0.03322  0.35730  0.96439  Biso   1.000  C
  C2858    1.0000 0.03318  0.35730  0.96435  Biso   1.000  C
  C2859    1.0000 0.03318  0.35730  0.96439  Biso   1.000  C
  H4844    1.0000 0.31348  0.57509  0.98818  Biso   1.000  H
  H4845    1.0000 0.31399  0.55880  0.92736  Biso   1.000  H
  C2860    1.0000 0.36378  0.51239  0.97267  Biso   1.000  C
  C2861    1.0000 0.36378  0.51239  0.97271  Biso   1.000  C
  H4846    1.0000 0.36597  0.51561  0.05418  Biso   1.000  H
  H4847    1.0000 0.39499  0.46480  0.03110  Biso   1.000  H
  H4848    1.0000 0.39503  0.46480  0.03110  Biso   1.000  H
  C2862    1.0000 0.15407  0.57980  0.90110  Biso   1.000  C
  H4849    1.0000 0.19691  0.51148  0.89509  Biso   1.000  H
  H4850    1.0000 0.23271  0.56288  0.89305  Biso   1.000  H
  H4851    1.0000 0.23271  0.56288  0.89309  Biso   1.000  H
  H4852    1.0000 0.19687  0.51148  0.89509  Biso   1.000  H
  H4853    1.0000 0.23268  0.56288  0.89305  Biso   1.000  H
  H4854    1.0000 0.23268  0.56288  0.89309  Biso   1.000  H
  H4855    1.0000 0.92485  0.51180  0.31348  Biso   1.000  H
  H4856    1.0000 0.94118  0.57258  0.31399  Biso   1.000  H
  C2863    1.0000 0.98763  0.52727  0.36378  Biso   1.000  C
  H4857    1.0000 0.92489  0.51180  0.31348  Biso   1.000  H
  C2864    1.0000 0.98759  0.52727  0.36378  Biso   1.000  C
  H4858    1.0000 0.98441  0.44580  0.36597  Biso   1.000  H
  H4859    1.0000 0.98437  0.44580  0.36597  Biso   1.000  H
  H4860    1.0000 0.03518  0.46888  0.39499  Biso   1.000  H
  H4861    1.0000 0.03518  0.46888  0.39503  Biso   1.000  H
  C2865    1.0000 0.92018  0.59888  0.15407  Biso   1.000  C
  H4862    1.0000 0.98850  0.60489  0.19691  Biso   1.000  H
  H4863    1.0000 0.93706  0.60689  0.23271  Biso   1.000  H
  H4864    1.0000 0.98850  0.60489  0.19687  Biso   1.000  H
  H4865    1.0000 0.93706  0.60689  0.23268  Biso   1.000  H
  H4866    1.0000 0.93710  0.60689  0.23271  Biso   1.000  H
  H4867    1.0000 0.93710  0.60689  0.23268  Biso   1.000  H
  C2866    1.0000 0.96368  0.18599  0.95508  Biso   1.000  C
  C2867    1.0000 0.96364  0.18599  0.95508  Biso   1.000  C
  H4868    1.0000 0.94644  0.23409  0.01822  Biso   1.000  H
  H4869    1.0000 0.94644  0.23409  0.01818  Biso   1.000  H
  H4870    1.0000 0.94648  0.23409  0.01822  Biso   1.000  H
  H4871    1.0000 0.94648  0.23409  0.01818  Biso   1.000  H
  H4872    1.0000 0.07260  0.18599  0.05882  Biso   1.000  H
  H4873    1.0000 0.01182  0.18650  0.07511  Biso   1.000  H
  C2868    1.0000 0.02729  0.13620  0.01237  Biso   1.000  C
  H4874    1.0000 0.01182  0.18650  0.07507  Biso   1.000  H
  H4875    1.0000 0.01178  0.18650  0.07511  Biso   1.000  H
  C2869    1.0000 0.02725  0.13620  0.01237  Biso   1.000  C
  H4876    1.0000 0.01178  0.18650  0.07507  Biso   1.000  H
  C2870    1.0000 0.91107  0.29754  0.95351  Biso   1.000  C
  H4877    1.0000 0.95088  0.38568  0.01500  Biso   1.000  H
  H4878    1.0000 0.98901  0.37249  0.06321  Biso   1.000  H
  H4879    1.0000 0.98901  0.37249  0.06317  Biso   1.000  H
  H4880    1.0000 0.98897  0.37249  0.06321  Biso   1.000  H
  H4881    1.0000 0.98897  0.37249  0.06317  Biso   1.000  H
  H4882    1.0000 0.93898  0.33609  0.05171  Biso   1.000  H
  H4883    1.0000 0.04912  0.38568  0.98500  Biso   1.000  H
  H4884    1.0000 0.01099  0.37249  0.93675  Biso   1.000  H
  H4885    1.0000 0.04912  0.38568  0.98496  Biso   1.000  H
  H4886    1.0000 0.01099  0.37249  0.93679  Biso   1.000  H
  H4887    1.0000 0.04908  0.38568  0.98500  Biso   1.000  H
  H4888    1.0000 0.04908  0.38568  0.98496  Biso   1.000  H
  H4889    1.0000 0.06098  0.33609  0.94829  Biso   1.000  H
  H4890    1.0000 0.36597  0.48439  0.94578  Biso   1.000  H
  H4891    1.0000 0.39499  0.53520  0.96886  Biso   1.000  H
  H4892    1.0000 0.39503  0.53520  0.96886  Biso   1.000  H
  C2871    1.0000 0.14202  0.62264  0.93204  Biso   1.000  C
  C2872    1.0000 0.12266  0.56795  0.85794  Biso   1.000  C
  C2873    1.0000 0.12266  0.56795  0.85798  Biso   1.000  C
  C2874    1.0000 0.14198  0.62264  0.93204  Biso   1.000  C
  H4893    1.0000 0.01559  0.55420  0.36597  Biso   1.000  H
  H4894    1.0000 0.96482  0.53108  0.39499  Biso   1.000  H
  H4895    1.0000 0.96482  0.53108  0.39503  Biso   1.000  H
  H4896    1.0000 0.96478  0.53108  0.39499  Biso   1.000  H
  H4897    1.0000 0.96478  0.53108  0.39503  Biso   1.000  H
  C2875    1.0000 0.87734  0.56795  0.14202  Biso   1.000  C
  C2876    1.0000 0.93204  0.64200  0.12266  Biso   1.000  C
  C2877    1.0000 0.87734  0.56795  0.14198  Biso   1.000  C
  C2878    1.0000 0.87730  0.56795  0.14202  Biso   1.000  C
  C2879    1.0000 0.87730  0.56795  0.14198  Biso   1.000  C
  H4898    1.0000 0.98818  0.18650  0.92485  Biso   1.000  H
  H4899    1.0000 0.92736  0.18599  0.94118  Biso   1.000  H
  C2880    1.0000 0.97267  0.13620  0.98763  Biso   1.000  C
  H4900    1.0000 0.98818  0.18650  0.92489  Biso   1.000  H
  C2881    1.0000 0.97267  0.13620  0.98759  Biso   1.000  C
  C2882    1.0000 0.97271  0.13620  0.98763  Biso   1.000  C
  C2883    1.0000 0.97271  0.13620  0.98759  Biso   1.000  C
  H4901    1.0000 0.03110  0.10499  0.03518  Biso   1.000  H
  H4902    1.0000 0.05418  0.13401  0.98441  Biso   1.000  H
  H4903    1.0000 0.05418  0.13401  0.98437  Biso   1.000  H
  C2884    1.0000 0.90110  0.34591  0.92018  Biso   1.000  C
  H4904    1.0000 0.89509  0.30311  0.98850  Biso   1.000  H
  H4905    1.0000 0.89305  0.26731  0.93706  Biso   1.000  H
  H4906    1.0000 0.89305  0.26731  0.93710  Biso   1.000  H
  H4907    1.0000 0.89309  0.26731  0.93706  Biso   1.000  H
  H4908    1.0000 0.89309  0.26731  0.93710  Biso   1.000  H
  H4909    1.0000 0.16330  0.63081  0.96160  Biso   1.000  H
  C2885    1.0000 0.09887  0.65405  0.92018  Biso   1.000  C
  H4910    1.0000 0.13079  0.53838  0.83666  Biso   1.000  H
  C2886    1.0000 0.07982  0.59888  0.84589  Biso   1.000  C
  C2887    1.0000 0.07978  0.59888  0.84589  Biso   1.000  C
  H4911    1.0000 0.86921  0.53838  0.16330  Biso   1.000  H
  C2888    1.0000 0.84589  0.57980  0.09887  Biso   1.000  C
  H4912    1.0000 0.86917  0.53838  0.16330  Biso   1.000  H
  H4913    1.0000 0.96160  0.66328  0.13079  Biso   1.000  H
  C2889    1.0000 0.90110  0.65405  0.07982  Biso   1.000  C
  C2890    1.0000 0.90110  0.65405  0.07978  Biso   1.000  C
  H4914    1.0000 0.96886  0.10499  0.96482  Biso   1.000  H
  H4915    1.0000 0.96886  0.10499  0.96478  Biso   1.000  H
  H4916    1.0000 0.94578  0.13401  0.01559  Biso   1.000  H
  C2891    1.0000 0.93204  0.35796  0.87734  Biso   1.000  C
  C2892    1.0000 0.85794  0.37732  0.93204  Biso   1.000  C
  C2893    1.0000 0.93204  0.35796  0.87730  Biso   1.000  C
  C2894    1.0000 0.85798  0.37732  0.93204  Biso   1.000  C
  C2895    1.0000 0.06793  0.64200  0.87734  Biso   1.000  C
  C2896    1.0000 0.08893  0.70246  0.95351  Biso   1.000  C
  C2897    1.0000 0.06793  0.64200  0.87730  Biso   1.000  C
  C2898    1.0000 0.08889  0.70246  0.95351  Biso   1.000  C
  C2899    1.0000 0.04645  0.58891  0.79752  Biso   1.000  C
  C2900    1.0000 0.85794  0.62264  0.06793  Biso   1.000  C
  C2901    1.0000 0.79752  0.54647  0.08893  Biso   1.000  C
  C2902    1.0000 0.79752  0.54647  0.08889  Biso   1.000  C
  C2903    1.0000 0.85798  0.62264  0.06793  Biso   1.000  C
  C2904    1.0000 0.91107  0.70246  0.04645  Biso   1.000  C
  C2905    1.0000 0.92018  0.40112  0.84589  Biso   1.000  C
  H4917    1.0000 0.96160  0.33668  0.86921  Biso   1.000  H
  H4918    1.0000 0.96160  0.33668  0.86917  Biso   1.000  H
  H4919    1.0000 0.83666  0.36919  0.96160  Biso   1.000  H
  C2906    1.0000 0.84589  0.42020  0.90110  Biso   1.000  C
  H4920    1.0000 0.03840  0.66328  0.86921  Biso   1.000  H
  H4921    1.0000 0.03840  0.66328  0.86917  Biso   1.000  H
  H4922    1.0000 0.03836  0.66328  0.86921  Biso   1.000  H
  H4923    1.0000 0.03836  0.66328  0.86917  Biso   1.000  H
  H4924    1.0000 0.10491  0.69689  0.98850  Biso   1.000  H
  H4925    1.0000 0.10691  0.73269  0.93706  Biso   1.000  H
  N362     1.0000 0.03365  0.71573  0.96062  Biso   1.000  N
  H4926    1.0000 0.10691  0.73269  0.93710  Biso   1.000  H
  N363     1.0000 0.03365  0.71573  0.96058  Biso   1.000  N
  H4927    1.0000 0.10487  0.69689  0.98850  Biso   1.000  H
  H4928    1.0000 0.10688  0.73269  0.93706  Biso   1.000  H
  H4929    1.0000 0.10688  0.73269  0.93710  Biso   1.000  H
  H4930    1.0000 0.01150  0.60489  0.80309  Biso   1.000  H
  H4931    1.0000 0.06290  0.60689  0.76725  Biso   1.000  H
  N364     1.0000 0.03938  0.53367  0.78425  Biso   1.000  N
  H4932    1.0000 0.06290  0.60689  0.76729  Biso   1.000  H
  H4933    1.0000 0.01146  0.60489  0.80309  Biso   1.000  H
  H4934    1.0000 0.06286  0.60689  0.76725  Biso   1.000  H
  H4935    1.0000 0.06286  0.60689  0.76729  Biso   1.000  H
  H4936    1.0000 0.83666  0.63081  0.03840  Biso   1.000  H
  H4937    1.0000 0.83666  0.63081  0.03836  Biso   1.000  H
  H4938    1.0000 0.80309  0.51148  0.10491  Biso   1.000  H
  H4939    1.0000 0.76725  0.56288  0.10691  Biso   1.000  H
  N365     1.0000 0.78425  0.53940  0.03365  Biso   1.000  N
  H4940    1.0000 0.80309  0.51148  0.10487  Biso   1.000  H
  H4941    1.0000 0.76725  0.56288  0.10688  Biso   1.000  H
  H4942    1.0000 0.76729  0.56288  0.10691  Biso   1.000  H
  H4943    1.0000 0.76729  0.56288  0.10688  Biso   1.000  H
  H4944    1.0000 0.89509  0.69689  0.01150  Biso   1.000  H
  H4945    1.0000 0.89305  0.73269  0.06290  Biso   1.000  H
  N366     1.0000 0.96631  0.71573  0.03938  Biso   1.000  N
  H4946    1.0000 0.89509  0.69689  0.01146  Biso   1.000  H
  H4947    1.0000 0.89305  0.73269  0.06286  Biso   1.000  H
  H4948    1.0000 0.89309  0.73269  0.06290  Biso   1.000  H
  H4949    1.0000 0.89309  0.73269  0.06286  Biso   1.000  H
  C2907    1.0000 0.87734  0.43205  0.85794  Biso   1.000  C
  C2908    1.0000 0.95351  0.41109  0.79752  Biso   1.000  C
  C2909    1.0000 0.87734  0.43205  0.85798  Biso   1.000  C
  C2910    1.0000 0.87730  0.43205  0.85794  Biso   1.000  C
  C2911    1.0000 0.87730  0.43205  0.85798  Biso   1.000  C
  C2912    1.0000 0.79752  0.45353  0.91107  Biso   1.000  C
  C2913    1.0000 0.00000  0.67710  0.00000  Biso   1.000  C
  C2914    1.0000 0.02776  0.76520  0.98854  Biso   1.000  C
  C2915    1.0000 0.02776  0.76520  0.98850  Biso   1.000  C
  H4950    1.0000 0.02120  0.68530  0.97106  Biso   1.000  H
  C2916    1.0000 0.01146  0.52778  0.73474  Biso   1.000  C
  C2917    1.0000 0.00000  0.49998  0.82292  Biso   1.000  C
  C2918    1.0000 0.00000  0.49998  0.82288  Biso   1.000  C
  H4951    1.0000 0.02890  0.52118  0.81468  Biso   1.000  H
  C2919    1.0000 0.73474  0.51145  0.02776  Biso   1.000  C
  C2920    1.0000 0.82292  0.49998  0.00000  Biso   1.000  C
  C2921    1.0000 0.82288  0.49998  0.00000  Biso   1.000  C
  H4952    1.0000 0.81468  0.52888  0.02120  Biso   1.000  H
  H4953    1.0000 0.97880  0.68530  0.02890  Biso   1.000  H
  C2922    1.0000 0.97220  0.76520  0.01146  Biso   1.000  C
  H4954    1.0000 0.86921  0.46158  0.83666  Biso   1.000  H
  H4955    1.0000 0.86917  0.46158  0.83666  Biso   1.000  H
  H4956    1.0000 0.98850  0.39511  0.80309  Biso   1.000  H
  H4957    1.0000 0.93706  0.39311  0.76725  Biso   1.000  H
  N367     1.0000 0.96062  0.46633  0.78425  Biso   1.000  N
  H4958    1.0000 0.93706  0.39311  0.76729  Biso   1.000  H
  H4959    1.0000 0.93710  0.39311  0.76725  Biso   1.000  H
  N368     1.0000 0.96058  0.46633  0.78425  Biso   1.000  N
  H4960    1.0000 0.93710  0.39311  0.76729  Biso   1.000  H
  H4961    1.0000 0.80309  0.48848  0.89509  Biso   1.000  H
  H4962    1.0000 0.76725  0.43708  0.89305  Biso   1.000  H
  N369     1.0000 0.78425  0.46060  0.96631  Biso   1.000  N
  H4963    1.0000 0.76725  0.43708  0.89309  Biso   1.000  H
  H4964    1.0000 0.76729  0.43708  0.89305  Biso   1.000  H
  H4965    1.0000 0.76729  0.43708  0.89309  Biso   1.000  H
  C2923    1.0000 0.96678  0.64270  0.96435  Biso   1.000  C
  C2924    1.0000 0.96678  0.64270  0.96439  Biso   1.000  C
  C2925    1.0000 0.03322  0.64270  0.03561  Biso   1.000  C
  C2926    1.0000 0.03322  0.64270  0.03557  Biso   1.000  C
  C2927    1.0000 0.03318  0.64270  0.03561  Biso   1.000  C
  C2928    1.0000 0.03318  0.64270  0.03557  Biso   1.000  C
  C2929    1.0000 0.03632  0.81397  0.95508  Biso   1.000  C
  H4966    1.0000 0.05352  0.76587  0.01822  Biso   1.000  H
  H4967    1.0000 0.05352  0.76587  0.01818  Biso   1.000  H
  H4968    1.0000 0.05348  0.76587  0.01822  Biso   1.000  H
  H4969    1.0000 0.05348  0.76587  0.01818  Biso   1.000  H
  H4970    1.0000 0.98178  0.55350  0.73411  Biso   1.000  H
  C2930    1.0000 0.98854  0.47222  0.73474  Biso   1.000  C
  H4971    1.0000 0.98178  0.55350  0.73407  Biso   1.000  H
  C2931    1.0000 0.98850  0.47222  0.73474  Biso   1.000  C
  C2932    1.0000 0.04492  0.53630  0.68601  Biso   1.000  C
  C2933    1.0000 0.04488  0.53630  0.68601  Biso   1.000  C
  C2934    1.0000 0.96435  0.53320  0.85732  Biso   1.000  C
  C2935    1.0000 0.96435  0.53320  0.85728  Biso   1.000  C
  C2936    1.0000 0.96439  0.53320  0.85732  Biso   1.000  C
  C2937    1.0000 0.96439  0.53320  0.85728  Biso   1.000  C
  H4972    1.0000 0.97106  0.47878  0.81468  Biso   1.000  H
  C2938    1.0000 0.03561  0.46680  0.85732  Biso   1.000  C
  C2939    1.0000 0.03561  0.46680  0.85728  Biso   1.000  C
  C2940    1.0000 0.03557  0.46680  0.85732  Biso   1.000  C
  C2941    1.0000 0.03557  0.46680  0.85728  Biso   1.000  C
  C2942    1.0000 0.73474  0.48852  0.97220  Biso   1.000  C
  C2943    1.0000 0.68601  0.54490  0.03632  Biso   1.000  C
  H4973    1.0000 0.73411  0.48180  0.05352  Biso   1.000  H
  H4974    1.0000 0.73411  0.48180  0.05348  Biso   1.000  H
  H4975    1.0000 0.73407  0.48180  0.05352  Biso   1.000  H
  H4976    1.0000 0.73407  0.48180  0.05348  Biso   1.000  H
  H4977    1.0000 0.81468  0.47108  0.97880  Biso   1.000  H
  C2944    1.0000 0.85732  0.53559  0.96678  Biso   1.000  C
  C2945    1.0000 0.85728  0.53559  0.96678  Biso   1.000  C
  C2946    1.0000 0.85732  0.46441  0.03322  Biso   1.000  C
  C2947    1.0000 0.85732  0.46441  0.03318  Biso   1.000  C
  C2948    1.0000 0.85728  0.46441  0.03322  Biso   1.000  C
  C2949    1.0000 0.85728  0.46441  0.03318  Biso   1.000  C
  H4978    1.0000 0.94644  0.76587  0.98178  Biso   1.000  H
  H4979    1.0000 0.94648  0.76587  0.98178  Biso   1.000  H
  C2950    1.0000 0.96368  0.81397  0.04492  Biso   1.000  C
  C2951    1.0000 0.96368  0.81397  0.04488  Biso   1.000  C
  C2952    1.0000 0.96364  0.81397  0.04492  Biso   1.000  C
  C2953    1.0000 0.96364  0.81397  0.04488  Biso   1.000  C
  H4980    1.0000 0.95088  0.61428  0.98500  Biso   1.000  H
  H4981    1.0000 0.98901  0.62747  0.93675  Biso   1.000  H
  H4982    1.0000 0.95088  0.61428  0.98496  Biso   1.000  H
  H4983    1.0000 0.98901  0.62747  0.93679  Biso   1.000  H
  H4984    1.0000 0.98897  0.62747  0.93675  Biso   1.000  H
  H4985    1.0000 0.98897  0.62747  0.93679  Biso   1.000  H
  H4986    1.0000 0.93898  0.66391  0.94829  Biso   1.000  H
  H4987    1.0000 0.04912  0.61428  0.01500  Biso   1.000  H
  H4988    1.0000 0.01099  0.62747  0.06321  Biso   1.000  H
  H4989    1.0000 0.01099  0.62747  0.06317  Biso   1.000  H
  H4990    1.0000 0.04908  0.61428  0.01500  Biso   1.000  H
  H4991    1.0000 0.06098  0.66391  0.05171  Biso   1.000  H
  H4992    1.0000 0.01182  0.81350  0.92485  Biso   1.000  H
  H4993    1.0000 0.07260  0.81397  0.94118  Biso   1.000  H
  C2954    1.0000 0.02729  0.86380  0.98763  Biso   1.000  C
  H4994    1.0000 0.01182  0.81350  0.92489  Biso   1.000  H
  C2955    1.0000 0.02729  0.86380  0.98759  Biso   1.000  C
  H4995    1.0000 0.01178  0.81350  0.92485  Biso   1.000  H
  C2956    1.0000 0.02725  0.86380  0.98763  Biso   1.000  C
  H4996    1.0000 0.01178  0.81350  0.92489  Biso   1.000  H
  C2957    1.0000 0.02725  0.86380  0.98759  Biso   1.000  C
  C2958    1.0000 0.95508  0.46366  0.68601  Biso   1.000  C
  H4997    1.0000 0.01822  0.44650  0.73411  Biso   1.000  H
  H4998    1.0000 0.01822  0.44650  0.73407  Biso   1.000  H
  H4999    1.0000 0.01818  0.44650  0.73411  Biso   1.000  H
  H5000    1.0000 0.01818  0.44650  0.73407  Biso   1.000  H
  H5001    1.0000 0.07511  0.51180  0.68648  Biso   1.000  H
  H5002    1.0000 0.05882  0.57258  0.68601  Biso   1.000  H
  C2959    1.0000 0.01237  0.52727  0.63619  Biso   1.000  C
  H5003    1.0000 0.05882  0.57258  0.68597  Biso   1.000  H
  H5004    1.0000 0.07507  0.51180  0.68648  Biso   1.000  H
  H5005    1.0000 0.98500  0.54910  0.88570  Biso   1.000  H
  H5006    1.0000 0.93675  0.51097  0.87251  Biso   1.000  H
  H5007    1.0000 0.98500  0.54910  0.88566  Biso   1.000  H
  H5008    1.0000 0.93675  0.51097  0.87247  Biso   1.000  H
  H5009    1.0000 0.98496  0.54910  0.88570  Biso   1.000  H
  H5010    1.0000 0.93679  0.51097  0.87251  Biso   1.000  H
  H5011    1.0000 0.98496  0.54910  0.88566  Biso   1.000  H
  H5012    1.0000 0.93679  0.51097  0.87247  Biso   1.000  H
  H5013    1.0000 0.94829  0.56100  0.83608  Biso   1.000  H
  H5014    1.0000 0.01500  0.45090  0.88570  Biso   1.000  H
  H5015    1.0000 0.06321  0.48899  0.87251  Biso   1.000  H
  H5016    1.0000 0.01500  0.45090  0.88566  Biso   1.000  H
  H5017    1.0000 0.06321  0.48899  0.87247  Biso   1.000  H
  H5018    1.0000 0.06317  0.48899  0.87251  Biso   1.000  H
  H5019    1.0000 0.06317  0.48899  0.87247  Biso   1.000  H
  H5020    1.0000 0.05171  0.43900  0.83608  Biso   1.000  H
  C2960    1.0000 0.68601  0.45510  0.96368  Biso   1.000  C
  H5021    1.0000 0.73411  0.51820  0.94644  Biso   1.000  H
  C2961    1.0000 0.68601  0.45510  0.96364  Biso   1.000  C
  H5022    1.0000 0.73411  0.51820  0.94648  Biso   1.000  H
  H5023    1.0000 0.73407  0.51820  0.94644  Biso   1.000  H
  H5024    1.0000 0.73407  0.51820  0.94648  Biso   1.000  H
  H5025    1.0000 0.68648  0.57509  0.01182  Biso   1.000  H
  H5026    1.0000 0.68601  0.55880  0.07260  Biso   1.000  H
  C2962    1.0000 0.63619  0.51239  0.02729  Biso   1.000  C
  H5027    1.0000 0.68648  0.57509  0.01178  Biso   1.000  H
  C2963    1.0000 0.63619  0.51239  0.02725  Biso   1.000  C
  H5028    1.0000 0.68597  0.55880  0.07260  Biso   1.000  H
  H5029    1.0000 0.88570  0.51498  0.95088  Biso   1.000  H
  H5030    1.0000 0.87251  0.56319  0.98901  Biso   1.000  H
  H5031    1.0000 0.87251  0.56319  0.98897  Biso   1.000  H
  H5032    1.0000 0.88566  0.51498  0.95088  Biso   1.000  H
  H5033    1.0000 0.87247  0.56319  0.98901  Biso   1.000  H
  H5034    1.0000 0.87247  0.56319  0.98897  Biso   1.000  H
  H5035    1.0000 0.83608  0.55169  0.93898  Biso   1.000  H
  H5036    1.0000 0.88570  0.48498  0.04912  Biso   1.000  H
  H5037    1.0000 0.87251  0.43681  0.01099  Biso   1.000  H
  H5038    1.0000 0.88570  0.48498  0.04908  Biso   1.000  H
  H5039    1.0000 0.88566  0.48498  0.04912  Biso   1.000  H
  H5040    1.0000 0.87247  0.43681  0.01099  Biso   1.000  H
  H5041    1.0000 0.88566  0.48498  0.04908  Biso   1.000  H
  H5042    1.0000 0.83608  0.44831  0.06098  Biso   1.000  H
  H5043    1.0000 0.98818  0.81350  0.07511  Biso   1.000  H
  H5044    1.0000 0.92736  0.81397  0.05882  Biso   1.000  H
  C2964    1.0000 0.97267  0.86380  0.01237  Biso   1.000  C
  H5045    1.0000 0.98818  0.81350  0.07507  Biso   1.000  H
  C2965    1.0000 0.97271  0.86380  0.01237  Biso   1.000  C
  H5046    1.0000 0.05418  0.86599  0.01559  Biso   1.000  H
  H5047    1.0000 0.03110  0.89497  0.96482  Biso   1.000  H
  H5048    1.0000 0.03110  0.89497  0.96478  Biso   1.000  H
  H5049    1.0000 0.92485  0.48820  0.68648  Biso   1.000  H
  H5050    1.0000 0.94118  0.42738  0.68601  Biso   1.000  H
  C2966    1.0000 0.98763  0.47273  0.63619  Biso   1.000  C
  H5051    1.0000 0.94118  0.42738  0.68597  Biso   1.000  H
  H5052    1.0000 0.92489  0.48820  0.68648  Biso   1.000  H
  C2967    1.0000 0.98759  0.47273  0.63619  Biso   1.000  C
  H5053    1.0000 0.98441  0.55420  0.63403  Biso   1.000  H
  H5054    1.0000 0.98441  0.55420  0.63399  Biso   1.000  H
  H5055    1.0000 0.98437  0.55420  0.63403  Biso   1.000  H
  H5056    1.0000 0.98437  0.55420  0.63399  Biso   1.000  H
  H5057    1.0000 0.03518  0.53108  0.60501  Biso   1.000  H
  H5058    1.0000 0.03518  0.53108  0.60497  Biso   1.000  H
  H5059    1.0000 0.68648  0.42491  0.98818  Biso   1.000  H
  H5060    1.0000 0.68601  0.44120  0.92736  Biso   1.000  H
  C2968    1.0000 0.63619  0.48761  0.97267  Biso   1.000  C
  C2969    1.0000 0.63619  0.48761  0.97271  Biso   1.000  C
  H5061    1.0000 0.68597  0.44120  0.92736  Biso   1.000  H
  H5062    1.0000 0.63403  0.48439  0.05418  Biso   1.000  H
  H5063    1.0000 0.60501  0.53520  0.03110  Biso   1.000  H
  H5064    1.0000 0.63399  0.48439  0.05418  Biso   1.000  H
  H5065    1.0000 0.60497  0.53520  0.03110  Biso   1.000  H
  H5066    1.0000 0.94578  0.86599  0.98441  Biso   1.000  H
  H5067    1.0000 0.94578  0.86599  0.98437  Biso   1.000  H
  H5068    1.0000 0.96886  0.89497  0.03518  Biso   1.000  H
  H5069    1.0000 0.96482  0.46888  0.60501  Biso   1.000  H
  H5070    1.0000 0.96482  0.46888  0.60497  Biso   1.000  H
  H5071    1.0000 0.96478  0.46888  0.60501  Biso   1.000  H
  H5072    1.0000 0.96478  0.46888  0.60497  Biso   1.000  H
  H5073    1.0000 0.01559  0.44580  0.63403  Biso   1.000  H
  H5074    1.0000 0.01559  0.44580  0.63399  Biso   1.000  H
  H5075    1.0000 0.63403  0.51561  0.94578  Biso   1.000  H
  H5076    1.0000 0.60501  0.46480  0.96886  Biso   1.000  H
  H5077    1.0000 0.63399  0.51561  0.94578  Biso   1.000  H
  H5078    1.0000 0.60497  0.46480  0.96886  Biso   1.000  H
  C2970    1.0000 0.12266  0.43205  0.14202  Biso   1.000  C
  C2971    1.0000 0.15407  0.42020  0.09887  Biso   1.000  C
  H5079    1.0000 0.13079  0.46158  0.16330  Biso   1.000  H
  C2972    1.0000 0.07982  0.40112  0.15407  Biso   1.000  C
  C2973    1.0000 0.07978  0.40112  0.15407  Biso   1.000  C
  C2974    1.0000 0.14202  0.37732  0.06793  Biso   1.000  C
  C2975    1.0000 0.20248  0.45353  0.08893  Biso   1.000  C
  C2976    1.0000 0.12266  0.43205  0.14198  Biso   1.000  C
  C2977    1.0000 0.20248  0.45353  0.08889  Biso   1.000  C
  C2978    1.0000 0.14198  0.37732  0.06793  Biso   1.000  C
  C2979    1.0000 0.20244  0.45353  0.08893  Biso   1.000  C
  C2980    1.0000 0.20244  0.45353  0.08889  Biso   1.000  C
  C2981    1.0000 0.06793  0.35796  0.12266  Biso   1.000  C
  C2982    1.0000 0.04645  0.41109  0.20248  Biso   1.000  C
  C2983    1.0000 0.04645  0.41109  0.20244  Biso   1.000  C
  H5080    1.0000 0.16330  0.36919  0.03840  Biso   1.000  H
  C2984    1.0000 0.09887  0.34591  0.07982  Biso   1.000  C
  H5081    1.0000 0.16330  0.36919  0.03836  Biso   1.000  H
  C2985    1.0000 0.09887  0.34591  0.07978  Biso   1.000  C
  H5082    1.0000 0.19691  0.48848  0.10491  Biso   1.000  H
  H5083    1.0000 0.23271  0.43708  0.10691  Biso   1.000  H
  N370     1.0000 0.21575  0.46060  0.03365  Biso   1.000  N
  H5084    1.0000 0.19691  0.48848  0.10487  Biso   1.000  H
  H5085    1.0000 0.23271  0.43708  0.10688  Biso   1.000  H
  H5086    1.0000 0.19687  0.48848  0.10491  Biso   1.000  H
  H5087    1.0000 0.23268  0.43708  0.10691  Biso   1.000  H
  N371     1.0000 0.21571  0.46060  0.03365  Biso   1.000  N
  H5088    1.0000 0.19687  0.48848  0.10487  Biso   1.000  H
  H5089    1.0000 0.23268  0.43708  0.10688  Biso   1.000  H
  H5090    1.0000 0.03840  0.33668  0.13079  Biso   1.000  H
  H5091    1.0000 0.03836  0.33668  0.13079  Biso   1.000  H
  H5092    1.0000 0.01150  0.39511  0.19691  Biso   1.000  H
  H5093    1.0000 0.06290  0.39311  0.23271  Biso   1.000  H
  N372     1.0000 0.03938  0.46633  0.21575  Biso   1.000  N
  H5094    1.0000 0.01150  0.39511  0.19687  Biso   1.000  H
  H5095    1.0000 0.06290  0.39311  0.23268  Biso   1.000  H
  N373     1.0000 0.03938  0.46633  0.21571  Biso   1.000  N
  H5096    1.0000 0.01146  0.39511  0.19691  Biso   1.000  H
  H5097    1.0000 0.06286  0.39311  0.23271  Biso   1.000  H
  H5098    1.0000 0.01146  0.39511  0.19687  Biso   1.000  H
  H5099    1.0000 0.06286  0.39311  0.23268  Biso   1.000  H
  C2986    1.0000 0.08893  0.29754  0.04645  Biso   1.000  C
  C2987    1.0000 0.08889  0.29754  0.04645  Biso   1.000  C
  C2988    1.0000 0.26522  0.48852  0.02776  Biso   1.000  C
  C2989    1.0000 0.17708  0.49998  0.00000  Biso   1.000  C
  H5100    1.0000 0.18528  0.47108  0.02120  Biso   1.000  H
  C2990    1.0000 0.01146  0.47222  0.26522  Biso   1.000  C
  C2991    1.0000 0.00000  0.49998  0.17708  Biso   1.000  C
  H5101    1.0000 0.02890  0.47878  0.18528  Biso   1.000  H
  N374     1.0000 0.03365  0.28427  0.03938  Biso   1.000  N
  H5102    1.0000 0.10491  0.30311  0.01150  Biso   1.000  H
  H5103    1.0000 0.10691  0.26731  0.06290  Biso   1.000  H
  H5104    1.0000 0.10491  0.30311  0.01146  Biso   1.000  H
  H5105    1.0000 0.10691  0.26731  0.06286  Biso   1.000  H
  H5106    1.0000 0.10487  0.30311  0.01150  Biso   1.000  H
  H5107    1.0000 0.10688  0.26731  0.06290  Biso   1.000  H
  H5108    1.0000 0.10487  0.30311  0.01146  Biso   1.000  H
  H5109    1.0000 0.10688  0.26731  0.06286  Biso   1.000  H
  C2992    1.0000 0.26522  0.51145  0.97220  Biso   1.000  C
  C2993    1.0000 0.31399  0.45510  0.03632  Biso   1.000  C
  H5110    1.0000 0.26589  0.51820  0.05352  Biso   1.000  H
  H5111    1.0000 0.26589  0.51820  0.05348  Biso   1.000  H
  C2994    1.0000 0.31395  0.45510  0.03632  Biso   1.000  C
  C2995    1.0000 0.14268  0.46441  0.96678  Biso   1.000  C
  N375     1.0000 0.21575  0.53940  0.96631  Biso   1.000  N
  N376     1.0000 0.21571  0.53940  0.96631  Biso   1.000  N
  H5112    1.0000 0.18528  0.52888  0.97880  Biso   1.000  H
  C2996    1.0000 0.14268  0.53559  0.03322  Biso   1.000  C
  C2997    1.0000 0.14268  0.53559  0.03318  Biso   1.000  C
  H5113    1.0000 0.98178  0.44650  0.26589  Biso   1.000  H
  C2998    1.0000 0.98854  0.52778  0.26522  Biso   1.000  C
  C2999    1.0000 0.98850  0.52778  0.26522  Biso   1.000  C
  C3000    1.0000 0.04492  0.46366  0.31399  Biso   1.000  C
  C3001    1.0000 0.04492  0.46366  0.31395  Biso   1.000  C
  C3002    1.0000 0.04488  0.46366  0.31399  Biso   1.000  C
  C3003    1.0000 0.04488  0.46366  0.31395  Biso   1.000  C
  N377     1.0000 0.96062  0.53367  0.21575  Biso   1.000  N
  C3004    1.0000 0.96435  0.46680  0.14268  Biso   1.000  C
  N378     1.0000 0.96062  0.53367  0.21571  Biso   1.000  N
  N379     1.0000 0.96058  0.53367  0.21575  Biso   1.000  N
  C3005    1.0000 0.96439  0.46680  0.14268  Biso   1.000  C
  N380     1.0000 0.96058  0.53367  0.21571  Biso   1.000  N
  H5114    1.0000 0.97106  0.52118  0.18528  Biso   1.000  H
  C3006    1.0000 0.03561  0.53320  0.14268  Biso   1.000  C
  C3007    1.0000 0.03557  0.53320  0.14268  Biso   1.000  C
  C3008    1.0000 0.02776  0.23476  0.01146  Biso   1.000  C
  C3009    1.0000 0.00000  0.32290  0.00000  Biso   1.000  C
  H5115    1.0000 0.02120  0.31470  0.02890  Biso   1.000  H
  C3010    1.0000 0.31399  0.54490  0.96368  Biso   1.000  C
  H5116    1.0000 0.26589  0.48180  0.94644  Biso   1.000  H
  C3011    1.0000 0.31399  0.54490  0.96364  Biso   1.000  C
  H5117    1.0000 0.26589  0.48180  0.94648  Biso   1.000  H
  C3012    1.0000 0.31395  0.54490  0.96368  Biso   1.000  C
  C3013    1.0000 0.31395  0.54490  0.96364  Biso   1.000  C
  H5118    1.0000 0.31399  0.44120  0.07260  Biso   1.000  H
  H5119    1.0000 0.31348  0.42491  0.01182  Biso   1.000  H
  C3014    1.0000 0.36378  0.48761  0.02729  Biso   1.000  C
  H5120    1.0000 0.31348  0.42491  0.01178  Biso   1.000  H
  C3015    1.0000 0.36378  0.48761  0.02725  Biso   1.000  C
  H5121    1.0000 0.11430  0.48498  0.95088  Biso   1.000  H
  H5122    1.0000 0.12749  0.43681  0.98901  Biso   1.000  H
  H5123    1.0000 0.12749  0.43681  0.98897  Biso   1.000  H
  H5124    1.0000 0.16389  0.44831  0.93898  Biso   1.000  H
  C3016    1.0000 0.20248  0.54647  0.91107  Biso   1.000  C
  C3017    1.0000 0.20244  0.54647  0.91107  Biso   1.000  C
  H5125    1.0000 0.12749  0.56319  0.01099  Biso   1.000  H
  H5126    1.0000 0.11430  0.51498  0.04912  Biso   1.000  H
  H5127    1.0000 0.11430  0.51498  0.04908  Biso   1.000  H
  H5128    1.0000 0.16389  0.55169  0.06098  Biso   1.000  H
  C3018    1.0000 0.95508  0.53630  0.31399  Biso   1.000  C
  C3019    1.0000 0.95508  0.53630  0.31395  Biso   1.000  C
  H5129    1.0000 0.01822  0.55350  0.26589  Biso   1.000  H
  H5130    1.0000 0.01818  0.55350  0.26589  Biso   1.000  H
  H5131    1.0000 0.05882  0.42738  0.31399  Biso   1.000  H
  C3020    1.0000 0.01237  0.47273  0.36378  Biso   1.000  C
  H5132    1.0000 0.07511  0.48820  0.31348  Biso   1.000  H
  H5133    1.0000 0.07507  0.48820  0.31348  Biso   1.000  H
  C3021    1.0000 0.95351  0.58891  0.20248  Biso   1.000  C
  C3022    1.0000 0.95351  0.58891  0.20244  Biso   1.000  C
  H5134    1.0000 0.98500  0.45090  0.11430  Biso   1.000  H
  H5135    1.0000 0.93675  0.48899  0.12749  Biso   1.000  H
  H5136    1.0000 0.98496  0.45090  0.11430  Biso   1.000  H
  H5137    1.0000 0.93679  0.48899  0.12749  Biso   1.000  H
  H5138    1.0000 0.94829  0.43900  0.16389  Biso   1.000  H
  H5139    1.0000 0.01500  0.54910  0.11430  Biso   1.000  H
  H5140    1.0000 0.06321  0.51097  0.12749  Biso   1.000  H
  H5141    1.0000 0.06317  0.51097  0.12749  Biso   1.000  H
  H5142    1.0000 0.05171  0.56100  0.16389  Biso   1.000  H
  C3023    1.0000 0.97220  0.23476  0.98854  Biso   1.000  C
  C3024    1.0000 0.97220  0.23476  0.98850  Biso   1.000  C
  H5143    1.0000 0.05352  0.23409  0.98178  Biso   1.000  H
  H5144    1.0000 0.05348  0.23409  0.98178  Biso   1.000  H
  C3025    1.0000 0.03632  0.18599  0.04492  Biso   1.000  C
  C3026    1.0000 0.03632  0.18599  0.04488  Biso   1.000  C
  N381     1.0000 0.96631  0.28427  0.96062  Biso   1.000  N
  N382     1.0000 0.96631  0.28427  0.96058  Biso   1.000  N
  H5145    1.0000 0.97880  0.31470  0.97106  Biso   1.000  H
  C3027    1.0000 0.96678  0.35730  0.03561  Biso   1.000  C
  C3028    1.0000 0.96678  0.35730  0.03557  Biso   1.000  C
  C3029    1.0000 0.03322  0.35730  0.96435  Biso   1.000  C
  C3030    1.0000 0.03322  0.35730  0.96439  Biso   1.000  C
  C3031    1.0000 0.03318  0.35730  0.96435  Biso   1.000  C
  C3032    1.0000 0.03318  0.35730  0.96439  Biso   1.000  C
  H5146    1.0000 0.31348  0.57509  0.98818  Biso   1.000  H
  H5147    1.0000 0.31399  0.55880  0.92736  Biso   1.000  H
  C3033    1.0000 0.36378  0.51239  0.97267  Biso   1.000  C
  C3034    1.0000 0.36378  0.51239  0.97271  Biso   1.000  C
  H5148    1.0000 0.36597  0.51561  0.05418  Biso   1.000  H
  H5149    1.0000 0.39499  0.46480  0.03110  Biso   1.000  H
  H5150    1.0000 0.39503  0.46480  0.03110  Biso   1.000  H
  C3035    1.0000 0.15407  0.57980  0.90110  Biso   1.000  C
  H5151    1.0000 0.19691  0.51148  0.89509  Biso   1.000  H
  H5152    1.0000 0.23271  0.56288  0.89305  Biso   1.000  H
  H5153    1.0000 0.23271  0.56288  0.89309  Biso   1.000  H
  H5154    1.0000 0.19687  0.51148  0.89509  Biso   1.000  H
  H5155    1.0000 0.23268  0.56288  0.89305  Biso   1.000  H
  H5156    1.0000 0.23268  0.56288  0.89309  Biso   1.000  H
  H5157    1.0000 0.92485  0.51180  0.31348  Biso   1.000  H
  H5158    1.0000 0.94118  0.57258  0.31399  Biso   1.000  H
  C3036    1.0000 0.98763  0.52727  0.36378  Biso   1.000  C
  H5159    1.0000 0.92489  0.51180  0.31348  Biso   1.000  H
  C3037    1.0000 0.98759  0.52727  0.36378  Biso   1.000  C
  H5160    1.0000 0.98441  0.44580  0.36597  Biso   1.000  H
  H5161    1.0000 0.98437  0.44580  0.36597  Biso   1.000  H
  H5162    1.0000 0.03518  0.46888  0.39499  Biso   1.000  H
  H5163    1.0000 0.03518  0.46888  0.39503  Biso   1.000  H
  C3038    1.0000 0.92018  0.59888  0.15407  Biso   1.000  C
  H5164    1.0000 0.98850  0.60489  0.19691  Biso   1.000  H
  H5165    1.0000 0.93706  0.60689  0.23271  Biso   1.000  H
  H5166    1.0000 0.98850  0.60489  0.19687  Biso   1.000  H
  H5167    1.0000 0.93706  0.60689  0.23268  Biso   1.000  H
  H5168    1.0000 0.93710  0.60689  0.23271  Biso   1.000  H
  H5169    1.0000 0.93710  0.60689  0.23268  Biso   1.000  H
  C3039    1.0000 0.96368  0.18599  0.95508  Biso   1.000  C
  C3040    1.0000 0.96364  0.18599  0.95508  Biso   1.000  C
  H5170    1.0000 0.94644  0.23409  0.01822  Biso   1.000  H
  H5171    1.0000 0.94644  0.23409  0.01818  Biso   1.000  H
  H5172    1.0000 0.94648  0.23409  0.01822  Biso   1.000  H
  H5173    1.0000 0.94648  0.23409  0.01818  Biso   1.000  H
  H5174    1.0000 0.07260  0.18599  0.05882  Biso   1.000  H
  H5175    1.0000 0.01182  0.18650  0.07511  Biso   1.000  H
  C3041    1.0000 0.02729  0.13620  0.01237  Biso   1.000  C
  H5176    1.0000 0.01182  0.18650  0.07507  Biso   1.000  H
  H5177    1.0000 0.01178  0.18650  0.07511  Biso   1.000  H
  C3042    1.0000 0.02725  0.13620  0.01237  Biso   1.000  C
  H5178    1.0000 0.01178  0.18650  0.07507  Biso   1.000  H
  C3043    1.0000 0.91107  0.29754  0.95351  Biso   1.000  C
  H5179    1.0000 0.95088  0.38568  0.01500  Biso   1.000  H
  H5180    1.0000 0.98901  0.37249  0.06321  Biso   1.000  H
  H5181    1.0000 0.98901  0.37249  0.06317  Biso   1.000  H
  H5182    1.0000 0.98897  0.37249  0.06321  Biso   1.000  H
  H5183    1.0000 0.98897  0.37249  0.06317  Biso   1.000  H
  H5184    1.0000 0.93898  0.33609  0.05171  Biso   1.000  H
  H5185    1.0000 0.04912  0.38568  0.98500  Biso   1.000  H
  H5186    1.0000 0.01099  0.37249  0.93675  Biso   1.000  H
  H5187    1.0000 0.04912  0.38568  0.98496  Biso   1.000  H
  H5188    1.0000 0.01099  0.37249  0.93679  Biso   1.000  H
  H5189    1.0000 0.04908  0.38568  0.98500  Biso   1.000  H
  H5190    1.0000 0.04908  0.38568  0.98496  Biso   1.000  H
  H5191    1.0000 0.06098  0.33609  0.94829  Biso   1.000  H
  H5192    1.0000 0.36597  0.48439  0.94578  Biso   1.000  H
  H5193    1.0000 0.39499  0.53520  0.96886  Biso   1.000  H
  H5194    1.0000 0.39503  0.53520  0.96886  Biso   1.000  H
  C3044    1.0000 0.14202  0.62264  0.93204  Biso   1.000  C
  C3045    1.0000 0.12266  0.56795  0.85794  Biso   1.000  C
  C3046    1.0000 0.12266  0.56795  0.85798  Biso   1.000  C
  C3047    1.0000 0.14198  0.62264  0.93204  Biso   1.000  C
  H5195    1.0000 0.01559  0.55420  0.36597  Biso   1.000  H
  H5196    1.0000 0.96482  0.53108  0.39499  Biso   1.000  H
  H5197    1.0000 0.96482  0.53108  0.39503  Biso   1.000  H
  H5198    1.0000 0.96478  0.53108  0.39499  Biso   1.000  H
  H5199    1.0000 0.96478  0.53108  0.39503  Biso   1.000  H
  C3048    1.0000 0.87734  0.56795  0.14202  Biso   1.000  C
  C3049    1.0000 0.93204  0.64200  0.12266  Biso   1.000  C
  C3050    1.0000 0.87734  0.56795  0.14198  Biso   1.000  C
  C3051    1.0000 0.87730  0.56795  0.14202  Biso   1.000  C
  C3052    1.0000 0.87730  0.56795  0.14198  Biso   1.000  C
  H5200    1.0000 0.98818  0.18650  0.92485  Biso   1.000  H
  H5201    1.0000 0.92736  0.18599  0.94118  Biso   1.000  H
  C3053    1.0000 0.97267  0.13620  0.98763  Biso   1.000  C
  H5202    1.0000 0.98818  0.18650  0.92489  Biso   1.000  H
  C3054    1.0000 0.97267  0.13620  0.98759  Biso   1.000  C
  C3055    1.0000 0.97271  0.13620  0.98763  Biso   1.000  C
  C3056    1.0000 0.97271  0.13620  0.98759  Biso   1.000  C
  H5203    1.0000 0.03110  0.10499  0.03518  Biso   1.000  H
  H5204    1.0000 0.05418  0.13401  0.98441  Biso   1.000  H
  H5205    1.0000 0.05418  0.13401  0.98437  Biso   1.000  H
  C3057    1.0000 0.90110  0.34591  0.92018  Biso   1.000  C
  H5206    1.0000 0.89509  0.30311  0.98850  Biso   1.000  H
  H5207    1.0000 0.89305  0.26731  0.93706  Biso   1.000  H
  H5208    1.0000 0.89305  0.26731  0.93710  Biso   1.000  H
  H5209    1.0000 0.89309  0.26731  0.93706  Biso   1.000  H
  H5210    1.0000 0.89309  0.26731  0.93710  Biso   1.000  H
  H5211    1.0000 0.16330  0.63081  0.96160  Biso   1.000  H
  C3058    1.0000 0.09887  0.65405  0.92018  Biso   1.000  C
  H5212    1.0000 0.13079  0.53838  0.83666  Biso   1.000  H
  C3059    1.0000 0.07982  0.59888  0.84589  Biso   1.000  C
  C3060    1.0000 0.07978  0.59888  0.84589  Biso   1.000  C
  H5213    1.0000 0.86921  0.53838  0.16330  Biso   1.000  H
  C3061    1.0000 0.84589  0.57980  0.09887  Biso   1.000  C
  H5214    1.0000 0.86917  0.53838  0.16330  Biso   1.000  H
  H5215    1.0000 0.96160  0.66328  0.13079  Biso   1.000  H
  C3062    1.0000 0.90110  0.65405  0.07982  Biso   1.000  C
  C3063    1.0000 0.90110  0.65405  0.07978  Biso   1.000  C
  H5216    1.0000 0.96886  0.10499  0.96482  Biso   1.000  H
  H5217    1.0000 0.96886  0.10499  0.96478  Biso   1.000  H
  H5218    1.0000 0.94578  0.13401  0.01559  Biso   1.000  H
  C3064    1.0000 0.93204  0.35796  0.87734  Biso   1.000  C
  C3065    1.0000 0.85794  0.37732  0.93204  Biso   1.000  C
  C3066    1.0000 0.93204  0.35796  0.87730  Biso   1.000  C
  C3067    1.0000 0.85798  0.37732  0.93204  Biso   1.000  C
  C3068    1.0000 0.06793  0.64200  0.87734  Biso   1.000  C
  C3069    1.0000 0.08893  0.70246  0.95351  Biso   1.000  C
  C3070    1.0000 0.06793  0.64200  0.87730  Biso   1.000  C
  C3071    1.0000 0.08889  0.70246  0.95351  Biso   1.000  C
  C3072    1.0000 0.04645  0.58891  0.79752  Biso   1.000  C
  C3073    1.0000 0.85794  0.62264  0.06793  Biso   1.000  C
  C3074    1.0000 0.79752  0.54647  0.08893  Biso   1.000  C
  C3075    1.0000 0.79752  0.54647  0.08889  Biso   1.000  C
  C3076    1.0000 0.85798  0.62264  0.06793  Biso   1.000  C
  C3077    1.0000 0.91107  0.70246  0.04645  Biso   1.000  C
  C3078    1.0000 0.92018  0.40112  0.84589  Biso   1.000  C
  H5219    1.0000 0.96160  0.33668  0.86921  Biso   1.000  H
  H5220    1.0000 0.96160  0.33668  0.86917  Biso   1.000  H
  H5221    1.0000 0.83666  0.36919  0.96160  Biso   1.000  H
  C3079    1.0000 0.84589  0.42020  0.90110  Biso   1.000  C
  H5222    1.0000 0.03840  0.66328  0.86921  Biso   1.000  H
  H5223    1.0000 0.03840  0.66328  0.86917  Biso   1.000  H
  H5224    1.0000 0.03836  0.66328  0.86921  Biso   1.000  H
  H5225    1.0000 0.03836  0.66328  0.86917  Biso   1.000  H
  H5226    1.0000 0.10491  0.69689  0.98850  Biso   1.000  H
  H5227    1.0000 0.10691  0.73269  0.93706  Biso   1.000  H
  N383     1.0000 0.03365  0.71573  0.96062  Biso   1.000  N
  H5228    1.0000 0.10691  0.73269  0.93710  Biso   1.000  H
  N384     1.0000 0.03365  0.71573  0.96058  Biso   1.000  N
  H5229    1.0000 0.10487  0.69689  0.98850  Biso   1.000  H
  H5230    1.0000 0.10688  0.73269  0.93706  Biso   1.000  H
  H5231    1.0000 0.10688  0.73269  0.93710  Biso   1.000  H
  H5232    1.0000 0.01150  0.60489  0.80309  Biso   1.000  H
  H5233    1.0000 0.06290  0.60689  0.76725  Biso   1.000  H
  N385     1.0000 0.03938  0.53367  0.78425  Biso   1.000  N
  H5234    1.0000 0.06290  0.60689  0.76729  Biso   1.000  H
  H5235    1.0000 0.01146  0.60489  0.80309  Biso   1.000  H
  H5236    1.0000 0.06286  0.60689  0.76725  Biso   1.000  H
  H5237    1.0000 0.06286  0.60689  0.76729  Biso   1.000  H
  H5238    1.0000 0.83666  0.63081  0.03840  Biso   1.000  H
  H5239    1.0000 0.83666  0.63081  0.03836  Biso   1.000  H
  H5240    1.0000 0.80309  0.51148  0.10491  Biso   1.000  H
  H5241    1.0000 0.76725  0.56288  0.10691  Biso   1.000  H
  N386     1.0000 0.78425  0.53940  0.03365  Biso   1.000  N
  H5242    1.0000 0.80309  0.51148  0.10487  Biso   1.000  H
  H5243    1.0000 0.76725  0.56288  0.10688  Biso   1.000  H
  H5244    1.0000 0.76729  0.56288  0.10691  Biso   1.000  H
  H5245    1.0000 0.76729  0.56288  0.10688  Biso   1.000  H
  H5246    1.0000 0.89509  0.69689  0.01150  Biso   1.000  H
  H5247    1.0000 0.89305  0.73269  0.06290  Biso   1.000  H
  N387     1.0000 0.96631  0.71573  0.03938  Biso   1.000  N
  H5248    1.0000 0.89509  0.69689  0.01146  Biso   1.000  H
  H5249    1.0000 0.89305  0.73269  0.06286  Biso   1.000  H
  H5250    1.0000 0.89309  0.73269  0.06290  Biso   1.000  H
  H5251    1.0000 0.89309  0.73269  0.06286  Biso   1.000  H
  C3080    1.0000 0.87734  0.43205  0.85794  Biso   1.000  C
  C3081    1.0000 0.95351  0.41109  0.79752  Biso   1.000  C
  C3082    1.0000 0.87734  0.43205  0.85798  Biso   1.000  C
  C3083    1.0000 0.87730  0.43205  0.85794  Biso   1.000  C
  C3084    1.0000 0.87730  0.43205  0.85798  Biso   1.000  C
  C3085    1.0000 0.79752  0.45353  0.91107  Biso   1.000  C
  C3086    1.0000 0.00000  0.67710  0.00000  Biso   1.000  C
  C3087    1.0000 0.02776  0.76520  0.98854  Biso   1.000  C
  C3088    1.0000 0.02776  0.76520  0.98850  Biso   1.000  C
  H5252    1.0000 0.02120  0.68530  0.97106  Biso   1.000  H
  C3089    1.0000 0.01146  0.52778  0.73474  Biso   1.000  C
  C3090    1.0000 0.00000  0.49998  0.82292  Biso   1.000  C
  C3091    1.0000 0.00000  0.49998  0.82288  Biso   1.000  C
  H5253    1.0000 0.02890  0.52118  0.81468  Biso   1.000  H
  C3092    1.0000 0.73474  0.51145  0.02776  Biso   1.000  C
  C3093    1.0000 0.82292  0.49998  0.00000  Biso   1.000  C
  C3094    1.0000 0.82288  0.49998  0.00000  Biso   1.000  C
  H5254    1.0000 0.81468  0.52888  0.02120  Biso   1.000  H
  H5255    1.0000 0.97880  0.68530  0.02890  Biso   1.000  H
  C3095    1.0000 0.97220  0.76520  0.01146  Biso   1.000  C
  H5256    1.0000 0.86921  0.46158  0.83666  Biso   1.000  H
  H5257    1.0000 0.86917  0.46158  0.83666  Biso   1.000  H
  H5258    1.0000 0.98850  0.39511  0.80309  Biso   1.000  H
  H5259    1.0000 0.93706  0.39311  0.76725  Biso   1.000  H
  N388     1.0000 0.96062  0.46633  0.78425  Biso   1.000  N
  H5260    1.0000 0.93706  0.39311  0.76729  Biso   1.000  H
  H5261    1.0000 0.93710  0.39311  0.76725  Biso   1.000  H
  N389     1.0000 0.96058  0.46633  0.78425  Biso   1.000  N
  H5262    1.0000 0.93710  0.39311  0.76729  Biso   1.000  H
  H5263    1.0000 0.80309  0.48848  0.89509  Biso   1.000  H
  H5264    1.0000 0.76725  0.43708  0.89305  Biso   1.000  H
  N390     1.0000 0.78425  0.46060  0.96631  Biso   1.000  N
  H5265    1.0000 0.76725  0.43708  0.89309  Biso   1.000  H
  H5266    1.0000 0.76729  0.43708  0.89305  Biso   1.000  H
  H5267    1.0000 0.76729  0.43708  0.89309  Biso   1.000  H
  C3096    1.0000 0.96678  0.64270  0.96435  Biso   1.000  C
  C3097    1.0000 0.96678  0.64270  0.96439  Biso   1.000  C
  C3098    1.0000 0.03322  0.64270  0.03561  Biso   1.000  C
  C3099    1.0000 0.03322  0.64270  0.03557  Biso   1.000  C
  C3100    1.0000 0.03318  0.64270  0.03561  Biso   1.000  C
  C3101    1.0000 0.03318  0.64270  0.03557  Biso   1.000  C
  C3102    1.0000 0.03632  0.81397  0.95508  Biso   1.000  C
  H5268    1.0000 0.05352  0.76587  0.01822  Biso   1.000  H
  H5269    1.0000 0.05352  0.76587  0.01818  Biso   1.000  H
  H5270    1.0000 0.05348  0.76587  0.01822  Biso   1.000  H
  H5271    1.0000 0.05348  0.76587  0.01818  Biso   1.000  H
  H5272    1.0000 0.98178  0.55350  0.73411  Biso   1.000  H
  C3103    1.0000 0.98854  0.47222  0.73474  Biso   1.000  C
  H5273    1.0000 0.98178  0.55350  0.73407  Biso   1.000  H
  C3104    1.0000 0.98850  0.47222  0.73474  Biso   1.000  C
  C3105    1.0000 0.04492  0.53630  0.68601  Biso   1.000  C
  C3106    1.0000 0.04488  0.53630  0.68601  Biso   1.000  C
  C3107    1.0000 0.96435  0.53320  0.85732  Biso   1.000  C
  C3108    1.0000 0.96435  0.53320  0.85728  Biso   1.000  C
  C3109    1.0000 0.96439  0.53320  0.85732  Biso   1.000  C
  C3110    1.0000 0.96439  0.53320  0.85728  Biso   1.000  C
  H5274    1.0000 0.97106  0.47878  0.81468  Biso   1.000  H
  C3111    1.0000 0.03561  0.46680  0.85732  Biso   1.000  C
  C3112    1.0000 0.03561  0.46680  0.85728  Biso   1.000  C
  C3113    1.0000 0.03557  0.46680  0.85732  Biso   1.000  C
  C3114    1.0000 0.03557  0.46680  0.85728  Biso   1.000  C
  C3115    1.0000 0.73474  0.48852  0.97220  Biso   1.000  C
  C3116    1.0000 0.68601  0.54490  0.03632  Biso   1.000  C
  H5275    1.0000 0.73411  0.48180  0.05352  Biso   1.000  H
  H5276    1.0000 0.73411  0.48180  0.05348  Biso   1.000  H
  H5277    1.0000 0.73407  0.48180  0.05352  Biso   1.000  H
  H5278    1.0000 0.73407  0.48180  0.05348  Biso   1.000  H
  H5279    1.0000 0.81468  0.47108  0.97880  Biso   1.000  H
  C3117    1.0000 0.85732  0.53559  0.96678  Biso   1.000  C
  C3118    1.0000 0.85728  0.53559  0.96678  Biso   1.000  C
  C3119    1.0000 0.85732  0.46441  0.03322  Biso   1.000  C
  C3120    1.0000 0.85732  0.46441  0.03318  Biso   1.000  C
  C3121    1.0000 0.85728  0.46441  0.03322  Biso   1.000  C
  C3122    1.0000 0.85728  0.46441  0.03318  Biso   1.000  C
  H5280    1.0000 0.94644  0.76587  0.98178  Biso   1.000  H
  H5281    1.0000 0.94648  0.76587  0.98178  Biso   1.000  H
  C3123    1.0000 0.96368  0.81397  0.04492  Biso   1.000  C
  C3124    1.0000 0.96368  0.81397  0.04488  Biso   1.000  C
  C3125    1.0000 0.96364  0.81397  0.04492  Biso   1.000  C
  C3126    1.0000 0.96364  0.81397  0.04488  Biso   1.000  C
  H5282    1.0000 0.95088  0.61428  0.98500  Biso   1.000  H
  H5283    1.0000 0.98901  0.62747  0.93675  Biso   1.000  H
  H5284    1.0000 0.95088  0.61428  0.98496  Biso   1.000  H
  H5285    1.0000 0.98901  0.62747  0.93679  Biso   1.000  H
  H5286    1.0000 0.98897  0.62747  0.93675  Biso   1.000  H
  H5287    1.0000 0.98897  0.62747  0.93679  Biso   1.000  H
  H5288    1.0000 0.93898  0.66391  0.94829  Biso   1.000  H
  H5289    1.0000 0.04912  0.61428  0.01500  Biso   1.000  H
  H5290    1.0000 0.01099  0.62747  0.06321  Biso   1.000  H
  H5291    1.0000 0.01099  0.62747  0.06317  Biso   1.000  H
  H5292    1.0000 0.04908  0.61428  0.01500  Biso   1.000  H
  H5293    1.0000 0.06098  0.66391  0.05171  Biso   1.000  H
  H5294    1.0000 0.01182  0.81350  0.92485  Biso   1.000  H
  H5295    1.0000 0.07260  0.81397  0.94118  Biso   1.000  H
  C3127    1.0000 0.02729  0.86380  0.98763  Biso   1.000  C
  H5296    1.0000 0.01182  0.81350  0.92489  Biso   1.000  H
  C3128    1.0000 0.02729  0.86380  0.98759  Biso   1.000  C
  H5297    1.0000 0.01178  0.81350  0.92485  Biso   1.000  H
  C3129    1.0000 0.02725  0.86380  0.98763  Biso   1.000  C
  H5298    1.0000 0.01178  0.81350  0.92489  Biso   1.000  H
  C3130    1.0000 0.02725  0.86380  0.98759  Biso   1.000  C
  C3131    1.0000 0.95508  0.46366  0.68601  Biso   1.000  C
  H5299    1.0000 0.01822  0.44650  0.73411  Biso   1.000  H
  H5300    1.0000 0.01822  0.44650  0.73407  Biso   1.000  H
  H5301    1.0000 0.01818  0.44650  0.73411  Biso   1.000  H
  H5302    1.0000 0.01818  0.44650  0.73407  Biso   1.000  H
  H5303    1.0000 0.07511  0.51180  0.68648  Biso   1.000  H
  H5304    1.0000 0.05882  0.57258  0.68601  Biso   1.000  H
  C3132    1.0000 0.01237  0.52727  0.63619  Biso   1.000  C
  H5305    1.0000 0.05882  0.57258  0.68597  Biso   1.000  H
  H5306    1.0000 0.07507  0.51180  0.68648  Biso   1.000  H
  H5307    1.0000 0.98500  0.54910  0.88570  Biso   1.000  H
  H5308    1.0000 0.93675  0.51097  0.87251  Biso   1.000  H
  H5309    1.0000 0.98500  0.54910  0.88566  Biso   1.000  H
  H5310    1.0000 0.93675  0.51097  0.87247  Biso   1.000  H
  H5311    1.0000 0.98496  0.54910  0.88570  Biso   1.000  H
  H5312    1.0000 0.93679  0.51097  0.87251  Biso   1.000  H
  H5313    1.0000 0.98496  0.54910  0.88566  Biso   1.000  H
  H5314    1.0000 0.93679  0.51097  0.87247  Biso   1.000  H
  H5315    1.0000 0.94829  0.56100  0.83608  Biso   1.000  H
  H5316    1.0000 0.01500  0.45090  0.88570  Biso   1.000  H
  H5317    1.0000 0.06321  0.48899  0.87251  Biso   1.000  H
  H5318    1.0000 0.01500  0.45090  0.88566  Biso   1.000  H
  H5319    1.0000 0.06321  0.48899  0.87247  Biso   1.000  H
  H5320    1.0000 0.06317  0.48899  0.87251  Biso   1.000  H
  H5321    1.0000 0.06317  0.48899  0.87247  Biso   1.000  H
  H5322    1.0000 0.05171  0.43900  0.83608  Biso   1.000  H
  C3133    1.0000 0.68601  0.45510  0.96368  Biso   1.000  C
  H5323    1.0000 0.73411  0.51820  0.94644  Biso   1.000  H
  C3134    1.0000 0.68601  0.45510  0.96364  Biso   1.000  C
  H5324    1.0000 0.73411  0.51820  0.94648  Biso   1.000  H
  H5325    1.0000 0.73407  0.51820  0.94644  Biso   1.000  H
  H5326    1.0000 0.73407  0.51820  0.94648  Biso   1.000  H
  H5327    1.0000 0.68648  0.57509  0.01182  Biso   1.000  H
  H5328    1.0000 0.68601  0.55880  0.07260  Biso   1.000  H
  C3135    1.0000 0.63619  0.51239  0.02729  Biso   1.000  C
  H5329    1.0000 0.68648  0.57509  0.01178  Biso   1.000  H
  C3136    1.0000 0.63619  0.51239  0.02725  Biso   1.000  C
  H5330    1.0000 0.68597  0.55880  0.07260  Biso   1.000  H
  H5331    1.0000 0.88570  0.51498  0.95088  Biso   1.000  H
  H5332    1.0000 0.87251  0.56319  0.98901  Biso   1.000  H
  H5333    1.0000 0.87251  0.56319  0.98897  Biso   1.000  H
  H5334    1.0000 0.88566  0.51498  0.95088  Biso   1.000  H
  H5335    1.0000 0.87247  0.56319  0.98901  Biso   1.000  H
  H5336    1.0000 0.87247  0.56319  0.98897  Biso   1.000  H
  H5337    1.0000 0.83608  0.55169  0.93898  Biso   1.000  H
  H5338    1.0000 0.88570  0.48498  0.04912  Biso   1.000  H
  H5339    1.0000 0.87251  0.43681  0.01099  Biso   1.000  H
  H5340    1.0000 0.88570  0.48498  0.04908  Biso   1.000  H
  H5341    1.0000 0.88566  0.48498  0.04912  Biso   1.000  H
  H5342    1.0000 0.87247  0.43681  0.01099  Biso   1.000  H
  H5343    1.0000 0.88566  0.48498  0.04908  Biso   1.000  H
  H5344    1.0000 0.83608  0.44831  0.06098  Biso   1.000  H
  H5345    1.0000 0.98818  0.81350  0.07511  Biso   1.000  H
  H5346    1.0000 0.92736  0.81397  0.05882  Biso   1.000  H
  C3137    1.0000 0.97267  0.86380  0.01237  Biso   1.000  C
  H5347    1.0000 0.98818  0.81350  0.07507  Biso   1.000  H
  C3138    1.0000 0.97271  0.86380  0.01237  Biso   1.000  C
  H5348    1.0000 0.05418  0.86599  0.01559  Biso   1.000  H
  H5349    1.0000 0.03110  0.89497  0.96482  Biso   1.000  H
  H5350    1.0000 0.03110  0.89497  0.96478  Biso   1.000  H
  H5351    1.0000 0.92485  0.48820  0.68648  Biso   1.000  H
  H5352    1.0000 0.94118  0.42738  0.68601  Biso   1.000  H
  C3139    1.0000 0.98763  0.47273  0.63619  Biso   1.000  C
  H5353    1.0000 0.94118  0.42738  0.68597  Biso   1.000  H
  H5354    1.0000 0.92489  0.48820  0.68648  Biso   1.000  H
  C3140    1.0000 0.98759  0.47273  0.63619  Biso   1.000  C
  H5355    1.0000 0.98441  0.55420  0.63403  Biso   1.000  H
  H5356    1.0000 0.98441  0.55420  0.63399  Biso   1.000  H
  H5357    1.0000 0.98437  0.55420  0.63403  Biso   1.000  H
  H5358    1.0000 0.98437  0.55420  0.63399  Biso   1.000  H
  H5359    1.0000 0.03518  0.53108  0.60501  Biso   1.000  H
  H5360    1.0000 0.03518  0.53108  0.60497  Biso   1.000  H
  H5361    1.0000 0.68648  0.42491  0.98818  Biso   1.000  H
  H5362    1.0000 0.68601  0.44120  0.92736  Biso   1.000  H
  C3141    1.0000 0.63619  0.48761  0.97267  Biso   1.000  C
  C3142    1.0000 0.63619  0.48761  0.97271  Biso   1.000  C
  H5363    1.0000 0.68597  0.44120  0.92736  Biso   1.000  H
  H5364    1.0000 0.63403  0.48439  0.05418  Biso   1.000  H
  H5365    1.0000 0.60501  0.53520  0.03110  Biso   1.000  H
  H5366    1.0000 0.63399  0.48439  0.05418  Biso   1.000  H
  H5367    1.0000 0.60497  0.53520  0.03110  Biso   1.000  H
  H5368    1.0000 0.94578  0.86599  0.98441  Biso   1.000  H
  H5369    1.0000 0.94578  0.86599  0.98437  Biso   1.000  H
  H5370    1.0000 0.96886  0.89497  0.03518  Biso   1.000  H
  H5371    1.0000 0.96482  0.46888  0.60501  Biso   1.000  H
  H5372    1.0000 0.96482  0.46888  0.60497  Biso   1.000  H
  H5373    1.0000 0.96478  0.46888  0.60501  Biso   1.000  H
  H5374    1.0000 0.96478  0.46888  0.60497  Biso   1.000  H
  H5375    1.0000 0.01559  0.44580  0.63403  Biso   1.000  H
  H5376    1.0000 0.01559  0.44580  0.63399  Biso   1.000  H
  H5377    1.0000 0.63403  0.51561  0.94578  Biso   1.000  H
  H5378    1.0000 0.60501  0.46480  0.96886  Biso   1.000  H
  H5379    1.0000 0.63399  0.51561  0.94578  Biso   1.000  H
  H5380    1.0000 0.60497  0.46480  0.96886  Biso   1.000  H
  C3143    1.0000 0.12266  0.43205  0.14202  Biso   1.000  C
  C3144    1.0000 0.15407  0.42020  0.09887  Biso   1.000  C
  C3145    1.0000 0.07982  0.40112  0.15407  Biso   1.000  C
  C3146    1.0000 0.07978  0.40112  0.15407  Biso   1.000  C
  H5381    1.0000 0.13079  0.46158  0.16330  Biso   1.000  H
  C3147    1.0000 0.14202  0.37732  0.06793  Biso   1.000  C
  C3148    1.0000 0.14198  0.37732  0.06793  Biso   1.000  C
  C3149    1.0000 0.20248  0.45353  0.08893  Biso   1.000  C
  C3150    1.0000 0.12266  0.43205  0.14198  Biso   1.000  C
  C3151    1.0000 0.20248  0.45353  0.08889  Biso   1.000  C
  C3152    1.0000 0.20244  0.45353  0.08893  Biso   1.000  C
  C3153    1.0000 0.20244  0.45353  0.08889  Biso   1.000  C
  C3154    1.0000 0.06793  0.35796  0.12266  Biso   1.000  C
  C3155    1.0000 0.04645  0.41109  0.20248  Biso   1.000  C
  C3156    1.0000 0.04645  0.41109  0.20244  Biso   1.000  C
  C3157    1.0000 0.09887  0.34591  0.07982  Biso   1.000  C
  C3158    1.0000 0.09887  0.34591  0.07978  Biso   1.000  C
  H5382    1.0000 0.16330  0.36919  0.03840  Biso   1.000  H
  H5383    1.0000 0.16330  0.36919  0.03836  Biso   1.000  H
  H5384    1.0000 0.19691  0.48848  0.10491  Biso   1.000  H
  H5385    1.0000 0.23271  0.43708  0.10691  Biso   1.000  H
  N391     1.0000 0.21575  0.46060  0.03365  Biso   1.000  N
  H5386    1.0000 0.19691  0.48848  0.10487  Biso   1.000  H
  H5387    1.0000 0.23271  0.43708  0.10688  Biso   1.000  H
  H5388    1.0000 0.19687  0.48848  0.10491  Biso   1.000  H
  H5389    1.0000 0.23268  0.43708  0.10691  Biso   1.000  H
  N392     1.0000 0.21571  0.46060  0.03365  Biso   1.000  N
  H5390    1.0000 0.19687  0.48848  0.10487  Biso   1.000  H
  H5391    1.0000 0.23268  0.43708  0.10688  Biso   1.000  H
  H5392    1.0000 0.03840  0.33668  0.13079  Biso   1.000  H
  H5393    1.0000 0.03836  0.33668  0.13079  Biso   1.000  H
  H5394    1.0000 0.01150  0.39511  0.19691  Biso   1.000  H
  H5395    1.0000 0.06290  0.39311  0.23271  Biso   1.000  H
  N393     1.0000 0.03938  0.46633  0.21575  Biso   1.000  N
  H5396    1.0000 0.01150  0.39511  0.19687  Biso   1.000  H
  H5397    1.0000 0.06290  0.39311  0.23268  Biso   1.000  H
  N394     1.0000 0.03938  0.46633  0.21571  Biso   1.000  N
  H5398    1.0000 0.01146  0.39511  0.19691  Biso   1.000  H
  H5399    1.0000 0.06286  0.39311  0.23271  Biso   1.000  H
  H5400    1.0000 0.01146  0.39511  0.19687  Biso   1.000  H
  H5401    1.0000 0.06286  0.39311  0.23268  Biso   1.000  H
  C3159    1.0000 0.08893  0.29754  0.04645  Biso   1.000  C
  C3160    1.0000 0.08889  0.29754  0.04645  Biso   1.000  C
  C3161    1.0000 0.26522  0.48852  0.02776  Biso   1.000  C
  C3162    1.0000 0.17708  0.49998  0.00000  Biso   1.000  C
  H5402    1.0000 0.18528  0.47108  0.02120  Biso   1.000  H
  C3163    1.0000 0.01146  0.47222  0.26522  Biso   1.000  C
  C3164    1.0000 0.00000  0.49998  0.17708  Biso   1.000  C
  H5403    1.0000 0.02890  0.47878  0.18528  Biso   1.000  H
  N395     1.0000 0.03365  0.28427  0.03938  Biso   1.000  N
  H5404    1.0000 0.10491  0.30311  0.01150  Biso   1.000  H
  H5405    1.0000 0.10691  0.26731  0.06290  Biso   1.000  H
  H5406    1.0000 0.10491  0.30311  0.01146  Biso   1.000  H
  H5407    1.0000 0.10691  0.26731  0.06286  Biso   1.000  H
  H5408    1.0000 0.10487  0.30311  0.01150  Biso   1.000  H
  H5409    1.0000 0.10688  0.26731  0.06290  Biso   1.000  H
  H5410    1.0000 0.10487  0.30311  0.01146  Biso   1.000  H
  H5411    1.0000 0.10688  0.26731  0.06286  Biso   1.000  H
  C3165    1.0000 0.26522  0.51145  0.97220  Biso   1.000  C
  C3166    1.0000 0.31399  0.45510  0.03632  Biso   1.000  C
  H5412    1.0000 0.26589  0.51820  0.05352  Biso   1.000  H
  H5413    1.0000 0.26589  0.51820  0.05348  Biso   1.000  H
  C3167    1.0000 0.31395  0.45510  0.03632  Biso   1.000  C
  C3168    1.0000 0.14268  0.46441  0.96678  Biso   1.000  C
  N396     1.0000 0.21575  0.53940  0.96631  Biso   1.000  N
  N397     1.0000 0.21571  0.53940  0.96631  Biso   1.000  N
  H5414    1.0000 0.18528  0.52888  0.97880  Biso   1.000  H
  C3169    1.0000 0.14268  0.53559  0.03322  Biso   1.000  C
  C3170    1.0000 0.14268  0.53559  0.03318  Biso   1.000  C
  H5415    1.0000 0.98178  0.44650  0.26589  Biso   1.000  H
  C3171    1.0000 0.98854  0.52778  0.26522  Biso   1.000  C
  C3172    1.0000 0.98850  0.52778  0.26522  Biso   1.000  C
  C3173    1.0000 0.04492  0.46366  0.31399  Biso   1.000  C
  C3174    1.0000 0.04492  0.46366  0.31395  Biso   1.000  C
  C3175    1.0000 0.04488  0.46366  0.31399  Biso   1.000  C
  C3176    1.0000 0.04488  0.46366  0.31395  Biso   1.000  C
  N398     1.0000 0.96062  0.53367  0.21575  Biso   1.000  N
  C3177    1.0000 0.96435  0.46680  0.14268  Biso   1.000  C
  N399     1.0000 0.96062  0.53367  0.21571  Biso   1.000  N
  N400     1.0000 0.96058  0.53367  0.21575  Biso   1.000  N
  C3178    1.0000 0.96439  0.46680  0.14268  Biso   1.000  C
  N401     1.0000 0.96058  0.53367  0.21571  Biso   1.000  N
  H5416    1.0000 0.97106  0.52118  0.18528  Biso   1.000  H
  C3179    1.0000 0.03561  0.53320  0.14268  Biso   1.000  C
  C3180    1.0000 0.03557  0.53320  0.14268  Biso   1.000  C
  C3181    1.0000 0.02776  0.23476  0.01146  Biso   1.000  C
  C3182    1.0000 0.00000  0.32290  0.00000  Biso   1.000  C
  H5417    1.0000 0.02120  0.31470  0.02890  Biso   1.000  H
  C3183    1.0000 0.31399  0.54490  0.96368  Biso   1.000  C
  H5418    1.0000 0.26589  0.48180  0.94644  Biso   1.000  H
  C3184    1.0000 0.31399  0.54490  0.96364  Biso   1.000  C
  H5419    1.0000 0.26589  0.48180  0.94648  Biso   1.000  H
  C3185    1.0000 0.31395  0.54490  0.96368  Biso   1.000  C
  C3186    1.0000 0.31395  0.54490  0.96364  Biso   1.000  C
  H5420    1.0000 0.31348  0.42491  0.01182  Biso   1.000  H
  H5421    1.0000 0.31399  0.44120  0.07260  Biso   1.000  H
  C3187    1.0000 0.36378  0.48761  0.02729  Biso   1.000  C
  H5422    1.0000 0.31348  0.42491  0.01178  Biso   1.000  H
  C3188    1.0000 0.36378  0.48761  0.02725  Biso   1.000  C
  H5423    1.0000 0.11430  0.48498  0.95088  Biso   1.000  H
  H5424    1.0000 0.12749  0.43681  0.98901  Biso   1.000  H
  H5425    1.0000 0.12749  0.43681  0.98897  Biso   1.000  H
  H5426    1.0000 0.16389  0.44831  0.93898  Biso   1.000  H
  C3189    1.0000 0.20248  0.54647  0.91107  Biso   1.000  C
  C3190    1.0000 0.20244  0.54647  0.91107  Biso   1.000  C
  H5427    1.0000 0.11430  0.51498  0.04912  Biso   1.000  H
  H5428    1.0000 0.12749  0.56319  0.01099  Biso   1.000  H
  H5429    1.0000 0.11430  0.51498  0.04908  Biso   1.000  H
  H5430    1.0000 0.16389  0.55169  0.06098  Biso   1.000  H
  C3191    1.0000 0.95508  0.53630  0.31399  Biso   1.000  C
  C3192    1.0000 0.95508  0.53630  0.31395  Biso   1.000  C
  H5431    1.0000 0.01822  0.55350  0.26589  Biso   1.000  H
  H5432    1.0000 0.01818  0.55350  0.26589  Biso   1.000  H
  H5433    1.0000 0.07511  0.48820  0.31348  Biso   1.000  H
  H5434    1.0000 0.05882  0.42738  0.31399  Biso   1.000  H
  C3193    1.0000 0.01237  0.47273  0.36378  Biso   1.000  C
  H5435    1.0000 0.07507  0.48820  0.31348  Biso   1.000  H
  C3194    1.0000 0.95351  0.58891  0.20248  Biso   1.000  C
  C3195    1.0000 0.95351  0.58891  0.20244  Biso   1.000  C
  H5436    1.0000 0.98500  0.45090  0.11430  Biso   1.000  H
  H5437    1.0000 0.93675  0.48899  0.12749  Biso   1.000  H
  H5438    1.0000 0.98496  0.45090  0.11430  Biso   1.000  H
  H5439    1.0000 0.93679  0.48899  0.12749  Biso   1.000  H
  H5440    1.0000 0.94829  0.43900  0.16389  Biso   1.000  H
  H5441    1.0000 0.01500  0.54910  0.11430  Biso   1.000  H
  H5442    1.0000 0.06321  0.51097  0.12749  Biso   1.000  H
  H5443    1.0000 0.06317  0.51097  0.12749  Biso   1.000  H
  H5444    1.0000 0.05171  0.56100  0.16389  Biso   1.000  H
  C3196    1.0000 0.97220  0.23476  0.98854  Biso   1.000  C
  C3197    1.0000 0.97220  0.23476  0.98850  Biso   1.000  C
  H5445    1.0000 0.05352  0.23409  0.98178  Biso   1.000  H
  H5446    1.0000 0.05348  0.23409  0.98178  Biso   1.000  H
  C3198    1.0000 0.03632  0.18599  0.04492  Biso   1.000  C
  C3199    1.0000 0.03632  0.18599  0.04488  Biso   1.000  C
  N402     1.0000 0.96631  0.28427  0.96062  Biso   1.000  N
  N403     1.0000 0.96631  0.28427  0.96058  Biso   1.000  N
  H5447    1.0000 0.97880  0.31470  0.97106  Biso   1.000  H
  C3200    1.0000 0.96678  0.35730  0.03561  Biso   1.000  C
  C3201    1.0000 0.96678  0.35730  0.03557  Biso   1.000  C
  C3202    1.0000 0.03322  0.35730  0.96435  Biso   1.000  C
  C3203    1.0000 0.03322  0.35730  0.96439  Biso   1.000  C
  C3204    1.0000 0.03318  0.35730  0.96435  Biso   1.000  C
  C3205    1.0000 0.03318  0.35730  0.96439  Biso   1.000  C
  H5448    1.0000 0.31348  0.57509  0.98818  Biso   1.000  H
  H5449    1.0000 0.31399  0.55880  0.92736  Biso   1.000  H
  C3206    1.0000 0.36378  0.51239  0.97267  Biso   1.000  C
  C3207    1.0000 0.36378  0.51239  0.97271  Biso   1.000  C
  H5450    1.0000 0.36597  0.51561  0.05418  Biso   1.000  H
  H5451    1.0000 0.39499  0.46480  0.03110  Biso   1.000  H
  H5452    1.0000 0.39503  0.46480  0.03110  Biso   1.000  H
  C3208    1.0000 0.15407  0.57980  0.90110  Biso   1.000  C
  H5453    1.0000 0.19691  0.51148  0.89509  Biso   1.000  H
  H5454    1.0000 0.23271  0.56288  0.89305  Biso   1.000  H
  H5455    1.0000 0.23271  0.56288  0.89309  Biso   1.000  H
  H5456    1.0000 0.19687  0.51148  0.89509  Biso   1.000  H
  H5457    1.0000 0.23268  0.56288  0.89305  Biso   1.000  H
  H5458    1.0000 0.23268  0.56288  0.89309  Biso   1.000  H
  H5459    1.0000 0.92485  0.51180  0.31348  Biso   1.000  H
  H5460    1.0000 0.94118  0.57258  0.31399  Biso   1.000  H
  C3209    1.0000 0.98763  0.52727  0.36378  Biso   1.000  C
  H5461    1.0000 0.92489  0.51180  0.31348  Biso   1.000  H
  C3210    1.0000 0.98759  0.52727  0.36378  Biso   1.000  C
  H5462    1.0000 0.98441  0.44580  0.36597  Biso   1.000  H
  H5463    1.0000 0.98437  0.44580  0.36597  Biso   1.000  H
  H5464    1.0000 0.03518  0.46888  0.39499  Biso   1.000  H
  H5465    1.0000 0.03518  0.46888  0.39503  Biso   1.000  H
  C3211    1.0000 0.92018  0.59888  0.15407  Biso   1.000  C
  H5466    1.0000 0.98850  0.60489  0.19691  Biso   1.000  H
  H5467    1.0000 0.93706  0.60689  0.23271  Biso   1.000  H
  H5468    1.0000 0.98850  0.60489  0.19687  Biso   1.000  H
  H5469    1.0000 0.93706  0.60689  0.23268  Biso   1.000  H
  H5470    1.0000 0.93710  0.60689  0.23271  Biso   1.000  H
  H5471    1.0000 0.93710  0.60689  0.23268  Biso   1.000  H
  C3212    1.0000 0.96368  0.18599  0.95508  Biso   1.000  C
  C3213    1.0000 0.96364  0.18599  0.95508  Biso   1.000  C
  H5472    1.0000 0.94644  0.23409  0.01822  Biso   1.000  H
  H5473    1.0000 0.94644  0.23409  0.01818  Biso   1.000  H
  H5474    1.0000 0.94648  0.23409  0.01822  Biso   1.000  H
  H5475    1.0000 0.94648  0.23409  0.01818  Biso   1.000  H
  H5476    1.0000 0.01182  0.18650  0.07511  Biso   1.000  H
  H5477    1.0000 0.07260  0.18599  0.05882  Biso   1.000  H
  C3214    1.0000 0.02729  0.13620  0.01237  Biso   1.000  C
  H5478    1.0000 0.01182  0.18650  0.07507  Biso   1.000  H
  H5479    1.0000 0.01178  0.18650  0.07511  Biso   1.000  H
  C3215    1.0000 0.02725  0.13620  0.01237  Biso   1.000  C
  H5480    1.0000 0.01178  0.18650  0.07507  Biso   1.000  H
  C3216    1.0000 0.91107  0.29754  0.95351  Biso   1.000  C
  H5481    1.0000 0.95088  0.38568  0.01500  Biso   1.000  H
  H5482    1.0000 0.98901  0.37249  0.06321  Biso   1.000  H
  H5483    1.0000 0.98901  0.37249  0.06317  Biso   1.000  H
  H5484    1.0000 0.98897  0.37249  0.06321  Biso   1.000  H
  H5485    1.0000 0.98897  0.37249  0.06317  Biso   1.000  H
  H5486    1.0000 0.93898  0.33609  0.05171  Biso   1.000  H
  H5487    1.0000 0.04912  0.38568  0.98500  Biso   1.000  H
  H5488    1.0000 0.01099  0.37249  0.93675  Biso   1.000  H
  H5489    1.0000 0.04912  0.38568  0.98496  Biso   1.000  H
  H5490    1.0000 0.01099  0.37249  0.93679  Biso   1.000  H
  H5491    1.0000 0.04908  0.38568  0.98500  Biso   1.000  H
  H5492    1.0000 0.04908  0.38568  0.98496  Biso   1.000  H
  H5493    1.0000 0.06098  0.33609  0.94829  Biso   1.000  H
  H5494    1.0000 0.36597  0.48439  0.94578  Biso   1.000  H
  H5495    1.0000 0.39499  0.53520  0.96886  Biso   1.000  H
  H5496    1.0000 0.39503  0.53520  0.96886  Biso   1.000  H
  C3217    1.0000 0.14202  0.62264  0.93204  Biso   1.000  C
  C3218    1.0000 0.12266  0.56795  0.85794  Biso   1.000  C
  C3219    1.0000 0.12266  0.56795  0.85798  Biso   1.000  C
  C3220    1.0000 0.14198  0.62264  0.93204  Biso   1.000  C
  H5497    1.0000 0.96482  0.53108  0.39499  Biso   1.000  H
  H5498    1.0000 0.96482  0.53108  0.39503  Biso   1.000  H
  H5499    1.0000 0.96478  0.53108  0.39499  Biso   1.000  H
  H5500    1.0000 0.96478  0.53108  0.39503  Biso   1.000  H
  H5501    1.0000 0.01559  0.55420  0.36597  Biso   1.000  H
  C3221    1.0000 0.87734  0.56795  0.14202  Biso   1.000  C
  C3222    1.0000 0.93204  0.64200  0.12266  Biso   1.000  C
  C3223    1.0000 0.87734  0.56795  0.14198  Biso   1.000  C
  C3224    1.0000 0.87730  0.56795  0.14202  Biso   1.000  C
  C3225    1.0000 0.87730  0.56795  0.14198  Biso   1.000  C
  H5502    1.0000 0.98818  0.18650  0.92485  Biso   1.000  H
  H5503    1.0000 0.92736  0.18599  0.94118  Biso   1.000  H
  C3226    1.0000 0.97267  0.13620  0.98763  Biso   1.000  C
  H5504    1.0000 0.98818  0.18650  0.92489  Biso   1.000  H
  C3227    1.0000 0.97267  0.13620  0.98759  Biso   1.000  C
  C3228    1.0000 0.97271  0.13620  0.98763  Biso   1.000  C
  C3229    1.0000 0.97271  0.13620  0.98759  Biso   1.000  C
  H5505    1.0000 0.05418  0.13401  0.98441  Biso   1.000  H
  H5506    1.0000 0.05418  0.13401  0.98437  Biso   1.000  H
  H5507    1.0000 0.03110  0.10499  0.03518  Biso   1.000  H
  C3230    1.0000 0.90110  0.34591  0.92018  Biso   1.000  C
  H5508    1.0000 0.89509  0.30311  0.98850  Biso   1.000  H
  H5509    1.0000 0.89305  0.26731  0.93706  Biso   1.000  H
  H5510    1.0000 0.89305  0.26731  0.93710  Biso   1.000  H
  H5511    1.0000 0.89309  0.26731  0.93706  Biso   1.000  H
  H5512    1.0000 0.89309  0.26731  0.93710  Biso   1.000  H
  H5513    1.0000 0.16330  0.63081  0.96160  Biso   1.000  H
  C3231    1.0000 0.09887  0.65405  0.92018  Biso   1.000  C
  H5514    1.0000 0.13079  0.53838  0.83666  Biso   1.000  H
  C3232    1.0000 0.07982  0.59888  0.84589  Biso   1.000  C
  C3233    1.0000 0.07978  0.59888  0.84589  Biso   1.000  C
  H5515    1.0000 0.86921  0.53838  0.16330  Biso   1.000  H
  C3234    1.0000 0.84589  0.57980  0.09887  Biso   1.000  C
  H5516    1.0000 0.86917  0.53838  0.16330  Biso   1.000  H
  H5517    1.0000 0.96160  0.66328  0.13079  Biso   1.000  H
  C3235    1.0000 0.90110  0.65405  0.07982  Biso   1.000  C
  C3236    1.0000 0.90110  0.65405  0.07978  Biso   1.000  C
  H5518    1.0000 0.96886  0.10499  0.96482  Biso   1.000  H
  H5519    1.0000 0.96886  0.10499  0.96478  Biso   1.000  H
  H5520    1.0000 0.94578  0.13401  0.01559  Biso   1.000  H
  C3237    1.0000 0.93204  0.35796  0.87734  Biso   1.000  C
  C3238    1.0000 0.85794  0.37732  0.93204  Biso   1.000  C
  C3239    1.0000 0.93204  0.35796  0.87730  Biso   1.000  C
  C3240    1.0000 0.85798  0.37732  0.93204  Biso   1.000  C
  C3241    1.0000 0.06793  0.64200  0.87734  Biso   1.000  C
  C3242    1.0000 0.08893  0.70246  0.95351  Biso   1.000  C
  C3243    1.0000 0.06793  0.64200  0.87730  Biso   1.000  C
  C3244    1.0000 0.08889  0.70246  0.95351  Biso   1.000  C
  C3245    1.0000 0.04645  0.58891  0.79752  Biso   1.000  C
  C3246    1.0000 0.79752  0.54647  0.08893  Biso   1.000  C
  C3247    1.0000 0.79752  0.54647  0.08889  Biso   1.000  C
  C3248    1.0000 0.85794  0.62264  0.06793  Biso   1.000  C
  C3249    1.0000 0.85798  0.62264  0.06793  Biso   1.000  C
  C3250    1.0000 0.91107  0.70246  0.04645  Biso   1.000  C
  C3251    1.0000 0.92018  0.40112  0.84589  Biso   1.000  C
  H5521    1.0000 0.96160  0.33668  0.86921  Biso   1.000  H
  H5522    1.0000 0.96160  0.33668  0.86917  Biso   1.000  H
  H5523    1.0000 0.83666  0.36919  0.96160  Biso   1.000  H
  C3252    1.0000 0.84589  0.42020  0.90110  Biso   1.000  C
  H5524    1.0000 0.03840  0.66328  0.86921  Biso   1.000  H
  H5525    1.0000 0.03840  0.66328  0.86917  Biso   1.000  H
  H5526    1.0000 0.03836  0.66328  0.86921  Biso   1.000  H
  H5527    1.0000 0.03836  0.66328  0.86917  Biso   1.000  H
  H5528    1.0000 0.10491  0.69689  0.98850  Biso   1.000  H
  H5529    1.0000 0.10691  0.73269  0.93706  Biso   1.000  H
  N404     1.0000 0.03365  0.71573  0.96062  Biso   1.000  N
  H5530    1.0000 0.10691  0.73269  0.93710  Biso   1.000  H
  N405     1.0000 0.03365  0.71573  0.96058  Biso   1.000  N
  H5531    1.0000 0.10487  0.69689  0.98850  Biso   1.000  H
  H5532    1.0000 0.10688  0.73269  0.93706  Biso   1.000  H
  H5533    1.0000 0.10688  0.73269  0.93710  Biso   1.000  H
  N406     1.0000 0.03938  0.53367  0.78425  Biso   1.000  N
  H5534    1.0000 0.01150  0.60489  0.80309  Biso   1.000  H
  H5535    1.0000 0.06290  0.60689  0.76725  Biso   1.000  H
  H5536    1.0000 0.06290  0.60689  0.76729  Biso   1.000  H
  H5537    1.0000 0.01146  0.60489  0.80309  Biso   1.000  H
  H5538    1.0000 0.06286  0.60689  0.76725  Biso   1.000  H
  H5539    1.0000 0.06286  0.60689  0.76729  Biso   1.000  H
  N407     1.0000 0.78425  0.53940  0.03365  Biso   1.000  N
  H5540    1.0000 0.80309  0.51148  0.10491  Biso   1.000  H
  H5541    1.0000 0.76725  0.56288  0.10691  Biso   1.000  H
  H5542    1.0000 0.80309  0.51148  0.10487  Biso   1.000  H
  H5543    1.0000 0.76725  0.56288  0.10688  Biso   1.000  H
  H5544    1.0000 0.76729  0.56288  0.10691  Biso   1.000  H
  H5545    1.0000 0.76729  0.56288  0.10688  Biso   1.000  H
  H5546    1.0000 0.83666  0.63081  0.03840  Biso   1.000  H
  H5547    1.0000 0.83666  0.63081  0.03836  Biso   1.000  H
  H5548    1.0000 0.89509  0.69689  0.01150  Biso   1.000  H
  H5549    1.0000 0.89305  0.73269  0.06290  Biso   1.000  H
  N408     1.0000 0.96631  0.71573  0.03938  Biso   1.000  N
  H5550    1.0000 0.89509  0.69689  0.01146  Biso   1.000  H
  H5551    1.0000 0.89305  0.73269  0.06286  Biso   1.000  H
  H5552    1.0000 0.89309  0.73269  0.06290  Biso   1.000  H
  H5553    1.0000 0.89309  0.73269  0.06286  Biso   1.000  H
  C3253    1.0000 0.87734  0.43205  0.85794  Biso   1.000  C
  C3254    1.0000 0.95351  0.41109  0.79752  Biso   1.000  C
  C3255    1.0000 0.87734  0.43205  0.85798  Biso   1.000  C
  C3256    1.0000 0.87730  0.43205  0.85794  Biso   1.000  C
  C3257    1.0000 0.87730  0.43205  0.85798  Biso   1.000  C
  C3258    1.0000 0.79752  0.45353  0.91107  Biso   1.000  C
  C3259    1.0000 0.02776  0.76520  0.98854  Biso   1.000  C
  C3260    1.0000 0.02776  0.76520  0.98850  Biso   1.000  C
  H5554    1.0000 0.02120  0.68530  0.97106  Biso   1.000  H
  C3261    1.0000 0.00000  0.67710  0.00000  Biso   1.000  C
  C3262    1.0000 0.00000  0.49998  0.82292  Biso   1.000  C
  C3263    1.0000 0.00000  0.49998  0.82288  Biso   1.000  C
  C3264    1.0000 0.01146  0.52778  0.73474  Biso   1.000  C
  H5555    1.0000 0.02890  0.52118  0.81468  Biso   1.000  H
  C3265    1.0000 0.82292  0.49998  0.00000  Biso   1.000  C
  C3266    1.0000 0.82288  0.49998  0.00000  Biso   1.000  C
  C3267    1.0000 0.73474  0.51145  0.02776  Biso   1.000  C
  H5556    1.0000 0.81468  0.52888  0.02120  Biso   1.000  H
  C3268    1.0000 0.97220  0.76520  0.01146  Biso   1.000  C
  H5557    1.0000 0.97880  0.68530  0.02890  Biso   1.000  H
  H5558    1.0000 0.86921  0.46158  0.83666  Biso   1.000  H
  H5559    1.0000 0.86917  0.46158  0.83666  Biso   1.000  H
  H5560    1.0000 0.98850  0.39511  0.80309  Biso   1.000  H
  H5561    1.0000 0.93706  0.39311  0.76725  Biso   1.000  H
  N409     1.0000 0.96062  0.46633  0.78425  Biso   1.000  N
  H5562    1.0000 0.93706  0.39311  0.76729  Biso   1.000  H
  H5563    1.0000 0.93710  0.39311  0.76725  Biso   1.000  H
  N410     1.0000 0.96058  0.46633  0.78425  Biso   1.000  N
  H5564    1.0000 0.93710  0.39311  0.76729  Biso   1.000  H
  H5565    1.0000 0.80309  0.48848  0.89509  Biso   1.000  H
  H5566    1.0000 0.76725  0.43708  0.89305  Biso   1.000  H
  N411     1.0000 0.78425  0.46060  0.96631  Biso   1.000  N
  H5567    1.0000 0.76725  0.43708  0.89309  Biso   1.000  H
  H5568    1.0000 0.76729  0.43708  0.89305  Biso   1.000  H
  H5569    1.0000 0.76729  0.43708  0.89309  Biso   1.000  H
  C3269    1.0000 0.03632  0.81397  0.95508  Biso   1.000  C
  H5570    1.0000 0.05352  0.76587  0.01822  Biso   1.000  H
  H5571    1.0000 0.05352  0.76587  0.01818  Biso   1.000  H
  H5572    1.0000 0.05348  0.76587  0.01822  Biso   1.000  H
  H5573    1.0000 0.05348  0.76587  0.01818  Biso   1.000  H
  C3270    1.0000 0.96678  0.64270  0.96435  Biso   1.000  C
  C3271    1.0000 0.96678  0.64270  0.96439  Biso   1.000  C
  C3272    1.0000 0.03322  0.64270  0.03561  Biso   1.000  C
  C3273    1.0000 0.03322  0.64270  0.03557  Biso   1.000  C
  C3274    1.0000 0.03318  0.64270  0.03561  Biso   1.000  C
  C3275    1.0000 0.03318  0.64270  0.03557  Biso   1.000  C
  H5574    1.0000 0.97106  0.47878  0.81468  Biso   1.000  H
  C3276    1.0000 0.96435  0.53320  0.85732  Biso   1.000  C
  C3277    1.0000 0.96435  0.53320  0.85728  Biso   1.000  C
  C3278    1.0000 0.96439  0.53320  0.85732  Biso   1.000  C
  C3279    1.0000 0.96439  0.53320  0.85728  Biso   1.000  C
  C3280    1.0000 0.03561  0.46680  0.85732  Biso   1.000  C
  C3281    1.0000 0.03561  0.46680  0.85728  Biso   1.000  C
  C3282    1.0000 0.03557  0.46680  0.85732  Biso   1.000  C
  C3283    1.0000 0.03557  0.46680  0.85728  Biso   1.000  C
  C3284    1.0000 0.98854  0.47222  0.73474  Biso   1.000  C
  C3285    1.0000 0.98850  0.47222  0.73474  Biso   1.000  C
  H5575    1.0000 0.98178  0.55350  0.73411  Biso   1.000  H
  H5576    1.0000 0.98178  0.55350  0.73407  Biso   1.000  H
  C3286    1.0000 0.04492  0.53630  0.68601  Biso   1.000  C
  C3287    1.0000 0.04488  0.53630  0.68601  Biso   1.000  C
  H5577    1.0000 0.81468  0.47108  0.97880  Biso   1.000  H
  C3288    1.0000 0.85732  0.53559  0.96678  Biso   1.000  C
  C3289    1.0000 0.85728  0.53559  0.96678  Biso   1.000  C
  C3290    1.0000 0.85732  0.46441  0.03322  Biso   1.000  C
  C3291    1.0000 0.85732  0.46441  0.03318  Biso   1.000  C
  C3292    1.0000 0.85728  0.46441  0.03322  Biso   1.000  C
  C3293    1.0000 0.85728  0.46441  0.03318  Biso   1.000  C
  C3294    1.0000 0.73474  0.48852  0.97220  Biso   1.000  C
  C3295    1.0000 0.68601  0.54490  0.03632  Biso   1.000  C
  H5578    1.0000 0.73411  0.48180  0.05352  Biso   1.000  H
  H5579    1.0000 0.73411  0.48180  0.05348  Biso   1.000  H
  H5580    1.0000 0.73407  0.48180  0.05352  Biso   1.000  H
  H5581    1.0000 0.73407  0.48180  0.05348  Biso   1.000  H
  H5582    1.0000 0.94644  0.76587  0.98178  Biso   1.000  H
  H5583    1.0000 0.94648  0.76587  0.98178  Biso   1.000  H
  C3296    1.0000 0.96368  0.81397  0.04492  Biso   1.000  C
  C3297    1.0000 0.96368  0.81397  0.04488  Biso   1.000  C
  C3298    1.0000 0.96364  0.81397  0.04492  Biso   1.000  C
  C3299    1.0000 0.96364  0.81397  0.04488  Biso   1.000  C
  H5584    1.0000 0.01182  0.81350  0.92485  Biso   1.000  H
  H5585    1.0000 0.07260  0.81397  0.94118  Biso   1.000  H
  C3300    1.0000 0.02729  0.86380  0.98763  Biso   1.000  C
  H5586    1.0000 0.01182  0.81350  0.92489  Biso   1.000  H
  C3301    1.0000 0.02729  0.86380  0.98759  Biso   1.000  C
  H5587    1.0000 0.01178  0.81350  0.92485  Biso   1.000  H
  C3302    1.0000 0.02725  0.86380  0.98763  Biso   1.000  C
  H5588    1.0000 0.01178  0.81350  0.92489  Biso   1.000  H
  C3303    1.0000 0.02725  0.86380  0.98759  Biso   1.000  C
  H5589    1.0000 0.95088  0.61428  0.98500  Biso   1.000  H
  H5590    1.0000 0.98901  0.62747  0.93675  Biso   1.000  H
  H5591    1.0000 0.95088  0.61428  0.98496  Biso   1.000  H
  H5592    1.0000 0.98901  0.62747  0.93679  Biso   1.000  H
  H5593    1.0000 0.98897  0.62747  0.93675  Biso   1.000  H
  H5594    1.0000 0.98897  0.62747  0.93679  Biso   1.000  H
  H5595    1.0000 0.93898  0.66391  0.94829  Biso   1.000  H
  H5596    1.0000 0.04912  0.61428  0.01500  Biso   1.000  H
  H5597    1.0000 0.01099  0.62747  0.06321  Biso   1.000  H
  H5598    1.0000 0.01099  0.62747  0.06317  Biso   1.000  H
  H5599    1.0000 0.04908  0.61428  0.01500  Biso   1.000  H
  H5600    1.0000 0.06098  0.66391  0.05171  Biso   1.000  H
  H5601    1.0000 0.98500  0.54910  0.88570  Biso   1.000  H
  H5602    1.0000 0.93675  0.51097  0.87251  Biso   1.000  H
  H5603    1.0000 0.98500  0.54910  0.88566  Biso   1.000  H
  H5604    1.0000 0.93675  0.51097  0.87247  Biso   1.000  H
  H5605    1.0000 0.98496  0.54910  0.88570  Biso   1.000  H
  H5606    1.0000 0.93679  0.51097  0.87251  Biso   1.000  H
  H5607    1.0000 0.98496  0.54910  0.88566  Biso   1.000  H
  H5608    1.0000 0.93679  0.51097  0.87247  Biso   1.000  H
  H5609    1.0000 0.94829  0.56100  0.83608  Biso   1.000  H
  H5610    1.0000 0.01500  0.45090  0.88570  Biso   1.000  H
  H5611    1.0000 0.06321  0.48899  0.87251  Biso   1.000  H
  H5612    1.0000 0.01500  0.45090  0.88566  Biso   1.000  H
  H5613    1.0000 0.06321  0.48899  0.87247  Biso   1.000  H
  H5614    1.0000 0.06317  0.48899  0.87251  Biso   1.000  H
  H5615    1.0000 0.06317  0.48899  0.87247  Biso   1.000  H
  H5616    1.0000 0.05171  0.43900  0.83608  Biso   1.000  H
  C3304    1.0000 0.95508  0.46366  0.68601  Biso   1.000  C
  H5617    1.0000 0.01822  0.44650  0.73411  Biso   1.000  H
  H5618    1.0000 0.01822  0.44650  0.73407  Biso   1.000  H
  H5619    1.0000 0.01818  0.44650  0.73411  Biso   1.000  H
  H5620    1.0000 0.01818  0.44650  0.73407  Biso   1.000  H
  C3305    1.0000 0.01237  0.52727  0.63619  Biso   1.000  C
  H5621    1.0000 0.07511  0.51180  0.68648  Biso   1.000  H
  H5622    1.0000 0.05882  0.57258  0.68601  Biso   1.000  H
  H5623    1.0000 0.05882  0.57258  0.68597  Biso   1.000  H
  H5624    1.0000 0.07507  0.51180  0.68648  Biso   1.000  H
  H5625    1.0000 0.88570  0.51498  0.95088  Biso   1.000  H
  H5626    1.0000 0.87251  0.56319  0.98901  Biso   1.000  H
  H5627    1.0000 0.87251  0.56319  0.98897  Biso   1.000  H
  H5628    1.0000 0.88566  0.51498  0.95088  Biso   1.000  H
  H5629    1.0000 0.87247  0.56319  0.98901  Biso   1.000  H
  H5630    1.0000 0.87247  0.56319  0.98897  Biso   1.000  H
  H5631    1.0000 0.83608  0.55169  0.93898  Biso   1.000  H
  H5632    1.0000 0.88570  0.48498  0.04912  Biso   1.000  H
  H5633    1.0000 0.87251  0.43681  0.01099  Biso   1.000  H
  H5634    1.0000 0.88570  0.48498  0.04908  Biso   1.000  H
  H5635    1.0000 0.88566  0.48498  0.04912  Biso   1.000  H
  H5636    1.0000 0.87247  0.43681  0.01099  Biso   1.000  H
  H5637    1.0000 0.88566  0.48498  0.04908  Biso   1.000  H
  H5638    1.0000 0.83608  0.44831  0.06098  Biso   1.000  H
  C3306    1.0000 0.68601  0.45510  0.96368  Biso   1.000  C
  H5639    1.0000 0.73411  0.51820  0.94644  Biso   1.000  H
  C3307    1.0000 0.68601  0.45510  0.96364  Biso   1.000  C
  H5640    1.0000 0.73411  0.51820  0.94648  Biso   1.000  H
  H5641    1.0000 0.73407  0.51820  0.94644  Biso   1.000  H
  H5642    1.0000 0.73407  0.51820  0.94648  Biso   1.000  H
  C3308    1.0000 0.63619  0.51239  0.02729  Biso   1.000  C
  C3309    1.0000 0.63619  0.51239  0.02725  Biso   1.000  C
  H5643    1.0000 0.68648  0.57509  0.01182  Biso   1.000  H
  H5644    1.0000 0.68601  0.55880  0.07260  Biso   1.000  H
  H5645    1.0000 0.68648  0.57509  0.01178  Biso   1.000  H
  H5646    1.0000 0.68597  0.55880  0.07260  Biso   1.000  H
  H5647    1.0000 0.98818  0.81350  0.07511  Biso   1.000  H
  H5648    1.0000 0.92736  0.81397  0.05882  Biso   1.000  H
  C3310    1.0000 0.97267  0.86380  0.01237  Biso   1.000  C
  H5649    1.0000 0.98818  0.81350  0.07507  Biso   1.000  H
  C3311    1.0000 0.97271  0.86380  0.01237  Biso   1.000  C
  H5650    1.0000 0.03110  0.89497  0.96482  Biso   1.000  H
  H5651    1.0000 0.03110  0.89497  0.96478  Biso   1.000  H
  H5652    1.0000 0.05418  0.86599  0.01559  Biso   1.000  H
  H5653    1.0000 0.92485  0.48820  0.68648  Biso   1.000  H
  H5654    1.0000 0.94118  0.42738  0.68601  Biso   1.000  H
  C3312    1.0000 0.98763  0.47273  0.63619  Biso   1.000  C
  H5655    1.0000 0.94118  0.42738  0.68597  Biso   1.000  H
  H5656    1.0000 0.92489  0.48820  0.68648  Biso   1.000  H
  C3313    1.0000 0.98759  0.47273  0.63619  Biso   1.000  C
  H5657    1.0000 0.98441  0.55420  0.63403  Biso   1.000  H
  H5658    1.0000 0.98441  0.55420  0.63399  Biso   1.000  H
  H5659    1.0000 0.98437  0.55420  0.63403  Biso   1.000  H
  H5660    1.0000 0.98437  0.55420  0.63399  Biso   1.000  H
  H5661    1.0000 0.03518  0.53108  0.60501  Biso   1.000  H
  H5662    1.0000 0.03518  0.53108  0.60497  Biso   1.000  H
  H5663    1.0000 0.68648  0.42491  0.98818  Biso   1.000  H
  H5664    1.0000 0.68601  0.44120  0.92736  Biso   1.000  H
  C3314    1.0000 0.63619  0.48761  0.97267  Biso   1.000  C
  C3315    1.0000 0.63619  0.48761  0.97271  Biso   1.000  C
  H5665    1.0000 0.68597  0.44120  0.92736  Biso   1.000  H
  H5666    1.0000 0.63403  0.48439  0.05418  Biso   1.000  H
  H5667    1.0000 0.60501  0.53520  0.03110  Biso   1.000  H
  H5668    1.0000 0.63399  0.48439  0.05418  Biso   1.000  H
  H5669    1.0000 0.60497  0.53520  0.03110  Biso   1.000  H
  H5670    1.0000 0.94578  0.86599  0.98441  Biso   1.000  H
  H5671    1.0000 0.94578  0.86599  0.98437  Biso   1.000  H
  H5672    1.0000 0.96886  0.89497  0.03518  Biso   1.000  H
  H5673    1.0000 0.96482  0.46888  0.60501  Biso   1.000  H
  H5674    1.0000 0.96482  0.46888  0.60497  Biso   1.000  H
  H5675    1.0000 0.96478  0.46888  0.60501  Biso   1.000  H
  H5676    1.0000 0.96478  0.46888  0.60497  Biso   1.000  H
  H5677    1.0000 0.01559  0.44580  0.63403  Biso   1.000  H
  H5678    1.0000 0.01559  0.44580  0.63399  Biso   1.000  H
  H5679    1.0000 0.63403  0.51561  0.94578  Biso   1.000  H
  H5680    1.0000 0.60501  0.46480  0.96886  Biso   1.000  H
  H5681    1.0000 0.63399  0.51561  0.94578  Biso   1.000  H
  H5682    1.0000 0.60497  0.46480  0.96886  Biso   1.000  H
  C3316    1.0000 0.76238  0.38619  0.72272  Biso   1.000  C
  C3317    1.0000 0.79489  0.43602  0.71365  Biso   1.000  C
  H5683    1.0000 0.73438  0.38400  0.69579  Biso   1.000  H
  H5684    1.0000 0.78519  0.35498  0.71887  Biso   1.000  H
  C3318    1.0000 0.73760  0.38619  0.77726  Biso   1.000  C
  C3319    1.0000 0.76144  0.48475  0.72221  Biso   1.000  C
  H5685    1.0000 0.82508  0.43649  0.73819  Biso   1.000  H
  H5686    1.0000 0.80879  0.43598  0.67737  Biso   1.000  H
  C3320    1.0000 0.70509  0.43602  0.78629  Biso   1.000  C
  H5687    1.0000 0.76560  0.38400  0.80419  Biso   1.000  H
  H5688    1.0000 0.71479  0.35498  0.78107  Biso   1.000  H
  H5689    1.0000 0.73179  0.48408  0.69649  Biso   1.000  H
  N412     1.0000 0.78939  0.53426  0.71632  Biso   1.000  N
  C3321    1.0000 0.73851  0.48475  0.77777  Biso   1.000  C
  H5690    1.0000 0.67490  0.43649  0.76179  Biso   1.000  H
  H5691    1.0000 0.69119  0.43598  0.82257  Biso   1.000  H
  C3322    1.0000 0.79646  0.54753  0.66108  Biso   1.000  C
  C3323    1.0000 0.74997  0.57289  0.74997  Biso   1.000  C
  H5692    1.0000 0.77887  0.56469  0.72877  Biso   1.000  H
  H5693    1.0000 0.76819  0.48408  0.80349  Biso   1.000  H
  N413     1.0000 0.71059  0.53426  0.78366  Biso   1.000  N
  C3324    1.0000 0.82979  0.59590  0.65111  Biso   1.000  C
  H5694    1.0000 0.76147  0.55310  0.64510  Biso   1.000  H
  H5695    1.0000 0.81287  0.51730  0.64310  Biso   1.000  H
  C3325    1.0000 0.78558  0.60729  0.78319  Biso   1.000  C
  C3326    1.0000 0.71440  0.60729  0.71679  Biso   1.000  C
  H5696    1.0000 0.72107  0.56469  0.77117  Biso   1.000  H
  C3327    1.0000 0.70352  0.54753  0.83890  Biso   1.000  C
  C3328    1.0000 0.87267  0.60799  0.68204  Biso   1.000  C
  C3329    1.0000 0.81794  0.62731  0.60799  Biso   1.000  C
  H5697    1.0000 0.76497  0.63567  0.79909  Biso   1.000  H
  H5698    1.0000 0.81318  0.62248  0.76100  Biso   1.000  H
  H5699    1.0000 0.80168  0.58609  0.81099  Biso   1.000  H
  H5700    1.0000 0.73497  0.63567  0.70089  Biso   1.000  H
  H5701    1.0000 0.68680  0.62248  0.73898  Biso   1.000  H
  H5702    1.0000 0.69830  0.58609  0.68899  Biso   1.000  H
  C3330    1.0000 0.67019  0.59590  0.84888  Biso   1.000  C
  H5703    1.0000 0.73847  0.55310  0.85488  Biso   1.000  H
  H5704    1.0000 0.68707  0.51730  0.85688  Biso   1.000  H
  C3331    1.0000 0.90408  0.65111  0.67019  Biso   1.000  C
  H5705    1.0000 0.88080  0.58667  0.71157  Biso   1.000  H
  H5706    1.0000 0.78837  0.61918  0.58667  Biso   1.000  H
  C3332    1.0000 0.84888  0.67019  0.59590  Biso   1.000  C
  C3333    1.0000 0.62731  0.60799  0.81794  Biso   1.000  C
  C3334    1.0000 0.68204  0.62731  0.89199  Biso   1.000  C
  C3335    1.0000 0.89199  0.68204  0.62731  Biso   1.000  C
  C3336    1.0000 0.95245  0.66108  0.70352  Biso   1.000  C
  C3337    1.0000 0.83890  0.70352  0.54753  Biso   1.000  C
  H5707    1.0000 0.61918  0.58667  0.78837  Biso   1.000  H
  C3338    1.0000 0.59590  0.65111  0.82979  Biso   1.000  C
  H5708    1.0000 0.71157  0.61918  0.91327  Biso   1.000  H
  C3339    1.0000 0.65111  0.67019  0.90408  Biso   1.000  C
  H5709    1.0000 0.91327  0.71157  0.61918  Biso   1.000  H
  H5710    1.0000 0.94688  0.64510  0.73847  Biso   1.000  H
  H5711    1.0000 0.98268  0.64310  0.68707  Biso   1.000  H
  N414     1.0000 0.96572  0.71632  0.71059  Biso   1.000  N
  H5712    1.0000 0.85488  0.73847  0.55310  Biso   1.000  H
  H5713    1.0000 0.85688  0.68707  0.51730  Biso   1.000  H
  N415     1.0000 0.78366  0.71059  0.53426  Biso   1.000  N
  C3340    1.0000 0.60799  0.68204  0.87267  Biso   1.000  C
  C3341    1.0000 0.54753  0.66108  0.79646  Biso   1.000  C
  C3342    1.0000 0.66108  0.70352  0.95245  Biso   1.000  C
  C3343    1.0000 0.92709  0.74997  0.74997  Biso   1.000  C
  H5714    1.0000 0.93529  0.72877  0.72107  Biso   1.000  H
  C3344    1.0000 0.01519  0.72221  0.73851  Biso   1.000  C
  C3345    1.0000 0.77777  0.73851  0.48475  Biso   1.000  C
  C3346    1.0000 0.74997  0.74997  0.57289  Biso   1.000  C
  H5715    1.0000 0.77117  0.72107  0.56469  Biso   1.000  H
  H5716    1.0000 0.58667  0.71157  0.88080  Biso   1.000  H
  H5717    1.0000 0.55310  0.64510  0.76147  Biso   1.000  H
  H5718    1.0000 0.51730  0.64310  0.81287  Biso   1.000  H
  N416     1.0000 0.53426  0.71632  0.78939  Biso   1.000  N
  H5719    1.0000 0.64510  0.73847  0.94688  Biso   1.000  H
  H5720    1.0000 0.64310  0.68707  0.98268  Biso   1.000  H
  N417     1.0000 0.71632  0.71059  0.96572  Biso   1.000  N
  N418     1.0000 0.96572  0.78366  0.78939  Biso   1.000  N
  C3347    1.0000 0.89269  0.71679  0.78558  Biso   1.000  C
  C3348    1.0000 0.89269  0.78319  0.71440  Biso   1.000  C
  H5721    1.0000 0.93529  0.77117  0.77887  Biso   1.000  H
  C3349    1.0000 0.01519  0.77777  0.76144  Biso   1.000  C
  C3350    1.0000 0.06396  0.71365  0.70509  Biso   1.000  C
  H5722    1.0000 0.01586  0.69649  0.76819  Biso   1.000  H
  C3351    1.0000 0.78629  0.70509  0.43602  Biso   1.000  C
  H5723    1.0000 0.80349  0.76819  0.48408  Biso   1.000  H
  C3352    1.0000 0.72221  0.76144  0.48475  Biso   1.000  C
  C3353    1.0000 0.71679  0.71440  0.60729  Biso   1.000  C
  N419     1.0000 0.71632  0.78939  0.53426  Biso   1.000  N
  C3354    1.0000 0.78319  0.78558  0.60729  Biso   1.000  C
  H5724    1.0000 0.72877  0.77887  0.56469  Biso   1.000  H
  C3355    1.0000 0.57289  0.74997  0.74997  Biso   1.000  C
  C3356    1.0000 0.48475  0.72221  0.76144  Biso   1.000  C
  H5725    1.0000 0.56469  0.72877  0.77887  Biso   1.000  H
  C3357    1.0000 0.74997  0.74997  0.92709  Biso   1.000  C
  H5726    1.0000 0.72877  0.72107  0.93529  Biso   1.000  H
  C3358    1.0000 0.72221  0.73851  0.01519  Biso   1.000  C
  C3359    1.0000 0.95245  0.83890  0.79646  Biso   1.000  C
  H5727    1.0000 0.86427  0.70089  0.76497  Biso   1.000  H
  H5728    1.0000 0.87750  0.73898  0.81318  Biso   1.000  H
  H5729    1.0000 0.91390  0.68899  0.80168  Biso   1.000  H
  H5730    1.0000 0.86427  0.79909  0.73497  Biso   1.000  H
  H5731    1.0000 0.87750  0.76100  0.68680  Biso   1.000  H
  H5732    1.0000 0.91390  0.81099  0.69830  Biso   1.000  H
  C3360    1.0000 0.06396  0.78629  0.79489  Biso   1.000  C
  H5733    1.0000 0.01586  0.80349  0.73179  Biso   1.000  H
  H5734    1.0000 0.06349  0.73819  0.67490  Biso   1.000  H
  H5735    1.0000 0.06396  0.67737  0.69119  Biso   1.000  H
  C3361    1.0000 0.11379  0.72272  0.73760  Biso   1.000  C
  H5736    1.0000 0.76179  0.67490  0.43649  Biso   1.000  H
  H5737    1.0000 0.82257  0.69119  0.43598  Biso   1.000  H
  C3362    1.0000 0.77726  0.73760  0.38619  Biso   1.000  C
  C3363    1.0000 0.71365  0.79489  0.43602  Biso   1.000  C
  H5738    1.0000 0.69649  0.73179  0.48408  Biso   1.000  H
  H5739    1.0000 0.70089  0.73497  0.63567  Biso   1.000  H
  H5740    1.0000 0.73898  0.68680  0.62248  Biso   1.000  H
  H5741    1.0000 0.68899  0.69830  0.58609  Biso   1.000  H
  C3364    1.0000 0.66108  0.79646  0.54753  Biso   1.000  C
  H5742    1.0000 0.79909  0.76497  0.63567  Biso   1.000  H
  H5743    1.0000 0.76100  0.81318  0.62248  Biso   1.000  H
  H5744    1.0000 0.81099  0.80168  0.58609  Biso   1.000  H
  N420     1.0000 0.53426  0.78366  0.71059  Biso   1.000  N
  C3365    1.0000 0.60729  0.71679  0.71440  Biso   1.000  C
  C3366    1.0000 0.60729  0.78319  0.78558  Biso   1.000  C
  H5745    1.0000 0.56469  0.77117  0.72107  Biso   1.000  H
  C3367    1.0000 0.48475  0.77777  0.73851  Biso   1.000  C
  C3368    1.0000 0.43602  0.71365  0.79489  Biso   1.000  C
  H5746    1.0000 0.48408  0.69649  0.73179  Biso   1.000  H
  N421     1.0000 0.78366  0.78939  0.96572  Biso   1.000  N
  C3369    1.0000 0.71679  0.78558  0.89269  Biso   1.000  C
  C3370    1.0000 0.78319  0.71440  0.89269  Biso   1.000  C
  H5747    1.0000 0.77117  0.77887  0.93529  Biso   1.000  H
  C3371    1.0000 0.77777  0.76144  0.01519  Biso   1.000  C
  C3372    1.0000 0.71365  0.70509  0.06396  Biso   1.000  C
  H5748    1.0000 0.69649  0.76819  0.01586  Biso   1.000  H
  C3373    1.0000 0.90408  0.84888  0.82979  Biso   1.000  C
  H5749    1.0000 0.94688  0.85488  0.76147  Biso   1.000  H
  H5750    1.0000 0.98268  0.85688  0.81287  Biso   1.000  H
  H5751    1.0000 0.06349  0.76179  0.82508  Biso   1.000  H
  H5752    1.0000 0.06396  0.82257  0.80879  Biso   1.000  H
  C3374    1.0000 0.11379  0.77726  0.76238  Biso   1.000  C
  H5753    1.0000 0.11598  0.69579  0.76560  Biso   1.000  H
  H5754    1.0000 0.14496  0.71887  0.71479  Biso   1.000  H
  H5755    1.0000 0.80419  0.76560  0.38400  Biso   1.000  H
  H5756    1.0000 0.78107  0.71479  0.35498  Biso   1.000  H
  C3375    1.0000 0.72272  0.76238  0.38619  Biso   1.000  C
  H5757    1.0000 0.73819  0.82508  0.43649  Biso   1.000  H
  H5758    1.0000 0.67737  0.80879  0.43598  Biso   1.000  H
  C3376    1.0000 0.65111  0.82979  0.59590  Biso   1.000  C
  H5759    1.0000 0.64510  0.76147  0.55310  Biso   1.000  H
  H5760    1.0000 0.64310  0.81287  0.51730  Biso   1.000  H
  C3377    1.0000 0.54753  0.83890  0.70352  Biso   1.000  C
  H5761    1.0000 0.63567  0.70089  0.73497  Biso   1.000  H
  H5762    1.0000 0.62248  0.73898  0.68680  Biso   1.000  H
  H5763    1.0000 0.58609  0.68899  0.69830  Biso   1.000  H
  H5764    1.0000 0.63567  0.79909  0.76497  Biso   1.000  H
  H5765    1.0000 0.62248  0.76100  0.81318  Biso   1.000  H
  H5766    1.0000 0.58609  0.81099  0.80168  Biso   1.000  H
  C3378    1.0000 0.43602  0.78629  0.70509  Biso   1.000  C
  H5767    1.0000 0.48408  0.80349  0.76819  Biso   1.000  H
  H5768    1.0000 0.43649  0.73819  0.82508  Biso   1.000  H
  H5769    1.0000 0.43598  0.67737  0.80879  Biso   1.000  H
  C3379    1.0000 0.38619  0.72272  0.76238  Biso   1.000  C
  C3380    1.0000 0.83890  0.79646  0.95245  Biso   1.000  C
  H5770    1.0000 0.70089  0.76497  0.86427  Biso   1.000  H
  H5771    1.0000 0.73898  0.81318  0.87750  Biso   1.000  H
  H5772    1.0000 0.68899  0.80168  0.91390  Biso   1.000  H
  H5773    1.0000 0.79909  0.73497  0.86427  Biso   1.000  H
  H5774    1.0000 0.76100  0.68680  0.87750  Biso   1.000  H
  H5775    1.0000 0.81099  0.69830  0.91390  Biso   1.000  H
  C3381    1.0000 0.78629  0.79489  0.06396  Biso   1.000  C
  H5776    1.0000 0.80349  0.73179  0.01586  Biso   1.000  H
  H5777    1.0000 0.73819  0.67490  0.06349  Biso   1.000  H
  H5778    1.0000 0.67737  0.69119  0.06396  Biso   1.000  H
  C3382    1.0000 0.72272  0.73760  0.11379  Biso   1.000  C
  C3383    1.0000 0.87267  0.89199  0.81794  Biso   1.000  C
  C3384    1.0000 0.89199  0.81794  0.87267  Biso   1.000  C
  H5779    1.0000 0.11598  0.80419  0.73438  Biso   1.000  H
  H5780    1.0000 0.14496  0.78107  0.78519  Biso   1.000  H
  H5781    1.0000 0.69579  0.73438  0.38400  Biso   1.000  H
  H5782    1.0000 0.71887  0.78519  0.35498  Biso   1.000  H
  C3385    1.0000 0.60799  0.81794  0.62731  Biso   1.000  C
  C3386    1.0000 0.68204  0.87267  0.60799  Biso   1.000  C
  C3387    1.0000 0.59590  0.84888  0.67019  Biso   1.000  C
  H5783    1.0000 0.55310  0.85488  0.73847  Biso   1.000  H
  H5784    1.0000 0.51730  0.85688  0.68707  Biso   1.000  H
  H5785    1.0000 0.43649  0.76179  0.67490  Biso   1.000  H
  H5786    1.0000 0.43598  0.82257  0.69119  Biso   1.000  H
  C3388    1.0000 0.38619  0.77726  0.73760  Biso   1.000  C
  H5787    1.0000 0.38400  0.69579  0.73438  Biso   1.000  H
  H5788    1.0000 0.35498  0.71887  0.78519  Biso   1.000  H
  C3389    1.0000 0.84888  0.82979  0.90408  Biso   1.000  C
  H5789    1.0000 0.85488  0.76147  0.94688  Biso   1.000  H
  H5790    1.0000 0.85688  0.81287  0.98268  Biso   1.000  H
  H5791    1.0000 0.76179  0.82508  0.06349  Biso   1.000  H
  H5792    1.0000 0.82257  0.80879  0.06396  Biso   1.000  H
  C3390    1.0000 0.77726  0.76238  0.11379  Biso   1.000  C
  H5793    1.0000 0.69579  0.76560  0.11598  Biso   1.000  H
  H5794    1.0000 0.71887  0.71479  0.14496  Biso   1.000  H
  H5795    1.0000 0.88080  0.91327  0.78837  Biso   1.000  H
  C3391    1.0000 0.82979  0.90408  0.84888  Biso   1.000  C
  H5796    1.0000 0.91327  0.78837  0.88080  Biso   1.000  H
  H5797    1.0000 0.58667  0.78837  0.61918  Biso   1.000  H
  C3392    1.0000 0.67019  0.90408  0.65111  Biso   1.000  C
  H5798    1.0000 0.71157  0.88080  0.58667  Biso   1.000  H
  C3393    1.0000 0.62731  0.89199  0.68204  Biso   1.000  C
  H5799    1.0000 0.38400  0.80419  0.76560  Biso   1.000  H
  H5800    1.0000 0.35498  0.78107  0.71479  Biso   1.000  H
  C3394    1.0000 0.81794  0.87267  0.89199  Biso   1.000  C
  H5801    1.0000 0.80419  0.73438  0.11598  Biso   1.000  H
  H5802    1.0000 0.78107  0.78519  0.14496  Biso   1.000  H
  C3395    1.0000 0.79646  0.95245  0.83890  Biso   1.000  C
  C3396    1.0000 0.70352  0.95245  0.66108  Biso   1.000  C
  H5803    1.0000 0.61918  0.91327  0.71157  Biso   1.000  H
  H5804    1.0000 0.78837  0.88080  0.91327  Biso   1.000  H
  H5805    1.0000 0.76147  0.94688  0.85488  Biso   1.000  H
  H5806    1.0000 0.81287  0.98268  0.85688  Biso   1.000  H
  N422     1.0000 0.78939  0.96572  0.78366  Biso   1.000  N
  H5807    1.0000 0.73847  0.94688  0.64510  Biso   1.000  H
  H5808    1.0000 0.68707  0.98268  0.64310  Biso   1.000  H
  N423     1.0000 0.71059  0.96572  0.71632  Biso   1.000  N
  C3397    1.0000 0.74997  0.92709  0.74997  Biso   1.000  C
  H5809    1.0000 0.77887  0.93529  0.77117  Biso   1.000  H
  C3398    1.0000 0.76144  0.01519  0.77777  Biso   1.000  C
  H5810    1.0000 0.72107  0.93529  0.72877  Biso   1.000  H
  C3399    1.0000 0.73851  0.01519  0.72221  Biso   1.000  C
  C3400    1.0000 0.78558  0.89269  0.71679  Biso   1.000  C
  C3401    1.0000 0.71440  0.89269  0.78319  Biso   1.000  C
  C3402    1.0000 0.79489  0.06396  0.78629  Biso   1.000  C
  H5811    1.0000 0.73179  0.01586  0.80349  Biso   1.000  H
  C3403    1.0000 0.70509  0.06396  0.71365  Biso   1.000  C
  H5812    1.0000 0.76819  0.01586  0.69649  Biso   1.000  H
  H5813    1.0000 0.76497  0.86427  0.70089  Biso   1.000  H
  H5814    1.0000 0.81318  0.87750  0.73898  Biso   1.000  H
  H5815    1.0000 0.80168  0.91390  0.68899  Biso   1.000  H
  H5816    1.0000 0.73497  0.86427  0.79909  Biso   1.000  H
  H5817    1.0000 0.68680  0.87750  0.76100  Biso   1.000  H
  H5818    1.0000 0.69830  0.91390  0.81099  Biso   1.000  H
  H5819    1.0000 0.82508  0.06349  0.76179  Biso   1.000  H
  H5820    1.0000 0.80879  0.06396  0.82257  Biso   1.000  H
  C3404    1.0000 0.76238  0.11379  0.77726  Biso   1.000  C
  H5821    1.0000 0.67490  0.06349  0.73819  Biso   1.000  H
  H5822    1.0000 0.69119  0.06396  0.67737  Biso   1.000  H
  C3405    1.0000 0.73760  0.11379  0.72272  Biso   1.000  C
  H5823    1.0000 0.73438  0.11598  0.80419  Biso   1.000  H
  H5824    1.0000 0.78519  0.14496  0.78107  Biso   1.000  H
  H5825    1.0000 0.76560  0.11598  0.69579  Biso   1.000  H
  H5826    1.0000 0.71479  0.14496  0.71887  Biso   1.000  H
  C3406    1.0000 0.76238  0.38619  0.72272  Biso   1.000  C
  C3407    1.0000 0.79489  0.43602  0.71365  Biso   1.000  C
  H5827    1.0000 0.73438  0.38400  0.69579  Biso   1.000  H
  H5828    1.0000 0.78519  0.35498  0.71887  Biso   1.000  H
  C3408    1.0000 0.73760  0.38619  0.77726  Biso   1.000  C
  C3409    1.0000 0.76144  0.48475  0.72221  Biso   1.000  C
  H5829    1.0000 0.82508  0.43649  0.73819  Biso   1.000  H
  H5830    1.0000 0.80879  0.43598  0.67737  Biso   1.000  H
  C3410    1.0000 0.70509  0.43602  0.78629  Biso   1.000  C
  H5831    1.0000 0.76560  0.38400  0.80419  Biso   1.000  H
  H5832    1.0000 0.71479  0.35498  0.78107  Biso   1.000  H
  N424     1.0000 0.78939  0.53426  0.71632  Biso   1.000  N
  H5833    1.0000 0.73179  0.48408  0.69649  Biso   1.000  H
  C3411    1.0000 0.73851  0.48475  0.77777  Biso   1.000  C
  H5834    1.0000 0.67490  0.43649  0.76179  Biso   1.000  H
  H5835    1.0000 0.69119  0.43598  0.82257  Biso   1.000  H
  C3412    1.0000 0.79646  0.54753  0.66108  Biso   1.000  C
  C3413    1.0000 0.74997  0.57289  0.74997  Biso   1.000  C
  H5836    1.0000 0.77887  0.56469  0.72877  Biso   1.000  H
  N425     1.0000 0.71059  0.53426  0.78366  Biso   1.000  N
  H5837    1.0000 0.76819  0.48408  0.80349  Biso   1.000  H
  C3414    1.0000 0.82979  0.59590  0.65111  Biso   1.000  C
  H5838    1.0000 0.76147  0.55310  0.64510  Biso   1.000  H
  H5839    1.0000 0.81287  0.51730  0.64310  Biso   1.000  H
  C3415    1.0000 0.78558  0.60729  0.78319  Biso   1.000  C
  C3416    1.0000 0.71440  0.60729  0.71679  Biso   1.000  C
  H5840    1.0000 0.72107  0.56469  0.77117  Biso   1.000  H
  C3417    1.0000 0.70352  0.54753  0.83890  Biso   1.000  C
  C3418    1.0000 0.81794  0.62731  0.60799  Biso   1.000  C
  C3419    1.0000 0.87267  0.60799  0.68204  Biso   1.000  C
  H5841    1.0000 0.76497  0.63567  0.79909  Biso   1.000  H
  H5842    1.0000 0.81318  0.62248  0.76100  Biso   1.000  H
  H5843    1.0000 0.80168  0.58609  0.81099  Biso   1.000  H
  H5844    1.0000 0.73497  0.63567  0.70089  Biso   1.000  H
  H5845    1.0000 0.68680  0.62248  0.73898  Biso   1.000  H
  H5846    1.0000 0.69830  0.58609  0.68899  Biso   1.000  H
  H5847    1.0000 0.73847  0.55310  0.85488  Biso   1.000  H
  H5848    1.0000 0.68707  0.51730  0.85688  Biso   1.000  H
  C3420    1.0000 0.67019  0.59590  0.84888  Biso   1.000  C
  C3421    1.0000 0.84888  0.67019  0.59590  Biso   1.000  C
  H5849    1.0000 0.78837  0.61918  0.58667  Biso   1.000  H
  C3422    1.0000 0.90408  0.65111  0.67019  Biso   1.000  C
  H5850    1.0000 0.88080  0.58667  0.71157  Biso   1.000  H
  C3423    1.0000 0.62731  0.60799  0.81794  Biso   1.000  C
  C3424    1.0000 0.68204  0.62731  0.89199  Biso   1.000  C
  C3425    1.0000 0.83890  0.70352  0.54753  Biso   1.000  C
  C3426    1.0000 0.89199  0.68204  0.62731  Biso   1.000  C
  C3427    1.0000 0.95245  0.66108  0.70352  Biso   1.000  C
  H5851    1.0000 0.61918  0.58667  0.78837  Biso   1.000  H
  C3428    1.0000 0.59590  0.65111  0.82979  Biso   1.000  C
  H5852    1.0000 0.71157  0.61918  0.91327  Biso   1.000  H
  C3429    1.0000 0.65111  0.67019  0.90408  Biso   1.000  C
  N426     1.0000 0.78366  0.71059  0.53426  Biso   1.000  N
  H5853    1.0000 0.85488  0.73847  0.55310  Biso   1.000  H
  H5854    1.0000 0.85688  0.68707  0.51730  Biso   1.000  H
  H5855    1.0000 0.91327  0.71157  0.61918  Biso   1.000  H
  H5856    1.0000 0.94688  0.64510  0.73847  Biso   1.000  H
  H5857    1.0000 0.98268  0.64310  0.68707  Biso   1.000  H
  N427     1.0000 0.96572  0.71632  0.71059  Biso   1.000  N
  C3430    1.0000 0.54753  0.66108  0.79646  Biso   1.000  C
  C3431    1.0000 0.60799  0.68204  0.87267  Biso   1.000  C
  C3432    1.0000 0.66108  0.70352  0.95245  Biso   1.000  C
  C3433    1.0000 0.77777  0.73851  0.48475  Biso   1.000  C
  C3434    1.0000 0.74997  0.74997  0.57289  Biso   1.000  C
  H5858    1.0000 0.77117  0.72107  0.56469  Biso   1.000  H
  C3435    1.0000 0.92709  0.74997  0.74997  Biso   1.000  C
  H5859    1.0000 0.93529  0.72877  0.72107  Biso   1.000  H
  C3436    1.0000 0.01519  0.72221  0.73851  Biso   1.000  C
  N428     1.0000 0.53426  0.71632  0.78939  Biso   1.000  N
  H5860    1.0000 0.55310  0.64510  0.76147  Biso   1.000  H
  H5861    1.0000 0.51730  0.64310  0.81287  Biso   1.000  H
  H5862    1.0000 0.58667  0.71157  0.88080  Biso   1.000  H
  H5863    1.0000 0.64510  0.73847  0.94688  Biso   1.000  H
  H5864    1.0000 0.64310  0.68707  0.98268  Biso   1.000  H
  N429     1.0000 0.71632  0.71059  0.96572  Biso   1.000  N
  H5865    1.0000 0.80349  0.76819  0.48408  Biso   1.000  H
  C3437    1.0000 0.78629  0.70509  0.43602  Biso   1.000  C
  C3438    1.0000 0.72221  0.76144  0.48475  Biso   1.000  C
  N430     1.0000 0.71632  0.78939  0.53426  Biso   1.000  N
  C3439    1.0000 0.71679  0.71440  0.60729  Biso   1.000  C
  C3440    1.0000 0.78319  0.78558  0.60729  Biso   1.000  C
  H5866    1.0000 0.72877  0.77887  0.56469  Biso   1.000  H
  N431     1.0000 0.96572  0.78366  0.78939  Biso   1.000  N
  C3441    1.0000 0.89269  0.71679  0.78558  Biso   1.000  C
  C3442    1.0000 0.89269  0.78319  0.71440  Biso   1.000  C
  H5867    1.0000 0.93529  0.77117  0.77887  Biso   1.000  H
  C3443    1.0000 0.01519  0.77777  0.76144  Biso   1.000  C
  C3444    1.0000 0.06396  0.71365  0.70509  Biso   1.000  C
  H5868    1.0000 0.01586  0.69649  0.76819  Biso   1.000  H
  C3445    1.0000 0.57289  0.74997  0.74997  Biso   1.000  C
  C3446    1.0000 0.48475  0.72221  0.76144  Biso   1.000  C
  H5869    1.0000 0.56469  0.72877  0.77887  Biso   1.000  H
  C3447    1.0000 0.74997  0.74997  0.92709  Biso   1.000  C
  H5870    1.0000 0.72877  0.72107  0.93529  Biso   1.000  H
  C3448    1.0000 0.72221  0.73851  0.01519  Biso   1.000  C
  H5871    1.0000 0.76179  0.67490  0.43649  Biso   1.000  H
  H5872    1.0000 0.82257  0.69119  0.43598  Biso   1.000  H
  C3449    1.0000 0.77726  0.73760  0.38619  Biso   1.000  C
  H5873    1.0000 0.69649  0.73179  0.48408  Biso   1.000  H
  C3450    1.0000 0.71365  0.79489  0.43602  Biso   1.000  C
  C3451    1.0000 0.66108  0.79646  0.54753  Biso   1.000  C
  H5874    1.0000 0.70089  0.73497  0.63567  Biso   1.000  H
  H5875    1.0000 0.73898  0.68680  0.62248  Biso   1.000  H
  H5876    1.0000 0.68899  0.69830  0.58609  Biso   1.000  H
  H5877    1.0000 0.79909  0.76497  0.63567  Biso   1.000  H
  H5878    1.0000 0.76100  0.81318  0.62248  Biso   1.000  H
  H5879    1.0000 0.81099  0.80168  0.58609  Biso   1.000  H
  C3452    1.0000 0.95245  0.83890  0.79646  Biso   1.000  C
  H5880    1.0000 0.86427  0.70089  0.76497  Biso   1.000  H
  H5881    1.0000 0.87750  0.73898  0.81318  Biso   1.000  H
  H5882    1.0000 0.91390  0.68899  0.80168  Biso   1.000  H
  H5883    1.0000 0.86427  0.79909  0.73497  Biso   1.000  H
  H5884    1.0000 0.87750  0.76100  0.68680  Biso   1.000  H
  H5885    1.0000 0.91390  0.81099  0.69830  Biso   1.000  H
  C3453    1.0000 0.06396  0.78629  0.79489  Biso   1.000  C
  H5886    1.0000 0.01586  0.80349  0.73179  Biso   1.000  H
  H5887    1.0000 0.06349  0.73819  0.67490  Biso   1.000  H
  H5888    1.0000 0.06396  0.67737  0.69119  Biso   1.000  H
  C3454    1.0000 0.11379  0.72272  0.73760  Biso   1.000  C
  N432     1.0000 0.53426  0.78366  0.71059  Biso   1.000  N
  H5889    1.0000 0.56469  0.77117  0.72107  Biso   1.000  H
  C3455    1.0000 0.60729  0.71679  0.71440  Biso   1.000  C
  C3456    1.0000 0.60729  0.78319  0.78558  Biso   1.000  C
  C3457    1.0000 0.48475  0.77777  0.73851  Biso   1.000  C
  H5890    1.0000 0.48408  0.69649  0.73179  Biso   1.000  H
  C3458    1.0000 0.43602  0.71365  0.79489  Biso   1.000  C
  N433     1.0000 0.78366  0.78939  0.96572  Biso   1.000  N
  H5891    1.0000 0.77117  0.77887  0.93529  Biso   1.000  H
  C3459    1.0000 0.71679  0.78558  0.89269  Biso   1.000  C
  C3460    1.0000 0.78319  0.71440  0.89269  Biso   1.000  C
  C3461    1.0000 0.77777  0.76144  0.01519  Biso   1.000  C
  C3462    1.0000 0.71365  0.70509  0.06396  Biso   1.000  C
  H5892    1.0000 0.69649  0.76819  0.01586  Biso   1.000  H
  H5893    1.0000 0.80419  0.76560  0.38400  Biso   1.000  H
  H5894    1.0000 0.78107  0.71479  0.35498  Biso   1.000  H
  C3463    1.0000 0.72272  0.76238  0.38619  Biso   1.000  C
  H5895    1.0000 0.73819  0.82508  0.43649  Biso   1.000  H
  H5896    1.0000 0.67737  0.80879  0.43598  Biso   1.000  H
  H5897    1.0000 0.64510  0.76147  0.55310  Biso   1.000  H
  H5898    1.0000 0.64310  0.81287  0.51730  Biso   1.000  H
  C3464    1.0000 0.65111  0.82979  0.59590  Biso   1.000  C
  H5899    1.0000 0.94688  0.85488  0.76147  Biso   1.000  H
  H5900    1.0000 0.98268  0.85688  0.81287  Biso   1.000  H
  C3465    1.0000 0.90408  0.84888  0.82979  Biso   1.000  C
  H5901    1.0000 0.06349  0.76179  0.82508  Biso   1.000  H
  H5902    1.0000 0.06396  0.82257  0.80879  Biso   1.000  H
  C3466    1.0000 0.11379  0.77726  0.76238  Biso   1.000  C
  H5903    1.0000 0.11598  0.69579  0.76560  Biso   1.000  H
  H5904    1.0000 0.14496  0.71887  0.71479  Biso   1.000  H
  C3467    1.0000 0.54753  0.83890  0.70352  Biso   1.000  C
  H5905    1.0000 0.63567  0.70089  0.73497  Biso   1.000  H
  H5906    1.0000 0.62248  0.73898  0.68680  Biso   1.000  H
  H5907    1.0000 0.58609  0.68899  0.69830  Biso   1.000  H
  H5908    1.0000 0.63567  0.79909  0.76497  Biso   1.000  H
  H5909    1.0000 0.62248  0.76100  0.81318  Biso   1.000  H
  H5910    1.0000 0.58609  0.81099  0.80168  Biso   1.000  H
  H5911    1.0000 0.48408  0.80349  0.76819  Biso   1.000  H
  C3468    1.0000 0.43602  0.78629  0.70509  Biso   1.000  C
  C3469    1.0000 0.38619  0.72272  0.76238  Biso   1.000  C
  H5912    1.0000 0.43649  0.73819  0.82508  Biso   1.000  H
  H5913    1.0000 0.43598  0.67737  0.80879  Biso   1.000  H
  C3470    1.0000 0.83890  0.79646  0.95245  Biso   1.000  C
  H5914    1.0000 0.70089  0.76497  0.86427  Biso   1.000  H
  H5915    1.0000 0.73898  0.81318  0.87750  Biso   1.000  H
  H5916    1.0000 0.68899  0.80168  0.91390  Biso   1.000  H
  H5917    1.0000 0.79909  0.73497  0.86427  Biso   1.000  H
  H5918    1.0000 0.76100  0.68680  0.87750  Biso   1.000  H
  H5919    1.0000 0.81099  0.69830  0.91390  Biso   1.000  H
  C3471    1.0000 0.78629  0.79489  0.06396  Biso   1.000  C
  H5920    1.0000 0.80349  0.73179  0.01586  Biso   1.000  H
  H5921    1.0000 0.73819  0.67490  0.06349  Biso   1.000  H
  H5922    1.0000 0.67737  0.69119  0.06396  Biso   1.000  H
  C3472    1.0000 0.72272  0.73760  0.11379  Biso   1.000  C
  H5923    1.0000 0.69579  0.73438  0.38400  Biso   1.000  H
  H5924    1.0000 0.71887  0.78519  0.35498  Biso   1.000  H
  C3473    1.0000 0.60799  0.81794  0.62731  Biso   1.000  C
  C3474    1.0000 0.68204  0.87267  0.60799  Biso   1.000  C
  C3475    1.0000 0.87267  0.89199  0.81794  Biso   1.000  C
  C3476    1.0000 0.89199  0.81794  0.87267  Biso   1.000  C
  H5925    1.0000 0.11598  0.80419  0.73438  Biso   1.000  H
  H5926    1.0000 0.14496  0.78107  0.78519  Biso   1.000  H
  C3477    1.0000 0.59590  0.84888  0.67019  Biso   1.000  C
  H5927    1.0000 0.55310  0.85488  0.73847  Biso   1.000  H
  H5928    1.0000 0.51730  0.85688  0.68707  Biso   1.000  H
  H5929    1.0000 0.43649  0.76179  0.67490  Biso   1.000  H
  H5930    1.0000 0.43598  0.82257  0.69119  Biso   1.000  H
  C3478    1.0000 0.38619  0.77726  0.73760  Biso   1.000  C
  H5931    1.0000 0.38400  0.69579  0.73438  Biso   1.000  H
  H5932    1.0000 0.35498  0.71887  0.78519  Biso   1.000  H
  C3479    1.0000 0.84888  0.82979  0.90408  Biso   1.000  C
  H5933    1.0000 0.85488  0.76147  0.94688  Biso   1.000  H
  H5934    1.0000 0.85688  0.81287  0.98268  Biso   1.000  H
  H5935    1.0000 0.76179  0.82508  0.06349  Biso   1.000  H
  H5936    1.0000 0.82257  0.80879  0.06396  Biso   1.000  H
  C3480    1.0000 0.77726  0.76238  0.11379  Biso   1.000  C
  H5937    1.0000 0.69579  0.76560  0.11598  Biso   1.000  H
  H5938    1.0000 0.71887  0.71479  0.14496  Biso   1.000  H
  H5939    1.0000 0.58667  0.78837  0.61918  Biso   1.000  H
  C3481    1.0000 0.67019  0.90408  0.65111  Biso   1.000  C
  H5940    1.0000 0.71157  0.88080  0.58667  Biso   1.000  H
  H5941    1.0000 0.88080  0.91327  0.78837  Biso   1.000  H
  C3482    1.0000 0.82979  0.90408  0.84888  Biso   1.000  C
  H5942    1.0000 0.91327  0.78837  0.88080  Biso   1.000  H
  C3483    1.0000 0.62731  0.89199  0.68204  Biso   1.000  C
  H5943    1.0000 0.38400  0.80419  0.76560  Biso   1.000  H
  H5944    1.0000 0.35498  0.78107  0.71479  Biso   1.000  H
  C3484    1.0000 0.81794  0.87267  0.89199  Biso   1.000  C
  H5945    1.0000 0.80419  0.73438  0.11598  Biso   1.000  H
  H5946    1.0000 0.78107  0.78519  0.14496  Biso   1.000  H
  C3485    1.0000 0.70352  0.95245  0.66108  Biso   1.000  C
  C3486    1.0000 0.79646  0.95245  0.83890  Biso   1.000  C
  H5947    1.0000 0.61918  0.91327  0.71157  Biso   1.000  H
  H5948    1.0000 0.78837  0.88080  0.91327  Biso   1.000  H
  H5949    1.0000 0.73847  0.94688  0.64510  Biso   1.000  H
  H5950    1.0000 0.68707  0.98268  0.64310  Biso   1.000  H
  N434     1.0000 0.71059  0.96572  0.71632  Biso   1.000  N
  N435     1.0000 0.78939  0.96572  0.78366  Biso   1.000  N
  H5951    1.0000 0.76147  0.94688  0.85488  Biso   1.000  H
  H5952    1.0000 0.81287  0.98268  0.85688  Biso   1.000  H
  C3487    1.0000 0.74997  0.92709  0.74997  Biso   1.000  C
  H5953    1.0000 0.72107  0.93529  0.72877  Biso   1.000  H
  C3488    1.0000 0.73851  0.01519  0.72221  Biso   1.000  C
  H5954    1.0000 0.77887  0.93529  0.77117  Biso   1.000  H
  C3489    1.0000 0.76144  0.01519  0.77777  Biso   1.000  C
  C3490    1.0000 0.78558  0.89269  0.71679  Biso   1.000  C
  C3491    1.0000 0.71440  0.89269  0.78319  Biso   1.000  C
  C3492    1.0000 0.70509  0.06396  0.71365  Biso   1.000  C
  H5955    1.0000 0.76819  0.01586  0.69649  Biso   1.000  H
  C3493    1.0000 0.79489  0.06396  0.78629  Biso   1.000  C
  H5956    1.0000 0.73179  0.01586  0.80349  Biso   1.000  H
  H5957    1.0000 0.76497  0.86427  0.70089  Biso   1.000  H
  H5958    1.0000 0.81318  0.87750  0.73898  Biso   1.000  H
  H5959    1.0000 0.80168  0.91390  0.68899  Biso   1.000  H
  H5960    1.0000 0.73497  0.86427  0.79909  Biso   1.000  H
  H5961    1.0000 0.68680  0.87750  0.76100  Biso   1.000  H
  H5962    1.0000 0.69830  0.91390  0.81099  Biso   1.000  H
  H5963    1.0000 0.67490  0.06349  0.73819  Biso   1.000  H
  H5964    1.0000 0.69119  0.06396  0.67737  Biso   1.000  H
  C3494    1.0000 0.73760  0.11379  0.72272  Biso   1.000  C
  H5965    1.0000 0.82508  0.06349  0.76179  Biso   1.000  H
  H5966    1.0000 0.80879  0.06396  0.82257  Biso   1.000  H
  C3495    1.0000 0.76238  0.11379  0.77726  Biso   1.000  C
  H5967    1.0000 0.76560  0.11598  0.69579  Biso   1.000  H
  H5968    1.0000 0.71479  0.14496  0.71887  Biso   1.000  H
  H5969    1.0000 0.73438  0.11598  0.80419  Biso   1.000  H
  H5970    1.0000 0.78519  0.14496  0.78107  Biso   1.000  H
