data_image0
_cell_length_a       25.612
_cell_length_b       25.612
_cell_length_c       25.612
_cell_angle_alpha    90
_cell_angle_beta     90
_cell_angle_gamma    90

_symmetry_space_group_name_H-M    "P 1"
_symmetry_int_tables_number       1

loop_
  _symmetry_equiv_pos_as_xyz
  'x, y, z'

loop_
  _atom_site_label
  _atom_site_occupancy
  _atom_site_fract_x
  _atom_site_fract_y
  _atom_site_fract_z
  _atom_site_thermal_displace_type
  _atom_site_B_iso_or_equiv
  _atom_site_type_symbol
  C1       1.0000 0.38459  0.22579  0.27889  Biso   1.000  C
  C2       1.0000 0.42589  0.25000  0.25000  Biso   1.000  C
  H1       1.0000 0.36639  0.25180  0.29888  Biso   1.000  H
  H2       1.0000 0.39899  0.20010  0.30208  Biso   1.000  H
  H3       1.0000 0.36069  0.20932  0.25519  Biso   1.000  H
  N1       1.0000 0.46564  0.21654  0.21115  Biso   1.000  N
  H4       1.0000 0.44542  0.23302  0.23001  Biso   1.000  H
  N2       1.0000 0.46564  0.28346  0.28885  Biso   1.000  N
  C3       1.0000 0.38459  0.27421  0.22111  Biso   1.000  C
  H5       1.0000 0.44542  0.26698  0.26999  Biso   1.000  H
  C4       1.0000 0.45061  0.16168  0.20451  Biso   1.000  C
  C5       1.0000 0.51386  0.22275  0.23903  Biso   1.000  C
  C6       1.0000 0.51386  0.27725  0.26097  Biso   1.000  C
  C7       1.0000 0.45061  0.33832  0.29549  Biso   1.000  C
  H6       1.0000 0.36639  0.24820  0.20112  Biso   1.000  H
  H7       1.0000 0.39899  0.29990  0.19792  Biso   1.000  H
  H8       1.0000 0.36069  0.29068  0.24481  Biso   1.000  H
  H9       1.0000 0.44471  0.14669  0.23872  Biso   1.000  H
  H10      1.0000 0.47981  0.14310  0.18890  Biso   1.000  H
  C8       1.0000 0.40258  0.15188  0.17129  Biso   1.000  C
  H11      1.0000 0.51429  0.19792  0.26819  Biso   1.000  H
  C9       1.0000 0.56196  0.21388  0.20611  Biso   1.000  C
  H12      1.0000 0.51429  0.30208  0.23181  Biso   1.000  H
  C10      1.0000 0.56196  0.28612  0.29389  Biso   1.000  C
  H13      1.0000 0.44471  0.35331  0.26128  Biso   1.000  H
  H14      1.0000 0.47981  0.35690  0.31110  Biso   1.000  H
  C11      1.0000 0.40258  0.34812  0.32871  Biso   1.000  C
  C12      1.0000 0.39025  0.18316  0.12842  Biso   1.000  C
  C13      1.0000 0.37158  0.10975  0.18316  Biso   1.000  C
  H15      1.0000 0.56149  0.23731  0.17640  Biso   1.000  H
  H16      1.0000 0.56200  0.17831  0.19311  Biso   1.000  H
  C14      1.0000 0.61171  0.22345  0.23860  Biso   1.000  C
  C15      1.0000 0.61171  0.27655  0.26140  Biso   1.000  C
  H17      1.0000 0.56149  0.26269  0.32360  Biso   1.000  H
  H18      1.0000 0.56200  0.32169  0.30689  Biso   1.000  H
  C16      1.0000 0.39025  0.31684  0.37158  Biso   1.000  C
  C17      1.0000 0.37158  0.39025  0.31684  Biso   1.000  C
  C18      1.0000 0.34812  0.17129  0.09742  Biso   1.000  C
  H19      1.0000 0.41071  0.21221  0.12080  Biso   1.000  H
  C19      1.0000 0.32871  0.09742  0.15188  Biso   1.000  C
  H20      1.0000 0.37920  0.08929  0.21221  Biso   1.000  H
  H21      1.0000 0.61381  0.19780  0.26628  Biso   1.000  H
  H22      1.0000 0.64220  0.21931  0.21638  Biso   1.000  H
  H23      1.0000 0.61381  0.30220  0.23372  Biso   1.000  H
  H24      1.0000 0.64220  0.28069  0.28362  Biso   1.000  H
  C20      1.0000 0.34812  0.32871  0.40258  Biso   1.000  C
  H25      1.0000 0.41071  0.28779  0.37920  Biso   1.000  H
  C21      1.0000 0.32871  0.40258  0.34812  Biso   1.000  C
  H26      1.0000 0.37920  0.41071  0.28779  Biso   1.000  H
  C22      1.0000 0.33832  0.20451  0.04939  Biso   1.000  C
  C23      1.0000 0.31684  0.12842  0.10975  Biso   1.000  C
  C24      1.0000 0.29549  0.04939  0.16168  Biso   1.000  C
  C25      1.0000 0.31684  0.37158  0.39025  Biso   1.000  C
  C26      1.0000 0.33832  0.29549  0.45061  Biso   1.000  C
  C27      1.0000 0.29549  0.45061  0.33832  Biso   1.000  C
  N3       1.0000 0.28346  0.21115  0.03436  Biso   1.000  N
  H27      1.0000 0.35331  0.23872  0.05529  Biso   1.000  H
  H28      1.0000 0.35690  0.18890  0.02019  Biso   1.000  H
  H29      1.0000 0.28779  0.12080  0.08929  Biso   1.000  H
  N4       1.0000 0.28885  0.03436  0.21654  Biso   1.000  N
  H30      1.0000 0.26128  0.05529  0.14669  Biso   1.000  H
  H31      1.0000 0.31110  0.02019  0.14310  Biso   1.000  H
  H32      1.0000 0.28779  0.37920  0.41071  Biso   1.000  H
  N5       1.0000 0.28346  0.28885  0.46564  Biso   1.000  N
  H33      1.0000 0.35331  0.26128  0.44471  Biso   1.000  H
  H34      1.0000 0.35690  0.31110  0.47981  Biso   1.000  H
  N6       1.0000 0.28885  0.46564  0.28346  Biso   1.000  N
  H35      1.0000 0.26128  0.44471  0.35331  Biso   1.000  H
  H36      1.0000 0.31110  0.47981  0.35690  Biso   1.000  H
  C28      1.0000 0.27725  0.23903  0.98614  Biso   1.000  C
  C29      1.0000 0.25000  0.25000  0.07411  Biso   1.000  C
  H37      1.0000 0.26698  0.23001  0.05458  Biso   1.000  H
  C30      1.0000 0.26097  0.98614  0.22275  Biso   1.000  C
  C31      1.0000 0.25000  0.07411  0.25000  Biso   1.000  C
  H38      1.0000 0.26999  0.05458  0.23302  Biso   1.000  H
  C32      1.0000 0.25000  0.25000  0.42589  Biso   1.000  C
  C33      1.0000 0.27725  0.26097  0.51386  Biso   1.000  C
  H39      1.0000 0.26698  0.26999  0.44542  Biso   1.000  H
  C34      1.0000 0.25000  0.42589  0.25000  Biso   1.000  C
  C35      1.0000 0.26097  0.51386  0.27725  Biso   1.000  C
  H40      1.0000 0.26999  0.44542  0.26698  Biso   1.000  H
  C36      1.0000 0.22275  0.26097  0.98614  Biso   1.000  C
  C37      1.0000 0.28612  0.20611  0.93804  Biso   1.000  C
  H41      1.0000 0.30208  0.26819  0.98571  Biso   1.000  H
  N7       1.0000 0.21654  0.28885  0.03436  Biso   1.000  N
  C38      1.0000 0.22579  0.22111  0.11541  Biso   1.000  C
  C39      1.0000 0.27421  0.27889  0.11541  Biso   1.000  C
  H42      1.0000 0.23302  0.26999  0.05458  Biso   1.000  H
  C40      1.0000 0.29389  0.93804  0.21388  Biso   1.000  C
  H43      1.0000 0.23181  0.98571  0.19792  Biso   1.000  H
  C41      1.0000 0.23903  0.98614  0.27725  Biso   1.000  C
  N8       1.0000 0.21115  0.03436  0.28346  Biso   1.000  N
  C42      1.0000 0.22111  0.11541  0.22579  Biso   1.000  C
  C43      1.0000 0.27889  0.11541  0.27421  Biso   1.000  C
  H44      1.0000 0.23001  0.05458  0.26698  Biso   1.000  H
  N9       1.0000 0.21654  0.21115  0.46564  Biso   1.000  N
  C44      1.0000 0.22579  0.27889  0.38459  Biso   1.000  C
  C45      1.0000 0.27421  0.22111  0.38459  Biso   1.000  C
  H45      1.0000 0.23302  0.23001  0.44542  Biso   1.000  H
  H46      1.0000 0.30208  0.23181  0.51429  Biso   1.000  H
  C46      1.0000 0.22275  0.23903  0.51386  Biso   1.000  C
  C47      1.0000 0.28612  0.29389  0.56196  Biso   1.000  C
  N10      1.0000 0.21115  0.46564  0.21654  Biso   1.000  N
  C48      1.0000 0.27889  0.38459  0.22579  Biso   1.000  C
  C49      1.0000 0.22111  0.38459  0.27421  Biso   1.000  C
  H47      1.0000 0.23001  0.44542  0.23302  Biso   1.000  H
  H48      1.0000 0.23181  0.51429  0.30208  Biso   1.000  H
  C50      1.0000 0.23903  0.51386  0.22275  Biso   1.000  C
  C51      1.0000 0.29389  0.56196  0.28612  Biso   1.000  C
  C52      1.0000 0.21388  0.29389  0.93804  Biso   1.000  C
  H49      1.0000 0.19792  0.23181  0.98571  Biso   1.000  H
  H50      1.0000 0.26269  0.17640  0.93851  Biso   1.000  H
  H51      1.0000 0.32169  0.19311  0.93800  Biso   1.000  H
  C53      1.0000 0.27655  0.23860  0.88829  Biso   1.000  C
  C54      1.0000 0.16168  0.29549  0.04939  Biso   1.000  C
  H52      1.0000 0.25180  0.20112  0.13361  Biso   1.000  H
  H53      1.0000 0.20010  0.19792  0.10101  Biso   1.000  H
  H54      1.0000 0.20932  0.24481  0.13931  Biso   1.000  H
  H55      1.0000 0.24820  0.29888  0.13361  Biso   1.000  H
  H56      1.0000 0.29990  0.30208  0.10101  Biso   1.000  H
  H57      1.0000 0.29068  0.25519  0.13931  Biso   1.000  H
  H58      1.0000 0.32360  0.93851  0.23731  Biso   1.000  H
  H59      1.0000 0.30689  0.93800  0.17831  Biso   1.000  H
  C55      1.0000 0.26140  0.88829  0.22345  Biso   1.000  C
  C56      1.0000 0.20611  0.93804  0.28612  Biso   1.000  C
  H60      1.0000 0.26819  0.98571  0.30208  Biso   1.000  H
  C57      1.0000 0.20451  0.04939  0.33832  Biso   1.000  C
  H61      1.0000 0.20112  0.13361  0.25180  Biso   1.000  H
  H62      1.0000 0.19792  0.10101  0.20010  Biso   1.000  H
  H63      1.0000 0.24481  0.13931  0.20932  Biso   1.000  H
  H64      1.0000 0.29888  0.13361  0.24820  Biso   1.000  H
  H65      1.0000 0.30208  0.10101  0.29990  Biso   1.000  H
  H66      1.0000 0.25519  0.13931  0.29068  Biso   1.000  H
  C58      1.0000 0.16168  0.20451  0.45061  Biso   1.000  C
  H67      1.0000 0.25180  0.29888  0.36639  Biso   1.000  H
  H68      1.0000 0.20010  0.30208  0.39899  Biso   1.000  H
  H69      1.0000 0.20932  0.25519  0.36069  Biso   1.000  H
  H70      1.0000 0.24820  0.20112  0.36639  Biso   1.000  H
  H71      1.0000 0.29990  0.19792  0.39899  Biso   1.000  H
  H72      1.0000 0.29068  0.24481  0.36069  Biso   1.000  H
  H73      1.0000 0.19792  0.26819  0.51429  Biso   1.000  H
  C59      1.0000 0.21388  0.20611  0.56196  Biso   1.000  C
  H74      1.0000 0.26269  0.32360  0.56149  Biso   1.000  H
  H75      1.0000 0.32169  0.30689  0.56200  Biso   1.000  H
  C60      1.0000 0.27655  0.26140  0.61171  Biso   1.000  C
  C61      1.0000 0.20451  0.45061  0.16168  Biso   1.000  C
  H76      1.0000 0.29888  0.36639  0.25180  Biso   1.000  H
  H77      1.0000 0.30208  0.39899  0.20010  Biso   1.000  H
  H78      1.0000 0.25519  0.36069  0.20932  Biso   1.000  H
  H79      1.0000 0.20112  0.36639  0.24820  Biso   1.000  H
  H80      1.0000 0.19792  0.39899  0.29990  Biso   1.000  H
  H81      1.0000 0.24481  0.36069  0.29068  Biso   1.000  H
  H82      1.0000 0.26819  0.51429  0.19792  Biso   1.000  H
  C62      1.0000 0.20611  0.56196  0.21388  Biso   1.000  C
  H83      1.0000 0.32360  0.56149  0.26269  Biso   1.000  H
  H84      1.0000 0.30689  0.56200  0.32169  Biso   1.000  H
  C63      1.0000 0.26140  0.61171  0.27655  Biso   1.000  C
  H85      1.0000 0.23731  0.32360  0.93851  Biso   1.000  H
  H86      1.0000 0.17831  0.30689  0.93800  Biso   1.000  H
  C64      1.0000 0.22345  0.26140  0.88829  Biso   1.000  C
  H87      1.0000 0.30220  0.26628  0.88619  Biso   1.000  H
  H88      1.0000 0.28069  0.21638  0.85780  Biso   1.000  H
  H89      1.0000 0.14669  0.26128  0.05529  Biso   1.000  H
  H90      1.0000 0.14310  0.31110  0.02019  Biso   1.000  H
  C65      1.0000 0.15188  0.32871  0.09742  Biso   1.000  C
  H91      1.0000 0.23372  0.88619  0.19780  Biso   1.000  H
  H92      1.0000 0.28362  0.85780  0.21931  Biso   1.000  H
  C66      1.0000 0.23860  0.88829  0.27655  Biso   1.000  C
  H93      1.0000 0.17640  0.93851  0.26269  Biso   1.000  H
  H94      1.0000 0.19311  0.93800  0.32169  Biso   1.000  H
  H95      1.0000 0.23872  0.05529  0.35331  Biso   1.000  H
  H96      1.0000 0.18890  0.02019  0.35690  Biso   1.000  H
  C67      1.0000 0.17129  0.09742  0.34812  Biso   1.000  C
  C68      1.0000 0.15188  0.17129  0.40258  Biso   1.000  C
  H97      1.0000 0.14669  0.23872  0.44471  Biso   1.000  H
  H98      1.0000 0.14310  0.18890  0.47981  Biso   1.000  H
  H99      1.0000 0.23731  0.17640  0.56149  Biso   1.000  H
  H100     1.0000 0.17831  0.19311  0.56200  Biso   1.000  H
  C69      1.0000 0.22345  0.23860  0.61171  Biso   1.000  C
  H101     1.0000 0.30220  0.23372  0.61381  Biso   1.000  H
  H102     1.0000 0.28069  0.28362  0.64220  Biso   1.000  H
  C70      1.0000 0.17129  0.40258  0.15188  Biso   1.000  C
  H103     1.0000 0.23872  0.44471  0.14669  Biso   1.000  H
  H104     1.0000 0.18890  0.47981  0.14310  Biso   1.000  H
  H105     1.0000 0.17640  0.56149  0.23731  Biso   1.000  H
  H106     1.0000 0.19311  0.56200  0.17831  Biso   1.000  H
  C71      1.0000 0.23860  0.61171  0.22345  Biso   1.000  C
  H107     1.0000 0.23372  0.61381  0.30220  Biso   1.000  H
  H108     1.0000 0.28362  0.64220  0.28069  Biso   1.000  H
  H109     1.0000 0.19780  0.23372  0.88619  Biso   1.000  H
  H110     1.0000 0.21931  0.28362  0.85780  Biso   1.000  H
  C72      1.0000 0.10975  0.31684  0.12842  Biso   1.000  C
  C73      1.0000 0.18316  0.37158  0.10975  Biso   1.000  C
  H111     1.0000 0.26628  0.88619  0.30220  Biso   1.000  H
  H112     1.0000 0.21638  0.85780  0.28069  Biso   1.000  H
  C74      1.0000 0.12842  0.10975  0.31684  Biso   1.000  C
  C75      1.0000 0.18316  0.12842  0.39025  Biso   1.000  C
  C76      1.0000 0.10975  0.18316  0.37158  Biso   1.000  C
  H113     1.0000 0.19780  0.26628  0.61381  Biso   1.000  H
  H114     1.0000 0.21931  0.21638  0.64220  Biso   1.000  H
  C77      1.0000 0.12842  0.39025  0.18316  Biso   1.000  C
  H115     1.0000 0.26628  0.61381  0.19780  Biso   1.000  H
  H116     1.0000 0.21638  0.64220  0.21931  Biso   1.000  H
  H117     1.0000 0.08929  0.28779  0.12080  Biso   1.000  H
  C78      1.0000 0.09742  0.34812  0.17129  Biso   1.000  C
  H118     1.0000 0.21221  0.37920  0.08929  Biso   1.000  H
  C79      1.0000 0.09742  0.15188  0.32871  Biso   1.000  C
  H119     1.0000 0.12080  0.08929  0.28779  Biso   1.000  H
  H120     1.0000 0.21221  0.12080  0.41071  Biso   1.000  H
  H121     1.0000 0.08929  0.21221  0.37920  Biso   1.000  H
  H122     1.0000 0.12080  0.41071  0.21221  Biso   1.000  H
  C80      1.0000 0.04939  0.33832  0.20451  Biso   1.000  C
  C81      1.0000 0.04939  0.16168  0.29549  Biso   1.000  C
  N11      1.0000 0.03436  0.28346  0.21115  Biso   1.000  N
  H123     1.0000 0.05529  0.35331  0.23872  Biso   1.000  H
  H124     1.0000 0.02019  0.35690  0.18890  Biso   1.000  H
  N12      1.0000 0.03436  0.21654  0.28885  Biso   1.000  N
  H125     1.0000 0.05529  0.14669  0.26128  Biso   1.000  H
  H126     1.0000 0.02019  0.14310  0.31110  Biso   1.000  H
  C82      1.0000 0.98614  0.27725  0.23903  Biso   1.000  C
  C83      1.0000 0.07411  0.25000  0.25000  Biso   1.000  C
  H127     1.0000 0.05458  0.26698  0.23001  Biso   1.000  H
  C84      1.0000 0.98614  0.22275  0.26097  Biso   1.000  C
  H128     1.0000 0.05458  0.23302  0.26999  Biso   1.000  H
  C85      1.0000 0.93804  0.28612  0.20611  Biso   1.000  C
  H129     1.0000 0.98571  0.30208  0.26819  Biso   1.000  H
  C86      1.0000 0.11541  0.27421  0.27889  Biso   1.000  C
  C87      1.0000 0.11541  0.22579  0.22111  Biso   1.000  C
  C88      1.0000 0.93804  0.21388  0.29389  Biso   1.000  C
  H130     1.0000 0.98571  0.19792  0.23181  Biso   1.000  H
  H131     1.0000 0.93851  0.26269  0.17640  Biso   1.000  H
  H132     1.0000 0.93800  0.32169  0.19311  Biso   1.000  H
  C89      1.0000 0.88829  0.27655  0.23860  Biso   1.000  C
  H133     1.0000 0.13361  0.24820  0.29888  Biso   1.000  H
  H134     1.0000 0.10101  0.29990  0.30208  Biso   1.000  H
  H135     1.0000 0.13931  0.29068  0.25519  Biso   1.000  H
  H136     1.0000 0.13361  0.25180  0.20112  Biso   1.000  H
  H137     1.0000 0.10101  0.20010  0.19792  Biso   1.000  H
  H138     1.0000 0.13931  0.20932  0.24481  Biso   1.000  H
  H139     1.0000 0.93851  0.23731  0.32360  Biso   1.000  H
  H140     1.0000 0.93800  0.17831  0.30689  Biso   1.000  H
  C90      1.0000 0.88829  0.22345  0.26140  Biso   1.000  C
  H141     1.0000 0.88619  0.30220  0.26628  Biso   1.000  H
  H142     1.0000 0.85780  0.28069  0.21638  Biso   1.000  H
  H143     1.0000 0.88619  0.19780  0.23372  Biso   1.000  H
  H144     1.0000 0.85780  0.21931  0.28362  Biso   1.000  H
  C91      1.0000 0.51097  0.47275  0.26386  Biso   1.000  C
  N13      1.0000 0.53885  0.46654  0.21564  Biso   1.000  N
  H145     1.0000 0.48181  0.44792  0.26429  Biso   1.000  H
  C92      1.0000 0.54389  0.46388  0.31196  Biso   1.000  C
  C93      1.0000 0.48903  0.52725  0.26386  Biso   1.000  C
  C94      1.0000 0.54549  0.41168  0.20061  Biso   1.000  C
  C95      1.0000 0.50000  0.50000  0.17589  Biso   1.000  C
  H146     1.0000 0.51999  0.48302  0.19542  Biso   1.000  H
  H147     1.0000 0.57360  0.48731  0.31149  Biso   1.000  H
  H148     1.0000 0.55689  0.42831  0.31200  Biso   1.000  H
  C96      1.0000 0.51140  0.47345  0.36171  Biso   1.000  C
  N14      1.0000 0.46115  0.53346  0.21564  Biso   1.000  N
  H149     1.0000 0.51819  0.55208  0.26429  Biso   1.000  H
  C97      1.0000 0.45611  0.53612  0.31196  Biso   1.000  C
  C98      1.0000 0.57871  0.40188  0.15258  Biso   1.000  C
  H150     1.0000 0.51128  0.39669  0.19471  Biso   1.000  H
  H151     1.0000 0.56110  0.39310  0.22981  Biso   1.000  H
  C99      1.0000 0.47111  0.47579  0.13459  Biso   1.000  C
  C100     1.0000 0.52889  0.52421  0.13459  Biso   1.000  C
  H152     1.0000 0.48001  0.51698  0.19542  Biso   1.000  H
  H153     1.0000 0.48372  0.44780  0.36381  Biso   1.000  H
  H154     1.0000 0.53362  0.46931  0.39220  Biso   1.000  H
  C101     1.0000 0.48860  0.52655  0.36171  Biso   1.000  C
  C102     1.0000 0.45451  0.58832  0.20061  Biso   1.000  C
  H155     1.0000 0.42640  0.51269  0.31149  Biso   1.000  H
  H156     1.0000 0.44311  0.57169  0.31200  Biso   1.000  H
  C103     1.0000 0.56684  0.35975  0.12158  Biso   1.000  C
  C104     1.0000 0.62158  0.43316  0.14025  Biso   1.000  C
  H157     1.0000 0.45112  0.50180  0.11639  Biso   1.000  H
  H158     1.0000 0.44792  0.45010  0.14899  Biso   1.000  H
  H159     1.0000 0.49481  0.45932  0.11069  Biso   1.000  H
  H160     1.0000 0.54888  0.49820  0.11639  Biso   1.000  H
  H161     1.0000 0.55208  0.54990  0.14899  Biso   1.000  H
  H162     1.0000 0.50519  0.54068  0.11069  Biso   1.000  H
  H163     1.0000 0.51628  0.55220  0.36381  Biso   1.000  H
  H164     1.0000 0.46638  0.53069  0.39220  Biso   1.000  H
  H165     1.0000 0.48872  0.60331  0.19471  Biso   1.000  H
  H166     1.0000 0.43890  0.60690  0.22981  Biso   1.000  H
  C105     1.0000 0.42129  0.59812  0.15258  Biso   1.000  C
  C106     1.0000 0.59812  0.34742  0.07871  Biso   1.000  C
  H167     1.0000 0.53779  0.33929  0.12920  Biso   1.000  H
  C107     1.0000 0.65258  0.42129  0.09812  Biso   1.000  C
  H168     1.0000 0.62920  0.46221  0.16071  Biso   1.000  H
  C108     1.0000 0.37842  0.56684  0.14025  Biso   1.000  C
  C109     1.0000 0.43316  0.64025  0.12158  Biso   1.000  C
  C110     1.0000 0.58832  0.29939  0.04549  Biso   1.000  C
  C111     1.0000 0.64025  0.37842  0.06684  Biso   1.000  C
  C112     1.0000 0.70061  0.45451  0.08832  Biso   1.000  C
  C113     1.0000 0.34742  0.57871  0.09812  Biso   1.000  C
  H169     1.0000 0.37080  0.53779  0.16071  Biso   1.000  H
  C114     1.0000 0.40188  0.65258  0.07871  Biso   1.000  C
  H170     1.0000 0.46221  0.66071  0.12920  Biso   1.000  H
  N15      1.0000 0.53346  0.28436  0.03885  Biso   1.000  N
  H171     1.0000 0.60331  0.30529  0.01128  Biso   1.000  H
  H172     1.0000 0.60690  0.27019  0.06110  Biso   1.000  H
  H173     1.0000 0.66071  0.37080  0.03779  Biso   1.000  H
  N16      1.0000 0.71564  0.46115  0.03346  Biso   1.000  N
  H174     1.0000 0.69471  0.48872  0.10331  Biso   1.000  H
  H175     1.0000 0.72981  0.43890  0.10690  Biso   1.000  H
  C115     1.0000 0.29939  0.54549  0.08832  Biso   1.000  C
  C116     1.0000 0.35975  0.62158  0.06684  Biso   1.000  C
  C117     1.0000 0.41168  0.70061  0.04549  Biso   1.000  C
  C118     1.0000 0.50000  0.32411  0.00000  Biso   1.000  C
  C119     1.0000 0.52725  0.23614  0.01097  Biso   1.000  C
  H176     1.0000 0.51698  0.30458  0.01999  Biso   1.000  H
  C120     1.0000 0.76386  0.48903  0.02725  Biso   1.000  C
  C121     1.0000 0.67589  0.50000  0.00000  Biso   1.000  C
  H177     1.0000 0.69542  0.48001  0.01698  Biso   1.000  H
  N17      1.0000 0.28436  0.53885  0.03346  Biso   1.000  N
  H178     1.0000 0.30529  0.51128  0.10331  Biso   1.000  H
  H179     1.0000 0.27019  0.56110  0.10690  Biso   1.000  H
  H180     1.0000 0.33929  0.62920  0.03779  Biso   1.000  H
  N18      1.0000 0.46654  0.71564  0.03885  Biso   1.000  N
  H181     1.0000 0.39669  0.69471  0.01128  Biso   1.000  H
  H182     1.0000 0.39310  0.72981  0.06110  Biso   1.000  H
  N19      1.0000 0.46654  0.28436  0.96115  Biso   1.000  N
  C122     1.0000 0.52421  0.36541  0.97111  Biso   1.000  C
  H183     1.0000 0.48302  0.30458  0.98001  Biso   1.000  H
  C123     1.0000 0.47579  0.36541  0.02889  Biso   1.000  C
  C124     1.0000 0.47275  0.23614  0.98903  Biso   1.000  C
  H184     1.0000 0.55208  0.23571  0.98181  Biso   1.000  H
  C125     1.0000 0.53612  0.18804  0.04389  Biso   1.000  C
  H185     1.0000 0.76429  0.51819  0.05208  Biso   1.000  H
  C126     1.0000 0.76386  0.51097  0.97275  Biso   1.000  C
  C127     1.0000 0.81196  0.45611  0.03612  Biso   1.000  C
  N20      1.0000 0.71564  0.53885  0.96654  Biso   1.000  N
  C128     1.0000 0.63459  0.47111  0.97579  Biso   1.000  C
  H186     1.0000 0.69542  0.51999  0.98302  Biso   1.000  H
  C129     1.0000 0.63459  0.52889  0.02421  Biso   1.000  C
  C130     1.0000 0.32411  0.50000  0.00000  Biso   1.000  C
  C131     1.0000 0.23614  0.51097  0.02725  Biso   1.000  C
  H187     1.0000 0.30458  0.51999  0.01698  Biso   1.000  H
  C132     1.0000 0.50000  0.67589  0.00000  Biso   1.000  C
  C133     1.0000 0.47275  0.76386  0.01097  Biso   1.000  C
  H188     1.0000 0.48302  0.69542  0.01999  Biso   1.000  H
  C134     1.0000 0.41168  0.29939  0.95451  Biso   1.000  C
  H189     1.0000 0.49820  0.38361  0.95112  Biso   1.000  H
  H190     1.0000 0.54990  0.35101  0.94792  Biso   1.000  H
  H191     1.0000 0.54068  0.38931  0.99481  Biso   1.000  H
  H192     1.0000 0.50180  0.38361  0.04888  Biso   1.000  H
  H193     1.0000 0.45010  0.35101  0.05208  Biso   1.000  H
  H194     1.0000 0.45932  0.38931  0.00519  Biso   1.000  H
  H195     1.0000 0.44792  0.23571  0.01819  Biso   1.000  H
  C135     1.0000 0.46388  0.18804  0.95611  Biso   1.000  C
  H196     1.0000 0.51269  0.18851  0.07360  Biso   1.000  H
  H197     1.0000 0.57169  0.18800  0.05689  Biso   1.000  H
  C136     1.0000 0.52655  0.13829  0.01140  Biso   1.000  C
  C137     1.0000 0.81196  0.54389  0.96388  Biso   1.000  C
  H198     1.0000 0.76429  0.48181  0.94792  Biso   1.000  H
  H199     1.0000 0.81149  0.42640  0.01269  Biso   1.000  H
  H200     1.0000 0.81200  0.44311  0.07169  Biso   1.000  H
  C138     1.0000 0.86171  0.48860  0.02655  Biso   1.000  C
  C139     1.0000 0.70061  0.54549  0.91168  Biso   1.000  C
  H201     1.0000 0.64899  0.44792  0.95010  Biso   1.000  H
  H202     1.0000 0.61069  0.49481  0.95932  Biso   1.000  H
  H203     1.0000 0.61639  0.45112  0.00180  Biso   1.000  H
  H204     1.0000 0.61639  0.54888  0.99820  Biso   1.000  H
  H205     1.0000 0.64899  0.55208  0.04990  Biso   1.000  H
  H206     1.0000 0.61069  0.50519  0.04068  Biso   1.000  H
  N21      1.0000 0.28436  0.46115  0.96654  Biso   1.000  N
  H207     1.0000 0.30458  0.48001  0.98302  Biso   1.000  H
  C140     1.0000 0.36541  0.52889  0.97579  Biso   1.000  C
  C141     1.0000 0.36541  0.47111  0.02421  Biso   1.000  C
  C142     1.0000 0.23614  0.48903  0.97275  Biso   1.000  C
  H208     1.0000 0.23571  0.48181  0.05208  Biso   1.000  H
  C143     1.0000 0.18804  0.54389  0.03612  Biso   1.000  C
  N22      1.0000 0.53346  0.71564  0.96115  Biso   1.000  N
  H209     1.0000 0.51698  0.69542  0.98001  Biso   1.000  H
  C144     1.0000 0.47579  0.63459  0.97111  Biso   1.000  C
  C145     1.0000 0.52421  0.63459  0.02889  Biso   1.000  C
  C146     1.0000 0.52725  0.76386  0.98903  Biso   1.000  C
  H210     1.0000 0.44792  0.76429  0.98181  Biso   1.000  H
  C147     1.0000 0.46388  0.81196  0.04389  Biso   1.000  C
  C148     1.0000 0.40188  0.34742  0.92129  Biso   1.000  C
  H211     1.0000 0.39669  0.30529  0.98872  Biso   1.000  H
  H212     1.0000 0.39310  0.27019  0.93890  Biso   1.000  H
  H213     1.0000 0.48731  0.18851  0.92640  Biso   1.000  H
  H214     1.0000 0.42831  0.18800  0.94311  Biso   1.000  H
  C149     1.0000 0.47345  0.13829  0.98860  Biso   1.000  C
  H215     1.0000 0.55220  0.13619  0.98372  Biso   1.000  H
  H216     1.0000 0.53069  0.10780  0.03362  Biso   1.000  H
  H217     1.0000 0.81149  0.57360  0.98731  Biso   1.000  H
  H218     1.0000 0.81200  0.55689  0.92831  Biso   1.000  H
  C150     1.0000 0.86171  0.51140  0.97345  Biso   1.000  C
  H219     1.0000 0.86381  0.51628  0.05220  Biso   1.000  H
  H220     1.0000 0.89220  0.46638  0.03069  Biso   1.000  H
  C151     1.0000 0.65258  0.57871  0.90188  Biso   1.000  C
  H221     1.0000 0.69471  0.51128  0.89669  Biso   1.000  H
  H222     1.0000 0.72981  0.56110  0.89310  Biso   1.000  H
  C152     1.0000 0.29939  0.45451  0.91168  Biso   1.000  C
  H223     1.0000 0.35101  0.55208  0.95010  Biso   1.000  H
  H224     1.0000 0.38931  0.50519  0.95932  Biso   1.000  H
  H225     1.0000 0.38361  0.54888  0.00180  Biso   1.000  H
  H226     1.0000 0.38361  0.45112  0.99820  Biso   1.000  H
  H227     1.0000 0.35101  0.44792  0.04990  Biso   1.000  H
  H228     1.0000 0.38931  0.49481  0.04068  Biso   1.000  H
  C153     1.0000 0.18804  0.45611  0.96388  Biso   1.000  C
  H229     1.0000 0.23571  0.51819  0.94792  Biso   1.000  H
  C154     1.0000 0.13829  0.51140  0.02655  Biso   1.000  C
  H230     1.0000 0.18851  0.57360  0.01269  Biso   1.000  H
  H231     1.0000 0.18800  0.55689  0.07169  Biso   1.000  H
  C155     1.0000 0.58832  0.70061  0.95451  Biso   1.000  C
  H232     1.0000 0.50180  0.61639  0.95112  Biso   1.000  H
  H233     1.0000 0.45010  0.64899  0.94792  Biso   1.000  H
  H234     1.0000 0.45932  0.61069  0.99481  Biso   1.000  H
  H235     1.0000 0.49820  0.61639  0.04888  Biso   1.000  H
  H236     1.0000 0.54990  0.64899  0.05208  Biso   1.000  H
  H237     1.0000 0.54068  0.61069  0.00519  Biso   1.000  H
  H238     1.0000 0.55208  0.76429  0.01819  Biso   1.000  H
  C156     1.0000 0.53612  0.81196  0.95611  Biso   1.000  C
  H239     1.0000 0.48731  0.81149  0.07360  Biso   1.000  H
  H240     1.0000 0.42831  0.81200  0.05689  Biso   1.000  H
  C157     1.0000 0.47345  0.86171  0.01140  Biso   1.000  C
  C158     1.0000 0.35975  0.37842  0.93316  Biso   1.000  C
  C159     1.0000 0.43316  0.35975  0.87842  Biso   1.000  C
  H241     1.0000 0.46931  0.10780  0.96638  Biso   1.000  H
  H242     1.0000 0.44780  0.13619  0.01628  Biso   1.000  H
  H243     1.0000 0.86381  0.48372  0.94780  Biso   1.000  H
  H244     1.0000 0.89220  0.53362  0.96931  Biso   1.000  H
  C160     1.0000 0.64025  0.62158  0.93316  Biso   1.000  C
  C161     1.0000 0.62158  0.56684  0.85975  Biso   1.000  C
  C162     1.0000 0.34742  0.42129  0.90188  Biso   1.000  C
  H245     1.0000 0.30529  0.48872  0.89669  Biso   1.000  H
  H246     1.0000 0.27019  0.43890  0.89310  Biso   1.000  H
  H247     1.0000 0.18851  0.42640  0.98731  Biso   1.000  H
  H248     1.0000 0.18800  0.44311  0.92831  Biso   1.000  H
  C163     1.0000 0.13829  0.48860  0.97345  Biso   1.000  C
  H249     1.0000 0.13619  0.48372  0.05220  Biso   1.000  H
  H250     1.0000 0.10780  0.53362  0.03069  Biso   1.000  H
  C164     1.0000 0.59812  0.65258  0.92129  Biso   1.000  C
  H251     1.0000 0.60331  0.69471  0.98872  Biso   1.000  H
  H252     1.0000 0.60690  0.72981  0.93890  Biso   1.000  H
  H253     1.0000 0.51269  0.81149  0.92640  Biso   1.000  H
  H254     1.0000 0.57169  0.81200  0.94311  Biso   1.000  H
  C165     1.0000 0.52655  0.86171  0.98860  Biso   1.000  C
  H255     1.0000 0.44780  0.86381  0.98372  Biso   1.000  H
  H256     1.0000 0.46931  0.89220  0.03362  Biso   1.000  H
  H257     1.0000 0.33929  0.37080  0.96221  Biso   1.000  H
  C166     1.0000 0.42129  0.40188  0.84742  Biso   1.000  C
  H258     1.0000 0.46221  0.33929  0.87080  Biso   1.000  H
  H259     1.0000 0.66071  0.62920  0.96221  Biso   1.000  H
  C167     1.0000 0.57871  0.59812  0.84742  Biso   1.000  C
  H260     1.0000 0.62920  0.53779  0.83929  Biso   1.000  H
  C168     1.0000 0.37842  0.43316  0.85975  Biso   1.000  C
  H261     1.0000 0.13619  0.51628  0.94780  Biso   1.000  H
  H262     1.0000 0.10780  0.46638  0.96931  Biso   1.000  H
  C169     1.0000 0.56684  0.64025  0.87842  Biso   1.000  C
  H263     1.0000 0.53069  0.89220  0.96638  Biso   1.000  H
  H264     1.0000 0.55220  0.86381  0.01628  Biso   1.000  H
  C170     1.0000 0.45451  0.41168  0.79939  Biso   1.000  C
  C171     1.0000 0.54549  0.58832  0.79939  Biso   1.000  C
  H265     1.0000 0.37080  0.46221  0.83929  Biso   1.000  H
  H266     1.0000 0.53779  0.66071  0.87080  Biso   1.000  H
  N23      1.0000 0.46115  0.46654  0.78436  Biso   1.000  N
  H267     1.0000 0.48872  0.39669  0.80529  Biso   1.000  H
  H268     1.0000 0.43890  0.39310  0.77019  Biso   1.000  H
  N24      1.0000 0.53885  0.53346  0.78436  Biso   1.000  N
  H269     1.0000 0.51128  0.60331  0.80529  Biso   1.000  H
  H270     1.0000 0.56110  0.60690  0.77019  Biso   1.000  H
  C172     1.0000 0.48903  0.47275  0.73614  Biso   1.000  C
  C173     1.0000 0.50000  0.50000  0.82411  Biso   1.000  C
  H271     1.0000 0.48001  0.48302  0.80458  Biso   1.000  H
  C174     1.0000 0.51097  0.52725  0.73614  Biso   1.000  C
  H272     1.0000 0.51999  0.51698  0.80458  Biso   1.000  H
  C175     1.0000 0.45611  0.46388  0.68804  Biso   1.000  C
  H273     1.0000 0.51819  0.44792  0.73571  Biso   1.000  H
  C176     1.0000 0.52889  0.47579  0.86541  Biso   1.000  C
  C177     1.0000 0.47111  0.52421  0.86541  Biso   1.000  C
  C178     1.0000 0.54389  0.53612  0.68804  Biso   1.000  C
  H274     1.0000 0.48181  0.55208  0.73571  Biso   1.000  H
  H275     1.0000 0.42640  0.48731  0.68851  Biso   1.000  H
  H276     1.0000 0.44311  0.42831  0.68800  Biso   1.000  H
  C179     1.0000 0.48860  0.47345  0.63829  Biso   1.000  C
  H277     1.0000 0.54888  0.50180  0.88361  Biso   1.000  H
  H278     1.0000 0.55208  0.45010  0.85101  Biso   1.000  H
  H279     1.0000 0.50519  0.45932  0.88931  Biso   1.000  H
  H280     1.0000 0.45112  0.49820  0.88361  Biso   1.000  H
  H281     1.0000 0.44792  0.54990  0.85101  Biso   1.000  H
  H282     1.0000 0.49481  0.54068  0.88931  Biso   1.000  H
  C180     1.0000 0.51140  0.52655  0.63829  Biso   1.000  C
  H283     1.0000 0.57360  0.51269  0.68851  Biso   1.000  H
  H284     1.0000 0.55689  0.57169  0.68800  Biso   1.000  H
  H285     1.0000 0.51628  0.44780  0.63619  Biso   1.000  H
  H286     1.0000 0.46638  0.46931  0.60780  Biso   1.000  H
  H287     1.0000 0.48372  0.55220  0.63619  Biso   1.000  H
  H288     1.0000 0.53362  0.53069  0.60780  Biso   1.000  H
  C181     1.0000 0.47275  0.26386  0.51097  Biso   1.000  C
  C182     1.0000 0.52725  0.26386  0.48903  Biso   1.000  C
  N25      1.0000 0.46654  0.21564  0.53885  Biso   1.000  N
  H289     1.0000 0.44792  0.26429  0.48181  Biso   1.000  H
  C183     1.0000 0.46388  0.31196  0.54389  Biso   1.000  C
  N26      1.0000 0.53346  0.21564  0.46115  Biso   1.000  N
  H290     1.0000 0.55208  0.26429  0.51819  Biso   1.000  H
  C184     1.0000 0.53612  0.31196  0.45611  Biso   1.000  C
  C185     1.0000 0.50000  0.17589  0.50000  Biso   1.000  C
  H291     1.0000 0.48302  0.19542  0.51999  Biso   1.000  H
  C186     1.0000 0.41168  0.20061  0.54549  Biso   1.000  C
  C187     1.0000 0.47345  0.36171  0.51140  Biso   1.000  C
  H292     1.0000 0.48731  0.31149  0.57360  Biso   1.000  H
  H293     1.0000 0.42831  0.31200  0.55689  Biso   1.000  H
  C188     1.0000 0.58832  0.20061  0.45451  Biso   1.000  C
  H294     1.0000 0.51698  0.19542  0.48001  Biso   1.000  H
  H295     1.0000 0.51269  0.31149  0.42640  Biso   1.000  H
  H296     1.0000 0.57169  0.31200  0.44311  Biso   1.000  H
  C189     1.0000 0.52655  0.36171  0.48860  Biso   1.000  C
  C190     1.0000 0.52421  0.13459  0.52889  Biso   1.000  C
  C191     1.0000 0.47579  0.13459  0.47111  Biso   1.000  C
  H297     1.0000 0.39669  0.19471  0.51128  Biso   1.000  H
  H298     1.0000 0.39310  0.22981  0.56110  Biso   1.000  H
  C192     1.0000 0.40188  0.15258  0.57871  Biso   1.000  C
  H299     1.0000 0.44780  0.36381  0.48372  Biso   1.000  H
  H300     1.0000 0.46931  0.39220  0.53362  Biso   1.000  H
  H301     1.0000 0.60331  0.19471  0.48872  Biso   1.000  H
  H302     1.0000 0.60690  0.22981  0.43890  Biso   1.000  H
  C193     1.0000 0.59812  0.15258  0.42129  Biso   1.000  C
  H303     1.0000 0.55220  0.36381  0.51628  Biso   1.000  H
  H304     1.0000 0.53069  0.39220  0.46638  Biso   1.000  H
  H305     1.0000 0.49820  0.11639  0.54888  Biso   1.000  H
  H306     1.0000 0.54990  0.14899  0.55208  Biso   1.000  H
  H307     1.0000 0.54068  0.11069  0.50519  Biso   1.000  H
  H308     1.0000 0.50180  0.11639  0.45112  Biso   1.000  H
  H309     1.0000 0.45010  0.14899  0.44792  Biso   1.000  H
  H310     1.0000 0.45932  0.11069  0.49481  Biso   1.000  H
  C194     1.0000 0.35975  0.12158  0.56684  Biso   1.000  C
  C195     1.0000 0.43316  0.14025  0.62158  Biso   1.000  C
  C196     1.0000 0.56684  0.14025  0.37842  Biso   1.000  C
  C197     1.0000 0.64025  0.12158  0.43316  Biso   1.000  C
  H311     1.0000 0.33929  0.12920  0.53779  Biso   1.000  H
  C198     1.0000 0.34742  0.07871  0.59812  Biso   1.000  C
  C199     1.0000 0.42129  0.09812  0.65258  Biso   1.000  C
  H312     1.0000 0.46221  0.16071  0.62920  Biso   1.000  H
  C200     1.0000 0.57871  0.09812  0.34742  Biso   1.000  C
  H313     1.0000 0.53779  0.16071  0.37080  Biso   1.000  H
  H314     1.0000 0.66071  0.12920  0.46221  Biso   1.000  H
  C201     1.0000 0.65258  0.07871  0.40188  Biso   1.000  C
  C202     1.0000 0.37842  0.06684  0.64025  Biso   1.000  C
  C203     1.0000 0.29939  0.04549  0.58832  Biso   1.000  C
  C204     1.0000 0.45451  0.08832  0.70061  Biso   1.000  C
  C205     1.0000 0.54549  0.08832  0.29939  Biso   1.000  C
  C206     1.0000 0.62158  0.06684  0.35975  Biso   1.000  C
  C207     1.0000 0.70061  0.04549  0.41168  Biso   1.000  C
  H315     1.0000 0.37080  0.03779  0.66071  Biso   1.000  H
  N27      1.0000 0.28436  0.03885  0.53346  Biso   1.000  N
  H316     1.0000 0.30529  0.01128  0.60331  Biso   1.000  H
  H317     1.0000 0.27019  0.06110  0.60690  Biso   1.000  H
  N28      1.0000 0.46115  0.03346  0.71564  Biso   1.000  N
  H318     1.0000 0.48872  0.10331  0.69471  Biso   1.000  H
  H319     1.0000 0.43890  0.10690  0.72981  Biso   1.000  H
  N29      1.0000 0.53885  0.03346  0.28436  Biso   1.000  N
  H320     1.0000 0.51128  0.10331  0.30529  Biso   1.000  H
  H321     1.0000 0.56110  0.10690  0.27019  Biso   1.000  H
  H322     1.0000 0.62920  0.03779  0.33929  Biso   1.000  H
  N30      1.0000 0.71564  0.03885  0.46654  Biso   1.000  N
  H323     1.0000 0.69471  0.01128  0.39669  Biso   1.000  H
  H324     1.0000 0.72981  0.06110  0.39310  Biso   1.000  H
  C208     1.0000 0.32411  0.00000  0.50000  Biso   1.000  C
  C209     1.0000 0.23614  0.01097  0.52725  Biso   1.000  C
  H325     1.0000 0.30458  0.01999  0.51698  Biso   1.000  H
  C210     1.0000 0.48903  0.02725  0.76386  Biso   1.000  C
  C211     1.0000 0.50000  0.00000  0.67589  Biso   1.000  C
  H326     1.0000 0.48001  0.01698  0.69542  Biso   1.000  H
  C212     1.0000 0.51097  0.02725  0.23614  Biso   1.000  C
  C213     1.0000 0.50000  0.00000  0.32411  Biso   1.000  C
  H327     1.0000 0.51999  0.01698  0.30458  Biso   1.000  H
  C214     1.0000 0.76386  0.01097  0.47275  Biso   1.000  C
  C215     1.0000 0.67589  0.00000  0.50000  Biso   1.000  C
  H328     1.0000 0.69542  0.01999  0.48302  Biso   1.000  H
  N31      1.0000 0.28436  0.96115  0.46654  Biso   1.000  N
  C216     1.0000 0.36541  0.97111  0.52421  Biso   1.000  C
  H329     1.0000 0.30458  0.98001  0.48302  Biso   1.000  H
  C217     1.0000 0.36541  0.02889  0.47579  Biso   1.000  C
  C218     1.0000 0.23614  0.98903  0.47275  Biso   1.000  C
  H330     1.0000 0.23571  0.98181  0.55208  Biso   1.000  H
  C219     1.0000 0.18804  0.04389  0.53612  Biso   1.000  C
  H331     1.0000 0.51819  0.05208  0.76429  Biso   1.000  H
  C220     1.0000 0.51097  0.97275  0.76386  Biso   1.000  C
  C221     1.0000 0.45611  0.03612  0.81196  Biso   1.000  C
  N32      1.0000 0.53885  0.96654  0.71564  Biso   1.000  N
  C222     1.0000 0.47111  0.97579  0.63459  Biso   1.000  C
  H332     1.0000 0.51999  0.98302  0.69542  Biso   1.000  H
  C223     1.0000 0.52889  0.02421  0.63459  Biso   1.000  C
  H333     1.0000 0.48181  0.05208  0.23571  Biso   1.000  H
  C224     1.0000 0.48903  0.97275  0.23614  Biso   1.000  C
  C225     1.0000 0.54389  0.03612  0.18804  Biso   1.000  C
  N33      1.0000 0.46115  0.96654  0.28436  Biso   1.000  N
  C226     1.0000 0.52889  0.97579  0.36541  Biso   1.000  C
  H334     1.0000 0.48001  0.98302  0.30458  Biso   1.000  H
  C227     1.0000 0.47111  0.02421  0.36541  Biso   1.000  C
  H335     1.0000 0.76429  0.98181  0.44792  Biso   1.000  H
  C228     1.0000 0.76386  0.98903  0.52725  Biso   1.000  C
  C229     1.0000 0.81196  0.04389  0.46388  Biso   1.000  C
  C230     1.0000 0.63459  0.97111  0.47579  Biso   1.000  C
  N34      1.0000 0.71564  0.96115  0.53346  Biso   1.000  N
  H336     1.0000 0.69542  0.98001  0.51698  Biso   1.000  H
  C231     1.0000 0.63459  0.02889  0.52421  Biso   1.000  C
  C232     1.0000 0.29939  0.95451  0.41168  Biso   1.000  C
  H337     1.0000 0.38361  0.95112  0.49820  Biso   1.000  H
  H338     1.0000 0.35101  0.94792  0.54990  Biso   1.000  H
  H339     1.0000 0.38931  0.99481  0.54068  Biso   1.000  H
  H340     1.0000 0.38361  0.04888  0.50180  Biso   1.000  H
  H341     1.0000 0.35101  0.05208  0.45010  Biso   1.000  H
  H342     1.0000 0.38931  0.00519  0.45932  Biso   1.000  H
  H343     1.0000 0.23571  0.01819  0.44792  Biso   1.000  H
  C233     1.0000 0.18804  0.95611  0.46388  Biso   1.000  C
  H344     1.0000 0.18851  0.07360  0.51269  Biso   1.000  H
  H345     1.0000 0.18800  0.05689  0.57169  Biso   1.000  H
  C234     1.0000 0.13829  0.01140  0.52655  Biso   1.000  C
  C235     1.0000 0.54389  0.96388  0.81196  Biso   1.000  C
  H346     1.0000 0.48181  0.94792  0.76429  Biso   1.000  H
  H347     1.0000 0.42640  0.01269  0.81149  Biso   1.000  H
  H348     1.0000 0.44311  0.07169  0.81200  Biso   1.000  H
  C236     1.0000 0.48860  0.02655  0.86171  Biso   1.000  C
  C237     1.0000 0.54549  0.91168  0.70061  Biso   1.000  C
  H349     1.0000 0.44792  0.95010  0.64899  Biso   1.000  H
  H350     1.0000 0.49481  0.95932  0.61069  Biso   1.000  H
  H351     1.0000 0.45112  0.00180  0.61639  Biso   1.000  H
  H352     1.0000 0.54888  0.99820  0.61639  Biso   1.000  H
  H353     1.0000 0.55208  0.04990  0.64899  Biso   1.000  H
  H354     1.0000 0.50519  0.04068  0.61069  Biso   1.000  H
  C238     1.0000 0.45611  0.96388  0.18804  Biso   1.000  C
  H355     1.0000 0.51819  0.94792  0.23571  Biso   1.000  H
  H356     1.0000 0.57360  0.01269  0.18851  Biso   1.000  H
  H357     1.0000 0.55689  0.07169  0.18800  Biso   1.000  H
  C239     1.0000 0.51140  0.02655  0.13829  Biso   1.000  C
  C240     1.0000 0.45451  0.91168  0.29939  Biso   1.000  C
  H358     1.0000 0.55208  0.95010  0.35101  Biso   1.000  H
  H359     1.0000 0.50519  0.95932  0.38931  Biso   1.000  H
  H360     1.0000 0.54888  0.00180  0.38361  Biso   1.000  H
  H361     1.0000 0.45112  0.99820  0.38361  Biso   1.000  H
  H362     1.0000 0.44792  0.04990  0.35101  Biso   1.000  H
  H363     1.0000 0.49481  0.04068  0.38931  Biso   1.000  H
  H364     1.0000 0.76429  0.01819  0.55208  Biso   1.000  H
  C241     1.0000 0.81196  0.95611  0.53612  Biso   1.000  C
  H365     1.0000 0.81149  0.07360  0.48731  Biso   1.000  H
  H366     1.0000 0.81200  0.05689  0.42831  Biso   1.000  H
  C242     1.0000 0.86171  0.01140  0.47345  Biso   1.000  C
  H367     1.0000 0.61639  0.95112  0.50180  Biso   1.000  H
  H368     1.0000 0.64899  0.94792  0.45010  Biso   1.000  H
  H369     1.0000 0.61069  0.99481  0.45932  Biso   1.000  H
  C243     1.0000 0.70061  0.95451  0.58832  Biso   1.000  C
  H370     1.0000 0.61639  0.04888  0.49820  Biso   1.000  H
  H371     1.0000 0.64899  0.05208  0.54990  Biso   1.000  H
  H372     1.0000 0.61069  0.00519  0.54068  Biso   1.000  H
  C244     1.0000 0.34742  0.92129  0.40188  Biso   1.000  C
  H373     1.0000 0.30529  0.98872  0.39669  Biso   1.000  H
  H374     1.0000 0.27019  0.93890  0.39310  Biso   1.000  H
  H375     1.0000 0.18851  0.92640  0.48731  Biso   1.000  H
  H376     1.0000 0.18800  0.94311  0.42831  Biso   1.000  H
  C245     1.0000 0.13829  0.98860  0.47345  Biso   1.000  C
  H377     1.0000 0.13619  0.98372  0.55220  Biso   1.000  H
  H378     1.0000 0.10780  0.03362  0.53069  Biso   1.000  H
  H379     1.0000 0.57360  0.98731  0.81149  Biso   1.000  H
  H380     1.0000 0.55689  0.92831  0.81200  Biso   1.000  H
  C246     1.0000 0.51140  0.97345  0.86171  Biso   1.000  C
  H381     1.0000 0.51628  0.05220  0.86381  Biso   1.000  H
  H382     1.0000 0.46638  0.03069  0.89220  Biso   1.000  H
  C247     1.0000 0.57871  0.90188  0.65258  Biso   1.000  C
  H383     1.0000 0.51128  0.89669  0.69471  Biso   1.000  H
  H384     1.0000 0.56110  0.89310  0.72981  Biso   1.000  H
  H385     1.0000 0.42640  0.98731  0.18851  Biso   1.000  H
  H386     1.0000 0.44311  0.92831  0.18800  Biso   1.000  H
  C248     1.0000 0.48860  0.97345  0.13829  Biso   1.000  C
  H387     1.0000 0.48372  0.05220  0.13619  Biso   1.000  H
  H388     1.0000 0.53362  0.03069  0.10780  Biso   1.000  H
  C249     1.0000 0.42129  0.90188  0.34742  Biso   1.000  C
  H389     1.0000 0.48872  0.89669  0.30529  Biso   1.000  H
  H390     1.0000 0.43890  0.89310  0.27019  Biso   1.000  H
  H391     1.0000 0.81149  0.92640  0.51269  Biso   1.000  H
  H392     1.0000 0.81200  0.94311  0.57169  Biso   1.000  H
  C250     1.0000 0.86171  0.98860  0.52655  Biso   1.000  C
  H393     1.0000 0.86381  0.98372  0.44780  Biso   1.000  H
  H394     1.0000 0.89220  0.03362  0.46931  Biso   1.000  H
  C251     1.0000 0.65258  0.92129  0.59812  Biso   1.000  C
  H395     1.0000 0.69471  0.98872  0.60331  Biso   1.000  H
  H396     1.0000 0.72981  0.93890  0.60690  Biso   1.000  H
  C252     1.0000 0.37842  0.93316  0.35975  Biso   1.000  C
  C253     1.0000 0.35975  0.87842  0.43316  Biso   1.000  C
  H397     1.0000 0.10780  0.96638  0.46931  Biso   1.000  H
  H398     1.0000 0.13619  0.01628  0.44780  Biso   1.000  H
  H399     1.0000 0.48372  0.94780  0.86381  Biso   1.000  H
  H400     1.0000 0.53362  0.96931  0.89220  Biso   1.000  H
  C254     1.0000 0.62158  0.93316  0.64025  Biso   1.000  C
  C255     1.0000 0.56684  0.85975  0.62158  Biso   1.000  C
  H401     1.0000 0.51628  0.94780  0.13619  Biso   1.000  H
  H402     1.0000 0.46638  0.96931  0.10780  Biso   1.000  H
  C256     1.0000 0.43316  0.85975  0.37842  Biso   1.000  C
  H403     1.0000 0.89220  0.96638  0.53069  Biso   1.000  H
  H404     1.0000 0.86381  0.01628  0.55220  Biso   1.000  H
  C257     1.0000 0.64025  0.87842  0.56684  Biso   1.000  C
  H405     1.0000 0.37080  0.96221  0.33929  Biso   1.000  H
  C258     1.0000 0.40188  0.84742  0.42129  Biso   1.000  C
  H406     1.0000 0.33929  0.87080  0.46221  Biso   1.000  H
  H407     1.0000 0.62920  0.96221  0.66071  Biso   1.000  H
  C259     1.0000 0.59812  0.84742  0.57871  Biso   1.000  C
  H408     1.0000 0.53779  0.83929  0.62920  Biso   1.000  H
  H409     1.0000 0.46221  0.83929  0.37080  Biso   1.000  H
  H410     1.0000 0.66071  0.87080  0.53779  Biso   1.000  H
  C260     1.0000 0.41168  0.79939  0.45451  Biso   1.000  C
  C261     1.0000 0.58832  0.79939  0.54549  Biso   1.000  C
  N35      1.0000 0.46654  0.78436  0.46115  Biso   1.000  N
  H411     1.0000 0.39669  0.80529  0.48872  Biso   1.000  H
  H412     1.0000 0.39310  0.77019  0.43890  Biso   1.000  H
  N36      1.0000 0.53346  0.78436  0.53885  Biso   1.000  N
  H413     1.0000 0.60331  0.80529  0.51128  Biso   1.000  H
  H414     1.0000 0.60690  0.77019  0.56110  Biso   1.000  H
  C262     1.0000 0.47275  0.73614  0.48903  Biso   1.000  C
  C263     1.0000 0.50000  0.82411  0.50000  Biso   1.000  C
  H415     1.0000 0.48302  0.80458  0.48001  Biso   1.000  H
  C264     1.0000 0.52725  0.73614  0.51097  Biso   1.000  C
  H416     1.0000 0.51698  0.80458  0.51999  Biso   1.000  H
  C265     1.0000 0.46388  0.68804  0.45611  Biso   1.000  C
  H417     1.0000 0.44792  0.73571  0.51819  Biso   1.000  H
  C266     1.0000 0.47579  0.86541  0.52889  Biso   1.000  C
  C267     1.0000 0.52421  0.86541  0.47111  Biso   1.000  C
  C268     1.0000 0.53612  0.68804  0.54389  Biso   1.000  C
  H418     1.0000 0.55208  0.73571  0.48181  Biso   1.000  H
  H419     1.0000 0.48731  0.68851  0.42640  Biso   1.000  H
  H420     1.0000 0.42831  0.68800  0.44311  Biso   1.000  H
  C269     1.0000 0.47345  0.63829  0.48860  Biso   1.000  C
  H421     1.0000 0.50180  0.88361  0.54888  Biso   1.000  H
  H422     1.0000 0.45010  0.85101  0.55208  Biso   1.000  H
  H423     1.0000 0.45932  0.88931  0.50519  Biso   1.000  H
  H424     1.0000 0.49820  0.88361  0.45112  Biso   1.000  H
  H425     1.0000 0.54990  0.85101  0.44792  Biso   1.000  H
  H426     1.0000 0.54068  0.88931  0.49481  Biso   1.000  H
  H427     1.0000 0.51269  0.68851  0.57360  Biso   1.000  H
  H428     1.0000 0.57169  0.68800  0.55689  Biso   1.000  H
  C270     1.0000 0.52655  0.63829  0.51140  Biso   1.000  C
  H429     1.0000 0.44780  0.63619  0.51628  Biso   1.000  H
  H430     1.0000 0.46931  0.60780  0.46638  Biso   1.000  H
  H431     1.0000 0.55220  0.63619  0.48372  Biso   1.000  H
  H432     1.0000 0.53069  0.60780  0.53362  Biso   1.000  H
  C271     1.0000 0.26386  0.51097  0.47275  Biso   1.000  C
  C272     1.0000 0.26386  0.48903  0.52725  Biso   1.000  C
  N37      1.0000 0.21564  0.53885  0.46654  Biso   1.000  N
  H433     1.0000 0.26429  0.48181  0.44792  Biso   1.000  H
  C273     1.0000 0.31196  0.54389  0.46388  Biso   1.000  C
  N38      1.0000 0.21564  0.46115  0.53346  Biso   1.000  N
  H434     1.0000 0.26429  0.51819  0.55208  Biso   1.000  H
  C274     1.0000 0.31196  0.45611  0.53612  Biso   1.000  C
  C275     1.0000 0.17589  0.50000  0.50000  Biso   1.000  C
  H435     1.0000 0.19542  0.51999  0.48302  Biso   1.000  H
  C276     1.0000 0.20061  0.54549  0.41168  Biso   1.000  C
  H436     1.0000 0.31149  0.57360  0.48731  Biso   1.000  H
  H437     1.0000 0.31200  0.55689  0.42831  Biso   1.000  H
  C277     1.0000 0.36171  0.51140  0.47345  Biso   1.000  C
  C278     1.0000 0.20061  0.45451  0.58832  Biso   1.000  C
  H438     1.0000 0.19542  0.48001  0.51698  Biso   1.000  H
  H439     1.0000 0.31149  0.42640  0.51269  Biso   1.000  H
  H440     1.0000 0.31200  0.44311  0.57169  Biso   1.000  H
  C279     1.0000 0.36171  0.48860  0.52655  Biso   1.000  C
  C280     1.0000 0.13459  0.47111  0.47579  Biso   1.000  C
  C281     1.0000 0.13459  0.52889  0.52421  Biso   1.000  C
  H441     1.0000 0.19471  0.51128  0.39669  Biso   1.000  H
  H442     1.0000 0.22981  0.56110  0.39310  Biso   1.000  H
  C282     1.0000 0.15258  0.57871  0.40188  Biso   1.000  C
  H443     1.0000 0.36381  0.48372  0.44780  Biso   1.000  H
  H444     1.0000 0.39220  0.53362  0.46931  Biso   1.000  H
  H445     1.0000 0.19471  0.48872  0.60331  Biso   1.000  H
  H446     1.0000 0.22981  0.43890  0.60690  Biso   1.000  H
  C283     1.0000 0.15258  0.42129  0.59812  Biso   1.000  C
  H447     1.0000 0.36381  0.51628  0.55220  Biso   1.000  H
  H448     1.0000 0.39220  0.46638  0.53069  Biso   1.000  H
  H449     1.0000 0.11639  0.45112  0.50180  Biso   1.000  H
  H450     1.0000 0.14899  0.44792  0.45010  Biso   1.000  H
  H451     1.0000 0.11069  0.49481  0.45932  Biso   1.000  H
  H452     1.0000 0.11639  0.54888  0.49820  Biso   1.000  H
  H453     1.0000 0.14899  0.55208  0.54990  Biso   1.000  H
  H454     1.0000 0.11069  0.50519  0.54068  Biso   1.000  H
  C284     1.0000 0.12158  0.56684  0.35975  Biso   1.000  C
  C285     1.0000 0.14025  0.62158  0.43316  Biso   1.000  C
  C286     1.0000 0.14025  0.37842  0.56684  Biso   1.000  C
  C287     1.0000 0.12158  0.43316  0.64025  Biso   1.000  C
  C288     1.0000 0.07871  0.59812  0.34742  Biso   1.000  C
  H455     1.0000 0.12920  0.53779  0.33929  Biso   1.000  H
  C289     1.0000 0.09812  0.65258  0.42129  Biso   1.000  C
  H456     1.0000 0.16071  0.62920  0.46221  Biso   1.000  H
  C290     1.0000 0.09812  0.34742  0.57871  Biso   1.000  C
  H457     1.0000 0.16071  0.37080  0.53779  Biso   1.000  H
  C291     1.0000 0.07871  0.40188  0.65258  Biso   1.000  C
  H458     1.0000 0.12920  0.46221  0.66071  Biso   1.000  H
  C292     1.0000 0.06684  0.64025  0.37842  Biso   1.000  C
  C293     1.0000 0.04549  0.58832  0.29939  Biso   1.000  C
  C294     1.0000 0.08832  0.70061  0.45451  Biso   1.000  C
  C295     1.0000 0.08832  0.29939  0.54549  Biso   1.000  C
  C296     1.0000 0.06684  0.35975  0.62158  Biso   1.000  C
  C297     1.0000 0.04549  0.41168  0.70061  Biso   1.000  C
  H459     1.0000 0.03779  0.66071  0.37080  Biso   1.000  H
  N39      1.0000 0.03885  0.53346  0.28436  Biso   1.000  N
  H460     1.0000 0.01128  0.60331  0.30529  Biso   1.000  H
  H461     1.0000 0.06110  0.60690  0.27019  Biso   1.000  H
  N40      1.0000 0.03346  0.71564  0.46115  Biso   1.000  N
  H462     1.0000 0.10331  0.69471  0.48872  Biso   1.000  H
  H463     1.0000 0.10690  0.72981  0.43890  Biso   1.000  H
  N41      1.0000 0.03346  0.28436  0.53885  Biso   1.000  N
  H464     1.0000 0.10331  0.30529  0.51128  Biso   1.000  H
  H465     1.0000 0.10690  0.27019  0.56110  Biso   1.000  H
  H466     1.0000 0.03779  0.33929  0.62920  Biso   1.000  H
  N42      1.0000 0.03885  0.46654  0.71564  Biso   1.000  N
  H467     1.0000 0.01128  0.39669  0.69471  Biso   1.000  H
  H468     1.0000 0.06110  0.39310  0.72981  Biso   1.000  H
  C298     1.0000 0.00000  0.50000  0.32411  Biso   1.000  C
  C299     1.0000 0.01097  0.52725  0.23614  Biso   1.000  C
  H469     1.0000 0.01999  0.51698  0.30458  Biso   1.000  H
  C300     1.0000 0.02725  0.76386  0.48903  Biso   1.000  C
  C301     1.0000 0.00000  0.67589  0.50000  Biso   1.000  C
  H470     1.0000 0.01698  0.69542  0.48001  Biso   1.000  H
  C302     1.0000 0.00000  0.32411  0.50000  Biso   1.000  C
  C303     1.0000 0.02725  0.23614  0.51097  Biso   1.000  C
  H471     1.0000 0.01698  0.30458  0.51999  Biso   1.000  H
  C304     1.0000 0.01097  0.47275  0.76386  Biso   1.000  C
  C305     1.0000 0.00000  0.50000  0.67589  Biso   1.000  C
  H472     1.0000 0.01999  0.48302  0.69542  Biso   1.000  H
  N43      1.0000 0.96115  0.46654  0.28436  Biso   1.000  N
  C306     1.0000 0.97111  0.52421  0.36541  Biso   1.000  C
  H473     1.0000 0.98001  0.48302  0.30458  Biso   1.000  H
  C307     1.0000 0.02889  0.47579  0.36541  Biso   1.000  C
  C308     1.0000 0.98903  0.47275  0.23614  Biso   1.000  C
  H474     1.0000 0.98181  0.55208  0.23571  Biso   1.000  H
  C309     1.0000 0.04389  0.53612  0.18804  Biso   1.000  C
  H475     1.0000 0.05208  0.76429  0.51819  Biso   1.000  H
  C310     1.0000 0.97275  0.76386  0.51097  Biso   1.000  C
  C311     1.0000 0.03612  0.81196  0.45611  Biso   1.000  C
  N44      1.0000 0.96654  0.71564  0.53885  Biso   1.000  N
  C312     1.0000 0.97579  0.63459  0.47111  Biso   1.000  C
  H476     1.0000 0.98302  0.69542  0.51999  Biso   1.000  H
  C313     1.0000 0.02421  0.63459  0.52889  Biso   1.000  C
  N45      1.0000 0.96654  0.28436  0.46115  Biso   1.000  N
  C314     1.0000 0.97579  0.36541  0.52889  Biso   1.000  C
  H477     1.0000 0.98302  0.30458  0.48001  Biso   1.000  H
  C315     1.0000 0.02421  0.36541  0.47111  Biso   1.000  C
  H478     1.0000 0.05208  0.23571  0.48181  Biso   1.000  H
  C316     1.0000 0.97275  0.23614  0.48903  Biso   1.000  C
  C317     1.0000 0.03612  0.18804  0.54389  Biso   1.000  C
  H479     1.0000 0.98181  0.44792  0.76429  Biso   1.000  H
  C318     1.0000 0.98903  0.52725  0.76386  Biso   1.000  C
  C319     1.0000 0.04389  0.46388  0.81196  Biso   1.000  C
  C320     1.0000 0.97111  0.47579  0.63459  Biso   1.000  C
  N46      1.0000 0.96115  0.53346  0.71564  Biso   1.000  N
  H480     1.0000 0.98001  0.51698  0.69542  Biso   1.000  H
  C321     1.0000 0.02889  0.52421  0.63459  Biso   1.000  C
  C322     1.0000 0.95451  0.41168  0.29939  Biso   1.000  C
  H481     1.0000 0.95112  0.49820  0.38361  Biso   1.000  H
  H482     1.0000 0.94792  0.54990  0.35101  Biso   1.000  H
  H483     1.0000 0.99481  0.54068  0.38931  Biso   1.000  H
  H484     1.0000 0.04888  0.50180  0.38361  Biso   1.000  H
  H485     1.0000 0.05208  0.45010  0.35101  Biso   1.000  H
  H486     1.0000 0.00519  0.45932  0.38931  Biso   1.000  H
  H487     1.0000 0.01819  0.44792  0.23571  Biso   1.000  H
  C323     1.0000 0.95611  0.46388  0.18804  Biso   1.000  C
  H488     1.0000 0.07360  0.51269  0.18851  Biso   1.000  H
  H489     1.0000 0.05689  0.57169  0.18800  Biso   1.000  H
  C324     1.0000 0.01140  0.52655  0.13829  Biso   1.000  C
  C325     1.0000 0.96388  0.81196  0.54389  Biso   1.000  C
  H490     1.0000 0.94792  0.76429  0.48181  Biso   1.000  H
  H491     1.0000 0.01269  0.81149  0.42640  Biso   1.000  H
  H492     1.0000 0.07169  0.81200  0.44311  Biso   1.000  H
  C326     1.0000 0.02655  0.86171  0.48860  Biso   1.000  C
  C327     1.0000 0.91168  0.70061  0.54549  Biso   1.000  C
  H493     1.0000 0.95010  0.64899  0.44792  Biso   1.000  H
  H494     1.0000 0.95932  0.61069  0.49481  Biso   1.000  H
  H495     1.0000 0.00180  0.61639  0.45112  Biso   1.000  H
  H496     1.0000 0.99820  0.61639  0.54888  Biso   1.000  H
  H497     1.0000 0.04990  0.64899  0.55208  Biso   1.000  H
  H498     1.0000 0.04068  0.61069  0.50519  Biso   1.000  H
  C328     1.0000 0.91168  0.29939  0.45451  Biso   1.000  C
  H499     1.0000 0.95010  0.35101  0.55208  Biso   1.000  H
  H500     1.0000 0.95932  0.38931  0.50519  Biso   1.000  H
  H501     1.0000 0.00180  0.38361  0.54888  Biso   1.000  H
  H502     1.0000 0.99820  0.38361  0.45112  Biso   1.000  H
  H503     1.0000 0.04990  0.35101  0.44792  Biso   1.000  H
  H504     1.0000 0.04068  0.38931  0.49481  Biso   1.000  H
  C329     1.0000 0.96388  0.18804  0.45611  Biso   1.000  C
  H505     1.0000 0.94792  0.23571  0.51819  Biso   1.000  H
  H506     1.0000 0.01269  0.18851  0.57360  Biso   1.000  H
  H507     1.0000 0.07169  0.18800  0.55689  Biso   1.000  H
  C330     1.0000 0.02655  0.13829  0.51140  Biso   1.000  C
  H508     1.0000 0.01819  0.55208  0.76429  Biso   1.000  H
  C331     1.0000 0.95611  0.53612  0.81196  Biso   1.000  C
  H509     1.0000 0.07360  0.48731  0.81149  Biso   1.000  H
  H510     1.0000 0.05689  0.42831  0.81200  Biso   1.000  H
  C332     1.0000 0.01140  0.47345  0.86171  Biso   1.000  C
  H511     1.0000 0.95112  0.50180  0.61639  Biso   1.000  H
  H512     1.0000 0.94792  0.45010  0.64899  Biso   1.000  H
  H513     1.0000 0.99481  0.45932  0.61069  Biso   1.000  H
  C333     1.0000 0.95451  0.58832  0.70061  Biso   1.000  C
  H514     1.0000 0.04888  0.49820  0.61639  Biso   1.000  H
  H515     1.0000 0.05208  0.54990  0.64899  Biso   1.000  H
  H516     1.0000 0.00519  0.54068  0.61069  Biso   1.000  H
  C334     1.0000 0.92129  0.40188  0.34742  Biso   1.000  C
  H517     1.0000 0.98872  0.39669  0.30529  Biso   1.000  H
  H518     1.0000 0.93890  0.39310  0.27019  Biso   1.000  H
  H519     1.0000 0.92640  0.48731  0.18851  Biso   1.000  H
  H520     1.0000 0.94311  0.42831  0.18800  Biso   1.000  H
  C335     1.0000 0.98860  0.47345  0.13829  Biso   1.000  C
  H521     1.0000 0.98372  0.55220  0.13619  Biso   1.000  H
  H522     1.0000 0.03362  0.53069  0.10780  Biso   1.000  H
  H523     1.0000 0.98731  0.81149  0.57360  Biso   1.000  H
  H524     1.0000 0.92831  0.81200  0.55689  Biso   1.000  H
  C336     1.0000 0.97345  0.86171  0.51140  Biso   1.000  C
  H525     1.0000 0.05220  0.86381  0.51628  Biso   1.000  H
  H526     1.0000 0.03069  0.89220  0.46638  Biso   1.000  H
  C337     1.0000 0.90188  0.65258  0.57871  Biso   1.000  C
  H527     1.0000 0.89669  0.69471  0.51128  Biso   1.000  H
  H528     1.0000 0.89310  0.72981  0.56110  Biso   1.000  H
  C338     1.0000 0.90188  0.34742  0.42129  Biso   1.000  C
  H529     1.0000 0.89669  0.30529  0.48872  Biso   1.000  H
  H530     1.0000 0.89310  0.27019  0.43890  Biso   1.000  H
  H531     1.0000 0.98731  0.18851  0.42640  Biso   1.000  H
  H532     1.0000 0.92831  0.18800  0.44311  Biso   1.000  H
  C339     1.0000 0.97345  0.13829  0.48860  Biso   1.000  C
  H533     1.0000 0.05220  0.13619  0.48372  Biso   1.000  H
  H534     1.0000 0.03069  0.10780  0.53362  Biso   1.000  H
  H535     1.0000 0.92640  0.51269  0.81149  Biso   1.000  H
  H536     1.0000 0.94311  0.57169  0.81200  Biso   1.000  H
  C340     1.0000 0.98860  0.52655  0.86171  Biso   1.000  C
  H537     1.0000 0.98372  0.44780  0.86381  Biso   1.000  H
  H538     1.0000 0.03362  0.46931  0.89220  Biso   1.000  H
  C341     1.0000 0.92129  0.59812  0.65258  Biso   1.000  C
  H539     1.0000 0.98872  0.60331  0.69471  Biso   1.000  H
  H540     1.0000 0.93890  0.60690  0.72981  Biso   1.000  H
  C342     1.0000 0.93316  0.35975  0.37842  Biso   1.000  C
  C343     1.0000 0.87842  0.43316  0.35975  Biso   1.000  C
  H541     1.0000 0.96638  0.46931  0.10780  Biso   1.000  H
  H542     1.0000 0.01628  0.44780  0.13619  Biso   1.000  H
  H543     1.0000 0.94780  0.86381  0.48372  Biso   1.000  H
  H544     1.0000 0.96931  0.89220  0.53362  Biso   1.000  H
  C344     1.0000 0.93316  0.64025  0.62158  Biso   1.000  C
  C345     1.0000 0.85975  0.62158  0.56684  Biso   1.000  C
  C346     1.0000 0.85975  0.37842  0.43316  Biso   1.000  C
  H545     1.0000 0.94780  0.13619  0.51628  Biso   1.000  H
  H546     1.0000 0.96931  0.10780  0.46638  Biso   1.000  H
  H547     1.0000 0.96638  0.53069  0.89220  Biso   1.000  H
  H548     1.0000 0.01628  0.55220  0.86381  Biso   1.000  H
  C347     1.0000 0.87842  0.56684  0.64025  Biso   1.000  C
  H549     1.0000 0.96221  0.33929  0.37080  Biso   1.000  H
  C348     1.0000 0.84742  0.42129  0.40188  Biso   1.000  C
  H550     1.0000 0.87080  0.46221  0.33929  Biso   1.000  H
  H551     1.0000 0.96221  0.66071  0.62920  Biso   1.000  H
  C349     1.0000 0.84742  0.57871  0.59812  Biso   1.000  C
  H552     1.0000 0.83929  0.62920  0.53779  Biso   1.000  H
  H553     1.0000 0.83929  0.37080  0.46221  Biso   1.000  H
  H554     1.0000 0.87080  0.53779  0.66071  Biso   1.000  H
  C350     1.0000 0.79939  0.45451  0.41168  Biso   1.000  C
  C351     1.0000 0.79939  0.54549  0.58832  Biso   1.000  C
  N47      1.0000 0.78436  0.46115  0.46654  Biso   1.000  N
  H555     1.0000 0.80529  0.48872  0.39669  Biso   1.000  H
  H556     1.0000 0.77019  0.43890  0.39310  Biso   1.000  H
  N48      1.0000 0.78436  0.53885  0.53346  Biso   1.000  N
  H557     1.0000 0.80529  0.51128  0.60331  Biso   1.000  H
  H558     1.0000 0.77019  0.56110  0.60690  Biso   1.000  H
  C352     1.0000 0.73614  0.48903  0.47275  Biso   1.000  C
  C353     1.0000 0.82411  0.50000  0.50000  Biso   1.000  C
  H559     1.0000 0.80458  0.48001  0.48302  Biso   1.000  H
  C354     1.0000 0.73614  0.51097  0.52725  Biso   1.000  C
  H560     1.0000 0.80458  0.51999  0.51698  Biso   1.000  H
  C355     1.0000 0.68804  0.45611  0.46388  Biso   1.000  C
  H561     1.0000 0.73571  0.51819  0.44792  Biso   1.000  H
  C356     1.0000 0.86541  0.52889  0.47579  Biso   1.000  C
  C357     1.0000 0.86541  0.47111  0.52421  Biso   1.000  C
  C358     1.0000 0.68804  0.54389  0.53612  Biso   1.000  C
  H562     1.0000 0.73571  0.48181  0.55208  Biso   1.000  H
  H563     1.0000 0.68851  0.42640  0.48731  Biso   1.000  H
  H564     1.0000 0.68800  0.44311  0.42831  Biso   1.000  H
  C359     1.0000 0.63829  0.48860  0.47345  Biso   1.000  C
  H565     1.0000 0.88361  0.54888  0.50180  Biso   1.000  H
  H566     1.0000 0.85101  0.55208  0.45010  Biso   1.000  H
  H567     1.0000 0.88931  0.50519  0.45932  Biso   1.000  H
  H568     1.0000 0.88361  0.45112  0.49820  Biso   1.000  H
  H569     1.0000 0.85101  0.44792  0.54990  Biso   1.000  H
  H570     1.0000 0.88931  0.49481  0.54068  Biso   1.000  H
  H571     1.0000 0.68851  0.57360  0.51269  Biso   1.000  H
  H572     1.0000 0.68800  0.55689  0.57169  Biso   1.000  H
  C360     1.0000 0.63829  0.51140  0.52655  Biso   1.000  C
  H573     1.0000 0.63619  0.51628  0.44780  Biso   1.000  H
  H574     1.0000 0.60780  0.46638  0.46931  Biso   1.000  H
  H575     1.0000 0.63619  0.48372  0.55220  Biso   1.000  H
  H576     1.0000 0.60780  0.53362  0.53069  Biso   1.000  H
  C361     1.0000 0.26386  0.98903  0.02725  Biso   1.000  C
  N49      1.0000 0.21564  0.96115  0.03346  Biso   1.000  N
  C362     1.0000 0.26386  0.01097  0.97275  Biso   1.000  C
  H577     1.0000 0.26429  0.01819  0.05208  Biso   1.000  H
  C363     1.0000 0.31196  0.95611  0.03612  Biso   1.000  C
  C364     1.0000 0.17589  0.00000  0.00000  Biso   1.000  C
  H578     1.0000 0.19542  0.98001  0.01698  Biso   1.000  H
  C365     1.0000 0.20061  0.95451  0.08832  Biso   1.000  C
  N50      1.0000 0.21564  0.03885  0.96654  Biso   1.000  N
  H579     1.0000 0.26429  0.98181  0.94792  Biso   1.000  H
  C366     1.0000 0.31196  0.04389  0.96388  Biso   1.000  C
  H580     1.0000 0.31149  0.92640  0.01269  Biso   1.000  H
  H581     1.0000 0.31200  0.94311  0.07169  Biso   1.000  H
  C367     1.0000 0.36171  0.98860  0.02655  Biso   1.000  C
  C368     1.0000 0.13459  0.02889  0.02421  Biso   1.000  C
  C369     1.0000 0.13459  0.97111  0.97579  Biso   1.000  C
  H582     1.0000 0.19542  0.01999  0.98302  Biso   1.000  H
  C370     1.0000 0.15258  0.92129  0.09812  Biso   1.000  C
  H583     1.0000 0.19471  0.98872  0.10331  Biso   1.000  H
  H584     1.0000 0.22981  0.93890  0.10690  Biso   1.000  H
  C371     1.0000 0.20061  0.04549  0.91168  Biso   1.000  C
  H585     1.0000 0.31149  0.07360  0.98731  Biso   1.000  H
  H586     1.0000 0.31200  0.05689  0.92831  Biso   1.000  H
  C372     1.0000 0.36171  0.01140  0.97345  Biso   1.000  C
  H587     1.0000 0.36381  0.01628  0.05220  Biso   1.000  H
  H588     1.0000 0.39220  0.96638  0.03069  Biso   1.000  H
  H589     1.0000 0.14899  0.05208  0.04990  Biso   1.000  H
  H590     1.0000 0.11069  0.00519  0.04068  Biso   1.000  H
  H591     1.0000 0.11639  0.04888  0.99820  Biso   1.000  H
  H592     1.0000 0.14899  0.94792  0.95010  Biso   1.000  H
  H593     1.0000 0.11069  0.99481  0.95932  Biso   1.000  H
  H594     1.0000 0.11639  0.95112  0.00180  Biso   1.000  H
  C373     1.0000 0.12158  0.93316  0.14025  Biso   1.000  C
  C374     1.0000 0.14025  0.87842  0.06684  Biso   1.000  C
  C375     1.0000 0.15258  0.07871  0.90188  Biso   1.000  C
  H595     1.0000 0.19471  0.01128  0.89669  Biso   1.000  H
  H596     1.0000 0.22981  0.06110  0.89310  Biso   1.000  H
  H597     1.0000 0.36381  0.98372  0.94780  Biso   1.000  H
  H598     1.0000 0.39220  0.03362  0.96931  Biso   1.000  H
  C376     1.0000 0.07871  0.90188  0.15258  Biso   1.000  C
  H599     1.0000 0.12920  0.96221  0.16071  Biso   1.000  H
  C377     1.0000 0.09812  0.84742  0.07871  Biso   1.000  C
  H600     1.0000 0.16071  0.87080  0.03779  Biso   1.000  H
  C378     1.0000 0.14025  0.12158  0.93316  Biso   1.000  C
  C379     1.0000 0.12158  0.06684  0.85975  Biso   1.000  C
  C380     1.0000 0.06684  0.85975  0.12158  Biso   1.000  C
  C381     1.0000 0.04549  0.91168  0.20061  Biso   1.000  C
  C382     1.0000 0.08832  0.79939  0.04549  Biso   1.000  C
  C383     1.0000 0.09812  0.15258  0.92129  Biso   1.000  C
  H601     1.0000 0.16071  0.12920  0.96221  Biso   1.000  H
  C384     1.0000 0.07871  0.09812  0.84742  Biso   1.000  C
  H602     1.0000 0.12920  0.03779  0.83929  Biso   1.000  H
  H603     1.0000 0.03779  0.83929  0.12920  Biso   1.000  H
  N51      1.0000 0.03885  0.96654  0.21564  Biso   1.000  N
  H604     1.0000 0.01128  0.89669  0.19471  Biso   1.000  H
  H605     1.0000 0.06110  0.89310  0.22981  Biso   1.000  H
  N52      1.0000 0.03346  0.78436  0.03885  Biso   1.000  N
  H606     1.0000 0.10331  0.80529  0.01128  Biso   1.000  H
  H607     1.0000 0.10690  0.77019  0.06110  Biso   1.000  H
  C385     1.0000 0.08832  0.20061  0.95451  Biso   1.000  C
  C386     1.0000 0.06684  0.14025  0.87842  Biso   1.000  C
  C387     1.0000 0.04549  0.08832  0.79939  Biso   1.000  C
  C388     1.0000 0.00000  0.00000  0.17589  Biso   1.000  C
  C389     1.0000 0.01097  0.97275  0.26386  Biso   1.000  C
  H608     1.0000 0.01999  0.98302  0.19542  Biso   1.000  H
  C390     1.0000 0.02725  0.73614  0.01097  Biso   1.000  C
  C391     1.0000 0.00000  0.82411  0.00000  Biso   1.000  C
  H609     1.0000 0.01698  0.80458  0.01999  Biso   1.000  H
  N53      1.0000 0.03346  0.21564  0.96115  Biso   1.000  N
  H610     1.0000 0.10331  0.19471  0.98872  Biso   1.000  H
  H611     1.0000 0.10690  0.22981  0.93890  Biso   1.000  H
  H612     1.0000 0.03779  0.16071  0.87080  Biso   1.000  H
  N54      1.0000 0.03885  0.03346  0.78436  Biso   1.000  N
  H613     1.0000 0.01128  0.10331  0.80529  Biso   1.000  H
  H614     1.0000 0.06110  0.10690  0.77019  Biso   1.000  H
  C392     1.0000 0.02889  0.02421  0.13459  Biso   1.000  C
  C393     1.0000 0.97111  0.97579  0.13459  Biso   1.000  C
  N55      1.0000 0.96115  0.03346  0.21564  Biso   1.000  N
  H615     1.0000 0.98001  0.01698  0.19542  Biso   1.000  H
  H616     1.0000 0.98181  0.94792  0.26429  Biso   1.000  H
  C394     1.0000 0.98903  0.02725  0.26386  Biso   1.000  C
  C395     1.0000 0.04389  0.96388  0.31196  Biso   1.000  C
  C396     1.0000 0.97275  0.73614  0.98903  Biso   1.000  C
  H617     1.0000 0.05208  0.73571  0.98181  Biso   1.000  H
  C397     1.0000 0.03612  0.68804  0.04389  Biso   1.000  C
  N56      1.0000 0.96654  0.78436  0.96115  Biso   1.000  N
  H618     1.0000 0.98302  0.80458  0.98001  Biso   1.000  H
  C398     1.0000 0.97579  0.86541  0.02889  Biso   1.000  C
  C399     1.0000 0.02421  0.86541  0.97111  Biso   1.000  C
  C400     1.0000 0.00000  0.17589  0.00000  Biso   1.000  C
  C401     1.0000 0.02725  0.26386  0.98903  Biso   1.000  C
  H619     1.0000 0.01698  0.19542  0.98001  Biso   1.000  H
  C402     1.0000 0.01097  0.02725  0.73614  Biso   1.000  C
  C403     1.0000 0.00000  0.00000  0.82411  Biso   1.000  C
  H620     1.0000 0.01999  0.01698  0.80458  Biso   1.000  H
  H621     1.0000 0.05208  0.04990  0.14899  Biso   1.000  H
  H622     1.0000 0.00519  0.04068  0.11069  Biso   1.000  H
  H623     1.0000 0.04888  0.99820  0.11639  Biso   1.000  H
  H624     1.0000 0.94792  0.95010  0.14899  Biso   1.000  H
  H625     1.0000 0.99481  0.95932  0.11069  Biso   1.000  H
  H626     1.0000 0.95112  0.00180  0.11639  Biso   1.000  H
  C404     1.0000 0.95451  0.08832  0.20061  Biso   1.000  C
  H627     1.0000 0.01819  0.05208  0.26429  Biso   1.000  H
  C405     1.0000 0.95611  0.03612  0.31196  Biso   1.000  C
  H628     1.0000 0.07360  0.98731  0.31149  Biso   1.000  H
  H629     1.0000 0.05689  0.92831  0.31200  Biso   1.000  H
  C406     1.0000 0.01140  0.97345  0.36171  Biso   1.000  C
  C407     1.0000 0.96388  0.68804  0.95611  Biso   1.000  C
  H630     1.0000 0.94792  0.73571  0.01819  Biso   1.000  H
  H631     1.0000 0.01269  0.68851  0.07360  Biso   1.000  H
  H632     1.0000 0.07169  0.68800  0.05689  Biso   1.000  H
  C408     1.0000 0.02655  0.63829  0.01140  Biso   1.000  C
  C409     1.0000 0.91168  0.79939  0.95451  Biso   1.000  C
  H633     1.0000 0.95010  0.85101  0.05208  Biso   1.000  H
  H634     1.0000 0.95932  0.88931  0.00519  Biso   1.000  H
  H635     1.0000 0.00180  0.88361  0.04888  Biso   1.000  H
  H636     1.0000 0.99820  0.88361  0.95112  Biso   1.000  H
  H637     1.0000 0.04990  0.85101  0.94792  Biso   1.000  H
  H638     1.0000 0.04068  0.88931  0.99481  Biso   1.000  H
  C410     1.0000 0.02421  0.13459  0.02889  Biso   1.000  C
  C411     1.0000 0.97579  0.13459  0.97111  Biso   1.000  C
  N57      1.0000 0.96654  0.21564  0.03885  Biso   1.000  N
  H639     1.0000 0.98302  0.19542  0.01999  Biso   1.000  H
  H640     1.0000 0.05208  0.26429  0.01819  Biso   1.000  H
  C412     1.0000 0.97275  0.26386  0.01097  Biso   1.000  C
  C413     1.0000 0.03612  0.31196  0.95611  Biso   1.000  C
  C414     1.0000 0.98903  0.97275  0.73614  Biso   1.000  C
  H641     1.0000 0.98181  0.05208  0.73571  Biso   1.000  H
  C415     1.0000 0.04389  0.03612  0.68804  Biso   1.000  C
  N58      1.0000 0.96115  0.96654  0.78436  Biso   1.000  N
  H642     1.0000 0.98001  0.98302  0.80458  Biso   1.000  H
  C416     1.0000 0.97111  0.02421  0.86541  Biso   1.000  C
  C417     1.0000 0.02889  0.97579  0.86541  Biso   1.000  C
  C418     1.0000 0.92129  0.09812  0.15258  Biso   1.000  C
  H643     1.0000 0.98872  0.10331  0.19471  Biso   1.000  H
  H644     1.0000 0.93890  0.10690  0.22981  Biso   1.000  H
  H645     1.0000 0.92640  0.01269  0.31149  Biso   1.000  H
  H646     1.0000 0.94311  0.07169  0.31200  Biso   1.000  H
  C419     1.0000 0.98860  0.02655  0.36171  Biso   1.000  C
  H647     1.0000 0.98372  0.94780  0.36381  Biso   1.000  H
  H648     1.0000 0.03362  0.96931  0.39220  Biso   1.000  H
  H649     1.0000 0.98731  0.68851  0.92640  Biso   1.000  H
  H650     1.0000 0.92831  0.68800  0.94311  Biso   1.000  H
  C420     1.0000 0.97345  0.63829  0.98860  Biso   1.000  C
  H651     1.0000 0.05220  0.63619  0.98372  Biso   1.000  H
  H652     1.0000 0.03069  0.60780  0.03362  Biso   1.000  H
  C421     1.0000 0.90188  0.84742  0.92129  Biso   1.000  C
  H653     1.0000 0.89669  0.80529  0.98872  Biso   1.000  H
  H654     1.0000 0.89310  0.77019  0.93890  Biso   1.000  H
  H655     1.0000 0.04990  0.14899  0.05208  Biso   1.000  H
  H656     1.0000 0.04068  0.11069  0.00519  Biso   1.000  H
  H657     1.0000 0.99820  0.11639  0.04888  Biso   1.000  H
  H658     1.0000 0.95010  0.14899  0.94792  Biso   1.000  H
  H659     1.0000 0.95932  0.11069  0.99481  Biso   1.000  H
  H660     1.0000 0.00180  0.11639  0.95112  Biso   1.000  H
  C422     1.0000 0.91168  0.20061  0.04549  Biso   1.000  C
  H661     1.0000 0.94792  0.26429  0.98181  Biso   1.000  H
  C423     1.0000 0.96388  0.31196  0.04389  Biso   1.000  C
  H662     1.0000 0.01269  0.31149  0.92640  Biso   1.000  H
  H663     1.0000 0.07169  0.31200  0.94311  Biso   1.000  H
  C424     1.0000 0.02655  0.36171  0.98860  Biso   1.000  C
  C425     1.0000 0.95611  0.96388  0.68804  Biso   1.000  C
  H664     1.0000 0.01819  0.94792  0.73571  Biso   1.000  H
  H665     1.0000 0.07360  0.01269  0.68851  Biso   1.000  H
  H666     1.0000 0.05689  0.07169  0.68800  Biso   1.000  H
  C426     1.0000 0.01140  0.02655  0.63829  Biso   1.000  C
  C427     1.0000 0.95451  0.91168  0.79939  Biso   1.000  C
  H667     1.0000 0.95112  0.99820  0.88361  Biso   1.000  H
  H668     1.0000 0.94792  0.04990  0.85101  Biso   1.000  H
  H669     1.0000 0.99481  0.04068  0.88931  Biso   1.000  H
  H670     1.0000 0.05208  0.95010  0.85101  Biso   1.000  H
  H671     1.0000 0.00519  0.95932  0.88931  Biso   1.000  H
  H672     1.0000 0.04888  0.00180  0.88361  Biso   1.000  H
  C428     1.0000 0.93316  0.14025  0.12158  Biso   1.000  C
  C429     1.0000 0.87842  0.06684  0.14025  Biso   1.000  C
  H673     1.0000 0.01628  0.05220  0.36381  Biso   1.000  H
  H674     1.0000 0.96638  0.03069  0.39220  Biso   1.000  H
  H675     1.0000 0.96931  0.60780  0.96638  Biso   1.000  H
  H676     1.0000 0.94780  0.63619  0.01628  Biso   1.000  H
  C430     1.0000 0.93316  0.85975  0.87842  Biso   1.000  C
  C431     1.0000 0.85975  0.87842  0.93316  Biso   1.000  C
  C432     1.0000 0.90188  0.15258  0.07871  Biso   1.000  C
  H677     1.0000 0.89669  0.19471  0.01128  Biso   1.000  H
  H678     1.0000 0.89310  0.22981  0.06110  Biso   1.000  H
  H679     1.0000 0.98731  0.31149  0.07360  Biso   1.000  H
  H680     1.0000 0.92831  0.31200  0.05689  Biso   1.000  H
  C433     1.0000 0.97345  0.36171  0.01140  Biso   1.000  C
  H681     1.0000 0.05220  0.36381  0.01628  Biso   1.000  H
  H682     1.0000 0.03069  0.39220  0.96638  Biso   1.000  H
  H683     1.0000 0.92640  0.98731  0.68851  Biso   1.000  H
  H684     1.0000 0.94311  0.92831  0.68800  Biso   1.000  H
  C434     1.0000 0.98860  0.97345  0.63829  Biso   1.000  C
  H685     1.0000 0.98372  0.05220  0.63619  Biso   1.000  H
  H686     1.0000 0.03362  0.03069  0.60780  Biso   1.000  H
  C435     1.0000 0.92129  0.90188  0.84742  Biso   1.000  C
  H687     1.0000 0.98872  0.89669  0.80529  Biso   1.000  H
  H688     1.0000 0.93890  0.89310  0.77019  Biso   1.000  H
  H689     1.0000 0.96221  0.16071  0.12920  Biso   1.000  H
  C436     1.0000 0.84742  0.07871  0.09812  Biso   1.000  C
  H690     1.0000 0.87080  0.03779  0.16071  Biso   1.000  H
  H691     1.0000 0.96221  0.83929  0.87080  Biso   1.000  H
  C437     1.0000 0.84742  0.92129  0.90188  Biso   1.000  C
  H692     1.0000 0.83929  0.87080  0.96221  Biso   1.000  H
  C438     1.0000 0.85975  0.12158  0.06684  Biso   1.000  C
  H693     1.0000 0.94780  0.36381  0.98372  Biso   1.000  H
  H694     1.0000 0.96931  0.39220  0.03362  Biso   1.000  H
  H695     1.0000 0.96638  0.96931  0.60780  Biso   1.000  H
  H696     1.0000 0.01628  0.94780  0.63619  Biso   1.000  H
  C439     1.0000 0.87842  0.93316  0.85975  Biso   1.000  C
  C440     1.0000 0.79939  0.04549  0.08832  Biso   1.000  C
  C441     1.0000 0.79939  0.95451  0.91168  Biso   1.000  C
  H697     1.0000 0.83929  0.12920  0.03779  Biso   1.000  H
  H698     1.0000 0.87080  0.96221  0.83929  Biso   1.000  H
  N59      1.0000 0.78436  0.03885  0.03346  Biso   1.000  N
  H699     1.0000 0.80529  0.01128  0.10331  Biso   1.000  H
  H700     1.0000 0.77019  0.06110  0.10690  Biso   1.000  H
  N60      1.0000 0.78436  0.96115  0.96654  Biso   1.000  N
  H701     1.0000 0.80529  0.98872  0.89669  Biso   1.000  H
  H702     1.0000 0.77019  0.93890  0.89310  Biso   1.000  H
  C442     1.0000 0.73614  0.01097  0.02725  Biso   1.000  C
  C443     1.0000 0.82411  0.00000  0.00000  Biso   1.000  C
  H703     1.0000 0.80458  0.01999  0.01698  Biso   1.000  H
  C444     1.0000 0.73614  0.98903  0.97275  Biso   1.000  C
  H704     1.0000 0.80458  0.98001  0.98302  Biso   1.000  H
  H705     1.0000 0.73571  0.98181  0.05208  Biso   1.000  H
  C445     1.0000 0.68804  0.04389  0.03612  Biso   1.000  C
  C446     1.0000 0.86541  0.97111  0.02421  Biso   1.000  C
  C447     1.0000 0.86541  0.02889  0.97579  Biso   1.000  C
  C448     1.0000 0.68804  0.95611  0.96388  Biso   1.000  C
  H706     1.0000 0.73571  0.01819  0.94792  Biso   1.000  H
  H707     1.0000 0.68851  0.07360  0.01269  Biso   1.000  H
  H708     1.0000 0.68800  0.05689  0.07169  Biso   1.000  H
  C449     1.0000 0.63829  0.01140  0.02655  Biso   1.000  C
  H709     1.0000 0.88361  0.95112  0.99820  Biso   1.000  H
  H710     1.0000 0.85101  0.94792  0.04990  Biso   1.000  H
  H711     1.0000 0.88931  0.99481  0.04068  Biso   1.000  H
  H712     1.0000 0.85101  0.05208  0.95010  Biso   1.000  H
  H713     1.0000 0.88931  0.00519  0.95932  Biso   1.000  H
  H714     1.0000 0.88361  0.04888  0.00180  Biso   1.000  H
  H715     1.0000 0.68851  0.92640  0.98731  Biso   1.000  H
  H716     1.0000 0.68800  0.94311  0.92831  Biso   1.000  H
  C450     1.0000 0.63829  0.98860  0.97345  Biso   1.000  C
  H717     1.0000 0.63619  0.98372  0.05220  Biso   1.000  H
  H718     1.0000 0.60780  0.03362  0.03069  Biso   1.000  H
  H719     1.0000 0.60780  0.96638  0.96931  Biso   1.000  H
  H720     1.0000 0.63619  0.01628  0.94780  Biso   1.000  H
  C451     1.0000 0.70611  0.43804  0.28612  Biso   1.000  C
  C452     1.0000 0.73903  0.48614  0.27725  Biso   1.000  C
  H721     1.0000 0.67640  0.43851  0.26269  Biso   1.000  H
  H722     1.0000 0.69311  0.43800  0.32169  Biso   1.000  H
  C453     1.0000 0.73860  0.38829  0.27655  Biso   1.000  C
  N61      1.0000 0.71115  0.53436  0.28346  Biso   1.000  N
  H723     1.0000 0.76819  0.48571  0.30208  Biso   1.000  H
  C454     1.0000 0.76097  0.48614  0.22275  Biso   1.000  C
  C455     1.0000 0.76140  0.38829  0.22345  Biso   1.000  C
  H724     1.0000 0.76628  0.38619  0.30220  Biso   1.000  H
  H725     1.0000 0.71638  0.35780  0.28069  Biso   1.000  H
  C456     1.0000 0.75000  0.57411  0.25000  Biso   1.000  C
  C457     1.0000 0.70451  0.54939  0.33832  Biso   1.000  C
  H726     1.0000 0.73001  0.55458  0.26698  Biso   1.000  H
  N62      1.0000 0.78885  0.53436  0.21654  Biso   1.000  N
  H727     1.0000 0.73181  0.48571  0.19792  Biso   1.000  H
  C458     1.0000 0.79389  0.43804  0.21388  Biso   1.000  C
  H728     1.0000 0.73372  0.38619  0.19780  Biso   1.000  H
  H729     1.0000 0.78362  0.35780  0.21931  Biso   1.000  H
  C459     1.0000 0.72111  0.61541  0.22579  Biso   1.000  C
  C460     1.0000 0.77889  0.61541  0.27421  Biso   1.000  C
  H730     1.0000 0.76999  0.55458  0.23302  Biso   1.000  H
  H731     1.0000 0.73872  0.55529  0.35331  Biso   1.000  H
  H732     1.0000 0.68890  0.52019  0.35690  Biso   1.000  H
  C461     1.0000 0.67129  0.59742  0.34812  Biso   1.000  C
  C462     1.0000 0.79549  0.54939  0.16168  Biso   1.000  C
  H733     1.0000 0.82360  0.43851  0.23731  Biso   1.000  H
  H734     1.0000 0.80689  0.43800  0.17831  Biso   1.000  H
  H735     1.0000 0.70112  0.63361  0.25180  Biso   1.000  H
  H736     1.0000 0.69792  0.60101  0.20010  Biso   1.000  H
  H737     1.0000 0.74481  0.63931  0.20932  Biso   1.000  H
  H738     1.0000 0.79888  0.63361  0.24820  Biso   1.000  H
  H739     1.0000 0.80208  0.60101  0.29990  Biso   1.000  H
  H740     1.0000 0.75519  0.63931  0.29068  Biso   1.000  H
  C463     1.0000 0.68316  0.62842  0.39025  Biso   1.000  C
  C464     1.0000 0.62842  0.60975  0.31684  Biso   1.000  C
  H741     1.0000 0.76128  0.55529  0.14669  Biso   1.000  H
  H742     1.0000 0.81110  0.52019  0.14310  Biso   1.000  H
  C465     1.0000 0.82871  0.59742  0.15188  Biso   1.000  C
  H743     1.0000 0.71221  0.62080  0.41071  Biso   1.000  H
  C466     1.0000 0.65188  0.67129  0.40258  Biso   1.000  C
  C467     1.0000 0.59742  0.65188  0.32871  Biso   1.000  C
  H744     1.0000 0.62080  0.58929  0.28779  Biso   1.000  H
  C468     1.0000 0.87158  0.60975  0.18316  Biso   1.000  C
  C469     1.0000 0.81684  0.62842  0.10975  Biso   1.000  C
  C470     1.0000 0.60975  0.68316  0.37158  Biso   1.000  C
  C471     1.0000 0.66168  0.70451  0.45061  Biso   1.000  C
  C472     1.0000 0.54939  0.66168  0.29549  Biso   1.000  C
  C473     1.0000 0.90258  0.65188  0.17129  Biso   1.000  C
  H745     1.0000 0.87920  0.58929  0.21221  Biso   1.000  H
  C474     1.0000 0.84812  0.67129  0.09742  Biso   1.000  C
  H746     1.0000 0.78779  0.62080  0.08929  Biso   1.000  H
  H747     1.0000 0.58929  0.71221  0.37920  Biso   1.000  H
  N63      1.0000 0.71654  0.71115  0.46564  Biso   1.000  N
  H748     1.0000 0.64669  0.73872  0.44471  Biso   1.000  H
  H749     1.0000 0.64310  0.68890  0.47981  Biso   1.000  H
  N64      1.0000 0.53436  0.71654  0.28885  Biso   1.000  N
  H750     1.0000 0.55529  0.64669  0.26128  Biso   1.000  H
  H751     1.0000 0.52019  0.64310  0.31110  Biso   1.000  H
  C475     1.0000 0.89025  0.68316  0.12842  Biso   1.000  C
  C476     1.0000 0.95061  0.66168  0.20451  Biso   1.000  C
  C477     1.0000 0.83832  0.70451  0.04939  Biso   1.000  C
  C478     1.0000 0.75000  0.75000  0.42589  Biso   1.000  C
  C479     1.0000 0.72275  0.73903  0.51386  Biso   1.000  C
  H752     1.0000 0.73302  0.73001  0.44542  Biso   1.000  H
  C480     1.0000 0.57411  0.75000  0.25000  Biso   1.000  C
  C481     1.0000 0.48614  0.72275  0.26097  Biso   1.000  C
  H753     1.0000 0.55458  0.73302  0.26999  Biso   1.000  H
  H754     1.0000 0.91071  0.71221  0.12080  Biso   1.000  H
  N65      1.0000 0.96564  0.71654  0.21115  Biso   1.000  N
  H755     1.0000 0.94471  0.64669  0.23872  Biso   1.000  H
  H756     1.0000 0.97981  0.64310  0.18890  Biso   1.000  H
  N66      1.0000 0.78346  0.71115  0.03436  Biso   1.000  N
  H757     1.0000 0.85331  0.73872  0.05529  Biso   1.000  H
  H758     1.0000 0.85690  0.68890  0.02019  Biso   1.000  H
  N67      1.0000 0.78346  0.78885  0.46564  Biso   1.000  N
  C482     1.0000 0.77421  0.72111  0.38459  Biso   1.000  C
  C483     1.0000 0.72579  0.77889  0.38459  Biso   1.000  C
  H759     1.0000 0.76698  0.76999  0.44542  Biso   1.000  H
  H760     1.0000 0.69792  0.76819  0.51429  Biso   1.000  H
  C484     1.0000 0.77725  0.76097  0.51386  Biso   1.000  C
  C485     1.0000 0.71388  0.70611  0.56196  Biso   1.000  C
  N68      1.0000 0.53436  0.78346  0.21115  Biso   1.000  N
  C486     1.0000 0.61541  0.77421  0.27889  Biso   1.000  C
  C487     1.0000 0.61541  0.72579  0.22111  Biso   1.000  C
  H761     1.0000 0.55458  0.76698  0.23001  Biso   1.000  H
  H762     1.0000 0.48571  0.69792  0.23181  Biso   1.000  H
  C488     1.0000 0.48614  0.77725  0.23903  Biso   1.000  C
  C489     1.0000 0.43804  0.71388  0.29389  Biso   1.000  C
  C490     1.0000 0.92589  0.75000  0.25000  Biso   1.000  C
  H763     1.0000 0.94542  0.73302  0.23001  Biso   1.000  H
  C491     1.0000 0.01386  0.72275  0.23903  Biso   1.000  C
  C492     1.0000 0.77725  0.73903  0.98614  Biso   1.000  C
  C493     1.0000 0.75000  0.75000  0.07411  Biso   1.000  C
  H764     1.0000 0.76698  0.73001  0.05458  Biso   1.000  H
  C494     1.0000 0.83832  0.79549  0.45061  Biso   1.000  C
  H765     1.0000 0.74820  0.70112  0.36639  Biso   1.000  H
  H766     1.0000 0.79990  0.69792  0.39899  Biso   1.000  H
  H767     1.0000 0.79068  0.74481  0.36069  Biso   1.000  H
  H768     1.0000 0.75180  0.79888  0.36639  Biso   1.000  H
  H769     1.0000 0.70010  0.80208  0.39899  Biso   1.000  H
  H770     1.0000 0.70932  0.75519  0.36069  Biso   1.000  H
  H771     1.0000 0.80208  0.73181  0.51429  Biso   1.000  H
  C495     1.0000 0.78612  0.79389  0.56196  Biso   1.000  C
  H772     1.0000 0.73731  0.67640  0.56149  Biso   1.000  H
  H773     1.0000 0.67831  0.69311  0.56200  Biso   1.000  H
  C496     1.0000 0.72345  0.73860  0.61171  Biso   1.000  C
  C497     1.0000 0.54939  0.83832  0.20451  Biso   1.000  C
  H774     1.0000 0.63361  0.74820  0.29888  Biso   1.000  H
  H775     1.0000 0.60101  0.79990  0.30208  Biso   1.000  H
  H776     1.0000 0.63931  0.79068  0.25519  Biso   1.000  H
  H777     1.0000 0.63361  0.75180  0.20112  Biso   1.000  H
  H778     1.0000 0.60101  0.70010  0.19792  Biso   1.000  H
  H779     1.0000 0.63931  0.70932  0.24481  Biso   1.000  H
  H780     1.0000 0.48571  0.80208  0.26819  Biso   1.000  H
  C498     1.0000 0.43804  0.78612  0.20611  Biso   1.000  C
  H781     1.0000 0.43851  0.73731  0.32360  Biso   1.000  H
  H782     1.0000 0.43800  0.67831  0.30689  Biso   1.000  H
  C499     1.0000 0.38829  0.72345  0.26140  Biso   1.000  C
  N69      1.0000 0.96564  0.78346  0.28885  Biso   1.000  N
  C500     1.0000 0.88459  0.72579  0.27889  Biso   1.000  C
  C501     1.0000 0.88459  0.77421  0.22111  Biso   1.000  C
  H783     1.0000 0.94542  0.76698  0.26999  Biso   1.000  H
  C502     1.0000 0.06196  0.71388  0.20611  Biso   1.000  C
  H784     1.0000 0.01429  0.69792  0.26819  Biso   1.000  H
  C503     1.0000 0.01386  0.77725  0.26097  Biso   1.000  C
  C504     1.0000 0.78612  0.70611  0.93804  Biso   1.000  C
  H785     1.0000 0.80208  0.76819  0.98571  Biso   1.000  H
  C505     1.0000 0.72275  0.76097  0.98614  Biso   1.000  C
  N70      1.0000 0.71654  0.78885  0.03436  Biso   1.000  N
  C506     1.0000 0.77421  0.77889  0.11541  Biso   1.000  C
  C507     1.0000 0.72579  0.72111  0.11541  Biso   1.000  C
  H786     1.0000 0.73302  0.76999  0.05458  Biso   1.000  H
  H787     1.0000 0.85331  0.76128  0.44471  Biso   1.000  H
  H788     1.0000 0.85690  0.81110  0.47981  Biso   1.000  H
  C508     1.0000 0.84812  0.82871  0.40258  Biso   1.000  C
  H789     1.0000 0.76269  0.82360  0.56149  Biso   1.000  H
  H790     1.0000 0.82169  0.80689  0.56200  Biso   1.000  H
  C509     1.0000 0.77655  0.76140  0.61171  Biso   1.000  C
  H791     1.0000 0.69780  0.76628  0.61381  Biso   1.000  H
  H792     1.0000 0.71931  0.71638  0.64220  Biso   1.000  H
  H793     1.0000 0.55529  0.85331  0.23872  Biso   1.000  H
  H794     1.0000 0.52019  0.85690  0.18890  Biso   1.000  H
  C510     1.0000 0.59742  0.84812  0.17129  Biso   1.000  C
  H795     1.0000 0.43851  0.76269  0.17640  Biso   1.000  H
  H796     1.0000 0.43800  0.82169  0.19311  Biso   1.000  H
  C511     1.0000 0.38829  0.77655  0.23860  Biso   1.000  C
  H797     1.0000 0.38619  0.69780  0.23372  Biso   1.000  H
  H798     1.0000 0.35780  0.71931  0.28362  Biso   1.000  H
  C512     1.0000 0.95061  0.83832  0.29549  Biso   1.000  C
  H799     1.0000 0.86639  0.75180  0.29888  Biso   1.000  H
  H800     1.0000 0.89899  0.70010  0.30208  Biso   1.000  H
  H801     1.0000 0.86069  0.70932  0.25519  Biso   1.000  H
  H802     1.0000 0.86639  0.74820  0.20112  Biso   1.000  H
  H803     1.0000 0.89899  0.79990  0.19792  Biso   1.000  H
  H804     1.0000 0.86069  0.79068  0.24481  Biso   1.000  H
  H805     1.0000 0.06149  0.73731  0.17640  Biso   1.000  H
  H806     1.0000 0.06200  0.67831  0.19311  Biso   1.000  H
  C513     1.0000 0.11171  0.72345  0.23860  Biso   1.000  C
  C514     1.0000 0.06196  0.78612  0.29389  Biso   1.000  C
  H807     1.0000 0.01429  0.80208  0.23181  Biso   1.000  H
  H808     1.0000 0.76269  0.67640  0.93851  Biso   1.000  H
  H809     1.0000 0.82169  0.69311  0.93800  Biso   1.000  H
  C515     1.0000 0.77655  0.73860  0.88829  Biso   1.000  C
  C516     1.0000 0.71388  0.79389  0.93804  Biso   1.000  C
  H810     1.0000 0.69792  0.73181  0.98571  Biso   1.000  H
  C517     1.0000 0.66168  0.79549  0.04939  Biso   1.000  C
  H811     1.0000 0.74820  0.79888  0.13361  Biso   1.000  H
  H812     1.0000 0.79990  0.80208  0.10101  Biso   1.000  H
  H813     1.0000 0.79068  0.75519  0.13931  Biso   1.000  H
  H814     1.0000 0.75180  0.70112  0.13361  Biso   1.000  H
  H815     1.0000 0.70010  0.69792  0.10101  Biso   1.000  H
  H816     1.0000 0.70932  0.74481  0.13931  Biso   1.000  H
  C518     1.0000 0.89025  0.81684  0.37158  Biso   1.000  C
  C519     1.0000 0.81684  0.87158  0.39025  Biso   1.000  C
  H817     1.0000 0.80220  0.73372  0.61381  Biso   1.000  H
  H818     1.0000 0.78069  0.78362  0.64220  Biso   1.000  H
  C520     1.0000 0.60975  0.81684  0.12842  Biso   1.000  C
  C521     1.0000 0.62842  0.89025  0.18316  Biso   1.000  C
  H819     1.0000 0.38619  0.80220  0.26628  Biso   1.000  H
  H820     1.0000 0.35780  0.78069  0.21638  Biso   1.000  H
  H821     1.0000 0.94471  0.85331  0.26128  Biso   1.000  H
  H822     1.0000 0.97981  0.85690  0.31110  Biso   1.000  H
  C522     1.0000 0.90258  0.84812  0.32871  Biso   1.000  C
  H823     1.0000 0.11381  0.69780  0.26628  Biso   1.000  H
  H824     1.0000 0.14220  0.71931  0.21638  Biso   1.000  H
  C523     1.0000 0.11171  0.77655  0.26140  Biso   1.000  C
  H825     1.0000 0.06149  0.76269  0.32360  Biso   1.000  H
  H826     1.0000 0.06200  0.82169  0.30689  Biso   1.000  H
  H827     1.0000 0.80220  0.76628  0.88619  Biso   1.000  H
  H828     1.0000 0.78069  0.71638  0.85780  Biso   1.000  H
  C524     1.0000 0.72345  0.76140  0.88829  Biso   1.000  C
  H829     1.0000 0.73731  0.82360  0.93851  Biso   1.000  H
  H830     1.0000 0.67831  0.80689  0.93800  Biso   1.000  H
  H831     1.0000 0.64669  0.76128  0.05529  Biso   1.000  H
  H832     1.0000 0.64310  0.81110  0.02019  Biso   1.000  H
  C525     1.0000 0.65188  0.82871  0.09742  Biso   1.000  C
  H833     1.0000 0.91071  0.78779  0.37920  Biso   1.000  H
  C526     1.0000 0.82871  0.90258  0.34812  Biso   1.000  C
  H834     1.0000 0.78779  0.87920  0.41071  Biso   1.000  H
  H835     1.0000 0.58929  0.78779  0.12080  Biso   1.000  H
  C527     1.0000 0.67129  0.90258  0.15188  Biso   1.000  C
  H836     1.0000 0.62080  0.91071  0.21221  Biso   1.000  H
  C528     1.0000 0.87158  0.89025  0.31684  Biso   1.000  C
  H837     1.0000 0.11381  0.80220  0.23372  Biso   1.000  H
  H838     1.0000 0.14220  0.78069  0.28362  Biso   1.000  H
  H839     1.0000 0.69780  0.73372  0.88619  Biso   1.000  H
  H840     1.0000 0.71931  0.78362  0.85780  Biso   1.000  H
  C529     1.0000 0.68316  0.87158  0.10975  Biso   1.000  C
  C530     1.0000 0.79549  0.95061  0.33832  Biso   1.000  C
  C531     1.0000 0.70451  0.95061  0.16168  Biso   1.000  C
  H841     1.0000 0.87920  0.91071  0.28779  Biso   1.000  H
  H842     1.0000 0.71221  0.87920  0.08929  Biso   1.000  H
  N71      1.0000 0.78885  0.96564  0.28346  Biso   1.000  N
  H843     1.0000 0.76128  0.94471  0.35331  Biso   1.000  H
  H844     1.0000 0.81110  0.97981  0.35690  Biso   1.000  H
  N72      1.0000 0.71115  0.96564  0.21654  Biso   1.000  N
  H845     1.0000 0.73872  0.94471  0.14669  Biso   1.000  H
  H846     1.0000 0.68890  0.97981  0.14310  Biso   1.000  H
  C532     1.0000 0.75000  0.92589  0.25000  Biso   1.000  C
  H847     1.0000 0.76999  0.94542  0.26698  Biso   1.000  H
  C533     1.0000 0.76097  0.01386  0.27725  Biso   1.000  C
  H848     1.0000 0.73001  0.94542  0.23302  Biso   1.000  H
  C534     1.0000 0.73903  0.01386  0.22275  Biso   1.000  C
  C535     1.0000 0.77889  0.88459  0.22579  Biso   1.000  C
  C536     1.0000 0.72111  0.88459  0.27421  Biso   1.000  C
  C537     1.0000 0.79389  0.06196  0.28612  Biso   1.000  C
  H849     1.0000 0.73181  0.01429  0.30208  Biso   1.000  H
  C538     1.0000 0.70611  0.06196  0.21388  Biso   1.000  C
  H850     1.0000 0.76819  0.01429  0.19792  Biso   1.000  H
  H851     1.0000 0.79888  0.86639  0.25180  Biso   1.000  H
  H852     1.0000 0.80208  0.89899  0.20010  Biso   1.000  H
  H853     1.0000 0.75519  0.86069  0.20932  Biso   1.000  H
  H854     1.0000 0.70112  0.86639  0.24820  Biso   1.000  H
  H855     1.0000 0.69792  0.89899  0.29990  Biso   1.000  H
  H856     1.0000 0.74481  0.86069  0.29068  Biso   1.000  H
  H857     1.0000 0.82360  0.06149  0.26269  Biso   1.000  H
  H858     1.0000 0.80689  0.06200  0.32169  Biso   1.000  H
  C539     1.0000 0.76140  0.11171  0.27655  Biso   1.000  C
  H859     1.0000 0.67640  0.06149  0.23731  Biso   1.000  H
  H860     1.0000 0.69311  0.06200  0.17831  Biso   1.000  H
  C540     1.0000 0.73860  0.11171  0.22345  Biso   1.000  C
  H861     1.0000 0.73372  0.11381  0.30220  Biso   1.000  H
  H862     1.0000 0.78362  0.14220  0.28069  Biso   1.000  H
  H863     1.0000 0.76628  0.11381  0.19780  Biso   1.000  H
  H864     1.0000 0.71638  0.14220  0.21931  Biso   1.000  H
  C541     1.0000 0.43804  0.28612  0.70611  Biso   1.000  C
  C542     1.0000 0.48614  0.27725  0.73903  Biso   1.000  C
  H865     1.0000 0.43851  0.26269  0.67640  Biso   1.000  H
  H866     1.0000 0.43800  0.32169  0.69311  Biso   1.000  H
  C543     1.0000 0.38829  0.27655  0.73860  Biso   1.000  C
  N73      1.0000 0.53436  0.28346  0.71115  Biso   1.000  N
  H867     1.0000 0.48571  0.30208  0.76819  Biso   1.000  H
  C544     1.0000 0.48614  0.22275  0.76097  Biso   1.000  C
  C545     1.0000 0.38829  0.22345  0.76140  Biso   1.000  C
  H868     1.0000 0.38619  0.30220  0.76628  Biso   1.000  H
  H869     1.0000 0.35780  0.28069  0.71638  Biso   1.000  H
  C546     1.0000 0.57411  0.25000  0.75000  Biso   1.000  C
  C547     1.0000 0.54939  0.33832  0.70451  Biso   1.000  C
  H870     1.0000 0.55458  0.26698  0.73001  Biso   1.000  H
  N74      1.0000 0.53436  0.21654  0.78885  Biso   1.000  N
  H871     1.0000 0.48571  0.19792  0.73181  Biso   1.000  H
  C548     1.0000 0.43804  0.21388  0.79389  Biso   1.000  C
  H872     1.0000 0.38619  0.19780  0.73372  Biso   1.000  H
  H873     1.0000 0.35780  0.21931  0.78362  Biso   1.000  H
  C549     1.0000 0.61541  0.22579  0.72111  Biso   1.000  C
  C550     1.0000 0.61541  0.27421  0.77889  Biso   1.000  C
  H874     1.0000 0.55458  0.23302  0.76999  Biso   1.000  H
  H875     1.0000 0.55529  0.35331  0.73872  Biso   1.000  H
  H876     1.0000 0.52019  0.35690  0.68890  Biso   1.000  H
  C551     1.0000 0.59742  0.34812  0.67129  Biso   1.000  C
  C552     1.0000 0.54939  0.16168  0.79549  Biso   1.000  C
  H877     1.0000 0.43851  0.23731  0.82360  Biso   1.000  H
  H878     1.0000 0.43800  0.17831  0.80689  Biso   1.000  H
  H879     1.0000 0.63361  0.25180  0.70112  Biso   1.000  H
  H880     1.0000 0.60101  0.20010  0.69792  Biso   1.000  H
  H881     1.0000 0.63931  0.20932  0.74481  Biso   1.000  H
  H882     1.0000 0.63361  0.24820  0.79888  Biso   1.000  H
  H883     1.0000 0.60101  0.29990  0.80208  Biso   1.000  H
  H884     1.0000 0.63931  0.29068  0.75519  Biso   1.000  H
  C553     1.0000 0.60975  0.31684  0.62842  Biso   1.000  C
  C554     1.0000 0.62842  0.39025  0.68316  Biso   1.000  C
  H885     1.0000 0.55529  0.14669  0.76128  Biso   1.000  H
  H886     1.0000 0.52019  0.14310  0.81110  Biso   1.000  H
  C555     1.0000 0.59742  0.15188  0.82871  Biso   1.000  C
  C556     1.0000 0.65188  0.32871  0.59742  Biso   1.000  C
  H887     1.0000 0.58929  0.28779  0.62080  Biso   1.000  H
  C557     1.0000 0.67129  0.40258  0.65188  Biso   1.000  C
  H888     1.0000 0.62080  0.41071  0.71221  Biso   1.000  H
  C558     1.0000 0.60975  0.18316  0.87158  Biso   1.000  C
  C559     1.0000 0.62842  0.10975  0.81684  Biso   1.000  C
  C560     1.0000 0.68316  0.37158  0.60975  Biso   1.000  C
  C561     1.0000 0.66168  0.29549  0.54939  Biso   1.000  C
  C562     1.0000 0.70451  0.45061  0.66168  Biso   1.000  C
  C563     1.0000 0.65188  0.17129  0.90258  Biso   1.000  C
  H889     1.0000 0.58929  0.21221  0.87920  Biso   1.000  H
  C564     1.0000 0.67129  0.09742  0.84812  Biso   1.000  C
  H890     1.0000 0.62080  0.08929  0.78779  Biso   1.000  H
  H891     1.0000 0.71221  0.37920  0.58929  Biso   1.000  H
  N75      1.0000 0.71654  0.28885  0.53436  Biso   1.000  N
  H892     1.0000 0.64669  0.26128  0.55529  Biso   1.000  H
  H893     1.0000 0.64310  0.31110  0.52019  Biso   1.000  H
  N76      1.0000 0.71115  0.46564  0.71654  Biso   1.000  N
  H894     1.0000 0.73872  0.44471  0.64669  Biso   1.000  H
  H895     1.0000 0.68890  0.47981  0.64310  Biso   1.000  H
  C565     1.0000 0.66168  0.20451  0.95061  Biso   1.000  C
  C566     1.0000 0.68316  0.12842  0.89025  Biso   1.000  C
  C567     1.0000 0.70451  0.04939  0.83832  Biso   1.000  C
  C568     1.0000 0.75000  0.25000  0.57411  Biso   1.000  C
  C569     1.0000 0.72275  0.26097  0.48614  Biso   1.000  C
  H896     1.0000 0.73302  0.26999  0.55458  Biso   1.000  H
  C570     1.0000 0.75000  0.42589  0.75000  Biso   1.000  C
  C571     1.0000 0.73903  0.51386  0.72275  Biso   1.000  C
  H897     1.0000 0.73001  0.44542  0.73302  Biso   1.000  H
  N77      1.0000 0.71654  0.21115  0.96564  Biso   1.000  N
  H898     1.0000 0.64669  0.23872  0.94471  Biso   1.000  H
  H899     1.0000 0.64310  0.18890  0.97981  Biso   1.000  H
  H900     1.0000 0.71221  0.12080  0.91071  Biso   1.000  H
  N78      1.0000 0.71115  0.03436  0.78346  Biso   1.000  N
  H901     1.0000 0.73872  0.05529  0.85331  Biso   1.000  H
  H902     1.0000 0.68890  0.02019  0.85690  Biso   1.000  H
  N79      1.0000 0.78346  0.21115  0.53436  Biso   1.000  N
  C572     1.0000 0.77421  0.27889  0.61541  Biso   1.000  C
  C573     1.0000 0.72579  0.22111  0.61541  Biso   1.000  C
  H903     1.0000 0.76698  0.23001  0.55458  Biso   1.000  H
  H904     1.0000 0.69792  0.23181  0.48571  Biso   1.000  H
  C574     1.0000 0.77725  0.23903  0.48614  Biso   1.000  C
  C575     1.0000 0.71388  0.29389  0.43804  Biso   1.000  C
  N80      1.0000 0.78885  0.46564  0.78346  Biso   1.000  N
  C576     1.0000 0.72111  0.38459  0.77421  Biso   1.000  C
  C577     1.0000 0.77889  0.38459  0.72579  Biso   1.000  C
  H905     1.0000 0.76999  0.44542  0.76698  Biso   1.000  H
  H906     1.0000 0.76819  0.51429  0.69792  Biso   1.000  H
  C578     1.0000 0.76097  0.51386  0.77725  Biso   1.000  C
  C579     1.0000 0.70611  0.56196  0.71388  Biso   1.000  C
  C580     1.0000 0.75000  0.25000  0.92589  Biso   1.000  C
  H907     1.0000 0.73302  0.23001  0.94542  Biso   1.000  H
  C581     1.0000 0.72275  0.23903  0.01386  Biso   1.000  C
  C582     1.0000 0.73903  0.98614  0.77725  Biso   1.000  C
  C583     1.0000 0.75000  0.07411  0.75000  Biso   1.000  C
  H908     1.0000 0.73001  0.05458  0.76698  Biso   1.000  H
  C584     1.0000 0.83832  0.20451  0.54939  Biso   1.000  C
  H909     1.0000 0.74820  0.29888  0.63361  Biso   1.000  H
  H910     1.0000 0.79990  0.30208  0.60101  Biso   1.000  H
  H911     1.0000 0.79068  0.25519  0.63931  Biso   1.000  H
  H912     1.0000 0.75180  0.20112  0.63361  Biso   1.000  H
  H913     1.0000 0.70010  0.19792  0.60101  Biso   1.000  H
  H914     1.0000 0.70932  0.24481  0.63931  Biso   1.000  H
  H915     1.0000 0.80208  0.26819  0.48571  Biso   1.000  H
  C585     1.0000 0.78612  0.20611  0.43804  Biso   1.000  C
  H916     1.0000 0.73731  0.32360  0.43851  Biso   1.000  H
  H917     1.0000 0.67831  0.30689  0.43800  Biso   1.000  H
  C586     1.0000 0.72345  0.26140  0.38829  Biso   1.000  C
  C587     1.0000 0.79549  0.45061  0.83832  Biso   1.000  C
  H918     1.0000 0.70112  0.36639  0.74820  Biso   1.000  H
  H919     1.0000 0.69792  0.39899  0.79990  Biso   1.000  H
  H920     1.0000 0.74481  0.36069  0.79068  Biso   1.000  H
  H921     1.0000 0.79888  0.36639  0.75180  Biso   1.000  H
  H922     1.0000 0.80208  0.39899  0.70010  Biso   1.000  H
  H923     1.0000 0.75519  0.36069  0.70932  Biso   1.000  H
  H924     1.0000 0.73181  0.51429  0.80208  Biso   1.000  H
  C588     1.0000 0.79389  0.56196  0.78612  Biso   1.000  C
  H925     1.0000 0.67640  0.56149  0.73731  Biso   1.000  H
  H926     1.0000 0.69311  0.56200  0.67831  Biso   1.000  H
  C589     1.0000 0.73860  0.61171  0.72345  Biso   1.000  C
  N81      1.0000 0.78346  0.28885  0.96564  Biso   1.000  N
  C590     1.0000 0.77421  0.22111  0.88459  Biso   1.000  C
  C591     1.0000 0.72579  0.27889  0.88459  Biso   1.000  C
  H927     1.0000 0.76698  0.26999  0.94542  Biso   1.000  H
  C592     1.0000 0.77725  0.26097  0.01386  Biso   1.000  C
  C593     1.0000 0.71388  0.20611  0.06196  Biso   1.000  C
  H928     1.0000 0.69792  0.26819  0.01429  Biso   1.000  H
  C594     1.0000 0.70611  0.93804  0.78612  Biso   1.000  C
  H929     1.0000 0.76819  0.98571  0.80208  Biso   1.000  H
  C595     1.0000 0.76097  0.98614  0.72275  Biso   1.000  C
  N82      1.0000 0.78885  0.03436  0.71654  Biso   1.000  N
  C596     1.0000 0.77889  0.11541  0.77421  Biso   1.000  C
  C597     1.0000 0.72111  0.11541  0.72579  Biso   1.000  C
  H930     1.0000 0.76999  0.05458  0.73302  Biso   1.000  H
  H931     1.0000 0.85331  0.23872  0.55529  Biso   1.000  H
  H932     1.0000 0.85690  0.18890  0.52019  Biso   1.000  H
  C598     1.0000 0.84812  0.17129  0.59742  Biso   1.000  C
  H933     1.0000 0.76269  0.17640  0.43851  Biso   1.000  H
  H934     1.0000 0.82169  0.19311  0.43800  Biso   1.000  H
  C599     1.0000 0.77655  0.23860  0.38829  Biso   1.000  C
  H935     1.0000 0.69780  0.23372  0.38619  Biso   1.000  H
  H936     1.0000 0.71931  0.28362  0.35780  Biso   1.000  H
  H937     1.0000 0.76128  0.44471  0.85331  Biso   1.000  H
  H938     1.0000 0.81110  0.47981  0.85690  Biso   1.000  H
  C600     1.0000 0.82871  0.40258  0.84812  Biso   1.000  C
  H939     1.0000 0.82360  0.56149  0.76269  Biso   1.000  H
  H940     1.0000 0.80689  0.56200  0.82169  Biso   1.000  H
  C601     1.0000 0.76140  0.61171  0.77655  Biso   1.000  C
  H941     1.0000 0.76628  0.61381  0.69780  Biso   1.000  H
  H942     1.0000 0.71638  0.64220  0.71931  Biso   1.000  H
  C602     1.0000 0.83832  0.29549  0.95061  Biso   1.000  C
  H943     1.0000 0.74820  0.20112  0.86639  Biso   1.000  H
  H944     1.0000 0.79990  0.19792  0.89899  Biso   1.000  H
  H945     1.0000 0.79068  0.24481  0.86069  Biso   1.000  H
  H946     1.0000 0.75180  0.29888  0.86639  Biso   1.000  H
  H947     1.0000 0.70010  0.30208  0.89899  Biso   1.000  H
  H948     1.0000 0.70932  0.25519  0.86069  Biso   1.000  H
  C603     1.0000 0.78612  0.29389  0.06196  Biso   1.000  C
  H949     1.0000 0.80208  0.23181  0.01429  Biso   1.000  H
  H950     1.0000 0.73731  0.17640  0.06149  Biso   1.000  H
  H951     1.0000 0.67831  0.19311  0.06200  Biso   1.000  H
  C604     1.0000 0.72345  0.23860  0.11171  Biso   1.000  C
  H952     1.0000 0.67640  0.93851  0.76269  Biso   1.000  H
  H953     1.0000 0.69311  0.93800  0.82169  Biso   1.000  H
  C605     1.0000 0.73860  0.88829  0.77655  Biso   1.000  C
  C606     1.0000 0.79389  0.93804  0.71388  Biso   1.000  C
  H954     1.0000 0.73181  0.98571  0.69792  Biso   1.000  H
  C607     1.0000 0.79549  0.04939  0.66168  Biso   1.000  C
  H955     1.0000 0.79888  0.13361  0.74820  Biso   1.000  H
  H956     1.0000 0.80208  0.10101  0.79990  Biso   1.000  H
  H957     1.0000 0.75519  0.13931  0.79068  Biso   1.000  H
  H958     1.0000 0.70112  0.13361  0.75180  Biso   1.000  H
  H959     1.0000 0.69792  0.10101  0.70010  Biso   1.000  H
  H960     1.0000 0.74481  0.13931  0.70932  Biso   1.000  H
  C608     1.0000 0.89025  0.18316  0.62842  Biso   1.000  C
  C609     1.0000 0.81684  0.12842  0.60975  Biso   1.000  C
  H961     1.0000 0.80220  0.26628  0.38619  Biso   1.000  H
  H962     1.0000 0.78069  0.21638  0.35780  Biso   1.000  H
  C610     1.0000 0.87158  0.39025  0.81684  Biso   1.000  C
  C611     1.0000 0.81684  0.37158  0.89025  Biso   1.000  C
  H963     1.0000 0.73372  0.61381  0.80220  Biso   1.000  H
  H964     1.0000 0.78362  0.64220  0.78069  Biso   1.000  H
  H965     1.0000 0.85331  0.26128  0.94471  Biso   1.000  H
  H966     1.0000 0.85690  0.31110  0.97981  Biso   1.000  H
  C612     1.0000 0.84812  0.32871  0.90258  Biso   1.000  C
  H967     1.0000 0.76269  0.32360  0.06149  Biso   1.000  H
  H968     1.0000 0.82169  0.30689  0.06200  Biso   1.000  H
  C613     1.0000 0.77655  0.26140  0.11171  Biso   1.000  C
  H969     1.0000 0.69780  0.26628  0.11381  Biso   1.000  H
  H970     1.0000 0.71931  0.21638  0.14220  Biso   1.000  H
  H971     1.0000 0.76628  0.88619  0.80220  Biso   1.000  H
  H972     1.0000 0.71638  0.85780  0.78069  Biso   1.000  H
  C614     1.0000 0.76140  0.88829  0.72345  Biso   1.000  C
  H973     1.0000 0.82360  0.93851  0.73731  Biso   1.000  H
  H974     1.0000 0.80689  0.93800  0.67831  Biso   1.000  H
  H975     1.0000 0.76128  0.05529  0.64669  Biso   1.000  H
  H976     1.0000 0.81110  0.02019  0.64310  Biso   1.000  H
  C615     1.0000 0.82871  0.09742  0.65188  Biso   1.000  C
  C616     1.0000 0.90258  0.15188  0.67129  Biso   1.000  C
  H977     1.0000 0.91071  0.21221  0.62080  Biso   1.000  H
  H978     1.0000 0.78779  0.12080  0.58929  Biso   1.000  H
  C617     1.0000 0.90258  0.34812  0.82871  Biso   1.000  C
  H979     1.0000 0.87920  0.41071  0.78779  Biso   1.000  H
  H980     1.0000 0.78779  0.37920  0.91071  Biso   1.000  H
  C618     1.0000 0.89025  0.31684  0.87158  Biso   1.000  C
  H981     1.0000 0.80220  0.23372  0.11381  Biso   1.000  H
  H982     1.0000 0.78069  0.28362  0.14220  Biso   1.000  H
  H983     1.0000 0.73372  0.88619  0.69780  Biso   1.000  H
  H984     1.0000 0.78362  0.85780  0.71931  Biso   1.000  H
  C619     1.0000 0.87158  0.10975  0.68316  Biso   1.000  C
  C620     1.0000 0.95061  0.16168  0.70451  Biso   1.000  C
  C621     1.0000 0.95061  0.33832  0.79549  Biso   1.000  C
  H985     1.0000 0.91071  0.28779  0.87920  Biso   1.000  H
  H986     1.0000 0.87920  0.08929  0.71221  Biso   1.000  H
  N83      1.0000 0.96564  0.21654  0.71115  Biso   1.000  N
  H987     1.0000 0.94471  0.14669  0.73872  Biso   1.000  H
  H988     1.0000 0.97981  0.14310  0.68890  Biso   1.000  H
  N84      1.0000 0.96564  0.28346  0.78885  Biso   1.000  N
  H989     1.0000 0.94471  0.35331  0.76128  Biso   1.000  H
  H990     1.0000 0.97981  0.35690  0.81110  Biso   1.000  H
  C622     1.0000 0.92589  0.25000  0.75000  Biso   1.000  C
  H991     1.0000 0.94542  0.23302  0.73001  Biso   1.000  H
  C623     1.0000 0.01386  0.22275  0.73903  Biso   1.000  C
  H992     1.0000 0.94542  0.26698  0.76999  Biso   1.000  H
  C624     1.0000 0.01386  0.27725  0.76097  Biso   1.000  C
  C625     1.0000 0.88459  0.27421  0.72111  Biso   1.000  C
  C626     1.0000 0.88459  0.22579  0.77889  Biso   1.000  C
  C627     1.0000 0.06196  0.21388  0.70611  Biso   1.000  C
  H993     1.0000 0.01429  0.19792  0.76819  Biso   1.000  H
  C628     1.0000 0.06196  0.28612  0.79389  Biso   1.000  C
  H994     1.0000 0.01429  0.30208  0.73181  Biso   1.000  H
  H995     1.0000 0.86639  0.24820  0.70112  Biso   1.000  H
  H996     1.0000 0.89899  0.29990  0.69792  Biso   1.000  H
  H997     1.0000 0.86069  0.29068  0.74481  Biso   1.000  H
  H998     1.0000 0.86639  0.25180  0.79888  Biso   1.000  H
  H999     1.0000 0.89899  0.20010  0.80208  Biso   1.000  H
  H1000    1.0000 0.86069  0.20932  0.75519  Biso   1.000  H
  H1001    1.0000 0.06149  0.23731  0.67640  Biso   1.000  H
  H1002    1.0000 0.06200  0.17831  0.69311  Biso   1.000  H
  C629     1.0000 0.11171  0.22345  0.73860  Biso   1.000  C
  H1003    1.0000 0.06149  0.26269  0.82360  Biso   1.000  H
  H1004    1.0000 0.06200  0.32169  0.80689  Biso   1.000  H
  C630     1.0000 0.11171  0.27655  0.76140  Biso   1.000  C
  H1005    1.0000 0.11381  0.19780  0.76628  Biso   1.000  H
  H1006    1.0000 0.14220  0.21931  0.71638  Biso   1.000  H
  H1007    1.0000 0.11381  0.30220  0.73372  Biso   1.000  H
  H1008    1.0000 0.14220  0.28069  0.78362  Biso   1.000  H
  C631     1.0000 0.28612  0.70611  0.43804  Biso   1.000  C
  C632     1.0000 0.27725  0.73903  0.48614  Biso   1.000  C
  H1009    1.0000 0.26269  0.67640  0.43851  Biso   1.000  H
  H1010    1.0000 0.32169  0.69311  0.43800  Biso   1.000  H
  C633     1.0000 0.27655  0.73860  0.38829  Biso   1.000  C
  N85      1.0000 0.28346  0.71115  0.53436  Biso   1.000  N
  H1011    1.0000 0.30208  0.76819  0.48571  Biso   1.000  H
  C634     1.0000 0.22275  0.76097  0.48614  Biso   1.000  C
  C635     1.0000 0.22345  0.76140  0.38829  Biso   1.000  C
  H1012    1.0000 0.30220  0.76628  0.38619  Biso   1.000  H
  H1013    1.0000 0.28069  0.71638  0.35780  Biso   1.000  H
  C636     1.0000 0.25000  0.75000  0.57411  Biso   1.000  C
  C637     1.0000 0.33832  0.70451  0.54939  Biso   1.000  C
  H1014    1.0000 0.26698  0.73001  0.55458  Biso   1.000  H
  N86      1.0000 0.21654  0.78885  0.53436  Biso   1.000  N
  H1015    1.0000 0.19792  0.73181  0.48571  Biso   1.000  H
  C638     1.0000 0.21388  0.79389  0.43804  Biso   1.000  C
  H1016    1.0000 0.19780  0.73372  0.38619  Biso   1.000  H
  H1017    1.0000 0.21931  0.78362  0.35780  Biso   1.000  H
  C639     1.0000 0.22579  0.72111  0.61541  Biso   1.000  C
  C640     1.0000 0.27421  0.77889  0.61541  Biso   1.000  C
  H1018    1.0000 0.23302  0.76999  0.55458  Biso   1.000  H
  H1019    1.0000 0.35331  0.73872  0.55529  Biso   1.000  H
  H1020    1.0000 0.35690  0.68890  0.52019  Biso   1.000  H
  C641     1.0000 0.34812  0.67129  0.59742  Biso   1.000  C
  C642     1.0000 0.16168  0.79549  0.54939  Biso   1.000  C
  H1021    1.0000 0.23731  0.82360  0.43851  Biso   1.000  H
  H1022    1.0000 0.17831  0.80689  0.43800  Biso   1.000  H
  H1023    1.0000 0.25180  0.70112  0.63361  Biso   1.000  H
  H1024    1.0000 0.20010  0.69792  0.60101  Biso   1.000  H
  H1025    1.0000 0.20932  0.74481  0.63931  Biso   1.000  H
  H1026    1.0000 0.24820  0.79888  0.63361  Biso   1.000  H
  H1027    1.0000 0.29990  0.80208  0.60101  Biso   1.000  H
  H1028    1.0000 0.29068  0.75519  0.63931  Biso   1.000  H
  C643     1.0000 0.31684  0.62842  0.60975  Biso   1.000  C
  C644     1.0000 0.39025  0.68316  0.62842  Biso   1.000  C
  H1029    1.0000 0.14669  0.76128  0.55529  Biso   1.000  H
  H1030    1.0000 0.14310  0.81110  0.52019  Biso   1.000  H
  C645     1.0000 0.15188  0.82871  0.59742  Biso   1.000  C
  C646     1.0000 0.32871  0.59742  0.65188  Biso   1.000  C
  H1031    1.0000 0.28779  0.62080  0.58929  Biso   1.000  H
  H1032    1.0000 0.41071  0.71221  0.62080  Biso   1.000  H
  C647     1.0000 0.40258  0.65188  0.67129  Biso   1.000  C
  C648     1.0000 0.10975  0.81684  0.62842  Biso   1.000  C
  C649     1.0000 0.18316  0.87158  0.60975  Biso   1.000  C
  C650     1.0000 0.29549  0.54939  0.66168  Biso   1.000  C
  C651     1.0000 0.37158  0.60975  0.68316  Biso   1.000  C
  C652     1.0000 0.45061  0.66168  0.70451  Biso   1.000  C
  C653     1.0000 0.09742  0.84812  0.67129  Biso   1.000  C
  H1033    1.0000 0.08929  0.78779  0.62080  Biso   1.000  H
  C654     1.0000 0.17129  0.90258  0.65188  Biso   1.000  C
  H1034    1.0000 0.21221  0.87920  0.58929  Biso   1.000  H
  N87      1.0000 0.28885  0.53436  0.71654  Biso   1.000  N
  H1035    1.0000 0.26128  0.55529  0.64669  Biso   1.000  H
  H1036    1.0000 0.31110  0.52019  0.64310  Biso   1.000  H
  H1037    1.0000 0.37920  0.58929  0.71221  Biso   1.000  H
  N88      1.0000 0.46564  0.71654  0.71115  Biso   1.000  N
  H1038    1.0000 0.44471  0.64669  0.73872  Biso   1.000  H
  H1039    1.0000 0.47981  0.64310  0.68890  Biso   1.000  H
  C655     1.0000 0.12842  0.89025  0.68316  Biso   1.000  C
  C656     1.0000 0.04939  0.83832  0.70451  Biso   1.000  C
  C657     1.0000 0.20451  0.95061  0.66168  Biso   1.000  C
  C658     1.0000 0.25000  0.57411  0.75000  Biso   1.000  C
  C659     1.0000 0.26097  0.48614  0.72275  Biso   1.000  C
  H1040    1.0000 0.26999  0.55458  0.73302  Biso   1.000  H
  C660     1.0000 0.42589  0.75000  0.75000  Biso   1.000  C
  C661     1.0000 0.51386  0.72275  0.73903  Biso   1.000  C
  H1041    1.0000 0.44542  0.73302  0.73001  Biso   1.000  H
  H1042    1.0000 0.12080  0.91071  0.71221  Biso   1.000  H
  N89      1.0000 0.03436  0.78346  0.71115  Biso   1.000  N
  H1043    1.0000 0.05529  0.85331  0.73872  Biso   1.000  H
  H1044    1.0000 0.02019  0.85690  0.68890  Biso   1.000  H
  N90      1.0000 0.21115  0.96564  0.71654  Biso   1.000  N
  H1045    1.0000 0.23872  0.94471  0.64669  Biso   1.000  H
  H1046    1.0000 0.18890  0.97981  0.64310  Biso   1.000  H
  N91      1.0000 0.21115  0.53436  0.78346  Biso   1.000  N
  C662     1.0000 0.27889  0.61541  0.77421  Biso   1.000  C
  C663     1.0000 0.22111  0.61541  0.72579  Biso   1.000  C
  H1047    1.0000 0.23001  0.55458  0.76698  Biso   1.000  H
  H1048    1.0000 0.23181  0.48571  0.69792  Biso   1.000  H
  C664     1.0000 0.23903  0.48614  0.77725  Biso   1.000  C
  C665     1.0000 0.29389  0.43804  0.71388  Biso   1.000  C
  N92      1.0000 0.46564  0.78346  0.78885  Biso   1.000  N
  C666     1.0000 0.38459  0.77421  0.72111  Biso   1.000  C
  C667     1.0000 0.38459  0.72579  0.77889  Biso   1.000  C
  H1049    1.0000 0.44542  0.76698  0.76999  Biso   1.000  H
  H1050    1.0000 0.51429  0.69792  0.76819  Biso   1.000  H
  C668     1.0000 0.51386  0.77725  0.76097  Biso   1.000  C
  C669     1.0000 0.56196  0.71388  0.70611  Biso   1.000  C
  C670     1.0000 0.98614  0.77725  0.73903  Biso   1.000  C
  C671     1.0000 0.07411  0.75000  0.75000  Biso   1.000  C
  H1051    1.0000 0.05458  0.76698  0.73001  Biso   1.000  H
  C672     1.0000 0.25000  0.92589  0.75000  Biso   1.000  C
  H1052    1.0000 0.23001  0.94542  0.73302  Biso   1.000  H
  C673     1.0000 0.23903  0.01386  0.72275  Biso   1.000  C
  C674     1.0000 0.20451  0.54939  0.83832  Biso   1.000  C
  H1053    1.0000 0.29888  0.63361  0.74820  Biso   1.000  H
  H1054    1.0000 0.30208  0.60101  0.79990  Biso   1.000  H
  H1055    1.0000 0.25519  0.63931  0.79068  Biso   1.000  H
  H1056    1.0000 0.20112  0.63361  0.75180  Biso   1.000  H
  H1057    1.0000 0.19792  0.60101  0.70010  Biso   1.000  H
  H1058    1.0000 0.24481  0.63931  0.70932  Biso   1.000  H
  H1059    1.0000 0.26819  0.48571  0.80208  Biso   1.000  H
  C675     1.0000 0.20611  0.43804  0.78612  Biso   1.000  C
  H1060    1.0000 0.32360  0.43851  0.73731  Biso   1.000  H
  H1061    1.0000 0.30689  0.43800  0.67831  Biso   1.000  H
  C676     1.0000 0.26140  0.38829  0.72345  Biso   1.000  C
  C677     1.0000 0.45061  0.83832  0.79549  Biso   1.000  C
  H1062    1.0000 0.36639  0.74820  0.70112  Biso   1.000  H
  H1063    1.0000 0.39899  0.79990  0.69792  Biso   1.000  H
  H1064    1.0000 0.36069  0.79068  0.74481  Biso   1.000  H
  H1065    1.0000 0.36639  0.75180  0.79888  Biso   1.000  H
  H1066    1.0000 0.39899  0.70010  0.80208  Biso   1.000  H
  H1067    1.0000 0.36069  0.70932  0.75519  Biso   1.000  H
  H1068    1.0000 0.51429  0.80208  0.73181  Biso   1.000  H
  C678     1.0000 0.56196  0.78612  0.79389  Biso   1.000  C
  H1069    1.0000 0.56149  0.73731  0.67640  Biso   1.000  H
  H1070    1.0000 0.56200  0.67831  0.69311  Biso   1.000  H
  C679     1.0000 0.61171  0.72345  0.73860  Biso   1.000  C
  C680     1.0000 0.98614  0.72275  0.76097  Biso   1.000  C
  C681     1.0000 0.93804  0.78612  0.70611  Biso   1.000  C
  H1071    1.0000 0.98571  0.80208  0.76819  Biso   1.000  H
  N93      1.0000 0.03436  0.71654  0.78885  Biso   1.000  N
  C682     1.0000 0.11541  0.72579  0.72111  Biso   1.000  C
  C683     1.0000 0.11541  0.77421  0.77889  Biso   1.000  C
  H1072    1.0000 0.05458  0.73302  0.76999  Biso   1.000  H
  N94      1.0000 0.28885  0.96564  0.78346  Biso   1.000  N
  C684     1.0000 0.22111  0.88459  0.77421  Biso   1.000  C
  C685     1.0000 0.27889  0.88459  0.72579  Biso   1.000  C
  H1073    1.0000 0.26999  0.94542  0.76698  Biso   1.000  H
  C686     1.0000 0.26097  0.01386  0.77725  Biso   1.000  C
  C687     1.0000 0.20611  0.06196  0.71388  Biso   1.000  C
  H1074    1.0000 0.26819  0.01429  0.69792  Biso   1.000  H
  H1075    1.0000 0.23872  0.55529  0.85331  Biso   1.000  H
  H1076    1.0000 0.18890  0.52019  0.85690  Biso   1.000  H
  C688     1.0000 0.17129  0.59742  0.84812  Biso   1.000  C
  H1077    1.0000 0.17640  0.43851  0.76269  Biso   1.000  H
  H1078    1.0000 0.19311  0.43800  0.82169  Biso   1.000  H
  C689     1.0000 0.23860  0.38829  0.77655  Biso   1.000  C
  H1079    1.0000 0.23372  0.38619  0.69780  Biso   1.000  H
  H1080    1.0000 0.28362  0.35780  0.71931  Biso   1.000  H
  H1081    1.0000 0.44471  0.85331  0.76128  Biso   1.000  H
  H1082    1.0000 0.47981  0.85690  0.81110  Biso   1.000  H
  C690     1.0000 0.40258  0.84812  0.82871  Biso   1.000  C
  H1083    1.0000 0.56149  0.76269  0.82360  Biso   1.000  H
  H1084    1.0000 0.56200  0.82169  0.80689  Biso   1.000  H
  C691     1.0000 0.61171  0.77655  0.76140  Biso   1.000  C
  H1085    1.0000 0.61381  0.69780  0.76628  Biso   1.000  H
  H1086    1.0000 0.64220  0.71931  0.71638  Biso   1.000  H
  C692     1.0000 0.93804  0.71388  0.79389  Biso   1.000  C
  H1087    1.0000 0.98571  0.69792  0.73181  Biso   1.000  H
  H1088    1.0000 0.93851  0.76269  0.67640  Biso   1.000  H
  H1089    1.0000 0.93800  0.82169  0.69311  Biso   1.000  H
  C693     1.0000 0.88829  0.77655  0.73860  Biso   1.000  C
  C694     1.0000 0.04939  0.66168  0.79549  Biso   1.000  C
  H1090    1.0000 0.13361  0.75180  0.70112  Biso   1.000  H
  H1091    1.0000 0.10101  0.70010  0.69792  Biso   1.000  H
  H1092    1.0000 0.13931  0.70932  0.74481  Biso   1.000  H
  H1093    1.0000 0.13361  0.74820  0.79888  Biso   1.000  H
  H1094    1.0000 0.10101  0.79990  0.80208  Biso   1.000  H
  H1095    1.0000 0.13931  0.79068  0.75519  Biso   1.000  H
  C695     1.0000 0.29549  0.95061  0.83832  Biso   1.000  C
  H1096    1.0000 0.20112  0.86639  0.74820  Biso   1.000  H
  H1097    1.0000 0.19792  0.89899  0.79990  Biso   1.000  H
  H1098    1.0000 0.24481  0.86069  0.79068  Biso   1.000  H
  H1099    1.0000 0.29888  0.86639  0.75180  Biso   1.000  H
  H1100    1.0000 0.30208  0.89899  0.70010  Biso   1.000  H
  H1101    1.0000 0.25519  0.86069  0.70932  Biso   1.000  H
  C696     1.0000 0.29389  0.06196  0.78612  Biso   1.000  C
  H1102    1.0000 0.23181  0.01429  0.80208  Biso   1.000  H
  H1103    1.0000 0.17640  0.06149  0.73731  Biso   1.000  H
  H1104    1.0000 0.19311  0.06200  0.67831  Biso   1.000  H
  C697     1.0000 0.23860  0.11171  0.72345  Biso   1.000  C
  C698     1.0000 0.12842  0.60975  0.81684  Biso   1.000  C
  C699     1.0000 0.18316  0.62842  0.89025  Biso   1.000  C
  H1105    1.0000 0.26628  0.38619  0.80220  Biso   1.000  H
  H1106    1.0000 0.21638  0.35780  0.78069  Biso   1.000  H
  C700     1.0000 0.39025  0.81684  0.87158  Biso   1.000  C
  C701     1.0000 0.37158  0.89025  0.81684  Biso   1.000  C
  H1107    1.0000 0.61381  0.80220  0.73372  Biso   1.000  H
  H1108    1.0000 0.64220  0.78069  0.78362  Biso   1.000  H
  H1109    1.0000 0.93851  0.73731  0.82360  Biso   1.000  H
  H1110    1.0000 0.93800  0.67831  0.80689  Biso   1.000  H
  C702     1.0000 0.88829  0.72345  0.76140  Biso   1.000  C
  H1111    1.0000 0.88619  0.80220  0.76628  Biso   1.000  H
  H1112    1.0000 0.85780  0.78069  0.71638  Biso   1.000  H
  H1113    1.0000 0.05529  0.64669  0.76128  Biso   1.000  H
  H1114    1.0000 0.02019  0.64310  0.81110  Biso   1.000  H
  C703     1.0000 0.09742  0.65188  0.82871  Biso   1.000  C
  H1115    1.0000 0.26128  0.94471  0.85331  Biso   1.000  H
  H1116    1.0000 0.31110  0.97981  0.85690  Biso   1.000  H
  C704     1.0000 0.32871  0.90258  0.84812  Biso   1.000  C
  H1117    1.0000 0.32360  0.06149  0.76269  Biso   1.000  H
  H1118    1.0000 0.30689  0.06200  0.82169  Biso   1.000  H
  C705     1.0000 0.26140  0.11171  0.77655  Biso   1.000  C
  H1119    1.0000 0.26628  0.11381  0.69780  Biso   1.000  H
  H1120    1.0000 0.21638  0.14220  0.71931  Biso   1.000  H
  H1121    1.0000 0.12080  0.58929  0.78779  Biso   1.000  H
  C706     1.0000 0.15188  0.67129  0.90258  Biso   1.000  C
  H1122    1.0000 0.21221  0.62080  0.91071  Biso   1.000  H
  C707     1.0000 0.34812  0.82871  0.90258  Biso   1.000  C
  H1123    1.0000 0.41071  0.78779  0.87920  Biso   1.000  H
  H1124    1.0000 0.37920  0.91071  0.78779  Biso   1.000  H
  H1125    1.0000 0.88619  0.69780  0.73372  Biso   1.000  H
  H1126    1.0000 0.85780  0.71931  0.78362  Biso   1.000  H
  C708     1.0000 0.10975  0.68316  0.87158  Biso   1.000  C
  C709     1.0000 0.31684  0.87158  0.89025  Biso   1.000  C
  H1127    1.0000 0.23372  0.11381  0.80220  Biso   1.000  H
  H1128    1.0000 0.28362  0.14220  0.78069  Biso   1.000  H
  C710     1.0000 0.16168  0.70451  0.95061  Biso   1.000  C
  C711     1.0000 0.33832  0.79549  0.95061  Biso   1.000  C
  H1129    1.0000 0.08929  0.71221  0.87920  Biso   1.000  H
  H1130    1.0000 0.28779  0.87920  0.91071  Biso   1.000  H
  N95      1.0000 0.21654  0.71115  0.96564  Biso   1.000  N
  H1131    1.0000 0.14669  0.73872  0.94471  Biso   1.000  H
  H1132    1.0000 0.14310  0.68890  0.97981  Biso   1.000  H
  N96      1.0000 0.28346  0.78885  0.96564  Biso   1.000  N
  H1133    1.0000 0.35331  0.76128  0.94471  Biso   1.000  H
  H1134    1.0000 0.35690  0.81110  0.97981  Biso   1.000  H
  C712     1.0000 0.25000  0.75000  0.92589  Biso   1.000  C
  H1135    1.0000 0.23302  0.73001  0.94542  Biso   1.000  H
  C713     1.0000 0.22275  0.73903  0.01386  Biso   1.000  C
  H1136    1.0000 0.26698  0.76999  0.94542  Biso   1.000  H
  C714     1.0000 0.27725  0.76097  0.01386  Biso   1.000  C
  C715     1.0000 0.22579  0.77889  0.88459  Biso   1.000  C
  C716     1.0000 0.27421  0.72111  0.88459  Biso   1.000  C
  C717     1.0000 0.21388  0.70611  0.06196  Biso   1.000  C
  H1137    1.0000 0.19792  0.76819  0.01429  Biso   1.000  H
  C718     1.0000 0.28612  0.79389  0.06196  Biso   1.000  C
  H1138    1.0000 0.30208  0.73181  0.01429  Biso   1.000  H
  H1139    1.0000 0.25180  0.79888  0.86639  Biso   1.000  H
  H1140    1.0000 0.20010  0.80208  0.89899  Biso   1.000  H
  H1141    1.0000 0.20932  0.75519  0.86069  Biso   1.000  H
  H1142    1.0000 0.24820  0.70112  0.86639  Biso   1.000  H
  H1143    1.0000 0.29990  0.69792  0.89899  Biso   1.000  H
  H1144    1.0000 0.29068  0.74481  0.86069  Biso   1.000  H
  H1145    1.0000 0.23731  0.67640  0.06149  Biso   1.000  H
  H1146    1.0000 0.17831  0.69311  0.06200  Biso   1.000  H
  C719     1.0000 0.22345  0.73860  0.11171  Biso   1.000  C
  H1147    1.0000 0.26269  0.82360  0.06149  Biso   1.000  H
  H1148    1.0000 0.32169  0.80689  0.06200  Biso   1.000  H
  C720     1.0000 0.27655  0.76140  0.11171  Biso   1.000  C
  H1149    1.0000 0.19780  0.76628  0.11381  Biso   1.000  H
  H1150    1.0000 0.21931  0.71638  0.14220  Biso   1.000  H
  H1151    1.0000 0.30220  0.73372  0.11381  Biso   1.000  H
  H1152    1.0000 0.28069  0.78362  0.14220  Biso   1.000  H
