data_image0
_cell_length_a       25.712
_cell_length_b       25.712
_cell_length_c       25.712
_cell_angle_alpha    90
_cell_angle_beta     90
_cell_angle_gamma    90

_symmetry_space_group_name_H-M    "P 1"
_symmetry_int_tables_number       1

loop_
  _symmetry_equiv_pos_as_xyz
  'x, y, z'

loop_
  _atom_site_label
  _atom_site_occupancy
  _atom_site_fract_x
  _atom_site_fract_y
  _atom_site_fract_z
  _atom_site_thermal_displace_type
  _atom_site_B_iso_or_equiv
  _atom_site_type_symbol
  C1       1.0000 0.39289  0.37679  0.32094  Biso   1.000  C
  C2       1.0000 0.40658  0.33331  0.35026  Biso   1.000  C
  H1       1.0000 0.41311  0.38589  0.29231  Biso   1.000  H
  C3       1.0000 0.35026  0.40658  0.33331  Biso   1.000  C
  C4       1.0000 0.45543  0.30320  0.33949  Biso   1.000  C
  C5       1.0000 0.37679  0.32094  0.39289  Biso   1.000  C
  C6       1.0000 0.32094  0.39289  0.37679  Biso   1.000  C
  C7       1.0000 0.33949  0.45543  0.30320  Biso   1.000  C
  N1       1.0000 0.46511  0.29313  0.28520  Biso   1.000  N
  H2       1.0000 0.48472  0.32230  0.35361  Biso   1.000  H
  H3       1.0000 0.45348  0.27019  0.35769  Biso   1.000  H
  H4       1.0000 0.38589  0.29231  0.41311  Biso   1.000  H
  C8       1.0000 0.33331  0.35026  0.40658  Biso   1.000  C
  H5       1.0000 0.29231  0.41311  0.38589  Biso   1.000  H
  N2       1.0000 0.28520  0.46511  0.29313  Biso   1.000  N
  H6       1.0000 0.35361  0.48472  0.32230  Biso   1.000  H
  H7       1.0000 0.35769  0.45348  0.27019  Biso   1.000  H
  H8       1.0000 0.43999  0.27999  0.27201  Biso   1.000  H
  C9       1.0000 0.51256  0.26186  0.27722  Biso   1.000  C
  C10      1.0000 0.30320  0.33949  0.45543  Biso   1.000  C
  H9       1.0000 0.27201  0.43999  0.27999  Biso   1.000  H
  C11      1.0000 0.27722  0.51256  0.26186  Biso   1.000  C
  C12      1.0000 0.51256  0.23814  0.22278  Biso   1.000  C
  H10      1.0000 0.51260  0.23351  0.30270  Biso   1.000  H
  C13      1.0000 0.56203  0.29426  0.28528  Biso   1.000  C
  N3       1.0000 0.29313  0.28520  0.46511  Biso   1.000  N
  H11      1.0000 0.32230  0.35361  0.48472  Biso   1.000  H
  H12      1.0000 0.27019  0.35769  0.45348  Biso   1.000  H
  H13      1.0000 0.30270  0.51260  0.23351  Biso   1.000  H
  C14      1.0000 0.28528  0.56203  0.29426  Biso   1.000  C
  C15      1.0000 0.22278  0.51256  0.23814  Biso   1.000  C
  N4       1.0000 0.46511  0.20687  0.21480  Biso   1.000  N
  H14      1.0000 0.51260  0.26649  0.19730  Biso   1.000  H
  C16      1.0000 0.56203  0.20574  0.21472  Biso   1.000  C
  H15      1.0000 0.56180  0.32339  0.26132  Biso   1.000  H
  H16      1.0000 0.56219  0.30811  0.32040  Biso   1.000  H
  C17      1.0000 0.61135  0.26237  0.27672  Biso   1.000  C
  H17      1.0000 0.27999  0.27201  0.43999  Biso   1.000  H
  C18      1.0000 0.26186  0.27722  0.51256  Biso   1.000  C
  H18      1.0000 0.26132  0.56180  0.32339  Biso   1.000  H
  H19      1.0000 0.32040  0.56219  0.30811  Biso   1.000  H
  C19      1.0000 0.27672  0.61135  0.26237  Biso   1.000  C
  N5       1.0000 0.21480  0.46511  0.20687  Biso   1.000  N
  H20      1.0000 0.19730  0.51260  0.26649  Biso   1.000  H
  C20      1.0000 0.21472  0.56203  0.20574  Biso   1.000  C
  H21      1.0000 0.43999  0.22001  0.22799  Biso   1.000  H
  C21      1.0000 0.45543  0.19680  0.16051  Biso   1.000  C
  H22      1.0000 0.56180  0.17661  0.23868  Biso   1.000  H
  H23      1.0000 0.56219  0.19189  0.17960  Biso   1.000  H
  C22      1.0000 0.61135  0.23763  0.22328  Biso   1.000  C
  H24      1.0000 0.64149  0.28469  0.28022  Biso   1.000  H
  H25      1.0000 0.61360  0.23542  0.30301  Biso   1.000  H
  H26      1.0000 0.23351  0.30270  0.51260  Biso   1.000  H
  C23      1.0000 0.29426  0.28528  0.56203  Biso   1.000  C
  C24      1.0000 0.23814  0.22278  0.51256  Biso   1.000  C
  H27      1.0000 0.28022  0.64149  0.28469  Biso   1.000  H
  H28      1.0000 0.30301  0.61360  0.23542  Biso   1.000  H
  C25      1.0000 0.22328  0.61135  0.23763  Biso   1.000  C
  H29      1.0000 0.22799  0.43999  0.22001  Biso   1.000  H
  C26      1.0000 0.16051  0.45543  0.19680  Biso   1.000  C
  H30      1.0000 0.23868  0.56180  0.17661  Biso   1.000  H
  H31      1.0000 0.17960  0.56219  0.19189  Biso   1.000  H
  C27      1.0000 0.40658  0.16669  0.14974  Biso   1.000  C
  H32      1.0000 0.48472  0.17770  0.14639  Biso   1.000  H
  H33      1.0000 0.45348  0.22981  0.14231  Biso   1.000  H
  H34      1.0000 0.64149  0.21531  0.21978  Biso   1.000  H
  H35      1.0000 0.61360  0.26458  0.19699  Biso   1.000  H
  H36      1.0000 0.32339  0.26132  0.56180  Biso   1.000  H
  H37      1.0000 0.30811  0.32040  0.56219  Biso   1.000  H
  C28      1.0000 0.26237  0.27672  0.61135  Biso   1.000  C
  N6       1.0000 0.20687  0.21480  0.46511  Biso   1.000  N
  H38      1.0000 0.26649  0.19730  0.51260  Biso   1.000  H
  C29      1.0000 0.20574  0.21472  0.56203  Biso   1.000  C
  H39      1.0000 0.21978  0.64149  0.21531  Biso   1.000  H
  H40      1.0000 0.19699  0.61360  0.26458  Biso   1.000  H
  C30      1.0000 0.14974  0.40658  0.16669  Biso   1.000  C
  H41      1.0000 0.14639  0.48472  0.17770  Biso   1.000  H
  H42      1.0000 0.14231  0.45348  0.22981  Biso   1.000  H
  C31      1.0000 0.39289  0.12321  0.17906  Biso   1.000  C
  C32      1.0000 0.37679  0.17906  0.10711  Biso   1.000  C
  H43      1.0000 0.28469  0.28022  0.64149  Biso   1.000  H
  H44      1.0000 0.23542  0.30301  0.61360  Biso   1.000  H
  C33      1.0000 0.23763  0.22328  0.61135  Biso   1.000  C
  H45      1.0000 0.22001  0.22799  0.43999  Biso   1.000  H
  C34      1.0000 0.19680  0.16051  0.45543  Biso   1.000  C
  H46      1.0000 0.17661  0.23868  0.56180  Biso   1.000  H
  H47      1.0000 0.19189  0.17960  0.56219  Biso   1.000  H
  C35      1.0000 0.17906  0.39289  0.12321  Biso   1.000  C
  C36      1.0000 0.10711  0.37679  0.17906  Biso   1.000  C
  H48      1.0000 0.41311  0.11411  0.20769  Biso   1.000  H
  C37      1.0000 0.35026  0.09342  0.16669  Biso   1.000  C
  H49      1.0000 0.38589  0.20769  0.08689  Biso   1.000  H
  C38      1.0000 0.33331  0.14974  0.09342  Biso   1.000  C
  H50      1.0000 0.21531  0.21978  0.64149  Biso   1.000  H
  H51      1.0000 0.26458  0.19699  0.61360  Biso   1.000  H
  C39      1.0000 0.16669  0.14974  0.40658  Biso   1.000  C
  H52      1.0000 0.17770  0.14639  0.48472  Biso   1.000  H
  H53      1.0000 0.22981  0.14231  0.45348  Biso   1.000  H
  C40      1.0000 0.16669  0.35026  0.09342  Biso   1.000  C
  H54      1.0000 0.20769  0.41311  0.11411  Biso   1.000  H
  H55      1.0000 0.08689  0.38589  0.20769  Biso   1.000  H
  C41      1.0000 0.09342  0.33331  0.14974  Biso   1.000  C
  C42      1.0000 0.32094  0.10711  0.12321  Biso   1.000  C
  C43      1.0000 0.33949  0.04457  0.19680  Biso   1.000  C
  C44      1.0000 0.30320  0.16051  0.04457  Biso   1.000  C
  C45      1.0000 0.17906  0.10711  0.37679  Biso   1.000  C
  C46      1.0000 0.12321  0.17906  0.39289  Biso   1.000  C
  C47      1.0000 0.12321  0.32094  0.10711  Biso   1.000  C
  C48      1.0000 0.19680  0.33949  0.04457  Biso   1.000  C
  C49      1.0000 0.04457  0.30320  0.16051  Biso   1.000  C
  H56      1.0000 0.29231  0.08689  0.11411  Biso   1.000  H
  N7       1.0000 0.28520  0.03489  0.20687  Biso   1.000  N
  H57      1.0000 0.35361  0.01528  0.17770  Biso   1.000  H
  H58      1.0000 0.35769  0.04652  0.22981  Biso   1.000  H
  N8       1.0000 0.29313  0.21480  0.03489  Biso   1.000  N
  H59      1.0000 0.32230  0.14639  0.01528  Biso   1.000  H
  H60      1.0000 0.27019  0.14231  0.04652  Biso   1.000  H
  H61      1.0000 0.20769  0.08689  0.38589  Biso   1.000  H
  C50      1.0000 0.14974  0.09342  0.33331  Biso   1.000  C
  H62      1.0000 0.11411  0.20769  0.41311  Biso   1.000  H
  C51      1.0000 0.09342  0.16669  0.35026  Biso   1.000  C
  H63      1.0000 0.11411  0.29231  0.08689  Biso   1.000  H
  N9       1.0000 0.20687  0.28520  0.03489  Biso   1.000  N
  H64      1.0000 0.17770  0.35361  0.01528  Biso   1.000  H
  H65      1.0000 0.22981  0.35769  0.04652  Biso   1.000  H
  N10      1.0000 0.03489  0.29313  0.21480  Biso   1.000  N
  H66      1.0000 0.01528  0.32230  0.14639  Biso   1.000  H
  H67      1.0000 0.04652  0.27019  0.14231  Biso   1.000  H
  H68      1.0000 0.27201  0.06001  0.22001  Biso   1.000  H
  C52      1.0000 0.27722  0.98744  0.23814  Biso   1.000  C
  H69      1.0000 0.27999  0.22799  0.06001  Biso   1.000  H
  C53      1.0000 0.26186  0.22278  0.98744  Biso   1.000  C
  C54      1.0000 0.16051  0.04457  0.30320  Biso   1.000  C
  C55      1.0000 0.10711  0.12321  0.32094  Biso   1.000  C
  C56      1.0000 0.04457  0.19680  0.33949  Biso   1.000  C
  C57      1.0000 0.23814  0.27722  0.98744  Biso   1.000  C
  H70      1.0000 0.22001  0.27201  0.06001  Biso   1.000  H
  H71      1.0000 0.06001  0.27999  0.22799  Biso   1.000  H
  C58      1.0000 0.98744  0.26186  0.22278  Biso   1.000  C
  H72      1.0000 0.30270  0.98740  0.26649  Biso   1.000  H
  C59      1.0000 0.28528  0.93797  0.20574  Biso   1.000  C
  C60      1.0000 0.22278  0.98744  0.26186  Biso   1.000  C
  H73      1.0000 0.23351  0.19730  0.98740  Biso   1.000  H
  C61      1.0000 0.29426  0.21472  0.93797  Biso   1.000  C
  N11      1.0000 0.21480  0.03489  0.29313  Biso   1.000  N
  H74      1.0000 0.14639  0.01528  0.32230  Biso   1.000  H
  H75      1.0000 0.14231  0.04652  0.27019  Biso   1.000  H
  H76      1.0000 0.08689  0.11411  0.29231  Biso   1.000  H
  N12      1.0000 0.03489  0.20687  0.28520  Biso   1.000  N
  H77      1.0000 0.01528  0.17770  0.35361  Biso   1.000  H
  H78      1.0000 0.04652  0.22981  0.35769  Biso   1.000  H
  H79      1.0000 0.26649  0.30270  0.98740  Biso   1.000  H
  C62      1.0000 0.20574  0.28528  0.93797  Biso   1.000  C
  C63      1.0000 0.98744  0.23814  0.27722  Biso   1.000  C
  H80      1.0000 0.98740  0.23351  0.19730  Biso   1.000  H
  C64      1.0000 0.93797  0.29426  0.21472  Biso   1.000  C
  H81      1.0000 0.26132  0.93820  0.17661  Biso   1.000  H
  H82      1.0000 0.32040  0.93781  0.19189  Biso   1.000  H
  C65      1.0000 0.27672  0.88865  0.23763  Biso   1.000  C
  H83      1.0000 0.19730  0.98740  0.23351  Biso   1.000  H
  C66      1.0000 0.21472  0.93797  0.29426  Biso   1.000  C
  H84      1.0000 0.32339  0.23868  0.93820  Biso   1.000  H
  H85      1.0000 0.30811  0.17960  0.93781  Biso   1.000  H
  C67      1.0000 0.26237  0.22328  0.88865  Biso   1.000  C
  H86      1.0000 0.22799  0.06001  0.27999  Biso   1.000  H
  H87      1.0000 0.06001  0.22001  0.27201  Biso   1.000  H
  C68      1.0000 0.23763  0.27672  0.88865  Biso   1.000  C
  H88      1.0000 0.17661  0.26132  0.93820  Biso   1.000  H
  H89      1.0000 0.19189  0.32040  0.93781  Biso   1.000  H
  H90      1.0000 0.98740  0.26649  0.30270  Biso   1.000  H
  C69      1.0000 0.93797  0.20574  0.28528  Biso   1.000  C
  H91      1.0000 0.93820  0.32339  0.23868  Biso   1.000  H
  H92      1.0000 0.93781  0.30811  0.17960  Biso   1.000  H
  C70      1.0000 0.88865  0.26237  0.22328  Biso   1.000  C
  H93      1.0000 0.28022  0.85851  0.21531  Biso   1.000  H
  H94      1.0000 0.30301  0.88640  0.26458  Biso   1.000  H
  C71      1.0000 0.22328  0.88865  0.26237  Biso   1.000  C
  H95      1.0000 0.23868  0.93820  0.32339  Biso   1.000  H
  H96      1.0000 0.17960  0.93781  0.30811  Biso   1.000  H
  H97      1.0000 0.28469  0.21978  0.85851  Biso   1.000  H
  H98      1.0000 0.23542  0.19699  0.88640  Biso   1.000  H
  H99      1.0000 0.21531  0.28022  0.85851  Biso   1.000  H
  H100     1.0000 0.26458  0.30301  0.88640  Biso   1.000  H
  H101     1.0000 0.93820  0.17661  0.26132  Biso   1.000  H
  H102     1.0000 0.93781  0.19189  0.32040  Biso   1.000  H
  C72      1.0000 0.88865  0.23763  0.27672  Biso   1.000  C
  H103     1.0000 0.85851  0.28469  0.21978  Biso   1.000  H
  H104     1.0000 0.88640  0.23542  0.19699  Biso   1.000  H
  H105     1.0000 0.21978  0.85851  0.28469  Biso   1.000  H
  H106     1.0000 0.19699  0.88640  0.23542  Biso   1.000  H
  H107     1.0000 0.85851  0.21531  0.28022  Biso   1.000  H
  H108     1.0000 0.88640  0.26458  0.30301  Biso   1.000  H
  C73      1.0000 0.51237  0.36135  0.47328  Biso   1.000  C
  C74      1.0000 0.54426  0.31203  0.46472  Biso   1.000  C
  H109     1.0000 0.53469  0.39149  0.46978  Biso   1.000  H
  H110     1.0000 0.48542  0.36360  0.44699  Biso   1.000  H
  C75      1.0000 0.48763  0.36135  0.52672  Biso   1.000  C
  C76      1.0000 0.51186  0.26256  0.47278  Biso   1.000  C
  H111     1.0000 0.57339  0.31180  0.48868  Biso   1.000  H
  H112     1.0000 0.55811  0.31219  0.42960  Biso   1.000  H
  C77      1.0000 0.45574  0.31203  0.53528  Biso   1.000  C
  H113     1.0000 0.46531  0.39149  0.53022  Biso   1.000  H
  H114     1.0000 0.51458  0.36360  0.55301  Biso   1.000  H
  N13      1.0000 0.54313  0.21511  0.46480  Biso   1.000  N
  H115     1.0000 0.48351  0.26260  0.44730  Biso   1.000  H
  C78      1.0000 0.48814  0.26256  0.52722  Biso   1.000  C
  H116     1.0000 0.42661  0.31180  0.51132  Biso   1.000  H
  H117     1.0000 0.44189  0.31219  0.57040  Biso   1.000  H
  H118     1.0000 0.52999  0.18999  0.47799  Biso   1.000  H
  C79      1.0000 0.55320  0.20543  0.41051  Biso   1.000  C
  N14      1.0000 0.45687  0.21511  0.53520  Biso   1.000  N
  H119     1.0000 0.51649  0.26260  0.55270  Biso   1.000  H
  C80      1.0000 0.58331  0.15658  0.39974  Biso   1.000  C
  H120     1.0000 0.57230  0.23472  0.39639  Biso   1.000  H
  H121     1.0000 0.52019  0.20348  0.39231  Biso   1.000  H
  H122     1.0000 0.47001  0.18999  0.52201  Biso   1.000  H
  C81      1.0000 0.44680  0.20543  0.58949  Biso   1.000  C
  C82      1.0000 0.62679  0.14289  0.42906  Biso   1.000  C
  C83      1.0000 0.57094  0.12679  0.35711  Biso   1.000  C
  C84      1.0000 0.41669  0.15658  0.60026  Biso   1.000  C
  H123     1.0000 0.42770  0.23472  0.60361  Biso   1.000  H
  H124     1.0000 0.47981  0.20348  0.60769  Biso   1.000  H
  H125     1.0000 0.63589  0.16311  0.45769  Biso   1.000  H
  C85      1.0000 0.65658  0.10026  0.41669  Biso   1.000  C
  H126     1.0000 0.54231  0.13589  0.33689  Biso   1.000  H
  C86      1.0000 0.60026  0.08331  0.34342  Biso   1.000  C
  C87      1.0000 0.37321  0.14289  0.57094  Biso   1.000  C
  C88      1.0000 0.42906  0.12679  0.64289  Biso   1.000  C
  C89      1.0000 0.64289  0.07094  0.37321  Biso   1.000  C
  C90      1.0000 0.70543  0.08949  0.44680  Biso   1.000  C
  C91      1.0000 0.58949  0.05320  0.29457  Biso   1.000  C
  H127     1.0000 0.36411  0.16311  0.54231  Biso   1.000  H
  C92      1.0000 0.34342  0.10026  0.58331  Biso   1.000  C
  H128     1.0000 0.45769  0.13589  0.66311  Biso   1.000  H
  C93      1.0000 0.39974  0.08331  0.65658  Biso   1.000  C
  H129     1.0000 0.66311  0.04231  0.36411  Biso   1.000  H
  N15      1.0000 0.71511  0.03520  0.45687  Biso   1.000  N
  H130     1.0000 0.73472  0.10361  0.42770  Biso   1.000  H
  H131     1.0000 0.70348  0.10769  0.47981  Biso   1.000  H
  N16      1.0000 0.53520  0.04313  0.28489  Biso   1.000  N
  H132     1.0000 0.60361  0.07230  0.26528  Biso   1.000  H
  H133     1.0000 0.60769  0.02019  0.29652  Biso   1.000  H
  C94      1.0000 0.35711  0.07094  0.62679  Biso   1.000  C
  C95      1.0000 0.29457  0.08949  0.55320  Biso   1.000  C
  C96      1.0000 0.41051  0.05320  0.70543  Biso   1.000  C
  H134     1.0000 0.68999  0.02201  0.47001  Biso   1.000  H
  C97      1.0000 0.76256  0.02722  0.48814  Biso   1.000  C
  H135     1.0000 0.52201  0.02999  0.31001  Biso   1.000  H
  C98      1.0000 0.52722  0.01186  0.23744  Biso   1.000  C
  H136     1.0000 0.33689  0.04231  0.63589  Biso   1.000  H
  N17      1.0000 0.28489  0.03520  0.54313  Biso   1.000  N
  H137     1.0000 0.26528  0.10361  0.57230  Biso   1.000  H
  H138     1.0000 0.29652  0.10769  0.52019  Biso   1.000  H
  N18      1.0000 0.46480  0.04313  0.71511  Biso   1.000  N
  H139     1.0000 0.39639  0.07230  0.73472  Biso   1.000  H
  H140     1.0000 0.39231  0.02019  0.70348  Biso   1.000  H
  H141     1.0000 0.76260  0.05270  0.51649  Biso   1.000  H
  C99      1.0000 0.81203  0.03528  0.45574  Biso   1.000  C
  C100     1.0000 0.76256  0.97278  0.51186  Biso   1.000  C
  C101     1.0000 0.53528  0.04426  0.18797  Biso   1.000  C
  H142     1.0000 0.55270  0.98351  0.23740  Biso   1.000  H
  C102     1.0000 0.47278  0.98814  0.23744  Biso   1.000  C
  H143     1.0000 0.31001  0.02201  0.52999  Biso   1.000  H
  C103     1.0000 0.23744  0.02722  0.51186  Biso   1.000  C
  H144     1.0000 0.47799  0.02999  0.68999  Biso   1.000  H
  C104     1.0000 0.47278  0.01186  0.76256  Biso   1.000  C
  H145     1.0000 0.81180  0.01132  0.42661  Biso   1.000  H
  H146     1.0000 0.81219  0.07040  0.44189  Biso   1.000  H
  C105     1.0000 0.86135  0.02672  0.48763  Biso   1.000  C
  N19      1.0000 0.71511  0.96480  0.54313  Biso   1.000  N
  H147     1.0000 0.76260  0.94730  0.48351  Biso   1.000  H
  C106     1.0000 0.81203  0.96472  0.54426  Biso   1.000  C
  H148     1.0000 0.51132  0.07339  0.18820  Biso   1.000  H
  H149     1.0000 0.57040  0.05811  0.18781  Biso   1.000  H
  C107     1.0000 0.52672  0.01237  0.13865  Biso   1.000  C
  H150     1.0000 0.44730  0.01649  0.23740  Biso   1.000  H
  N20      1.0000 0.46480  0.95687  0.28489  Biso   1.000  N
  C108     1.0000 0.46472  0.95574  0.18797  Biso   1.000  C
  H151     1.0000 0.23740  0.05270  0.48351  Biso   1.000  H
  C109     1.0000 0.18797  0.03528  0.54426  Biso   1.000  C
  C110     1.0000 0.23744  0.97278  0.48814  Biso   1.000  C
  C111     1.0000 0.46472  0.04426  0.81203  Biso   1.000  C
  H152     1.0000 0.44730  0.98351  0.76260  Biso   1.000  H
  C112     1.0000 0.52722  0.98814  0.76256  Biso   1.000  C
  H153     1.0000 0.89149  0.03022  0.46531  Biso   1.000  H
  H154     1.0000 0.86360  0.05301  0.51458  Biso   1.000  H
  C113     1.0000 0.86135  0.97328  0.51237  Biso   1.000  C
  H155     1.0000 0.68999  0.97799  0.52999  Biso   1.000  H
  C114     1.0000 0.70543  0.91051  0.55320  Biso   1.000  C
  H156     1.0000 0.81180  0.98868  0.57339  Biso   1.000  H
  H157     1.0000 0.81219  0.92960  0.55811  Biso   1.000  H
  H158     1.0000 0.53022  0.03469  0.10851  Biso   1.000  H
  H159     1.0000 0.55301  0.98542  0.13640  Biso   1.000  H
  C115     1.0000 0.47328  0.98763  0.13865  Biso   1.000  C
  H160     1.0000 0.47799  0.97001  0.31001  Biso   1.000  H
  C116     1.0000 0.41051  0.94680  0.29457  Biso   1.000  C
  H161     1.0000 0.48868  0.92661  0.18820  Biso   1.000  H
  H162     1.0000 0.42960  0.94189  0.18781  Biso   1.000  H
  H163     1.0000 0.18820  0.01132  0.57339  Biso   1.000  H
  H164     1.0000 0.18781  0.07040  0.55811  Biso   1.000  H
  C117     1.0000 0.13865  0.02672  0.51237  Biso   1.000  C
  N21      1.0000 0.28489  0.96480  0.45687  Biso   1.000  N
  H165     1.0000 0.23740  0.94730  0.51649  Biso   1.000  H
  C118     1.0000 0.18797  0.96472  0.45574  Biso   1.000  C
  H166     1.0000 0.48868  0.07339  0.81180  Biso   1.000  H
  H167     1.0000 0.42960  0.05811  0.81219  Biso   1.000  H
  C119     1.0000 0.47328  0.01237  0.86135  Biso   1.000  C
  H168     1.0000 0.55270  0.01649  0.76260  Biso   1.000  H
  N22      1.0000 0.53520  0.95687  0.71511  Biso   1.000  N
  C120     1.0000 0.53528  0.95574  0.81203  Biso   1.000  C
  H169     1.0000 0.89149  0.96978  0.53469  Biso   1.000  H
  H170     1.0000 0.86360  0.94699  0.48542  Biso   1.000  H
  C121     1.0000 0.65658  0.89974  0.58331  Biso   1.000  C
  H171     1.0000 0.73472  0.89639  0.57230  Biso   1.000  H
  H172     1.0000 0.70348  0.89231  0.52019  Biso   1.000  H
  H173     1.0000 0.44699  0.01458  0.13640  Biso   1.000  H
  H174     1.0000 0.46978  0.96531  0.10851  Biso   1.000  H
  C122     1.0000 0.39974  0.91669  0.34342  Biso   1.000  C
  H175     1.0000 0.39639  0.92770  0.26528  Biso   1.000  H
  H176     1.0000 0.39231  0.97981  0.29652  Biso   1.000  H
  H177     1.0000 0.10851  0.03022  0.53469  Biso   1.000  H
  H178     1.0000 0.13640  0.05301  0.48542  Biso   1.000  H
  C123     1.0000 0.13865  0.97328  0.48763  Biso   1.000  C
  H179     1.0000 0.31001  0.97799  0.47001  Biso   1.000  H
  C124     1.0000 0.29457  0.91051  0.44680  Biso   1.000  C
  H180     1.0000 0.18820  0.98868  0.42661  Biso   1.000  H
  H181     1.0000 0.18781  0.92960  0.44189  Biso   1.000  H
  H182     1.0000 0.46978  0.03469  0.89149  Biso   1.000  H
  H183     1.0000 0.44699  0.98542  0.86360  Biso   1.000  H
  C125     1.0000 0.52672  0.98763  0.86135  Biso   1.000  C
  H184     1.0000 0.52201  0.97001  0.68999  Biso   1.000  H
  C126     1.0000 0.58949  0.94680  0.70543  Biso   1.000  C
  H185     1.0000 0.51132  0.92661  0.81180  Biso   1.000  H
  H186     1.0000 0.57040  0.94189  0.81219  Biso   1.000  H
  C127     1.0000 0.64289  0.92906  0.62679  Biso   1.000  C
  C128     1.0000 0.62679  0.85711  0.57094  Biso   1.000  C
  C129     1.0000 0.42906  0.87321  0.35711  Biso   1.000  C
  C130     1.0000 0.35711  0.92906  0.37321  Biso   1.000  C
  H187     1.0000 0.10851  0.96978  0.46531  Biso   1.000  H
  H188     1.0000 0.13640  0.94699  0.51458  Biso   1.000  H
  C131     1.0000 0.34342  0.89974  0.41669  Biso   1.000  C
  H189     1.0000 0.26528  0.89639  0.42770  Biso   1.000  H
  H190     1.0000 0.29652  0.89231  0.47981  Biso   1.000  H
  H191     1.0000 0.55301  0.01458  0.86360  Biso   1.000  H
  H192     1.0000 0.53022  0.96531  0.89149  Biso   1.000  H
  C132     1.0000 0.60026  0.91669  0.65658  Biso   1.000  C
  H193     1.0000 0.60361  0.92770  0.73472  Biso   1.000  H
  H194     1.0000 0.60769  0.97981  0.70348  Biso   1.000  H
  H195     1.0000 0.66311  0.95769  0.63589  Biso   1.000  H
  H196     1.0000 0.63589  0.83689  0.54231  Biso   1.000  H
  C133     1.0000 0.58331  0.84342  0.60026  Biso   1.000  C
  H197     1.0000 0.45769  0.86411  0.33689  Biso   1.000  H
  C134     1.0000 0.41669  0.84342  0.39974  Biso   1.000  C
  H198     1.0000 0.33689  0.95769  0.36411  Biso   1.000  H
  C135     1.0000 0.37321  0.85711  0.42906  Biso   1.000  C
  C136     1.0000 0.57094  0.87321  0.64289  Biso   1.000  C
  C137     1.0000 0.55320  0.79457  0.58949  Biso   1.000  C
  C138     1.0000 0.44680  0.79457  0.41051  Biso   1.000  C
  H199     1.0000 0.36411  0.83689  0.45769  Biso   1.000  H
  H200     1.0000 0.54231  0.86411  0.66311  Biso   1.000  H
  N23      1.0000 0.54313  0.78489  0.53520  Biso   1.000  N
  H201     1.0000 0.57230  0.76528  0.60361  Biso   1.000  H
  H202     1.0000 0.52019  0.79652  0.60769  Biso   1.000  H
  N24      1.0000 0.45687  0.78489  0.46480  Biso   1.000  N
  H203     1.0000 0.42770  0.76528  0.39639  Biso   1.000  H
  H204     1.0000 0.47981  0.79652  0.39231  Biso   1.000  H
  H205     1.0000 0.52999  0.81001  0.52201  Biso   1.000  H
  C139     1.0000 0.51186  0.73744  0.52722  Biso   1.000  C
  H206     1.0000 0.47001  0.81001  0.47799  Biso   1.000  H
  C140     1.0000 0.48814  0.73744  0.47278  Biso   1.000  C
  H207     1.0000 0.48351  0.73740  0.55270  Biso   1.000  H
  C141     1.0000 0.54426  0.68797  0.53528  Biso   1.000  C
  H208     1.0000 0.51649  0.73740  0.44730  Biso   1.000  H
  C142     1.0000 0.45574  0.68797  0.46472  Biso   1.000  C
  H209     1.0000 0.57339  0.68820  0.51132  Biso   1.000  H
  H210     1.0000 0.55811  0.68781  0.57040  Biso   1.000  H
  C143     1.0000 0.51237  0.63865  0.52672  Biso   1.000  C
  H211     1.0000 0.42661  0.68820  0.48868  Biso   1.000  H
  H212     1.0000 0.44189  0.68781  0.42960  Biso   1.000  H
  C144     1.0000 0.48763  0.63865  0.47328  Biso   1.000  C
  H213     1.0000 0.53469  0.60851  0.53022  Biso   1.000  H
  H214     1.0000 0.48542  0.63640  0.55301  Biso   1.000  H
  H215     1.0000 0.46531  0.60851  0.46978  Biso   1.000  H
  H216     1.0000 0.51458  0.63640  0.44699  Biso   1.000  H
  C145     1.0000 0.47328  0.51237  0.36135  Biso   1.000  C
  C146     1.0000 0.52672  0.48763  0.36135  Biso   1.000  C
  C147     1.0000 0.46472  0.54426  0.31203  Biso   1.000  C
  H217     1.0000 0.46978  0.53469  0.39149  Biso   1.000  H
  H218     1.0000 0.44699  0.48542  0.36360  Biso   1.000  H
  C148     1.0000 0.53528  0.45574  0.31203  Biso   1.000  C
  H219     1.0000 0.53022  0.46531  0.39149  Biso   1.000  H
  H220     1.0000 0.55301  0.51458  0.36360  Biso   1.000  H
  C149     1.0000 0.47278  0.51186  0.26256  Biso   1.000  C
  H221     1.0000 0.48868  0.57339  0.31180  Biso   1.000  H
  H222     1.0000 0.42960  0.55811  0.31219  Biso   1.000  H
  C150     1.0000 0.52722  0.48814  0.26256  Biso   1.000  C
  H223     1.0000 0.51132  0.42661  0.31180  Biso   1.000  H
  H224     1.0000 0.57040  0.44189  0.31219  Biso   1.000  H
  N25      1.0000 0.46480  0.54313  0.21511  Biso   1.000  N
  H225     1.0000 0.44730  0.48351  0.26260  Biso   1.000  H
  N26      1.0000 0.53520  0.45687  0.21511  Biso   1.000  N
  H226     1.0000 0.55270  0.51649  0.26260  Biso   1.000  H
  H227     1.0000 0.47799  0.52999  0.18999  Biso   1.000  H
  C151     1.0000 0.41051  0.55320  0.20543  Biso   1.000  C
  C152     1.0000 0.58949  0.44680  0.20543  Biso   1.000  C
  H228     1.0000 0.52201  0.47001  0.18999  Biso   1.000  H
  C153     1.0000 0.39974  0.58331  0.15658  Biso   1.000  C
  H229     1.0000 0.39639  0.57230  0.23472  Biso   1.000  H
  H230     1.0000 0.39231  0.52019  0.20348  Biso   1.000  H
  C154     1.0000 0.60026  0.41669  0.15658  Biso   1.000  C
  H231     1.0000 0.60361  0.42770  0.23472  Biso   1.000  H
  H232     1.0000 0.60769  0.47981  0.20348  Biso   1.000  H
  C155     1.0000 0.35711  0.57094  0.12679  Biso   1.000  C
  C156     1.0000 0.42906  0.62679  0.14289  Biso   1.000  C
  C157     1.0000 0.57094  0.37321  0.14289  Biso   1.000  C
  C158     1.0000 0.64289  0.42906  0.12679  Biso   1.000  C
  C159     1.0000 0.34342  0.60026  0.08331  Biso   1.000  C
  H233     1.0000 0.33689  0.54231  0.13589  Biso   1.000  H
  H234     1.0000 0.45769  0.63589  0.16311  Biso   1.000  H
  C160     1.0000 0.41669  0.65658  0.10026  Biso   1.000  C
  C161     1.0000 0.58331  0.34342  0.10026  Biso   1.000  C
  H235     1.0000 0.54231  0.36411  0.16311  Biso   1.000  H
  C162     1.0000 0.65658  0.39974  0.08331  Biso   1.000  C
  H236     1.0000 0.66311  0.45769  0.13589  Biso   1.000  H
  C163     1.0000 0.29457  0.58949  0.05320  Biso   1.000  C
  C164     1.0000 0.37321  0.64289  0.07094  Biso   1.000  C
  C165     1.0000 0.44680  0.70543  0.08949  Biso   1.000  C
  C166     1.0000 0.55320  0.29457  0.08949  Biso   1.000  C
  C167     1.0000 0.62679  0.35711  0.07094  Biso   1.000  C
  C168     1.0000 0.70543  0.41051  0.05320  Biso   1.000  C
  N27      1.0000 0.28489  0.53520  0.04313  Biso   1.000  N
  H237     1.0000 0.26528  0.60361  0.07230  Biso   1.000  H
  H238     1.0000 0.29652  0.60769  0.02019  Biso   1.000  H
  H239     1.0000 0.36411  0.66311  0.04231  Biso   1.000  H
  N28      1.0000 0.45687  0.71511  0.03520  Biso   1.000  N
  H240     1.0000 0.42770  0.73472  0.10361  Biso   1.000  H
  H241     1.0000 0.47981  0.70348  0.10769  Biso   1.000  H
  N29      1.0000 0.54313  0.28489  0.03520  Biso   1.000  N
  H242     1.0000 0.57230  0.26528  0.10361  Biso   1.000  H
  H243     1.0000 0.52019  0.29652  0.10769  Biso   1.000  H
  H244     1.0000 0.63589  0.33689  0.04231  Biso   1.000  H
  N30      1.0000 0.71511  0.46480  0.04313  Biso   1.000  N
  H245     1.0000 0.73472  0.39639  0.07230  Biso   1.000  H
  H246     1.0000 0.70348  0.39231  0.02019  Biso   1.000  H
  C169     1.0000 0.23744  0.52722  0.01186  Biso   1.000  C
  H247     1.0000 0.31001  0.52201  0.02999  Biso   1.000  H
  H248     1.0000 0.47001  0.68999  0.02201  Biso   1.000  H
  C170     1.0000 0.48814  0.76256  0.02722  Biso   1.000  C
  C171     1.0000 0.51186  0.23744  0.02722  Biso   1.000  C
  H249     1.0000 0.52999  0.31001  0.02201  Biso   1.000  H
  H250     1.0000 0.68999  0.47799  0.02999  Biso   1.000  H
  C172     1.0000 0.76256  0.47278  0.01186  Biso   1.000  C
  C173     1.0000 0.23744  0.47278  0.98814  Biso   1.000  C
  C174     1.0000 0.18797  0.53528  0.04426  Biso   1.000  C
  H251     1.0000 0.23740  0.55270  0.98351  Biso   1.000  H
  C175     1.0000 0.51186  0.76256  0.97278  Biso   1.000  C
  H252     1.0000 0.51649  0.76260  0.05270  Biso   1.000  H
  C176     1.0000 0.45574  0.81203  0.03528  Biso   1.000  C
  H253     1.0000 0.48351  0.23740  0.05270  Biso   1.000  H
  C177     1.0000 0.54426  0.18797  0.03528  Biso   1.000  C
  C178     1.0000 0.48814  0.23744  0.97278  Biso   1.000  C
  C179     1.0000 0.81203  0.46472  0.04426  Biso   1.000  C
  H254     1.0000 0.76260  0.44730  0.98351  Biso   1.000  H
  C180     1.0000 0.76256  0.52722  0.98814  Biso   1.000  C
  N31      1.0000 0.28489  0.46480  0.95687  Biso   1.000  N
  H255     1.0000 0.23740  0.44730  0.01649  Biso   1.000  H
  C181     1.0000 0.18797  0.46472  0.95574  Biso   1.000  C
  H256     1.0000 0.18820  0.51132  0.07339  Biso   1.000  H
  H257     1.0000 0.18781  0.57040  0.05811  Biso   1.000  H
  C182     1.0000 0.13865  0.52672  0.01237  Biso   1.000  C
  N32      1.0000 0.54313  0.71511  0.96480  Biso   1.000  N
  H258     1.0000 0.48351  0.76260  0.94730  Biso   1.000  H
  C183     1.0000 0.54426  0.81203  0.96472  Biso   1.000  C
  H259     1.0000 0.42661  0.81180  0.01132  Biso   1.000  H
  H260     1.0000 0.44189  0.81219  0.07040  Biso   1.000  H
  C184     1.0000 0.48763  0.86135  0.02672  Biso   1.000  C
  H261     1.0000 0.57339  0.18820  0.01132  Biso   1.000  H
  H262     1.0000 0.55811  0.18781  0.07040  Biso   1.000  H
  C185     1.0000 0.51237  0.13865  0.02672  Biso   1.000  C
  N33      1.0000 0.45687  0.28489  0.96480  Biso   1.000  N
  H263     1.0000 0.51649  0.23740  0.94730  Biso   1.000  H
  C186     1.0000 0.45574  0.18797  0.96472  Biso   1.000  C
  H264     1.0000 0.81180  0.48868  0.07339  Biso   1.000  H
  H265     1.0000 0.81219  0.42960  0.05811  Biso   1.000  H
  C187     1.0000 0.86135  0.47328  0.01237  Biso   1.000  C
  H266     1.0000 0.76260  0.55270  0.01649  Biso   1.000  H
  N34      1.0000 0.71511  0.53520  0.95687  Biso   1.000  N
  C188     1.0000 0.81203  0.53528  0.95574  Biso   1.000  C
  C189     1.0000 0.29457  0.41051  0.94680  Biso   1.000  C
  H267     1.0000 0.31001  0.47799  0.97001  Biso   1.000  H
  H268     1.0000 0.18820  0.48868  0.92661  Biso   1.000  H
  H269     1.0000 0.18781  0.42960  0.94189  Biso   1.000  H
  C190     1.0000 0.13865  0.47328  0.98763  Biso   1.000  C
  H270     1.0000 0.10851  0.53022  0.03469  Biso   1.000  H
  H271     1.0000 0.13640  0.55301  0.98542  Biso   1.000  H
  C191     1.0000 0.55320  0.70543  0.91051  Biso   1.000  C
  H272     1.0000 0.52999  0.68999  0.97799  Biso   1.000  H
  H273     1.0000 0.57339  0.81180  0.98868  Biso   1.000  H
  H274     1.0000 0.55811  0.81219  0.92960  Biso   1.000  H
  C192     1.0000 0.51237  0.86135  0.97328  Biso   1.000  C
  H275     1.0000 0.46531  0.89149  0.03022  Biso   1.000  H
  H276     1.0000 0.51458  0.86360  0.05301  Biso   1.000  H
  H277     1.0000 0.53469  0.10851  0.03022  Biso   1.000  H
  H278     1.0000 0.48542  0.13640  0.05301  Biso   1.000  H
  C193     1.0000 0.48763  0.13865  0.97328  Biso   1.000  C
  H279     1.0000 0.47001  0.31001  0.97799  Biso   1.000  H
  C194     1.0000 0.44680  0.29457  0.91051  Biso   1.000  C
  H280     1.0000 0.42661  0.18820  0.98868  Biso   1.000  H
  H281     1.0000 0.44189  0.18781  0.92960  Biso   1.000  H
  H282     1.0000 0.89149  0.46978  0.03469  Biso   1.000  H
  H283     1.0000 0.86360  0.44699  0.98542  Biso   1.000  H
  C195     1.0000 0.86135  0.52672  0.98763  Biso   1.000  C
  H284     1.0000 0.68999  0.52201  0.97001  Biso   1.000  H
  C196     1.0000 0.70543  0.58949  0.94680  Biso   1.000  C
  H285     1.0000 0.81180  0.51132  0.92661  Biso   1.000  H
  H286     1.0000 0.81219  0.57040  0.94189  Biso   1.000  H
  C197     1.0000 0.34342  0.39974  0.91669  Biso   1.000  C
  H287     1.0000 0.26528  0.39639  0.92770  Biso   1.000  H
  H288     1.0000 0.29652  0.39231  0.97981  Biso   1.000  H
  H289     1.0000 0.13640  0.44699  0.01458  Biso   1.000  H
  H290     1.0000 0.10851  0.46978  0.96531  Biso   1.000  H
  C198     1.0000 0.58331  0.65658  0.89974  Biso   1.000  C
  H291     1.0000 0.57230  0.73472  0.89639  Biso   1.000  H
  H292     1.0000 0.52019  0.70348  0.89231  Biso   1.000  H
  H293     1.0000 0.53469  0.89149  0.96978  Biso   1.000  H
  H294     1.0000 0.48542  0.86360  0.94699  Biso   1.000  H
  H295     1.0000 0.46531  0.10851  0.96978  Biso   1.000  H
  H296     1.0000 0.51458  0.13640  0.94699  Biso   1.000  H
  C199     1.0000 0.41669  0.34342  0.89974  Biso   1.000  C
  H297     1.0000 0.42770  0.26528  0.89639  Biso   1.000  H
  H298     1.0000 0.47981  0.29652  0.89231  Biso   1.000  H
  H299     1.0000 0.86360  0.55301  0.01458  Biso   1.000  H
  H300     1.0000 0.89149  0.53022  0.96531  Biso   1.000  H
  C200     1.0000 0.65658  0.60026  0.91669  Biso   1.000  C
  H301     1.0000 0.73472  0.60361  0.92770  Biso   1.000  H
  H302     1.0000 0.70348  0.60769  0.97981  Biso   1.000  H
  C201     1.0000 0.37321  0.35711  0.92906  Biso   1.000  C
  C202     1.0000 0.35711  0.42906  0.87321  Biso   1.000  C
  C203     1.0000 0.62679  0.64289  0.92906  Biso   1.000  C
  C204     1.0000 0.57094  0.62679  0.85711  Biso   1.000  C
  C205     1.0000 0.42906  0.37321  0.85711  Biso   1.000  C
  C206     1.0000 0.64289  0.57094  0.87321  Biso   1.000  C
  H303     1.0000 0.36411  0.33689  0.95769  Biso   1.000  H
  C207     1.0000 0.39974  0.41669  0.84342  Biso   1.000  C
  H304     1.0000 0.33689  0.45769  0.86411  Biso   1.000  H
  H305     1.0000 0.63589  0.66311  0.95769  Biso   1.000  H
  C208     1.0000 0.60026  0.58331  0.84342  Biso   1.000  C
  H306     1.0000 0.54231  0.63589  0.83689  Biso   1.000  H
  H307     1.0000 0.45769  0.36411  0.83689  Biso   1.000  H
  H308     1.0000 0.66311  0.54231  0.86411  Biso   1.000  H
  C209     1.0000 0.41051  0.44680  0.79457  Biso   1.000  C
  C210     1.0000 0.58949  0.55320  0.79457  Biso   1.000  C
  N35      1.0000 0.46480  0.45687  0.78489  Biso   1.000  N
  H309     1.0000 0.39639  0.42770  0.76528  Biso   1.000  H
  H310     1.0000 0.39231  0.47981  0.79652  Biso   1.000  H
  N36      1.0000 0.53520  0.54313  0.78489  Biso   1.000  N
  H311     1.0000 0.60361  0.57230  0.76528  Biso   1.000  H
  H312     1.0000 0.60769  0.52019  0.79652  Biso   1.000  H
  H313     1.0000 0.47799  0.47001  0.81001  Biso   1.000  H
  C211     1.0000 0.47278  0.48814  0.73744  Biso   1.000  C
  C212     1.0000 0.52722  0.51186  0.73744  Biso   1.000  C
  H314     1.0000 0.52201  0.52999  0.81001  Biso   1.000  H
  H315     1.0000 0.44730  0.51649  0.73740  Biso   1.000  H
  C213     1.0000 0.46472  0.45574  0.68797  Biso   1.000  C
  H316     1.0000 0.55270  0.48351  0.73740  Biso   1.000  H
  C214     1.0000 0.53528  0.54426  0.68797  Biso   1.000  C
  H317     1.0000 0.48868  0.42661  0.68820  Biso   1.000  H
  H318     1.0000 0.42960  0.44189  0.68781  Biso   1.000  H
  C215     1.0000 0.47328  0.48763  0.63865  Biso   1.000  C
  C216     1.0000 0.52672  0.51237  0.63865  Biso   1.000  C
  H319     1.0000 0.51132  0.57339  0.68820  Biso   1.000  H
  H320     1.0000 0.57040  0.55811  0.68781  Biso   1.000  H
  H321     1.0000 0.46978  0.46531  0.60851  Biso   1.000  H
  H322     1.0000 0.44699  0.51458  0.63640  Biso   1.000  H
  H323     1.0000 0.53022  0.53469  0.60851  Biso   1.000  H
  H324     1.0000 0.55301  0.48542  0.63640  Biso   1.000  H
  C217     1.0000 0.36135  0.47328  0.51237  Biso   1.000  C
  C218     1.0000 0.31203  0.46472  0.54426  Biso   1.000  C
  C219     1.0000 0.36135  0.52672  0.48763  Biso   1.000  C
  H325     1.0000 0.39149  0.46978  0.53469  Biso   1.000  H
  H326     1.0000 0.36360  0.44699  0.48542  Biso   1.000  H
  C220     1.0000 0.26256  0.47278  0.51186  Biso   1.000  C
  H327     1.0000 0.31180  0.48868  0.57339  Biso   1.000  H
  H328     1.0000 0.31219  0.42960  0.55811  Biso   1.000  H
  C221     1.0000 0.31203  0.53528  0.45574  Biso   1.000  C
  H329     1.0000 0.39149  0.53022  0.46531  Biso   1.000  H
  H330     1.0000 0.36360  0.55301  0.51458  Biso   1.000  H
  C222     1.0000 0.26256  0.52722  0.48814  Biso   1.000  C
  N37      1.0000 0.21511  0.46480  0.54313  Biso   1.000  N
  H331     1.0000 0.26260  0.44730  0.48351  Biso   1.000  H
  H332     1.0000 0.31180  0.51132  0.42661  Biso   1.000  H
  H333     1.0000 0.31219  0.57040  0.44189  Biso   1.000  H
  N38      1.0000 0.21511  0.53520  0.45687  Biso   1.000  N
  H334     1.0000 0.26260  0.55270  0.51649  Biso   1.000  H
  H335     1.0000 0.18999  0.47799  0.52999  Biso   1.000  H
  C223     1.0000 0.20543  0.41051  0.55320  Biso   1.000  C
  H336     1.0000 0.18999  0.52201  0.47001  Biso   1.000  H
  C224     1.0000 0.20543  0.58949  0.44680  Biso   1.000  C
  C225     1.0000 0.15658  0.39974  0.58331  Biso   1.000  C
  H337     1.0000 0.23472  0.39639  0.57230  Biso   1.000  H
  H338     1.0000 0.20348  0.39231  0.52019  Biso   1.000  H
  C226     1.0000 0.15658  0.60026  0.41669  Biso   1.000  C
  H339     1.0000 0.23472  0.60361  0.42770  Biso   1.000  H
  H340     1.0000 0.20348  0.60769  0.47981  Biso   1.000  H
  C227     1.0000 0.14289  0.42906  0.62679  Biso   1.000  C
  C228     1.0000 0.12679  0.35711  0.57094  Biso   1.000  C
  C229     1.0000 0.12679  0.64289  0.42906  Biso   1.000  C
  C230     1.0000 0.14289  0.57094  0.37321  Biso   1.000  C
  C231     1.0000 0.10026  0.41669  0.65658  Biso   1.000  C
  H341     1.0000 0.16311  0.45769  0.63589  Biso   1.000  H
  H342     1.0000 0.13589  0.33689  0.54231  Biso   1.000  H
  C232     1.0000 0.08331  0.34342  0.60026  Biso   1.000  C
  H343     1.0000 0.13589  0.66311  0.45769  Biso   1.000  H
  C233     1.0000 0.08331  0.65658  0.39974  Biso   1.000  C
  C234     1.0000 0.10026  0.58331  0.34342  Biso   1.000  C
  H344     1.0000 0.16311  0.54231  0.36411  Biso   1.000  H
  C235     1.0000 0.07094  0.37321  0.64289  Biso   1.000  C
  C236     1.0000 0.08949  0.44680  0.70543  Biso   1.000  C
  C237     1.0000 0.05320  0.29457  0.58949  Biso   1.000  C
  C238     1.0000 0.05320  0.70543  0.41051  Biso   1.000  C
  C239     1.0000 0.07094  0.62679  0.35711  Biso   1.000  C
  C240     1.0000 0.08949  0.55320  0.29457  Biso   1.000  C
  H345     1.0000 0.04231  0.36411  0.66311  Biso   1.000  H
  N39      1.0000 0.03520  0.45687  0.71511  Biso   1.000  N
  H346     1.0000 0.10361  0.42770  0.73472  Biso   1.000  H
  H347     1.0000 0.10769  0.47981  0.70348  Biso   1.000  H
  N40      1.0000 0.04313  0.28489  0.53520  Biso   1.000  N
  H348     1.0000 0.07230  0.26528  0.60361  Biso   1.000  H
  H349     1.0000 0.02019  0.29652  0.60769  Biso   1.000  H
  N41      1.0000 0.04313  0.71511  0.46480  Biso   1.000  N
  H350     1.0000 0.07230  0.73472  0.39639  Biso   1.000  H
  H351     1.0000 0.02019  0.70348  0.39231  Biso   1.000  H
  H352     1.0000 0.04231  0.63589  0.33689  Biso   1.000  H
  N42      1.0000 0.03520  0.54313  0.28489  Biso   1.000  N
  H353     1.0000 0.10361  0.57230  0.26528  Biso   1.000  H
  H354     1.0000 0.10769  0.52019  0.29652  Biso   1.000  H
  H355     1.0000 0.02201  0.47001  0.68999  Biso   1.000  H
  C241     1.0000 0.02722  0.48814  0.76256  Biso   1.000  C
  H356     1.0000 0.02999  0.31001  0.52201  Biso   1.000  H
  C242     1.0000 0.01186  0.23744  0.52722  Biso   1.000  C
  H357     1.0000 0.02999  0.68999  0.47799  Biso   1.000  H
  C243     1.0000 0.01186  0.76256  0.47278  Biso   1.000  C
  H358     1.0000 0.02201  0.52999  0.31001  Biso   1.000  H
  C244     1.0000 0.02722  0.51186  0.23744  Biso   1.000  C
  H359     1.0000 0.05270  0.51649  0.76260  Biso   1.000  H
  C245     1.0000 0.03528  0.45574  0.81203  Biso   1.000  C
  C246     1.0000 0.97278  0.51186  0.76256  Biso   1.000  C
  C247     1.0000 0.04426  0.18797  0.53528  Biso   1.000  C
  H360     1.0000 0.98351  0.23740  0.55270  Biso   1.000  H
  C248     1.0000 0.98814  0.23744  0.47278  Biso   1.000  C
  C249     1.0000 0.04426  0.81203  0.46472  Biso   1.000  C
  C250     1.0000 0.98814  0.76256  0.52722  Biso   1.000  C
  H361     1.0000 0.98351  0.76260  0.44730  Biso   1.000  H
  H362     1.0000 0.05270  0.48351  0.23740  Biso   1.000  H
  C251     1.0000 0.03528  0.54426  0.18797  Biso   1.000  C
  C252     1.0000 0.97278  0.48814  0.23744  Biso   1.000  C
  H363     1.0000 0.01132  0.42661  0.81180  Biso   1.000  H
  H364     1.0000 0.07040  0.44189  0.81219  Biso   1.000  H
  C253     1.0000 0.02672  0.48763  0.86135  Biso   1.000  C
  N43      1.0000 0.96480  0.54313  0.71511  Biso   1.000  N
  H365     1.0000 0.94730  0.48351  0.76260  Biso   1.000  H
  C254     1.0000 0.96472  0.54426  0.81203  Biso   1.000  C
  H366     1.0000 0.07339  0.18820  0.51132  Biso   1.000  H
  H367     1.0000 0.05811  0.18781  0.57040  Biso   1.000  H
  C255     1.0000 0.01237  0.13865  0.52672  Biso   1.000  C
  H368     1.0000 0.01649  0.23740  0.44730  Biso   1.000  H
  N44      1.0000 0.95687  0.28489  0.46480  Biso   1.000  N
  C256     1.0000 0.95574  0.18797  0.46472  Biso   1.000  C
  H369     1.0000 0.07339  0.81180  0.48868  Biso   1.000  H
  H370     1.0000 0.05811  0.81219  0.42960  Biso   1.000  H
  C257     1.0000 0.01237  0.86135  0.47328  Biso   1.000  C
  H371     1.0000 0.01649  0.76260  0.55270  Biso   1.000  H
  N45      1.0000 0.95687  0.71511  0.53520  Biso   1.000  N
  C258     1.0000 0.95574  0.81203  0.53528  Biso   1.000  C
  H372     1.0000 0.01132  0.57339  0.18820  Biso   1.000  H
  H373     1.0000 0.07040  0.55811  0.18781  Biso   1.000  H
  C259     1.0000 0.02672  0.51237  0.13865  Biso   1.000  C
  N46      1.0000 0.96480  0.45687  0.28489  Biso   1.000  N
  H374     1.0000 0.94730  0.51649  0.23740  Biso   1.000  H
  C260     1.0000 0.96472  0.45574  0.18797  Biso   1.000  C
  H375     1.0000 0.03022  0.46531  0.89149  Biso   1.000  H
  H376     1.0000 0.05301  0.51458  0.86360  Biso   1.000  H
  C261     1.0000 0.97328  0.51237  0.86135  Biso   1.000  C
  H377     1.0000 0.97799  0.52999  0.68999  Biso   1.000  H
  C262     1.0000 0.91051  0.55320  0.70543  Biso   1.000  C
  H378     1.0000 0.98868  0.57339  0.81180  Biso   1.000  H
  H379     1.0000 0.92960  0.55811  0.81219  Biso   1.000  H
  H380     1.0000 0.03469  0.10851  0.53022  Biso   1.000  H
  H381     1.0000 0.98542  0.13640  0.55301  Biso   1.000  H
  C263     1.0000 0.98763  0.13865  0.47328  Biso   1.000  C
  H382     1.0000 0.97001  0.31001  0.47799  Biso   1.000  H
  C264     1.0000 0.94680  0.29457  0.41051  Biso   1.000  C
  H383     1.0000 0.92661  0.18820  0.48868  Biso   1.000  H
  H384     1.0000 0.94189  0.18781  0.42960  Biso   1.000  H
  H385     1.0000 0.03469  0.89149  0.46978  Biso   1.000  H
  C265     1.0000 0.98763  0.86135  0.52672  Biso   1.000  C
  H386     1.0000 0.98542  0.86360  0.44699  Biso   1.000  H
  H387     1.0000 0.97001  0.68999  0.52201  Biso   1.000  H
  C266     1.0000 0.94680  0.70543  0.58949  Biso   1.000  C
  H388     1.0000 0.92661  0.81180  0.51132  Biso   1.000  H
  H389     1.0000 0.94189  0.81219  0.57040  Biso   1.000  H
  H390     1.0000 0.03022  0.53469  0.10851  Biso   1.000  H
  H391     1.0000 0.05301  0.48542  0.13640  Biso   1.000  H
  C267     1.0000 0.97328  0.48763  0.13865  Biso   1.000  C
  H392     1.0000 0.97799  0.47001  0.31001  Biso   1.000  H
  C268     1.0000 0.91051  0.44680  0.29457  Biso   1.000  C
  H393     1.0000 0.98868  0.42661  0.18820  Biso   1.000  H
  H394     1.0000 0.92960  0.44189  0.18781  Biso   1.000  H
  H395     1.0000 0.96978  0.53469  0.89149  Biso   1.000  H
  H396     1.0000 0.94699  0.48542  0.86360  Biso   1.000  H
  C269     1.0000 0.89974  0.58331  0.65658  Biso   1.000  C
  H397     1.0000 0.89639  0.57230  0.73472  Biso   1.000  H
  H398     1.0000 0.89231  0.52019  0.70348  Biso   1.000  H
  H399     1.0000 0.01458  0.13640  0.44699  Biso   1.000  H
  H400     1.0000 0.96531  0.10851  0.46978  Biso   1.000  H
  C270     1.0000 0.91669  0.34342  0.39974  Biso   1.000  C
  H401     1.0000 0.92770  0.26528  0.39639  Biso   1.000  H
  H402     1.0000 0.97981  0.29652  0.39231  Biso   1.000  H
  H403     1.0000 0.01458  0.86360  0.55301  Biso   1.000  H
  H404     1.0000 0.96531  0.89149  0.53022  Biso   1.000  H
  C271     1.0000 0.91669  0.65658  0.60026  Biso   1.000  C
  H405     1.0000 0.92770  0.73472  0.60361  Biso   1.000  H
  H406     1.0000 0.97981  0.70348  0.60769  Biso   1.000  H
  H407     1.0000 0.96978  0.46531  0.10851  Biso   1.000  H
  H408     1.0000 0.94699  0.51458  0.13640  Biso   1.000  H
  C272     1.0000 0.89974  0.41669  0.34342  Biso   1.000  C
  H409     1.0000 0.89639  0.42770  0.26528  Biso   1.000  H
  H410     1.0000 0.89231  0.47981  0.29652  Biso   1.000  H
  C273     1.0000 0.85711  0.57094  0.62679  Biso   1.000  C
  C274     1.0000 0.92906  0.62679  0.64289  Biso   1.000  C
  C275     1.0000 0.92906  0.37321  0.35711  Biso   1.000  C
  C276     1.0000 0.87321  0.35711  0.42906  Biso   1.000  C
  C277     1.0000 0.87321  0.64289  0.57094  Biso   1.000  C
  C278     1.0000 0.85711  0.42906  0.37321  Biso   1.000  C
  H411     1.0000 0.83689  0.54231  0.63589  Biso   1.000  H
  C279     1.0000 0.84342  0.60026  0.58331  Biso   1.000  C
  H412     1.0000 0.95769  0.63589  0.66311  Biso   1.000  H
  H413     1.0000 0.95769  0.36411  0.33689  Biso   1.000  H
  C280     1.0000 0.84342  0.39974  0.41669  Biso   1.000  C
  H414     1.0000 0.86411  0.33689  0.45769  Biso   1.000  H
  H415     1.0000 0.86411  0.66311  0.54231  Biso   1.000  H
  H416     1.0000 0.83689  0.45769  0.36411  Biso   1.000  H
  C281     1.0000 0.79457  0.58949  0.55320  Biso   1.000  C
  C282     1.0000 0.79457  0.41051  0.44680  Biso   1.000  C
  N47      1.0000 0.78489  0.53520  0.54313  Biso   1.000  N
  H417     1.0000 0.76528  0.60361  0.57230  Biso   1.000  H
  H418     1.0000 0.79652  0.60769  0.52019  Biso   1.000  H
  N48      1.0000 0.78489  0.46480  0.45687  Biso   1.000  N
  H419     1.0000 0.76528  0.39639  0.42770  Biso   1.000  H
  H420     1.0000 0.79652  0.39231  0.47981  Biso   1.000  H
  H421     1.0000 0.81001  0.52201  0.52999  Biso   1.000  H
  C283     1.0000 0.73744  0.52722  0.51186  Biso   1.000  C
  H422     1.0000 0.81001  0.47799  0.47001  Biso   1.000  H
  C284     1.0000 0.73744  0.47278  0.48814  Biso   1.000  C
  H423     1.0000 0.73740  0.55270  0.48351  Biso   1.000  H
  C285     1.0000 0.68797  0.53528  0.54426  Biso   1.000  C
  H424     1.0000 0.73740  0.44730  0.51649  Biso   1.000  H
  C286     1.0000 0.68797  0.46472  0.45574  Biso   1.000  C
  H425     1.0000 0.68820  0.51132  0.57339  Biso   1.000  H
  H426     1.0000 0.68781  0.57040  0.55811  Biso   1.000  H
  C287     1.0000 0.63865  0.52672  0.51237  Biso   1.000  C
  H427     1.0000 0.68820  0.48868  0.42661  Biso   1.000  H
  H428     1.0000 0.68781  0.42960  0.44189  Biso   1.000  H
  C288     1.0000 0.63865  0.47328  0.48763  Biso   1.000  C
  H429     1.0000 0.60851  0.53022  0.53469  Biso   1.000  H
  H430     1.0000 0.63640  0.55301  0.48542  Biso   1.000  H
  H431     1.0000 0.60851  0.46978  0.46531  Biso   1.000  H
  H432     1.0000 0.63640  0.44699  0.51458  Biso   1.000  H
  O1       1.0000 0.35781  0.25000  0.25000  Biso   1.000  O
  O2       1.0000 0.32771  0.28940  0.21142  Biso   1.000  O
  O3       1.0000 0.32771  0.21060  0.28858  Biso   1.000  O
  O4       1.0000 0.28858  0.32771  0.21060  Biso   1.000  O
  O5       1.0000 0.28940  0.28858  0.17229  Biso   1.000  O
  O6       1.0000 0.28940  0.21142  0.32771  Biso   1.000  O
  O7       1.0000 0.28858  0.17229  0.28940  Biso   1.000  O
  O8       1.0000 0.25000  0.35781  0.25000  Biso   1.000  O
  O9       1.0000 0.25000  0.25000  0.14219  Biso   1.000  O
  O10      1.0000 0.25000  0.25000  0.35781  Biso   1.000  O
  O11      1.0000 0.25000  0.14219  0.25000  Biso   1.000  O
  O12      1.0000 0.21142  0.32771  0.28940  Biso   1.000  O
  O13      1.0000 0.21060  0.21142  0.17229  Biso   1.000  O
  O14      1.0000 0.21060  0.28858  0.32771  Biso   1.000  O
  O15      1.0000 0.21142  0.17229  0.21060  Biso   1.000  O
  O16      1.0000 0.17229  0.28940  0.28858  Biso   1.000  O
  O17      1.0000 0.17229  0.21060  0.21142  Biso   1.000  O
  O18      1.0000 0.14219  0.25000  0.25000  Biso   1.000  O
  C289     1.0000 0.66051  0.54457  0.30320  Biso   1.000  C
  N49      1.0000 0.71480  0.53489  0.29313  Biso   1.000  N
  C290     1.0000 0.64974  0.59342  0.33331  Biso   1.000  C
  H433     1.0000 0.64639  0.51528  0.32230  Biso   1.000  H
  H434     1.0000 0.64231  0.54652  0.27019  Biso   1.000  H
  C291     1.0000 0.72278  0.48744  0.26186  Biso   1.000  C
  H435     1.0000 0.72799  0.56001  0.27999  Biso   1.000  H
  C292     1.0000 0.67906  0.60711  0.37679  Biso   1.000  C
  C293     1.0000 0.60711  0.62321  0.32094  Biso   1.000  C
  C294     1.0000 0.71472  0.43797  0.29426  Biso   1.000  C
  C295     1.0000 0.77722  0.48744  0.23814  Biso   1.000  C
  H436     1.0000 0.69730  0.48740  0.23351  Biso   1.000  H
  C296     1.0000 0.66669  0.64974  0.40658  Biso   1.000  C
  H437     1.0000 0.70769  0.58689  0.38589  Biso   1.000  H
  H438     1.0000 0.58689  0.61411  0.29231  Biso   1.000  H
  C297     1.0000 0.59342  0.66669  0.35026  Biso   1.000  C
  C298     1.0000 0.72328  0.38865  0.26237  Biso   1.000  C
  H439     1.0000 0.73868  0.43820  0.32339  Biso   1.000  H
  H440     1.0000 0.67960  0.43781  0.30811  Biso   1.000  H
  C299     1.0000 0.78528  0.43797  0.20574  Biso   1.000  C
  N50      1.0000 0.78520  0.53489  0.20687  Biso   1.000  N
  H441     1.0000 0.80270  0.48740  0.26649  Biso   1.000  H
  C300     1.0000 0.62321  0.67906  0.39289  Biso   1.000  C
  C301     1.0000 0.69680  0.66051  0.45543  Biso   1.000  C
  C302     1.0000 0.54457  0.69680  0.33949  Biso   1.000  C
  C303     1.0000 0.77672  0.38865  0.23763  Biso   1.000  C
  H442     1.0000 0.71978  0.35851  0.28469  Biso   1.000  H
  H443     1.0000 0.69699  0.38640  0.23542  Biso   1.000  H
  H444     1.0000 0.76132  0.43820  0.17661  Biso   1.000  H
  H445     1.0000 0.82040  0.43781  0.19189  Biso   1.000  H
  H446     1.0000 0.77201  0.56001  0.22001  Biso   1.000  H
  C304     1.0000 0.83949  0.54457  0.19680  Biso   1.000  C
  H447     1.0000 0.61411  0.70769  0.41311  Biso   1.000  H
  N51      1.0000 0.70687  0.71480  0.46511  Biso   1.000  N
  H448     1.0000 0.67770  0.64639  0.48472  Biso   1.000  H
  H449     1.0000 0.72981  0.64231  0.45348  Biso   1.000  H
  N52      1.0000 0.53489  0.70687  0.28520  Biso   1.000  N
  H450     1.0000 0.51528  0.67770  0.35361  Biso   1.000  H
  H451     1.0000 0.54652  0.72981  0.35769  Biso   1.000  H
  H452     1.0000 0.78022  0.35851  0.21531  Biso   1.000  H
  H453     1.0000 0.80301  0.38640  0.26458  Biso   1.000  H
  C305     1.0000 0.85026  0.59342  0.16669  Biso   1.000  C
  H454     1.0000 0.85361  0.51528  0.17770  Biso   1.000  H
  H455     1.0000 0.85769  0.54652  0.22981  Biso   1.000  H
  H456     1.0000 0.72001  0.72799  0.43999  Biso   1.000  H
  C306     1.0000 0.73814  0.72278  0.51256  Biso   1.000  C
  H457     1.0000 0.56001  0.72001  0.27201  Biso   1.000  H
  C307     1.0000 0.48744  0.73814  0.27722  Biso   1.000  C
  C308     1.0000 0.89289  0.62321  0.17906  Biso   1.000  C
  C309     1.0000 0.82094  0.60711  0.12321  Biso   1.000  C
  C310     1.0000 0.76186  0.77722  0.51256  Biso   1.000  C
  H458     1.0000 0.76649  0.69730  0.51260  Biso   1.000  H
  C311     1.0000 0.70574  0.71472  0.56203  Biso   1.000  C
  H459     1.0000 0.48740  0.76649  0.30270  Biso   1.000  H
  C312     1.0000 0.43797  0.70574  0.28528  Biso   1.000  C
  C313     1.0000 0.48744  0.76186  0.22278  Biso   1.000  C
  H460     1.0000 0.91311  0.61411  0.20769  Biso   1.000  H
  C314     1.0000 0.90658  0.66669  0.14974  Biso   1.000  C
  C315     1.0000 0.83331  0.64974  0.09342  Biso   1.000  C
  H461     1.0000 0.79231  0.58689  0.11411  Biso   1.000  H
  N53      1.0000 0.79313  0.78520  0.46511  Biso   1.000  N
  H462     1.0000 0.73351  0.80270  0.51260  Biso   1.000  H
  C316     1.0000 0.79426  0.78528  0.56203  Biso   1.000  C
  H463     1.0000 0.67661  0.73868  0.56180  Biso   1.000  H
  H464     1.0000 0.69189  0.67960  0.56219  Biso   1.000  H
  C317     1.0000 0.73763  0.72328  0.61135  Biso   1.000  C
  H465     1.0000 0.43820  0.67661  0.26132  Biso   1.000  H
  H466     1.0000 0.43781  0.69189  0.32040  Biso   1.000  H
  C318     1.0000 0.38865  0.73763  0.27672  Biso   1.000  C
  N54      1.0000 0.53489  0.79313  0.21480  Biso   1.000  N
  H467     1.0000 0.48740  0.73351  0.19730  Biso   1.000  H
  C319     1.0000 0.43797  0.79426  0.21472  Biso   1.000  C
  C320     1.0000 0.95543  0.69680  0.16051  Biso   1.000  C
  C321     1.0000 0.87679  0.67906  0.10711  Biso   1.000  C
  C322     1.0000 0.80320  0.66051  0.04457  Biso   1.000  C
  H468     1.0000 0.77999  0.77201  0.43999  Biso   1.000  H
  C323     1.0000 0.80320  0.83949  0.45543  Biso   1.000  C
  H469     1.0000 0.82339  0.76132  0.56180  Biso   1.000  H
  H470     1.0000 0.80811  0.82040  0.56219  Biso   1.000  H
  C324     1.0000 0.76237  0.77672  0.61135  Biso   1.000  C
  H471     1.0000 0.71531  0.71978  0.64149  Biso   1.000  H
  H472     1.0000 0.76458  0.69699  0.61360  Biso   1.000  H
  H473     1.0000 0.35851  0.71531  0.28022  Biso   1.000  H
  H474     1.0000 0.38640  0.76458  0.30301  Biso   1.000  H
  C325     1.0000 0.38865  0.76237  0.22328  Biso   1.000  C
  H475     1.0000 0.56001  0.77999  0.22799  Biso   1.000  H
  C326     1.0000 0.54457  0.80320  0.16051  Biso   1.000  C
  H476     1.0000 0.43820  0.82339  0.23868  Biso   1.000  H
  H477     1.0000 0.43781  0.80811  0.17960  Biso   1.000  H
  N55      1.0000 0.96511  0.70687  0.21480  Biso   1.000  N
  H478     1.0000 0.98472  0.67770  0.14639  Biso   1.000  H
  H479     1.0000 0.95348  0.72981  0.14231  Biso   1.000  H
  H480     1.0000 0.88589  0.70769  0.08689  Biso   1.000  H
  N56      1.0000 0.79313  0.71480  0.03489  Biso   1.000  N
  H481     1.0000 0.82230  0.64639  0.01528  Biso   1.000  H
  H482     1.0000 0.77019  0.64231  0.04652  Biso   1.000  H
  C327     1.0000 0.83331  0.85026  0.40658  Biso   1.000  C
  H483     1.0000 0.82230  0.85361  0.48472  Biso   1.000  H
  H484     1.0000 0.77019  0.85769  0.45348  Biso   1.000  H
  H485     1.0000 0.78469  0.78022  0.64149  Biso   1.000  H
  H486     1.0000 0.73542  0.80301  0.61360  Biso   1.000  H
  H487     1.0000 0.35851  0.78469  0.21978  Biso   1.000  H
  H488     1.0000 0.38640  0.73542  0.19699  Biso   1.000  H
  C328     1.0000 0.59342  0.83331  0.14974  Biso   1.000  C
  H489     1.0000 0.51528  0.82230  0.14639  Biso   1.000  H
  H490     1.0000 0.54652  0.77019  0.14231  Biso   1.000  H
  H491     1.0000 0.93999  0.72001  0.22799  Biso   1.000  H
  C329     1.0000 0.01256  0.73814  0.22278  Biso   1.000  C
  H492     1.0000 0.77999  0.72799  0.06001  Biso   1.000  H
  C330     1.0000 0.76186  0.72278  0.98744  Biso   1.000  C
  C331     1.0000 0.82094  0.89289  0.37679  Biso   1.000  C
  C332     1.0000 0.87679  0.82094  0.39289  Biso   1.000  C
  C333     1.0000 0.62321  0.82094  0.10711  Biso   1.000  C
  C334     1.0000 0.60711  0.87679  0.17906  Biso   1.000  C
  C335     1.0000 0.01256  0.76186  0.27722  Biso   1.000  C
  H493     1.0000 0.01260  0.76649  0.19730  Biso   1.000  H
  C336     1.0000 0.06203  0.70574  0.21472  Biso   1.000  C
  H494     1.0000 0.73351  0.69730  0.98740  Biso   1.000  H
  C337     1.0000 0.79426  0.71472  0.93797  Biso   1.000  C
  C338     1.0000 0.73814  0.77722  0.98744  Biso   1.000  C
  H495     1.0000 0.79231  0.91311  0.38589  Biso   1.000  H
  C339     1.0000 0.85026  0.90658  0.33331  Biso   1.000  C
  C340     1.0000 0.90658  0.83331  0.35026  Biso   1.000  C
  H496     1.0000 0.88589  0.79231  0.41311  Biso   1.000  H
  C341     1.0000 0.66669  0.85026  0.09342  Biso   1.000  C
  H497     1.0000 0.61411  0.79231  0.08689  Biso   1.000  H
  C342     1.0000 0.64974  0.90658  0.16669  Biso   1.000  C
  H498     1.0000 0.58689  0.88589  0.20769  Biso   1.000  H
  N57      1.0000 0.96511  0.79313  0.28520  Biso   1.000  N
  H499     1.0000 0.01260  0.73351  0.30270  Biso   1.000  H
  C343     1.0000 0.06203  0.79426  0.28528  Biso   1.000  C
  H500     1.0000 0.06180  0.67661  0.23868  Biso   1.000  H
  H501     1.0000 0.06219  0.69189  0.17960  Biso   1.000  H
  C344     1.0000 0.11135  0.73763  0.22328  Biso   1.000  C
  H502     1.0000 0.82339  0.73868  0.93820  Biso   1.000  H
  H503     1.0000 0.80811  0.67960  0.93781  Biso   1.000  H
  C345     1.0000 0.76237  0.72328  0.88865  Biso   1.000  C
  N58      1.0000 0.70687  0.78520  0.03489  Biso   1.000  N
  H504     1.0000 0.76649  0.80270  0.98740  Biso   1.000  H
  C346     1.0000 0.70574  0.78528  0.93797  Biso   1.000  C
  C347     1.0000 0.89289  0.87679  0.32094  Biso   1.000  C
  C348     1.0000 0.83949  0.95543  0.30320  Biso   1.000  C
  C349     1.0000 0.95543  0.80320  0.33949  Biso   1.000  C
  C350     1.0000 0.69680  0.83949  0.04457  Biso   1.000  C
  C351     1.0000 0.67906  0.89289  0.12321  Biso   1.000  C
  C352     1.0000 0.66051  0.95543  0.19680  Biso   1.000  C
  H505     1.0000 0.93999  0.77999  0.27201  Biso   1.000  H
  H506     1.0000 0.06180  0.82339  0.26132  Biso   1.000  H
  H507     1.0000 0.06219  0.80811  0.32040  Biso   1.000  H
  C353     1.0000 0.11135  0.76237  0.27672  Biso   1.000  C
  H508     1.0000 0.14149  0.71531  0.21978  Biso   1.000  H
  H509     1.0000 0.11360  0.76458  0.19699  Biso   1.000  H
  H510     1.0000 0.78469  0.71978  0.85851  Biso   1.000  H
  H511     1.0000 0.73542  0.69699  0.88640  Biso   1.000  H
  C354     1.0000 0.73763  0.77672  0.88865  Biso   1.000  C
  H512     1.0000 0.72001  0.77201  0.06001  Biso   1.000  H
  H513     1.0000 0.67661  0.76132  0.93820  Biso   1.000  H
  H514     1.0000 0.69189  0.82040  0.93781  Biso   1.000  H
  H515     1.0000 0.91311  0.88589  0.29231  Biso   1.000  H
  N59      1.0000 0.78520  0.96511  0.29313  Biso   1.000  N
  H516     1.0000 0.85361  0.98472  0.32230  Biso   1.000  H
  H517     1.0000 0.85769  0.95348  0.27019  Biso   1.000  H
  H518     1.0000 0.98472  0.82230  0.35361  Biso   1.000  H
  H519     1.0000 0.95348  0.77019  0.35769  Biso   1.000  H
  H520     1.0000 0.67770  0.85361  0.01528  Biso   1.000  H
  H521     1.0000 0.72981  0.85769  0.04652  Biso   1.000  H
  H522     1.0000 0.70769  0.91311  0.11411  Biso   1.000  H
  N60      1.0000 0.71480  0.96511  0.20687  Biso   1.000  N
  H523     1.0000 0.64639  0.98472  0.17770  Biso   1.000  H
  H524     1.0000 0.64231  0.95348  0.22981  Biso   1.000  H
  H525     1.0000 0.14149  0.78469  0.28022  Biso   1.000  H
  H526     1.0000 0.11360  0.73542  0.30301  Biso   1.000  H
  H527     1.0000 0.71531  0.78022  0.85851  Biso   1.000  H
  H528     1.0000 0.76458  0.80301  0.88640  Biso   1.000  H
  H529     1.0000 0.77201  0.93999  0.27999  Biso   1.000  H
  C355     1.0000 0.77722  0.01256  0.26186  Biso   1.000  C
  H530     1.0000 0.72799  0.93999  0.22001  Biso   1.000  H
  C356     1.0000 0.72278  0.01256  0.23814  Biso   1.000  C
  H531     1.0000 0.80270  0.01260  0.23351  Biso   1.000  H
  C357     1.0000 0.78528  0.06203  0.29426  Biso   1.000  C
  H532     1.0000 0.69730  0.01260  0.26649  Biso   1.000  H
  C358     1.0000 0.71472  0.06203  0.20574  Biso   1.000  C
  H533     1.0000 0.76132  0.06180  0.32339  Biso   1.000  H
  H534     1.0000 0.82040  0.06219  0.30811  Biso   1.000  H
  C359     1.0000 0.77672  0.11135  0.26237  Biso   1.000  C
  H535     1.0000 0.73868  0.06180  0.17661  Biso   1.000  H
  H536     1.0000 0.67960  0.06219  0.19189  Biso   1.000  H
  C360     1.0000 0.72328  0.11135  0.23763  Biso   1.000  C
  H537     1.0000 0.78022  0.14149  0.28469  Biso   1.000  H
  H538     1.0000 0.80301  0.11360  0.23542  Biso   1.000  H
  H539     1.0000 0.71978  0.14149  0.21531  Biso   1.000  H
  H540     1.0000 0.69699  0.11360  0.26458  Biso   1.000  H
  C361     1.0000 0.54457  0.30320  0.66051  Biso   1.000  C
  C362     1.0000 0.59342  0.33331  0.64974  Biso   1.000  C
  N61      1.0000 0.53489  0.29313  0.71480  Biso   1.000  N
  H541     1.0000 0.51528  0.32230  0.64639  Biso   1.000  H
  H542     1.0000 0.54652  0.27019  0.64231  Biso   1.000  H
  C363     1.0000 0.62321  0.32094  0.60711  Biso   1.000  C
  C364     1.0000 0.60711  0.37679  0.67906  Biso   1.000  C
  H543     1.0000 0.56001  0.27999  0.72799  Biso   1.000  H
  C365     1.0000 0.48744  0.26186  0.72278  Biso   1.000  C
  C366     1.0000 0.66669  0.35026  0.59342  Biso   1.000  C
  H544     1.0000 0.61411  0.29231  0.58689  Biso   1.000  H
  C367     1.0000 0.64974  0.40658  0.66669  Biso   1.000  C
  H545     1.0000 0.58689  0.38589  0.70769  Biso   1.000  H
  H546     1.0000 0.48740  0.23351  0.69730  Biso   1.000  H
  C368     1.0000 0.43797  0.29426  0.71472  Biso   1.000  C
  C369     1.0000 0.48744  0.23814  0.77722  Biso   1.000  C
  C370     1.0000 0.69680  0.33949  0.54457  Biso   1.000  C
  C371     1.0000 0.67906  0.39289  0.62321  Biso   1.000  C
  C372     1.0000 0.66051  0.45543  0.69680  Biso   1.000  C
  H547     1.0000 0.43820  0.32339  0.73868  Biso   1.000  H
  H548     1.0000 0.43781  0.30811  0.67960  Biso   1.000  H
  C373     1.0000 0.38865  0.26237  0.72328  Biso   1.000  C
  N62      1.0000 0.53489  0.20687  0.78520  Biso   1.000  N
  H549     1.0000 0.48740  0.26649  0.80270  Biso   1.000  H
  C374     1.0000 0.43797  0.20574  0.78528  Biso   1.000  C
  N63      1.0000 0.70687  0.28520  0.53489  Biso   1.000  N
  H550     1.0000 0.67770  0.35361  0.51528  Biso   1.000  H
  H551     1.0000 0.72981  0.35769  0.54652  Biso   1.000  H
  H552     1.0000 0.70769  0.41311  0.61411  Biso   1.000  H
  N64      1.0000 0.71480  0.46511  0.70687  Biso   1.000  N
  H553     1.0000 0.64639  0.48472  0.67770  Biso   1.000  H
  H554     1.0000 0.64231  0.45348  0.72981  Biso   1.000  H
  H555     1.0000 0.35851  0.28469  0.71978  Biso   1.000  H
  H556     1.0000 0.38640  0.23542  0.69699  Biso   1.000  H
  C375     1.0000 0.38865  0.23763  0.77672  Biso   1.000  C
  H557     1.0000 0.56001  0.22001  0.77201  Biso   1.000  H
  C376     1.0000 0.54457  0.19680  0.83949  Biso   1.000  C
  H558     1.0000 0.43820  0.17661  0.76132  Biso   1.000  H
  H559     1.0000 0.43781  0.19189  0.82040  Biso   1.000  H
  C377     1.0000 0.73814  0.27722  0.48744  Biso   1.000  C
  H560     1.0000 0.72001  0.27201  0.56001  Biso   1.000  H
  H561     1.0000 0.72799  0.43999  0.72001  Biso   1.000  H
  C378     1.0000 0.72278  0.51256  0.73814  Biso   1.000  C
  H562     1.0000 0.35851  0.21531  0.78022  Biso   1.000  H
  H563     1.0000 0.38640  0.26458  0.80301  Biso   1.000  H
  C379     1.0000 0.59342  0.16669  0.85026  Biso   1.000  C
  H564     1.0000 0.51528  0.17770  0.85361  Biso   1.000  H
  H565     1.0000 0.54652  0.22981  0.85769  Biso   1.000  H
  C380     1.0000 0.70574  0.28528  0.43797  Biso   1.000  C
  H566     1.0000 0.76649  0.30270  0.48740  Biso   1.000  H
  C381     1.0000 0.76186  0.22278  0.48744  Biso   1.000  C
  H567     1.0000 0.69730  0.51260  0.76649  Biso   1.000  H
  C382     1.0000 0.71472  0.56203  0.70574  Biso   1.000  C
  C383     1.0000 0.77722  0.51256  0.76186  Biso   1.000  C
  C384     1.0000 0.60711  0.12321  0.82094  Biso   1.000  C
  C385     1.0000 0.62321  0.17906  0.89289  Biso   1.000  C
  H568     1.0000 0.67661  0.26132  0.43820  Biso   1.000  H
  H569     1.0000 0.69189  0.32040  0.43781  Biso   1.000  H
  C386     1.0000 0.73763  0.27672  0.38865  Biso   1.000  C
  N65      1.0000 0.79313  0.21480  0.53489  Biso   1.000  N
  H570     1.0000 0.73351  0.19730  0.48740  Biso   1.000  H
  C387     1.0000 0.79426  0.21472  0.43797  Biso   1.000  C
  H571     1.0000 0.73868  0.56180  0.67661  Biso   1.000  H
  H572     1.0000 0.67960  0.56219  0.69189  Biso   1.000  H
  C388     1.0000 0.72328  0.61135  0.73763  Biso   1.000  C
  N66      1.0000 0.78520  0.46511  0.79313  Biso   1.000  N
  H573     1.0000 0.80270  0.51260  0.73351  Biso   1.000  H
  C389     1.0000 0.78528  0.56203  0.79426  Biso   1.000  C
  C390     1.0000 0.64974  0.09342  0.83331  Biso   1.000  C
  H574     1.0000 0.58689  0.11411  0.79231  Biso   1.000  H
  H575     1.0000 0.61411  0.20769  0.91311  Biso   1.000  H
  C391     1.0000 0.66669  0.14974  0.90658  Biso   1.000  C
  H576     1.0000 0.71531  0.28022  0.35851  Biso   1.000  H
  H577     1.0000 0.76458  0.30301  0.38640  Biso   1.000  H
  C392     1.0000 0.76237  0.22328  0.38865  Biso   1.000  C
  H578     1.0000 0.77999  0.22799  0.56001  Biso   1.000  H
  C393     1.0000 0.80320  0.16051  0.54457  Biso   1.000  C
  H579     1.0000 0.82339  0.23868  0.43820  Biso   1.000  H
  H580     1.0000 0.80811  0.17960  0.43781  Biso   1.000  H
  H581     1.0000 0.71978  0.64149  0.71531  Biso   1.000  H
  H582     1.0000 0.69699  0.61360  0.76458  Biso   1.000  H
  C394     1.0000 0.77672  0.61135  0.76237  Biso   1.000  C
  H583     1.0000 0.77201  0.43999  0.77999  Biso   1.000  H
  C395     1.0000 0.83949  0.45543  0.80320  Biso   1.000  C
  H584     1.0000 0.76132  0.56180  0.82339  Biso   1.000  H
  H585     1.0000 0.82040  0.56219  0.80811  Biso   1.000  H
  C396     1.0000 0.66051  0.04457  0.80320  Biso   1.000  C
  C397     1.0000 0.67906  0.10711  0.87679  Biso   1.000  C
  C398     1.0000 0.69680  0.16051  0.95543  Biso   1.000  C
  H586     1.0000 0.78469  0.21978  0.35851  Biso   1.000  H
  H587     1.0000 0.73542  0.19699  0.38640  Biso   1.000  H
  C399     1.0000 0.83331  0.14974  0.59342  Biso   1.000  C
  H588     1.0000 0.82230  0.14639  0.51528  Biso   1.000  H
  H589     1.0000 0.77019  0.14231  0.54652  Biso   1.000  H
  H590     1.0000 0.78022  0.64149  0.78469  Biso   1.000  H
  H591     1.0000 0.80301  0.61360  0.73542  Biso   1.000  H
  C400     1.0000 0.85026  0.40658  0.83331  Biso   1.000  C
  H592     1.0000 0.85361  0.48472  0.82230  Biso   1.000  H
  H593     1.0000 0.85769  0.45348  0.77019  Biso   1.000  H
  N67      1.0000 0.71480  0.03489  0.79313  Biso   1.000  N
  H594     1.0000 0.64639  0.01528  0.82230  Biso   1.000  H
  H595     1.0000 0.64231  0.04652  0.77019  Biso   1.000  H
  H596     1.0000 0.70769  0.08689  0.88589  Biso   1.000  H
  N68      1.0000 0.70687  0.21480  0.96511  Biso   1.000  N
  H597     1.0000 0.67770  0.14639  0.98472  Biso   1.000  H
  H598     1.0000 0.72981  0.14231  0.95348  Biso   1.000  H
  C401     1.0000 0.87679  0.17906  0.60711  Biso   1.000  C
  C402     1.0000 0.82094  0.10711  0.62321  Biso   1.000  C
  C403     1.0000 0.82094  0.39289  0.87679  Biso   1.000  C
  C404     1.0000 0.89289  0.37679  0.82094  Biso   1.000  C
  C405     1.0000 0.72278  0.98744  0.76186  Biso   1.000  C
  H599     1.0000 0.72799  0.06001  0.77999  Biso   1.000  H
  H600     1.0000 0.72001  0.22799  0.93999  Biso   1.000  H
  C406     1.0000 0.73814  0.22278  0.01256  Biso   1.000  C
  H601     1.0000 0.88589  0.20769  0.58689  Biso   1.000  H
  C407     1.0000 0.90658  0.16669  0.64974  Biso   1.000  C
  H602     1.0000 0.79231  0.08689  0.61411  Biso   1.000  H
  C408     1.0000 0.85026  0.09342  0.66669  Biso   1.000  C
  H603     1.0000 0.79231  0.41311  0.88589  Biso   1.000  H
  C409     1.0000 0.83331  0.35026  0.90658  Biso   1.000  C
  C410     1.0000 0.90658  0.33331  0.85026  Biso   1.000  C
  H604     1.0000 0.91311  0.38589  0.79231  Biso   1.000  H
  C411     1.0000 0.77722  0.98744  0.73814  Biso   1.000  C
  H605     1.0000 0.69730  0.98740  0.73351  Biso   1.000  H
  C412     1.0000 0.71472  0.93797  0.79426  Biso   1.000  C
  C413     1.0000 0.76186  0.27722  0.01256  Biso   1.000  C
  H606     1.0000 0.76649  0.19730  0.01260  Biso   1.000  H
  C414     1.0000 0.70574  0.21472  0.06203  Biso   1.000  C
  C415     1.0000 0.89289  0.12321  0.67906  Biso   1.000  C
  C416     1.0000 0.95543  0.19680  0.66051  Biso   1.000  C
  C417     1.0000 0.83949  0.04457  0.69680  Biso   1.000  C
  C418     1.0000 0.87679  0.32094  0.89289  Biso   1.000  C
  C419     1.0000 0.80320  0.33949  0.95543  Biso   1.000  C
  C420     1.0000 0.95543  0.30320  0.83949  Biso   1.000  C
  N69      1.0000 0.78520  0.03489  0.70687  Biso   1.000  N
  H607     1.0000 0.80270  0.98740  0.76649  Biso   1.000  H
  C421     1.0000 0.78528  0.93797  0.70574  Biso   1.000  C
  H608     1.0000 0.73868  0.93820  0.82339  Biso   1.000  H
  H609     1.0000 0.67960  0.93781  0.80811  Biso   1.000  H
  C422     1.0000 0.72328  0.88865  0.76237  Biso   1.000  C
  N70      1.0000 0.79313  0.28520  0.96511  Biso   1.000  N
  H610     1.0000 0.73351  0.30270  0.01260  Biso   1.000  H
  C423     1.0000 0.79426  0.28528  0.06203  Biso   1.000  C
  H611     1.0000 0.67661  0.23868  0.06180  Biso   1.000  H
  H612     1.0000 0.69189  0.17960  0.06219  Biso   1.000  H
  C424     1.0000 0.73763  0.22328  0.11135  Biso   1.000  C
  H613     1.0000 0.91311  0.11411  0.70769  Biso   1.000  H
  N71      1.0000 0.96511  0.20687  0.71480  Biso   1.000  N
  H614     1.0000 0.98472  0.17770  0.64639  Biso   1.000  H
  H615     1.0000 0.95348  0.22981  0.64231  Biso   1.000  H
  H616     1.0000 0.85361  0.01528  0.67770  Biso   1.000  H
  H617     1.0000 0.85769  0.04652  0.72981  Biso   1.000  H
  H618     1.0000 0.88589  0.29231  0.91311  Biso   1.000  H
  H619     1.0000 0.82230  0.35361  0.98472  Biso   1.000  H
  H620     1.0000 0.77019  0.35769  0.95348  Biso   1.000  H
  N72      1.0000 0.96511  0.29313  0.78520  Biso   1.000  N
  H621     1.0000 0.98472  0.32230  0.85361  Biso   1.000  H
  H622     1.0000 0.95348  0.27019  0.85769  Biso   1.000  H
  H623     1.0000 0.77201  0.06001  0.72001  Biso   1.000  H
  H624     1.0000 0.76132  0.93820  0.67661  Biso   1.000  H
  H625     1.0000 0.82040  0.93781  0.69189  Biso   1.000  H
  C425     1.0000 0.77672  0.88865  0.73763  Biso   1.000  C
  H626     1.0000 0.71978  0.85851  0.78469  Biso   1.000  H
  H627     1.0000 0.69699  0.88640  0.73542  Biso   1.000  H
  H628     1.0000 0.77999  0.27201  0.93999  Biso   1.000  H
  H629     1.0000 0.82339  0.26132  0.06180  Biso   1.000  H
  H630     1.0000 0.80811  0.32040  0.06219  Biso   1.000  H
  C426     1.0000 0.76237  0.27672  0.11135  Biso   1.000  C
  H631     1.0000 0.71531  0.21978  0.14149  Biso   1.000  H
  H632     1.0000 0.76458  0.19699  0.11360  Biso   1.000  H
  H633     1.0000 0.93999  0.22001  0.72799  Biso   1.000  H
  C427     1.0000 0.01256  0.23814  0.72278  Biso   1.000  C
  C428     1.0000 0.01256  0.26186  0.77722  Biso   1.000  C
  H634     1.0000 0.93999  0.27999  0.77201  Biso   1.000  H
  H635     1.0000 0.78022  0.85851  0.71531  Biso   1.000  H
  H636     1.0000 0.80301  0.88640  0.76458  Biso   1.000  H
  H637     1.0000 0.78469  0.28022  0.14149  Biso   1.000  H
  H638     1.0000 0.73542  0.30301  0.11360  Biso   1.000  H
  H639     1.0000 0.01260  0.26649  0.69730  Biso   1.000  H
  C429     1.0000 0.06203  0.20574  0.71472  Biso   1.000  C
  H640     1.0000 0.01260  0.23351  0.80270  Biso   1.000  H
  C430     1.0000 0.06203  0.29426  0.78528  Biso   1.000  C
  H641     1.0000 0.06180  0.17661  0.73868  Biso   1.000  H
  H642     1.0000 0.06219  0.19189  0.67960  Biso   1.000  H
  C431     1.0000 0.11135  0.23763  0.72328  Biso   1.000  C
  C432     1.0000 0.11135  0.26237  0.77672  Biso   1.000  C
  H643     1.0000 0.06180  0.32339  0.76132  Biso   1.000  H
  H644     1.0000 0.06219  0.30811  0.82040  Biso   1.000  H
  H645     1.0000 0.14149  0.21531  0.71978  Biso   1.000  H
  H646     1.0000 0.11360  0.26458  0.69699  Biso   1.000  H
  H647     1.0000 0.14149  0.28469  0.78022  Biso   1.000  H
  H648     1.0000 0.11360  0.23542  0.80301  Biso   1.000  H
  C433     1.0000 0.30320  0.66051  0.54457  Biso   1.000  C
  N73      1.0000 0.29313  0.71480  0.53489  Biso   1.000  N
  C434     1.0000 0.33331  0.64974  0.59342  Biso   1.000  C
  H649     1.0000 0.32230  0.64639  0.51528  Biso   1.000  H
  H650     1.0000 0.27019  0.64231  0.54652  Biso   1.000  H
  C435     1.0000 0.26186  0.72278  0.48744  Biso   1.000  C
  H651     1.0000 0.27999  0.72799  0.56001  Biso   1.000  H
  C436     1.0000 0.32094  0.60711  0.62321  Biso   1.000  C
  C437     1.0000 0.37679  0.67906  0.60711  Biso   1.000  C
  C438     1.0000 0.29426  0.71472  0.43797  Biso   1.000  C
  C439     1.0000 0.23814  0.77722  0.48744  Biso   1.000  C
  H652     1.0000 0.23351  0.69730  0.48740  Biso   1.000  H
  H653     1.0000 0.29231  0.58689  0.61411  Biso   1.000  H
  C440     1.0000 0.35026  0.59342  0.66669  Biso   1.000  C
  H654     1.0000 0.38589  0.70769  0.58689  Biso   1.000  H
  C441     1.0000 0.40658  0.66669  0.64974  Biso   1.000  C
  C442     1.0000 0.26237  0.72328  0.38865  Biso   1.000  C
  H655     1.0000 0.32339  0.73868  0.43820  Biso   1.000  H
  H656     1.0000 0.30811  0.67960  0.43781  Biso   1.000  H
  C443     1.0000 0.20574  0.78528  0.43797  Biso   1.000  C
  N74      1.0000 0.20687  0.78520  0.53489  Biso   1.000  N
  H657     1.0000 0.26649  0.80270  0.48740  Biso   1.000  H
  C444     1.0000 0.33949  0.54457  0.69680  Biso   1.000  C
  C445     1.0000 0.39289  0.62321  0.67906  Biso   1.000  C
  C446     1.0000 0.45543  0.69680  0.66051  Biso   1.000  C
  C447     1.0000 0.23763  0.77672  0.38865  Biso   1.000  C
  H658     1.0000 0.28469  0.71978  0.35851  Biso   1.000  H
  H659     1.0000 0.23542  0.69699  0.38640  Biso   1.000  H
  H660     1.0000 0.17661  0.76132  0.43820  Biso   1.000  H
  H661     1.0000 0.19189  0.82040  0.43781  Biso   1.000  H
  H662     1.0000 0.22001  0.77201  0.56001  Biso   1.000  H
  C448     1.0000 0.19680  0.83949  0.54457  Biso   1.000  C
  N75      1.0000 0.28520  0.53489  0.70687  Biso   1.000  N
  H663     1.0000 0.35361  0.51528  0.67770  Biso   1.000  H
  H664     1.0000 0.35769  0.54652  0.72981  Biso   1.000  H
  H665     1.0000 0.41311  0.61411  0.70769  Biso   1.000  H
  N76      1.0000 0.46511  0.70687  0.71480  Biso   1.000  N
  H666     1.0000 0.48472  0.67770  0.64639  Biso   1.000  H
  H667     1.0000 0.45348  0.72981  0.64231  Biso   1.000  H
  H668     1.0000 0.21531  0.78022  0.35851  Biso   1.000  H
  H669     1.0000 0.26458  0.80301  0.38640  Biso   1.000  H
  C449     1.0000 0.16669  0.85026  0.59342  Biso   1.000  C
  H670     1.0000 0.17770  0.85361  0.51528  Biso   1.000  H
  H671     1.0000 0.22981  0.85769  0.54652  Biso   1.000  H
  H672     1.0000 0.27201  0.56001  0.72001  Biso   1.000  H
  C450     1.0000 0.27722  0.48744  0.73814  Biso   1.000  C
  H673     1.0000 0.43999  0.72001  0.72799  Biso   1.000  H
  C451     1.0000 0.51256  0.73814  0.72278  Biso   1.000  C
  C452     1.0000 0.12321  0.82094  0.60711  Biso   1.000  C
  C453     1.0000 0.17906  0.89289  0.62321  Biso   1.000  C
  C454     1.0000 0.22278  0.48744  0.76186  Biso   1.000  C
  H674     1.0000 0.30270  0.48740  0.76649  Biso   1.000  H
  C455     1.0000 0.28528  0.43797  0.70574  Biso   1.000  C
  C456     1.0000 0.51256  0.76186  0.77722  Biso   1.000  C
  H675     1.0000 0.51260  0.76649  0.69730  Biso   1.000  H
  C457     1.0000 0.56203  0.70574  0.71472  Biso   1.000  C
  C458     1.0000 0.09342  0.83331  0.64974  Biso   1.000  C
  H676     1.0000 0.11411  0.79231  0.58689  Biso   1.000  H
  H677     1.0000 0.20769  0.91311  0.61411  Biso   1.000  H
  C459     1.0000 0.14974  0.90658  0.66669  Biso   1.000  C
  N77      1.0000 0.21480  0.53489  0.79313  Biso   1.000  N
  H678     1.0000 0.19730  0.48740  0.73351  Biso   1.000  H
  C460     1.0000 0.21472  0.43797  0.79426  Biso   1.000  C
  H679     1.0000 0.26132  0.43820  0.67661  Biso   1.000  H
  H680     1.0000 0.32040  0.43781  0.69189  Biso   1.000  H
  C461     1.0000 0.27672  0.38865  0.73763  Biso   1.000  C
  N78      1.0000 0.46511  0.79313  0.78520  Biso   1.000  N
  H681     1.0000 0.51260  0.73351  0.80270  Biso   1.000  H
  C462     1.0000 0.56203  0.79426  0.78528  Biso   1.000  C
  H682     1.0000 0.56180  0.67661  0.73868  Biso   1.000  H
  H683     1.0000 0.56219  0.69189  0.67960  Biso   1.000  H
  C463     1.0000 0.61135  0.73763  0.72328  Biso   1.000  C
  C464     1.0000 0.10711  0.87679  0.67906  Biso   1.000  C
  C465     1.0000 0.04457  0.80320  0.66051  Biso   1.000  C
  C466     1.0000 0.16051  0.95543  0.69680  Biso   1.000  C
  H684     1.0000 0.22799  0.56001  0.77999  Biso   1.000  H
  C467     1.0000 0.16051  0.54457  0.80320  Biso   1.000  C
  H685     1.0000 0.23868  0.43820  0.82339  Biso   1.000  H
  H686     1.0000 0.17960  0.43781  0.80811  Biso   1.000  H
  C468     1.0000 0.22328  0.38865  0.76237  Biso   1.000  C
  H687     1.0000 0.28022  0.35851  0.71531  Biso   1.000  H
  H688     1.0000 0.30301  0.38640  0.76458  Biso   1.000  H
  H689     1.0000 0.43999  0.77999  0.77201  Biso   1.000  H
  C469     1.0000 0.45543  0.80320  0.83949  Biso   1.000  C
  H690     1.0000 0.56180  0.82339  0.76132  Biso   1.000  H
  H691     1.0000 0.56219  0.80811  0.82040  Biso   1.000  H
  C470     1.0000 0.61135  0.76237  0.77672  Biso   1.000  C
  H692     1.0000 0.64149  0.71531  0.71978  Biso   1.000  H
  H693     1.0000 0.61360  0.76458  0.69699  Biso   1.000  H
  H694     1.0000 0.08689  0.88589  0.70769  Biso   1.000  H
  N79      1.0000 0.03489  0.79313  0.71480  Biso   1.000  N
  H695     1.0000 0.01528  0.82230  0.64639  Biso   1.000  H
  H696     1.0000 0.04652  0.77019  0.64231  Biso   1.000  H
  N80      1.0000 0.21480  0.96511  0.70687  Biso   1.000  N
  H697     1.0000 0.14639  0.98472  0.67770  Biso   1.000  H
  H698     1.0000 0.14231  0.95348  0.72981  Biso   1.000  H
  C471     1.0000 0.14974  0.59342  0.83331  Biso   1.000  C
  H699     1.0000 0.14639  0.51528  0.82230  Biso   1.000  H
  H700     1.0000 0.14231  0.54652  0.77019  Biso   1.000  H
  H701     1.0000 0.21978  0.35851  0.78469  Biso   1.000  H
  H702     1.0000 0.19699  0.38640  0.73542  Biso   1.000  H
  C472     1.0000 0.40658  0.83331  0.85026  Biso   1.000  C
  H703     1.0000 0.48472  0.82230  0.85361  Biso   1.000  H
  H704     1.0000 0.45348  0.77019  0.85769  Biso   1.000  H
  H705     1.0000 0.64149  0.78469  0.78022  Biso   1.000  H
  H706     1.0000 0.61360  0.73542  0.80301  Biso   1.000  H
  H707     1.0000 0.06001  0.77999  0.72799  Biso   1.000  H
  C473     1.0000 0.98744  0.76186  0.72278  Biso   1.000  C
  H708     1.0000 0.22799  0.93999  0.72001  Biso   1.000  H
  C474     1.0000 0.22278  0.01256  0.73814  Biso   1.000  C
  C475     1.0000 0.10711  0.62321  0.82094  Biso   1.000  C
  C476     1.0000 0.17906  0.60711  0.87679  Biso   1.000  C
  C477     1.0000 0.37679  0.82094  0.89289  Biso   1.000  C
  C478     1.0000 0.39289  0.87679  0.82094  Biso   1.000  C
  C479     1.0000 0.98744  0.73814  0.77722  Biso   1.000  C
  H709     1.0000 0.98740  0.73351  0.69730  Biso   1.000  H
  C480     1.0000 0.93797  0.79426  0.71472  Biso   1.000  C
  H710     1.0000 0.19730  0.01260  0.76649  Biso   1.000  H
  C481     1.0000 0.21472  0.06203  0.70574  Biso   1.000  C
  C482     1.0000 0.27722  0.01256  0.76186  Biso   1.000  C
  C483     1.0000 0.09342  0.66669  0.85026  Biso   1.000  C
  H711     1.0000 0.08689  0.61411  0.79231  Biso   1.000  H
  H712     1.0000 0.20769  0.58689  0.88589  Biso   1.000  H
  C484     1.0000 0.16669  0.64974  0.90658  Biso   1.000  C
  H713     1.0000 0.38589  0.79231  0.91311  Biso   1.000  H
  C485     1.0000 0.33331  0.85026  0.90658  Biso   1.000  C
  C486     1.0000 0.35026  0.90658  0.83331  Biso   1.000  C
  H714     1.0000 0.41311  0.88589  0.79231  Biso   1.000  H
  N81      1.0000 0.03489  0.70687  0.78520  Biso   1.000  N
  H715     1.0000 0.98740  0.76649  0.80270  Biso   1.000  H
  C487     1.0000 0.93797  0.70574  0.78528  Biso   1.000  C
  H716     1.0000 0.93820  0.82339  0.73868  Biso   1.000  H
  H717     1.0000 0.93781  0.80811  0.67960  Biso   1.000  H
  C488     1.0000 0.88865  0.76237  0.72328  Biso   1.000  C
  H718     1.0000 0.23868  0.06180  0.67661  Biso   1.000  H
  H719     1.0000 0.17960  0.06219  0.69189  Biso   1.000  H
  C489     1.0000 0.22328  0.11135  0.73763  Biso   1.000  C
  N82      1.0000 0.28520  0.96511  0.79313  Biso   1.000  N
  H720     1.0000 0.30270  0.01260  0.73351  Biso   1.000  H
  C490     1.0000 0.28528  0.06203  0.79426  Biso   1.000  C
  C491     1.0000 0.04457  0.69680  0.83949  Biso   1.000  C
  C492     1.0000 0.12321  0.67906  0.89289  Biso   1.000  C
  C493     1.0000 0.19680  0.66051  0.95543  Biso   1.000  C
  C494     1.0000 0.32094  0.89289  0.87679  Biso   1.000  C
  C495     1.0000 0.30320  0.83949  0.95543  Biso   1.000  C
  C496     1.0000 0.33949  0.95543  0.80320  Biso   1.000  C
  H721     1.0000 0.06001  0.72001  0.77201  Biso   1.000  H
  H722     1.0000 0.93820  0.67661  0.76132  Biso   1.000  H
  H723     1.0000 0.93781  0.69189  0.82040  Biso   1.000  H
  C497     1.0000 0.88865  0.73763  0.77672  Biso   1.000  C
  H724     1.0000 0.85851  0.78469  0.71978  Biso   1.000  H
  H725     1.0000 0.88640  0.73542  0.69699  Biso   1.000  H
  H726     1.0000 0.21978  0.14149  0.71531  Biso   1.000  H
  H727     1.0000 0.19699  0.11360  0.76458  Biso   1.000  H
  C498     1.0000 0.27672  0.11135  0.76237  Biso   1.000  C
  H728     1.0000 0.27201  0.93999  0.77999  Biso   1.000  H
  H729     1.0000 0.26132  0.06180  0.82339  Biso   1.000  H
  H730     1.0000 0.32040  0.06219  0.80811  Biso   1.000  H
  H731     1.0000 0.01528  0.67770  0.85361  Biso   1.000  H
  H732     1.0000 0.04652  0.72981  0.85769  Biso   1.000  H
  H733     1.0000 0.11411  0.70769  0.91311  Biso   1.000  H
  N83      1.0000 0.20687  0.71480  0.96511  Biso   1.000  N
  H734     1.0000 0.17770  0.64639  0.98472  Biso   1.000  H
  H735     1.0000 0.22981  0.64231  0.95348  Biso   1.000  H
  H736     1.0000 0.29231  0.91311  0.88589  Biso   1.000  H
  N84      1.0000 0.29313  0.78520  0.96511  Biso   1.000  N
  H737     1.0000 0.32230  0.85361  0.98472  Biso   1.000  H
  H738     1.0000 0.27019  0.85769  0.95348  Biso   1.000  H
  H739     1.0000 0.35361  0.98472  0.82230  Biso   1.000  H
  H740     1.0000 0.35769  0.95348  0.77019  Biso   1.000  H
  H741     1.0000 0.85851  0.71531  0.78022  Biso   1.000  H
  H742     1.0000 0.88640  0.76458  0.80301  Biso   1.000  H
  H743     1.0000 0.28022  0.14149  0.78469  Biso   1.000  H
  H744     1.0000 0.30301  0.11360  0.73542  Biso   1.000  H
  H745     1.0000 0.22001  0.72799  0.93999  Biso   1.000  H
  C499     1.0000 0.23814  0.72278  0.01256  Biso   1.000  C
  H746     1.0000 0.27999  0.77201  0.93999  Biso   1.000  H
  C500     1.0000 0.26186  0.77722  0.01256  Biso   1.000  C
  H747     1.0000 0.26649  0.69730  0.01260  Biso   1.000  H
  C501     1.0000 0.20574  0.71472  0.06203  Biso   1.000  C
  H748     1.0000 0.23351  0.80270  0.01260  Biso   1.000  H
  C502     1.0000 0.29426  0.78528  0.06203  Biso   1.000  C
  H749     1.0000 0.17661  0.73868  0.06180  Biso   1.000  H
  H750     1.0000 0.19189  0.67960  0.06219  Biso   1.000  H
  C503     1.0000 0.23763  0.72328  0.11135  Biso   1.000  C
  H751     1.0000 0.32339  0.76132  0.06180  Biso   1.000  H
  H752     1.0000 0.30811  0.82040  0.06219  Biso   1.000  H
  C504     1.0000 0.26237  0.77672  0.11135  Biso   1.000  C
  H753     1.0000 0.21531  0.71978  0.14149  Biso   1.000  H
  H754     1.0000 0.26458  0.69699  0.11360  Biso   1.000  H
  H755     1.0000 0.28469  0.78022  0.14149  Biso   1.000  H
  H756     1.0000 0.23542  0.80301  0.11360  Biso   1.000  H
  O19      1.0000 0.50000  0.50000  0.10781  Biso   1.000  O
  O20      1.0000 0.46142  0.46060  0.07771  Biso   1.000  O
  O21      1.0000 0.53858  0.53940  0.07771  Biso   1.000  O
  O22      1.0000 0.46060  0.42229  0.03858  Biso   1.000  O
  O23      1.0000 0.42229  0.46142  0.03940  Biso   1.000  O
  O24      1.0000 0.57771  0.53858  0.03940  Biso   1.000  O
  O25      1.0000 0.53940  0.57771  0.03858  Biso   1.000  O
  O26      1.0000 0.50000  0.39219  0.00000  Biso   1.000  O
  O27      1.0000 0.39219  0.50000  0.00000  Biso   1.000  O
  O28      1.0000 0.60781  0.50000  0.00000  Biso   1.000  O
  O29      1.0000 0.50000  0.60781  0.00000  Biso   1.000  O
  O30      1.0000 0.53940  0.42229  0.96142  Biso   1.000  O
  O31      1.0000 0.42229  0.53858  0.96060  Biso   1.000  O
  O32      1.0000 0.57771  0.46142  0.96060  Biso   1.000  O
  O33      1.0000 0.46060  0.57771  0.96142  Biso   1.000  O
  O34      1.0000 0.53858  0.46060  0.92229  Biso   1.000  O
  O35      1.0000 0.46142  0.53940  0.92229  Biso   1.000  O
  O36      1.0000 0.50000  0.50000  0.89219  Biso   1.000  O
  O37      1.0000 0.50000  0.10781  0.50000  Biso   1.000  O
  O38      1.0000 0.46060  0.07771  0.46142  Biso   1.000  O
  O39      1.0000 0.53940  0.07771  0.53858  Biso   1.000  O
  O40      1.0000 0.46142  0.03940  0.42229  Biso   1.000  O
  O41      1.0000 0.42229  0.03858  0.46060  Biso   1.000  O
  O42      1.0000 0.57771  0.03858  0.53940  Biso   1.000  O
  O43      1.0000 0.53858  0.03940  0.57771  Biso   1.000  O
  O44      1.0000 0.50000  0.00000  0.39219  Biso   1.000  O
  O45      1.0000 0.39219  0.00000  0.50000  Biso   1.000  O
  O46      1.0000 0.60781  0.00000  0.50000  Biso   1.000  O
  O47      1.0000 0.50000  0.00000  0.60781  Biso   1.000  O
  O48      1.0000 0.53858  0.96060  0.42229  Biso   1.000  O
  O49      1.0000 0.42229  0.96142  0.53940  Biso   1.000  O
  O50      1.0000 0.57771  0.96142  0.46060  Biso   1.000  O
  O51      1.0000 0.46142  0.96060  0.57771  Biso   1.000  O
  O52      1.0000 0.53940  0.92229  0.46142  Biso   1.000  O
  O53      1.0000 0.46060  0.92229  0.53858  Biso   1.000  O
  O54      1.0000 0.50000  0.89219  0.50000  Biso   1.000  O
  O55      1.0000 0.10781  0.50000  0.50000  Biso   1.000  O
  O56      1.0000 0.07771  0.46142  0.46060  Biso   1.000  O
  O57      1.0000 0.07771  0.53858  0.53940  Biso   1.000  O
  O58      1.0000 0.03858  0.46060  0.42229  Biso   1.000  O
  O59      1.0000 0.03940  0.42229  0.46142  Biso   1.000  O
  O60      1.0000 0.03940  0.57771  0.53858  Biso   1.000  O
  O61      1.0000 0.03858  0.53940  0.57771  Biso   1.000  O
  O62      1.0000 0.00000  0.50000  0.39219  Biso   1.000  O
  O63      1.0000 0.00000  0.39219  0.50000  Biso   1.000  O
  O64      1.0000 0.00000  0.60781  0.50000  Biso   1.000  O
  O65      1.0000 0.00000  0.50000  0.60781  Biso   1.000  O
  O66      1.0000 0.96142  0.53940  0.42229  Biso   1.000  O
  O67      1.0000 0.96060  0.42229  0.53858  Biso   1.000  O
  O68      1.0000 0.96060  0.57771  0.46142  Biso   1.000  O
  O69      1.0000 0.96142  0.46060  0.57771  Biso   1.000  O
  O70      1.0000 0.92229  0.53858  0.46060  Biso   1.000  O
  O71      1.0000 0.92229  0.46142  0.53940  Biso   1.000  O
  O72      1.0000 0.89219  0.50000  0.50000  Biso   1.000  O
  O73      1.0000 0.75000  0.25000  0.64219  Biso   1.000  O
  O74      1.0000 0.71060  0.21142  0.67229  Biso   1.000  O
  O75      1.0000 0.78940  0.28858  0.67229  Biso   1.000  O
  O76      1.0000 0.67229  0.21060  0.71142  Biso   1.000  O
  O77      1.0000 0.71142  0.17229  0.71060  Biso   1.000  O
  O78      1.0000 0.82771  0.28940  0.71142  Biso   1.000  O
  O79      1.0000 0.78858  0.32771  0.71060  Biso   1.000  O
  O80      1.0000 0.64219  0.25000  0.75000  Biso   1.000  O
  O81      1.0000 0.75000  0.14219  0.75000  Biso   1.000  O
  O82      1.0000 0.85781  0.25000  0.75000  Biso   1.000  O
  O83      1.0000 0.75000  0.35781  0.75000  Biso   1.000  O
  O84      1.0000 0.67229  0.28940  0.78858  Biso   1.000  O
  O85      1.0000 0.78858  0.17229  0.78940  Biso   1.000  O
  O86      1.0000 0.82771  0.21060  0.78858  Biso   1.000  O
  O87      1.0000 0.71142  0.32771  0.78940  Biso   1.000  O
  O88      1.0000 0.71060  0.28858  0.82771  Biso   1.000  O
  O89      1.0000 0.78940  0.21142  0.82771  Biso   1.000  O
  O90      1.0000 0.75000  0.25000  0.85781  Biso   1.000  O
  O91      1.0000 0.75000  0.64219  0.25000  Biso   1.000  O
  O92      1.0000 0.71142  0.67229  0.21060  Biso   1.000  O
  O93      1.0000 0.78858  0.67229  0.28940  Biso   1.000  O
  O94      1.0000 0.67229  0.71060  0.21142  Biso   1.000  O
  O95      1.0000 0.71060  0.71142  0.17229  Biso   1.000  O
  O96      1.0000 0.82771  0.71060  0.28858  Biso   1.000  O
  O97      1.0000 0.78940  0.71142  0.32771  Biso   1.000  O
  O98      1.0000 0.64219  0.75000  0.25000  Biso   1.000  O
  O99      1.0000 0.75000  0.75000  0.14219  Biso   1.000  O
  O100     1.0000 0.85781  0.75000  0.25000  Biso   1.000  O
  O101     1.0000 0.75000  0.75000  0.35781  Biso   1.000  O
  O102     1.0000 0.67229  0.78940  0.28858  Biso   1.000  O
  O103     1.0000 0.78940  0.78858  0.17229  Biso   1.000  O
  O104     1.0000 0.82771  0.78940  0.21142  Biso   1.000  O
  O105     1.0000 0.71060  0.78858  0.32771  Biso   1.000  O
  O106     1.0000 0.71142  0.82771  0.28940  Biso   1.000  O
  O107     1.0000 0.78858  0.82771  0.21060  Biso   1.000  O
  O108     1.0000 0.75000  0.85781  0.25000  Biso   1.000  O
  O109     1.0000 0.25000  0.64219  0.75000  Biso   1.000  O
  O110     1.0000 0.21142  0.67229  0.71060  Biso   1.000  O
  O111     1.0000 0.28858  0.67229  0.78940  Biso   1.000  O
  O112     1.0000 0.17229  0.71060  0.71142  Biso   1.000  O
  O113     1.0000 0.21060  0.71142  0.67229  Biso   1.000  O
  O114     1.0000 0.32771  0.71060  0.78858  Biso   1.000  O
  O115     1.0000 0.28940  0.71142  0.82771  Biso   1.000  O
  O116     1.0000 0.14219  0.75000  0.75000  Biso   1.000  O
  O117     1.0000 0.25000  0.75000  0.64219  Biso   1.000  O
  O118     1.0000 0.35781  0.75000  0.75000  Biso   1.000  O
  O119     1.0000 0.25000  0.75000  0.85781  Biso   1.000  O
  O120     1.0000 0.17229  0.78940  0.78858  Biso   1.000  O
  O121     1.0000 0.28940  0.78858  0.67229  Biso   1.000  O
  O122     1.0000 0.32771  0.78940  0.71142  Biso   1.000  O
  O123     1.0000 0.21060  0.78858  0.82771  Biso   1.000  O
  O124     1.0000 0.21142  0.82771  0.78940  Biso   1.000  O
  O125     1.0000 0.28858  0.82771  0.71060  Biso   1.000  O
  O126     1.0000 0.25000  0.85781  0.75000  Biso   1.000  O
  O127     1.0000 0.07771  0.03858  0.03940  Biso   1.000  O
  O128     1.0000 0.10781  0.00000  0.00000  Biso   1.000  O
  O129     1.0000 0.03940  0.07771  0.03858  Biso   1.000  O
  O130     1.0000 0.03858  0.03940  0.07771  Biso   1.000  O
  O131     1.0000 0.07771  0.96142  0.96060  Biso   1.000  O
  O132     1.0000 0.00000  0.10781  0.00000  Biso   1.000  O
  O133     1.0000 0.00000  0.00000  0.10781  Biso   1.000  O
  O134     1.0000 0.03858  0.96060  0.92229  Biso   1.000  O
  O135     1.0000 0.03940  0.92229  0.96142  Biso   1.000  O
  O136     1.0000 0.96060  0.07771  0.96142  Biso   1.000  O
  O137     1.0000 0.96142  0.96060  0.07771  Biso   1.000  O
  O138     1.0000 0.00000  0.00000  0.89219  Biso   1.000  O
  O139     1.0000 0.00000  0.89219  0.00000  Biso   1.000  O
  O140     1.0000 0.96142  0.03940  0.92229  Biso   1.000  O
  O141     1.0000 0.92229  0.03858  0.96060  Biso   1.000  O
  O142     1.0000 0.96060  0.92229  0.03858  Biso   1.000  O
  O143     1.0000 0.92229  0.96142  0.03940  Biso   1.000  O
  O144     1.0000 0.89219  0.00000  0.00000  Biso   1.000  O
  Ne1      1.0000 0.25000  0.25000  0.25000  Biso   1.000  Ne
  He1      1.0000 0.18073  0.31927  0.31927  Biso   1.000  He
  He2      1.0000 0.31874  0.18126  0.31874  Biso   1.000  He
  He3      1.0000 0.17794  0.17795  0.17794  Biso   1.000  He
  He4      1.0000 0.32161  0.32161  0.17839  Biso   1.000  He
  Ar1      1.0000 0.25000  0.25000  0.25000  Biso   1.000  Ar
  Ne2      1.0000 0.50000  0.00000  0.50000  Biso   1.000  Ne
  He5      1.0000 0.42868  0.92868  0.57132  Biso   1.000  He
  He6      1.0000 0.57024  0.07023  0.57023  Biso   1.000  He
  He7      1.0000 0.56675  0.93325  0.43325  Biso   1.000  He
  He8      1.0000 0.42856  0.07144  0.42856  Biso   1.000  He
  Ar2      1.0000 0.50000  0.00000  0.50000  Biso   1.000  Ar
  Ne3      1.0000 0.50000  0.50000  0.00000  Biso   1.000  Ne
  He9      1.0000 0.42868  0.42868  0.07132  Biso   1.000  He
  He10     1.0000 0.57024  0.57023  0.07023  Biso   1.000  He
  He11     1.0000 0.56675  0.43325  0.93325  Biso   1.000  He
  He12     1.0000 0.42856  0.57144  0.92856  Biso   1.000  He
  Ar3      1.0000 0.50000  0.50000  0.00000  Biso   1.000  Ar
  Ne4      1.0000 0.00000  0.50000  0.50000  Biso   1.000  Ne
  He13     1.0000 0.92868  0.42868  0.57132  Biso   1.000  He
  He14     1.0000 0.07024  0.57023  0.57023  Biso   1.000  He
  He15     1.0000 0.06675  0.43325  0.43325  Biso   1.000  He
  He16     1.0000 0.92856  0.57144  0.42856  Biso   1.000  He
  Ar4      1.0000 0.00000  0.50000  0.50000  Biso   1.000  Ar
  Ne5      1.0000 0.75000  0.75000  0.25000  Biso   1.000  Ne
  He17     1.0000 0.68074  0.81927  0.31927  Biso   1.000  He
  He18     1.0000 0.81874  0.68126  0.31874  Biso   1.000  He
  He19     1.0000 0.67794  0.67795  0.17794  Biso   1.000  He
  He20     1.0000 0.82161  0.82161  0.17839  Biso   1.000  He
  Ar5      1.0000 0.75000  0.75000  0.25000  Biso   1.000  Ar
  Ne6      1.0000 0.75000  0.25000  0.75000  Biso   1.000  Ne
  He21     1.0000 0.68074  0.31927  0.81927  Biso   1.000  He
  He22     1.0000 0.81874  0.18126  0.81874  Biso   1.000  He
  He23     1.0000 0.67794  0.17795  0.67794  Biso   1.000  He
  He24     1.0000 0.82161  0.32161  0.67839  Biso   1.000  He
  Ar6      1.0000 0.75000  0.25000  0.75000  Biso   1.000  Ar
  Ne7      1.0000 0.25000  0.75000  0.75000  Biso   1.000  Ne
  He25     1.0000 0.18074  0.81927  0.81927  Biso   1.000  He
  He26     1.0000 0.31874  0.68126  0.81874  Biso   1.000  He
  He27     1.0000 0.17794  0.67795  0.67794  Biso   1.000  He
  He28     1.0000 0.32161  0.82161  0.67839  Biso   1.000  He
  Ar7      1.0000 0.25000  0.75000  0.75000  Biso   1.000  Ar
