data_image0
_cell_length_a       40.29
_cell_length_b       16.578
_cell_length_c       24.21
_cell_angle_alpha    90
_cell_angle_beta     120.89
_cell_angle_gamma    90

_symmetry_space_group_name_H-M    "P 1"
_symmetry_int_tables_number       1

loop_
  _symmetry_equiv_pos_as_xyz
  'x, y, z'

loop_
  _atom_site_label
  _atom_site_occupancy
  _atom_site_fract_x
  _atom_site_fract_y
  _atom_site_fract_z
  _atom_site_thermal_displace_type
  _atom_site_B_iso_or_equiv
  _atom_site_type_symbol
  O1       1.0000 0.53800  0.53022  0.49697  Biso   1.000  O
  C1       1.0000 0.54658  0.47853  0.53822  Biso   1.000  C
  N1       1.0000 0.54622  0.39758  0.52941  Biso   1.000  N
  N2       1.0000 0.55775  0.49300  0.60098  Biso   1.000  N
  C2       1.0000 0.55554  0.35173  0.58659  Biso   1.000  C
  C3       1.0000 0.53810  0.36488  0.46809  Biso   1.000  C
  C4       1.0000 0.55960  0.41977  0.63521  Biso   1.000  C
  C5       1.0000 0.55973  0.57468  0.62399  Biso   1.000  C
  C6       1.0000 0.52502  0.28930  0.57278  Biso   1.000  C
  N3       1.0000 0.59440  0.31723  0.61841  Biso   1.000  N
  H1       1.0000 0.52308  0.31590  0.45947  Biso   1.000  H
  H2       1.0000 0.52239  0.40331  0.43440  Biso   1.000  H
  N4       1.0000 0.57235  0.34660  0.46496  Biso   1.000  N
  C7       1.0000 0.52876  0.41941  0.65407  Biso   1.000  C
  N5       1.0000 0.59798  0.40409  0.69085  Biso   1.000  N
  H3       1.0000 0.54649  0.57691  0.64791  Biso   1.000  H
  H4       1.0000 0.54629  0.61051  0.58731  Biso   1.000  H
  N6       1.0000 0.59917  0.60339  0.66500  Biso   1.000  N
  H5       1.0000 0.50007  0.31457  0.55208  Biso   1.000  H
  H6       1.0000 0.53007  0.26511  0.61239  Biso   1.000  H
  H7       1.0000 0.52549  0.24840  0.54510  Biso   1.000  H
  C8       1.0000 0.61718  0.34558  0.67930  Biso   1.000  C
  C9       1.0000 0.60578  0.24611  0.59689  Biso   1.000  C
  C10      1.0000 0.59318  0.27150  0.48470  Biso   1.000  C
  C11      1.0000 0.58347  0.39323  0.43059  Biso   1.000  C
  H8       1.0000 0.53048  0.37013  0.67631  Biso   1.000  H
  H9       1.0000 0.50359  0.42333  0.61610  Biso   1.000  H
  H10      1.0000 0.53279  0.46441  0.68180  Biso   1.000  H
  C12      1.0000 0.61543  0.44372  0.75304  Biso   1.000  C
  C13      1.0000 0.61938  0.59458  0.73431  Biso   1.000  C
  C14      1.0000 0.61392  0.66462  0.64637  Biso   1.000  C
  O2       1.0000 0.64973  0.32067  0.71843  Biso   1.000  O
  H11      1.0000 0.62628  0.21860  0.63429  Biso   1.000  H
  H12      1.0000 0.58388  0.20962  0.57610  Biso   1.000  H
  N7       1.0000 0.61889  0.26342  0.55314  Biso   1.000  N
  H13      1.0000 0.57558  0.22530  0.46689  Biso   1.000  H
  C15      1.0000 0.62075  0.27549  0.45861  Biso   1.000  C
  N8       1.0000 0.61371  0.35559  0.43040  Biso   1.000  N
  O3       1.0000 0.56800  0.45591  0.40249  Biso   1.000  O
  H14      1.0000 0.63289  0.40608  0.78591  Biso   1.000  H
  H15      1.0000 0.59518  0.45723  0.76199  Biso   1.000  H
  N9       1.0000 0.63678  0.51689  0.75766  Biso   1.000  N
  C16      1.0000 0.65442  0.65141  0.75794  Biso   1.000  C
  H16      1.0000 0.60307  0.61033  0.75159  Biso   1.000  H
  N10      1.0000 0.64693  0.69200  0.69922  Biso   1.000  N
  O4       1.0000 0.60017  0.69140  0.59198  Biso   1.000  O
  C17      1.0000 0.65669  0.25371  0.56970  Biso   1.000  C
  N11      1.0000 0.65860  0.26547  0.51507  Biso   1.000  N
  H17      1.0000 0.61510  0.23332  0.42660  Biso   1.000  H
  C18      1.0000 0.63021  0.38443  0.39353  Biso   1.000  C
  C19      1.0000 0.67637  0.51991  0.78846  Biso   1.000  C
  N12      1.0000 0.68662  0.59730  0.78548  Biso   1.000  N
  H18      1.0000 0.65599  0.68989  0.78990  Biso   1.000  H
  C20      1.0000 0.66713  0.76378  0.69889  Biso   1.000  C
  O5       1.0000 0.68378  0.23791  0.62269  Biso   1.000  O
  C21      1.0000 0.69262  0.24430  0.51271  Biso   1.000  C
  H19      1.0000 0.61449  0.42852  0.36639  Biso   1.000  H
  H20      1.0000 0.62920  0.34130  0.36562  Biso   1.000  H
  N13      1.0000 0.66991  0.41199  0.43209  Biso   1.000  N
  O6       1.0000 0.69857  0.46399  0.81546  Biso   1.000  O
  C22      1.0000 0.72656  0.62372  0.82066  Biso   1.000  C
  H21      1.0000 0.64999  0.79563  0.66120  Biso   1.000  H
  H22      1.0000 0.67347  0.79581  0.73657  Biso   1.000  H
  N14      1.0000 0.70224  0.74738  0.69869  Biso   1.000  N
  H23      1.0000 0.68488  0.21161  0.47468  Biso   1.000  H
  H24      1.0000 0.70949  0.21179  0.55011  Biso   1.000  H
  N15      1.0000 0.71391  0.31373  0.51102  Biso   1.000  N
  C23      1.0000 0.70310  0.36048  0.45418  Biso   1.000  C
  C24      1.0000 0.67940  0.49240  0.43526  Biso   1.000  C
  H25      1.0000 0.72878  0.66908  0.84771  Biso   1.000  H
  H26      1.0000 0.74248  0.58041  0.84877  Biso   1.000  H
  N16      1.0000 0.74163  0.64742  0.78004  Biso   1.000  N
  C25      1.0000 0.73843  0.72892  0.75713  Biso   1.000  C
  C26      1.0000 0.70699  0.76710  0.64878  Biso   1.000  C
  C27      1.0000 0.74979  0.33478  0.56200  Biso   1.000  C
  H27      1.0000 0.70058  0.32622  0.41928  Biso   1.000  H
  C28      1.0000 0.73730  0.42038  0.47685  Biso   1.000  C
  N17      1.0000 0.71872  0.49819  0.46578  Biso   1.000  N
  O7       1.0000 0.65636  0.54820  0.41375  Biso   1.000  O
  C29      1.0000 0.77175  0.60773  0.78225  Biso   1.000  C
  C30      1.0000 0.76814  0.73151  0.73508  Biso   1.000  C
  H28      1.0000 0.74447  0.76849  0.79111  Biso   1.000  H
  N18      1.0000 0.74490  0.75009  0.66707  Biso   1.000  N
  O8       1.0000 0.68268  0.79473  0.59660  Biso   1.000  O
  N19      1.0000 0.76243  0.39963  0.54327  Biso   1.000  N
  O9       1.0000 0.76717  0.29967  0.61364  Biso   1.000  O
  H29      1.0000 0.75020  0.41410  0.45211  Biso   1.000  H
  C31      1.0000 0.73793  0.57178  0.46448  Biso   1.000  C
  N20      1.0000 0.78453  0.65159  0.74870  Biso   1.000  N
  O10      1.0000 0.78571  0.54313  0.80964  Biso   1.000  O
  H30      1.0000 0.78797  0.77271  0.75847  Biso   1.000  H
  C32      1.0000 0.76123  0.77120  0.62828  Biso   1.000  C
  C33      1.0000 0.80049  0.43570  0.58351  Biso   1.000  C
  H31      1.0000 0.75569  0.55899  0.44990  Biso   1.000  H
  H32      1.0000 0.71869  0.60888  0.43358  Biso   1.000  H
  N21      1.0000 0.75905  0.61123  0.52619  Biso   1.000  N
  C34      1.0000 0.81861  0.63108  0.74630  Biso   1.000  C
  H33      1.0000 0.78479  0.80160  0.65451  Biso   1.000  H
  H34      1.0000 0.74317  0.80583  0.59338  Biso   1.000  H
  N22      1.0000 0.76996  0.70165  0.60137  Biso   1.000  N
  H35      1.0000 0.81590  0.40011  0.61971  Biso   1.000  H
  H36      1.0000 0.81308  0.43950  0.55868  Biso   1.000  H
  N23      1.0000 0.79992  0.51472  0.60792  Biso   1.000  N
  C35      1.0000 0.79831  0.59199  0.57750  Biso   1.000  C
  C36      1.0000 0.74482  0.67873  0.53928  Biso   1.000  C
  H37      1.0000 0.83277  0.58927  0.77778  Biso   1.000  H
  H38      1.0000 0.83517  0.67819  0.75790  Biso   1.000  H
  N24      1.0000 0.80949  0.60309  0.68334  Biso   1.000  N
  C37      1.0000 0.80552  0.65442  0.63112  Biso   1.000  C
  C38      1.0000 0.80707  0.52322  0.66928  Biso   1.000  C
  C39      1.0000 0.82640  0.59549  0.55309  Biso   1.000  C
  O11      1.0000 0.71413  0.71179  0.50183  Biso   1.000  O
  C40      1.0000 0.84059  0.70871  0.65350  Biso   1.000  C
  O12      1.0000 0.81106  0.46791  0.70558  Biso   1.000  O
  H39      1.0000 0.82459  0.64718  0.53389  Biso   1.000  H
  H40      1.0000 0.82009  0.55393  0.52161  Biso   1.000  H
  H41      1.0000 0.85229  0.58753  0.58852  Biso   1.000  H
  H42      1.0000 0.83718  0.74140  0.61822  Biso   1.000  H
  H43      1.0000 0.86338  0.67620  0.66880  Biso   1.000  H
  H44      1.0000 0.84336  0.74303  0.68757  Biso   1.000  H
  C41      1.0000 0.45340  0.52147  0.46178  Biso   1.000  C
  N25      1.0000 0.44223  0.50700  0.39902  Biso   1.000  N
  N26      1.0000 0.45374  0.60242  0.47059  Biso   1.000  N
  O13      1.0000 0.46196  0.46978  0.50303  Biso   1.000  O
  C42      1.0000 0.44022  0.42532  0.37601  Biso   1.000  C
  C43      1.0000 0.44037  0.58023  0.36475  Biso   1.000  C
  C44      1.0000 0.44440  0.64833  0.41336  Biso   1.000  C
  C45      1.0000 0.46188  0.63512  0.53191  Biso   1.000  C
  N27      1.0000 0.40078  0.39661  0.33496  Biso   1.000  N
  H45      1.0000 0.45349  0.42309  0.35209  Biso   1.000  H
  H46      1.0000 0.45370  0.38949  0.41269  Biso   1.000  H
  N28      1.0000 0.40197  0.59591  0.30916  Biso   1.000  N
  C46      1.0000 0.47121  0.58059  0.34588  Biso   1.000  C
  N29      1.0000 0.40558  0.68283  0.38160  Biso   1.000  N
  C47      1.0000 0.47494  0.71070  0.42718  Biso   1.000  C
  H47      1.0000 0.47689  0.68410  0.54048  Biso   1.000  H
  H48      1.0000 0.47759  0.59669  0.56561  Biso   1.000  H
  N30      1.0000 0.42761  0.65340  0.53499  Biso   1.000  N
  C48      1.0000 0.38604  0.33538  0.35358  Biso   1.000  C
  C49      1.0000 0.38057  0.40542  0.26569  Biso   1.000  C
  C50      1.0000 0.38454  0.55628  0.24692  Biso   1.000  C
  C51      1.0000 0.38280  0.65442  0.32071  Biso   1.000  C
  H49      1.0000 0.46948  0.62993  0.32369  Biso   1.000  H
  H50      1.0000 0.49639  0.57673  0.38391  Biso   1.000  H
  H51      1.0000 0.46719  0.53559  0.31820  Biso   1.000  H
  C52      1.0000 0.39418  0.75389  0.40311  Biso   1.000  C
  H52      1.0000 0.49987  0.68543  0.44787  Biso   1.000  H
  H53      1.0000 0.46989  0.73489  0.38761  Biso   1.000  H
  H54      1.0000 0.47449  0.75160  0.45490  Biso   1.000  H
  C53      1.0000 0.40678  0.72850  0.51526  Biso   1.000  C
  C54      1.0000 0.41651  0.60683  0.56941  Biso   1.000  C
  N31      1.0000 0.35305  0.30800  0.30078  Biso   1.000  N
  O14      1.0000 0.39981  0.30860  0.40802  Biso   1.000  O
  C55      1.0000 0.34554  0.34859  0.24201  Biso   1.000  C
  N32      1.0000 0.36318  0.48311  0.24230  Biso   1.000  N
  H55      1.0000 0.39689  0.38967  0.24841  Biso   1.000  H
  H56      1.0000 0.36709  0.59392  0.21409  Biso   1.000  H
  H57      1.0000 0.40480  0.54283  0.23802  Biso   1.000  H
  O15      1.0000 0.35025  0.67933  0.28158  Biso   1.000  O
  H58      1.0000 0.37370  0.78140  0.36571  Biso   1.000  H
  H59      1.0000 0.41608  0.79038  0.42390  Biso   1.000  H
  N33      1.0000 0.38109  0.73658  0.44686  Biso   1.000  N
  C56      1.0000 0.37919  0.72451  0.54135  Biso   1.000  C
  H60      1.0000 0.42440  0.77470  0.53312  Biso   1.000  H
  N34      1.0000 0.38627  0.64441  0.56960  Biso   1.000  N
  O16      1.0000 0.43196  0.54409  0.59752  Biso   1.000  O
  C57      1.0000 0.33283  0.23622  0.30112  Biso   1.000  C
  N35      1.0000 0.31336  0.40270  0.21453  Biso   1.000  N
  H61      1.0000 0.34399  0.31011  0.21010  Biso   1.000  H
  C58      1.0000 0.32360  0.48009  0.21149  Biso   1.000  C
  C59      1.0000 0.34327  0.74629  0.43031  Biso   1.000  C
  N36      1.0000 0.34137  0.73453  0.48489  Biso   1.000  N
  H62      1.0000 0.38488  0.76668  0.57340  Biso   1.000  H
  C60      1.0000 0.36975  0.61557  0.60642  Biso   1.000  C
  N37      1.0000 0.29772  0.25262  0.30131  Biso   1.000  N
  H63      1.0000 0.34999  0.20443  0.33881  Biso   1.000  H
  H64      1.0000 0.32650  0.20419  0.26338  Biso   1.000  H
  C61      1.0000 0.27338  0.37628  0.17929  Biso   1.000  C
  O17      1.0000 0.30141  0.53601  0.18454  Biso   1.000  O
  O18      1.0000 0.31620  0.76209  0.37731  Biso   1.000  O
  C62      1.0000 0.30736  0.75570  0.48729  Biso   1.000  C
  N38      1.0000 0.33005  0.58801  0.56792  Biso   1.000  N
  H65      1.0000 0.38549  0.57148  0.63362  Biso   1.000  H
  H66      1.0000 0.37079  0.65870  0.63439  Biso   1.000  H
  C63      1.0000 0.26155  0.27108  0.24288  Biso   1.000  C
  C64      1.0000 0.29297  0.23290  0.35118  Biso   1.000  C
  N39      1.0000 0.25834  0.35258  0.21992  Biso   1.000  N
  H67      1.0000 0.27118  0.33092  0.15229  Biso   1.000  H
  H68      1.0000 0.25749  0.41959  0.15118  Biso   1.000  H
  N40      1.0000 0.28607  0.68633  0.48898  Biso   1.000  N
  H69      1.0000 0.31508  0.78839  0.52527  Biso   1.000  H
  H70      1.0000 0.29049  0.78821  0.44990  Biso   1.000  H
  C65      1.0000 0.32056  0.50760  0.56474  Biso   1.000  C
  C66      1.0000 0.29685  0.63952  0.54582  Biso   1.000  C
  C67      1.0000 0.23180  0.26849  0.26487  Biso   1.000  C
  H71      1.0000 0.25548  0.23151  0.20890  Biso   1.000  H
  N41      1.0000 0.25504  0.24991  0.33289  Biso   1.000  N
  O19      1.0000 0.31730  0.20527  0.40340  Biso   1.000  O
  C68      1.0000 0.22821  0.39233  0.21775  Biso   1.000  C
  C69      1.0000 0.25019  0.66522  0.43801  Biso   1.000  C
  N42      1.0000 0.28126  0.50181  0.53422  Biso   1.000  N
  O20      1.0000 0.34363  0.45180  0.58626  Biso   1.000  O
  C70      1.0000 0.26268  0.57962  0.52315  Biso   1.000  C
  H72      1.0000 0.29939  0.67378  0.58067  Biso   1.000  H
  H73      1.0000 0.21200  0.22729  0.24148  Biso   1.000  H
  N43      1.0000 0.21545  0.34841  0.25130  Biso   1.000  N
  C71      1.0000 0.23874  0.22880  0.37168  Biso   1.000  C
  O21      1.0000 0.21427  0.45687  0.19036  Biso   1.000  O
  N44      1.0000 0.23751  0.60037  0.45668  Biso   1.000  N
  O22      1.0000 0.23282  0.70033  0.38636  Biso   1.000  O
  C72      1.0000 0.26205  0.42822  0.53552  Biso   1.000  C
  H74      1.0000 0.24979  0.58590  0.54789  Biso   1.000  H
  C73      1.0000 0.18137  0.36892  0.25371  Biso   1.000  C
  H75      1.0000 0.21520  0.19840  0.34550  Biso   1.000  H
  H76      1.0000 0.25677  0.19417  0.40658  Biso   1.000  H
  N45      1.0000 0.23003  0.29835  0.39863  Biso   1.000  N
  C74      1.0000 0.19950  0.56430  0.41649  Biso   1.000  C
  N46      1.0000 0.24093  0.38883  0.47382  Biso   1.000  N
  H77      1.0000 0.24429  0.44101  0.55011  Biso   1.000  H
  H78      1.0000 0.28128  0.39112  0.56638  Biso   1.000  H
  H79      1.0000 0.16718  0.41073  0.22218  Biso   1.000  H
  H80      1.0000 0.16479  0.32181  0.24211  Biso   1.000  H
  N47      1.0000 0.19047  0.39691  0.31666  Biso   1.000  N
  C75      1.0000 0.19446  0.34558  0.36889  Biso   1.000  C
  C76      1.0000 0.25515  0.32133  0.46068  Biso   1.000  C
  N48      1.0000 0.20004  0.48534  0.39204  Biso   1.000  N
  H81      1.0000 0.18408  0.59989  0.38030  Biso   1.000  H
  H82      1.0000 0.18689  0.56050  0.44128  Biso   1.000  H
  C77      1.0000 0.20167  0.40801  0.42251  Biso   1.000  C
  C78      1.0000 0.19290  0.47678  0.33067  Biso   1.000  C
  C79      1.0000 0.15939  0.29129  0.34651  Biso   1.000  C
  O23      1.0000 0.28584  0.28821  0.49812  Biso   1.000  O
  C80      1.0000 0.17356  0.40451  0.44691  Biso   1.000  C
  O24      1.0000 0.18892  0.53209  0.29443  Biso   1.000  O
  H83      1.0000 0.16278  0.25860  0.38179  Biso   1.000  H
  H84      1.0000 0.13660  0.32380  0.33120  Biso   1.000  H
  H85      1.0000 0.15658  0.25703  0.31238  Biso   1.000  H
  H86      1.0000 0.17539  0.35282  0.46612  Biso   1.000  H
  H87      1.0000 0.17990  0.44607  0.47839  Biso   1.000  H
  H88      1.0000 0.14769  0.41247  0.41149  Biso   1.000  H
  C81      1.0000 0.61545  0.55628  0.25308  Biso   1.000  C
  N49      1.0000 0.59799  0.59591  0.19085  Biso   1.000  N
  H89      1.0000 0.63290  0.59392  0.28591  Biso   1.000  H
  H90      1.0000 0.59519  0.54283  0.26199  Biso   1.000  H
  N50      1.0000 0.63679  0.48311  0.25765  Biso   1.000  N
  C82      1.0000 0.55962  0.58023  0.13525  Biso   1.000  C
  C83      1.0000 0.61719  0.65442  0.17929  Biso   1.000  C
  C84      1.0000 0.67639  0.48009  0.28851  Biso   1.000  C
  C85      1.0000 0.61942  0.40542  0.23431  Biso   1.000  C
  C86      1.0000 0.52878  0.58059  0.15412  Biso   1.000  C
  C87      1.0000 0.55559  0.64833  0.08664  Biso   1.000  C
  N51      1.0000 0.55776  0.50700  0.10098  Biso   1.000  N
  N52      1.0000 0.59441  0.68283  0.11841  Biso   1.000  N
  O25      1.0000 0.64974  0.67933  0.21843  Biso   1.000  O
  N53      1.0000 0.68663  0.40270  0.28547  Biso   1.000  N
  O26      1.0000 0.69858  0.53601  0.31546  Biso   1.000  O
  N54      1.0000 0.59918  0.39661  0.16500  Biso   1.000  N
  C88      1.0000 0.65445  0.34859  0.25799  Biso   1.000  C
  H91      1.0000 0.60308  0.38967  0.25159  Biso   1.000  H
  H92      1.0000 0.53049  0.62993  0.17631  Biso   1.000  H
  H93      1.0000 0.50360  0.57673  0.11610  Biso   1.000  H
  H94      1.0000 0.53280  0.53559  0.18180  Biso   1.000  H
  C89      1.0000 0.52503  0.71070  0.07278  Biso   1.000  C
  N55      1.0000 0.54623  0.60242  0.02941  Biso   1.000  N
  C90      1.0000 0.54659  0.52147  0.03822  Biso   1.000  C
  C91      1.0000 0.55974  0.42532  0.12399  Biso   1.000  C
  C92      1.0000 0.60579  0.75389  0.09689  Biso   1.000  C
  C93      1.0000 0.72659  0.37628  0.32071  Biso   1.000  C
  C94      1.0000 0.61395  0.33538  0.14642  Biso   1.000  C
  N56      1.0000 0.64694  0.30800  0.19922  Biso   1.000  N
  H95      1.0000 0.65600  0.31011  0.28990  Biso   1.000  H
  H96      1.0000 0.50008  0.68543  0.05208  Biso   1.000  H
  H97      1.0000 0.53008  0.73489  0.11239  Biso   1.000  H
  H98      1.0000 0.52550  0.75160  0.04510  Biso   1.000  H
  C95      1.0000 0.53808  0.63512  0.96809  Biso   1.000  C
  O27      1.0000 0.53798  0.46978  0.99697  Biso   1.000  O
  H99      1.0000 0.54650  0.42309  0.14791  Biso   1.000  H
  H100     1.0000 0.54630  0.38949  0.08731  Biso   1.000  H
  H101     1.0000 0.62629  0.78140  0.13429  Biso   1.000  H
  H102     1.0000 0.58389  0.79038  0.07610  Biso   1.000  H
  N57      1.0000 0.61890  0.73658  0.05314  Biso   1.000  N
  H103     1.0000 0.72879  0.33092  0.34771  Biso   1.000  H
  H104     1.0000 0.74250  0.41959  0.34882  Biso   1.000  H
  N58      1.0000 0.74164  0.35258  0.28004  Biso   1.000  N
  O28      1.0000 0.60018  0.30860  0.09198  Biso   1.000  O
  C96      1.0000 0.66714  0.23622  0.19888  Biso   1.000  C
  H105     1.0000 0.52306  0.68410  0.95947  Biso   1.000  H
  H106     1.0000 0.52238  0.59669  0.93440  Biso   1.000  H
  N59      1.0000 0.57231  0.65340  0.96496  Biso   1.000  N
  C97      1.0000 0.65670  0.74629  0.06970  Biso   1.000  C
  C98      1.0000 0.59317  0.72850  0.98469  Biso   1.000  C
  C99      1.0000 0.77176  0.39233  0.28225  Biso   1.000  C
  C100     1.0000 0.73844  0.27108  0.25712  Biso   1.000  C
  H107     1.0000 0.65000  0.20443  0.16120  Biso   1.000  H
  H108     1.0000 0.67349  0.20419  0.23662  Biso   1.000  H
  N60      1.0000 0.70225  0.25262  0.19869  Biso   1.000  N
  C101     1.0000 0.58345  0.60683  0.93059  Biso   1.000  C
  N61      1.0000 0.65862  0.73453  0.01511  Biso   1.000  N
  O29      1.0000 0.68379  0.76209  0.12269  Biso   1.000  O
  H109     1.0000 0.57556  0.77470  0.96688  Biso   1.000  H
  C102     1.0000 0.62074  0.72451  0.95861  Biso   1.000  C
  N62      1.0000 0.78454  0.34841  0.24870  Biso   1.000  N
  O30      1.0000 0.78572  0.45687  0.30964  Biso   1.000  O
  C103     1.0000 0.76817  0.26849  0.23513  Biso   1.000  C
  H110     1.0000 0.74448  0.23151  0.29111  Biso   1.000  H
  C104     1.0000 0.70700  0.23290  0.14878  Biso   1.000  C
  N63      1.0000 0.61370  0.64441  0.93040  Biso   1.000  N
  O31      1.0000 0.56798  0.54409  0.90248  Biso   1.000  O
  C105     1.0000 0.69263  0.75570  0.01271  Biso   1.000  C
  H111     1.0000 0.61508  0.76668  0.92660  Biso   1.000  H
  C106     1.0000 0.81862  0.36892  0.24629  Biso   1.000  C
  N64      1.0000 0.74493  0.24991  0.16712  Biso   1.000  N
  H112     1.0000 0.78799  0.22729  0.25852  Biso   1.000  H
  O32      1.0000 0.68269  0.20527  0.09660  Biso   1.000  O
  C107     1.0000 0.63020  0.61557  0.89353  Biso   1.000  C
  H113     1.0000 0.70950  0.78821  0.05011  Biso   1.000  H
  N65      1.0000 0.71392  0.68633  0.01102  Biso   1.000  N
  H114     1.0000 0.68487  0.78839  0.97468  Biso   1.000  H
  H115     1.0000 0.83279  0.41073  0.27782  Biso   1.000  H
  H116     1.0000 0.83518  0.32181  0.25789  Biso   1.000  H
  N66      1.0000 0.80950  0.39691  0.18334  Biso   1.000  N
  C108     1.0000 0.76125  0.22880  0.12832  Biso   1.000  C
  H117     1.0000 0.61448  0.57148  0.86638  Biso   1.000  H
  H118     1.0000 0.62917  0.65870  0.86557  Biso   1.000  H
  N67      1.0000 0.66989  0.58801  0.93208  Biso   1.000  N
  C109     1.0000 0.74980  0.66522  0.06199  Biso   1.000  C
  C110     1.0000 0.70309  0.63952  0.95418  Biso   1.000  C
  C111     1.0000 0.80709  0.47678  0.16933  Biso   1.000  C
  C112     1.0000 0.80553  0.34558  0.13111  Biso   1.000  C
  H119     1.0000 0.78479  0.19840  0.15451  Biso   1.000  H
  H120     1.0000 0.74318  0.19417  0.09338  Biso   1.000  H
  N68      1.0000 0.76997  0.29835  0.10137  Biso   1.000  N
  C113     1.0000 0.67938  0.50760  0.93526  Biso   1.000  C
  N69      1.0000 0.76248  0.60037  0.04332  Biso   1.000  N
  O33      1.0000 0.76717  0.70033  0.11364  Biso   1.000  O
  H121     1.0000 0.70056  0.67378  0.91928  Biso   1.000  H
  C114     1.0000 0.73729  0.57962  0.97685  Biso   1.000  C
  N70      1.0000 0.79995  0.48534  0.10796  Biso   1.000  N
  O34      1.0000 0.81107  0.53209  0.20557  Biso   1.000  O
  C115     1.0000 0.79832  0.40801  0.07749  Biso   1.000  C
  C116     1.0000 0.84060  0.29129  0.15350  Biso   1.000  C
  C117     1.0000 0.74483  0.32133  0.03928  Biso   1.000  C
  N71      1.0000 0.71871  0.50181  0.96578  Biso   1.000  N
  O35      1.0000 0.65630  0.45180  0.91370  Biso   1.000  O
  C118     1.0000 0.80050  0.56430  0.08351  Biso   1.000  C
  H122     1.0000 0.75018  0.58590  0.95211  Biso   1.000  H
  N72      1.0000 0.75906  0.38883  0.02618  Biso   1.000  N
  C119     1.0000 0.82641  0.40451  0.05309  Biso   1.000  C
  H123     1.0000 0.83719  0.25860  0.11821  Biso   1.000  H
  H124     1.0000 0.86339  0.32380  0.16880  Biso   1.000  H
  H125     1.0000 0.84341  0.25703  0.18762  Biso   1.000  H
  O36      1.0000 0.71414  0.28821  0.00183  Biso   1.000  O
  C120     1.0000 0.73791  0.42822  0.96448  Biso   1.000  C
  H126     1.0000 0.81591  0.59989  0.11971  Biso   1.000  H
  H127     1.0000 0.81310  0.56050  0.05872  Biso   1.000  H
  H128     1.0000 0.82460  0.35282  0.03389  Biso   1.000  H
  H129     1.0000 0.82009  0.44607  0.02161  Biso   1.000  H
  H130     1.0000 0.85230  0.41247  0.08852  Biso   1.000  H
  H131     1.0000 0.75568  0.44101  0.94989  Biso   1.000  H
  H132     1.0000 0.71867  0.39112  0.93358  Biso   1.000  H
  C121     1.0000 0.68136  0.13108  0.75371  Biso   1.000  C
  H133     1.0000 0.66717  0.08927  0.72218  Biso   1.000  H
  H134     1.0000 0.66478  0.17819  0.74211  Biso   1.000  H
  N73      1.0000 0.69046  0.10309  0.81667  Biso   1.000  N
  N74      1.0000 0.71540  0.15159  0.75125  Biso   1.000  N
  C122     1.0000 0.69289  0.02322  0.83067  Biso   1.000  C
  C123     1.0000 0.69446  0.15442  0.86889  Biso   1.000  C
  C124     1.0000 0.72820  0.10767  0.71775  Biso   1.000  C
  C125     1.0000 0.73179  0.23151  0.76488  Biso   1.000  C
  N75      1.0000 0.70003  0.01472  0.89204  Biso   1.000  N
  O37      1.0000 0.68891  0.96791  0.79443  Biso   1.000  O
  C126     1.0000 0.70166  0.09199  0.92251  Biso   1.000  C
  C127     1.0000 0.65938  0.20871  0.84651  Biso   1.000  C
  N76      1.0000 0.72998  0.20165  0.89859  Biso   1.000  N
  N77      1.0000 0.75833  0.14742  0.71992  Biso   1.000  N
  O38      1.0000 0.71426  0.04313  0.69037  Biso   1.000  O
  H135     1.0000 0.71196  0.27271  0.74148  Biso   1.000  H
  C128     1.0000 0.76154  0.22892  0.74288  Biso   1.000  C
  N78      1.0000 0.75503  0.25009  0.83289  Biso   1.000  N
  C129     1.0000 0.69949  0.93570  0.91649  Biso   1.000  C
  C130     1.0000 0.67355  0.09549  0.94691  Biso   1.000  C
  N79      1.0000 0.74092  0.11117  0.97382  Biso   1.000  N
  H136     1.0000 0.66277  0.24140  0.88179  Biso   1.000  H
  H137     1.0000 0.63659  0.17620  0.83120  Biso   1.000  H
  H138     1.0000 0.65657  0.24297  0.81238  Biso   1.000  H
  C131     1.0000 0.75514  0.17873  0.96068  Biso   1.000  C
  C132     1.0000 0.73870  0.27120  0.87168  Biso   1.000  C
  C133     1.0000 0.77337  0.12372  0.67930  Biso   1.000  C
  H139     1.0000 0.75547  0.26849  0.70890  Biso   1.000  H
  N80      1.0000 0.79771  0.24738  0.80131  Biso   1.000  N
  C134     1.0000 0.79296  0.26710  0.85118  Biso   1.000  C
  H140     1.0000 0.68408  0.90011  0.88030  Biso   1.000  H
  H141     1.0000 0.68688  0.93950  0.94128  Biso   1.000  H
  N81      1.0000 0.73750  0.89963  0.95668  Biso   1.000  N
  H142     1.0000 0.67537  0.14718  0.96607  Biso   1.000  H
  H143     1.0000 0.67986  0.05393  0.97839  Biso   1.000  H
  H144     1.0000 0.64768  0.08753  0.91149  Biso   1.000  H
  C135     1.0000 0.76204  0.07178  0.03553  Biso   1.000  C
  O39      1.0000 0.78583  0.21179  0.99813  Biso   1.000  O
  H145     1.0000 0.71519  0.30160  0.84550  Biso   1.000  H
  H146     1.0000 0.75676  0.30583  0.90658  Biso   1.000  H
  H147     1.0000 0.77117  0.16908  0.65229  Biso   1.000  H
  H148     1.0000 0.75748  0.08041  0.65119  Biso   1.000  H
  N82      1.0000 0.81334  0.09730  0.71448  Biso   1.000  N
  C136     1.0000 0.83280  0.26378  0.80107  Biso   1.000  C
  O40      1.0000 0.81727  0.29473  0.90335  Biso   1.000  O
  C137     1.0000 0.75018  0.83478  0.93801  Biso   1.000  C
  C138     1.0000 0.76267  0.92038  0.02316  Biso   1.000  C
  N83      1.0000 0.78128  0.99819  0.03423  Biso   1.000  N
  H149     1.0000 0.74430  0.05899  0.05011  Biso   1.000  H
  H150     1.0000 0.78131  0.10888  0.06643  Biso   1.000  H
  C139     1.0000 0.82359  0.01991  0.71150  Biso   1.000  C
  C140     1.0000 0.84554  0.15141  0.74201  Biso   1.000  C
  H151     1.0000 0.84998  0.29557  0.83881  Biso   1.000  H
  H152     1.0000 0.82646  0.29581  0.76338  Biso   1.000  H
  N84      1.0000 0.85302  0.19200  0.80078  Biso   1.000  N
  N85      1.0000 0.78606  0.81373  0.98898  Biso   1.000  N
  O41      1.0000 0.73281  0.79967  0.88636  Biso   1.000  O
  C141     1.0000 0.79687  0.86048  0.04583  Biso   1.000  C
  H153     1.0000 0.74980  0.91410  0.04790  Biso   1.000  H
  C142     1.0000 0.82057  0.99240  0.06474  Biso   1.000  C
  N86      1.0000 0.86317  0.01689  0.74230  Biso   1.000  N
  O42      1.0000 0.80140  0.96399  0.68454  Biso   1.000  O
  H154     1.0000 0.84398  0.18989  0.71010  Biso   1.000  H
  C143     1.0000 0.88057  0.09458  0.76569  Biso   1.000  C
  C144     1.0000 0.88604  0.16462  0.85358  Biso   1.000  C
  C145     1.0000 0.80735  0.74430  0.98730  Biso   1.000  C
  H155     1.0000 0.79942  0.82622  0.08072  Biso   1.000  H
  N87      1.0000 0.83007  0.91199  0.06792  Biso   1.000  N
  O43      1.0000 0.84364  0.04820  0.08626  Biso   1.000  O
  C146     1.0000 0.88453  0.94372  0.74692  Biso   1.000  C
  H156     1.0000 0.89688  0.11033  0.74841  Biso   1.000  H
  N88      1.0000 0.90077  0.10339  0.83496  Biso   1.000  N
  O44      1.0000 0.89980  0.19140  0.90802  Biso   1.000  O
  H157     1.0000 0.79048  0.71179  0.94990  Biso   1.000  H
  N89      1.0000 0.84136  0.76553  0.98489  Biso   1.000  N
  H158     1.0000 0.81511  0.71161  0.02532  Biso   1.000  H
  C147     1.0000 0.86978  0.88443  0.10647  Biso   1.000  C
  H159     1.0000 0.86708  0.90608  0.71410  Biso   1.000  H
  H160     1.0000 0.90477  0.95723  0.73797  Biso   1.000  H
  N90      1.0000 0.90195  0.90409  0.80911  Biso   1.000  N
  C148     1.0000 0.94021  0.07468  0.87601  Biso   1.000  C
  C149     1.0000 0.84326  0.75371  0.93031  Biso   1.000  C
  C150     1.0000 0.87920  0.77549  0.04135  Biso   1.000  C
  H161     1.0000 0.88551  0.92852  0.13362  Biso   1.000  H
  H162     1.0000 0.87080  0.84130  0.13439  Biso   1.000  H
  N91      1.0000 0.88628  0.85559  0.06960  Biso   1.000  N
  C151     1.0000 0.88277  0.84558  0.82071  Biso   1.000  C
  C152     1.0000 0.94036  0.91983  0.86475  Biso   1.000  C
  H163     1.0000 0.95348  0.07691  0.85209  Biso   1.000  H
  H164     1.0000 0.95366  0.11051  0.91269  Biso   1.000  H
  N92      1.0000 0.94221  0.99300  0.89897  Biso   1.000  N
  N93      1.0000 0.88108  0.76342  0.94687  Biso   1.000  N
  O45      1.0000 0.81619  0.73791  0.87731  Biso   1.000  O
  C153     1.0000 0.90680  0.77150  0.01526  Biso   1.000  C
  H165     1.0000 0.88490  0.73332  0.07341  Biso   1.000  H
  C154     1.0000 0.91653  0.89323  0.06941  Biso   1.000  C
  N94      1.0000 0.90557  0.81723  0.88160  Biso   1.000  N
  O46      1.0000 0.85022  0.82067  0.78158  Biso   1.000  O
  C155     1.0000 0.94439  0.85173  0.91337  Biso   1.000  C
  C156     1.0000 0.97120  0.91941  0.84588  Biso   1.000  C
  C157     1.0000 0.95337  0.97853  0.96179  Biso   1.000  C
  C158     1.0000 0.89417  0.74611  0.90311  Biso   1.000  C
  H166     1.0000 0.92439  0.72530  0.03312  Biso   1.000  H
  N95      1.0000 0.92764  0.84660  0.03504  Biso   1.000  N
  O47      1.0000 0.93198  0.95591  0.09752  Biso   1.000  O
  C159     1.0000 0.97493  0.78930  0.92718  Biso   1.000  C
  N96      1.0000 0.95373  0.89764  0.97059  Biso   1.000  N
  H167     1.0000 0.96947  0.87013  0.82369  Biso   1.000  H
  H168     1.0000 0.99638  0.92333  0.88391  Biso   1.000  H
  H169     1.0000 0.96718  0.96441  0.81821  Biso   1.000  H
  O48      1.0000 0.96197  0.03022  0.00304  Biso   1.000  O
  H170     1.0000 0.87367  0.71860  0.86571  Biso   1.000  H
  H171     1.0000 0.91607  0.70962  0.92391  Biso   1.000  H
  C160     1.0000 0.96190  0.86488  0.03192  Biso   1.000  C
  H172     1.0000 0.99986  0.81463  0.94788  Biso   1.000  H
  H173     1.0000 0.96988  0.76511  0.88761  Biso   1.000  H
  H174     1.0000 0.97448  0.74840  0.95490  Biso   1.000  H
  H175     1.0000 0.97690  0.81590  0.04048  Biso   1.000  H
  H176     1.0000 0.97760  0.90331  0.06561  Biso   1.000  H
  C161     1.0000 0.34060  0.79129  0.15350  Biso   1.000  C
  C162     1.0000 0.30553  0.84558  0.13111  Biso   1.000  C
  H177     1.0000 0.33719  0.75860  0.11821  Biso   1.000  H
  H178     1.0000 0.36339  0.82380  0.16880  Biso   1.000  H
  H179     1.0000 0.34341  0.75703  0.18762  Biso   1.000  H
  N97      1.0000 0.26997  0.79835  0.10137  Biso   1.000  N
  C163     1.0000 0.29832  0.90801  0.07749  Biso   1.000  C
  N98      1.0000 0.30950  0.89691  0.18334  Biso   1.000  N
  C164     1.0000 0.26125  0.72880  0.12832  Biso   1.000  C
  C165     1.0000 0.24483  0.82133  0.03928  Biso   1.000  C
  N99      1.0000 0.25906  0.88883  0.02618  Biso   1.000  N
  C166     1.0000 0.32641  0.90451  0.05309  Biso   1.000  C
  N100     1.0000 0.29995  0.98534  0.10796  Biso   1.000  N
  C167     1.0000 0.31862  0.86892  0.24629  Biso   1.000  C
  C168     1.0000 0.30709  0.97678  0.16933  Biso   1.000  C
  N101     1.0000 0.24495  0.74991  0.16712  Biso   1.000  N
  H180     1.0000 0.28479  0.69840  0.15451  Biso   1.000  H
  H181     1.0000 0.24320  0.69423  0.09338  Biso   1.000  H
  O49      1.0000 0.21414  0.78821  0.00183  Biso   1.000  O
  C169     1.0000 0.23791  0.92822  0.96448  Biso   1.000  C
  H182     1.0000 0.32460  0.85282  0.03389  Biso   1.000  H
  H183     1.0000 0.32009  0.94613  0.02161  Biso   1.000  H
  H184     1.0000 0.35230  0.91253  0.08852  Biso   1.000  H
  C170     1.0000 0.30050  0.06430  0.08351  Biso   1.000  C
  N102     1.0000 0.28454  0.84841  0.24870  Biso   1.000  N
  H185     1.0000 0.33279  0.91073  0.27782  Biso   1.000  H
  H186     1.0000 0.33518  0.82181  0.25789  Biso   1.000  H
  O50      1.0000 0.31107  0.03209  0.20557  Biso   1.000  O
  C171     1.0000 0.20700  0.73290  0.14878  Biso   1.000  C
  C172     1.0000 0.26817  0.76849  0.23513  Biso   1.000  C
  H187     1.0000 0.25568  0.94101  0.94989  Biso   1.000  H
  H188     1.0000 0.21867  0.89112  0.93358  Biso   1.000  H
  N103     1.0000 0.21871  0.00181  0.96578  Biso   1.000  N
  H189     1.0000 0.31591  0.09989  0.11971  Biso   1.000  H
  H190     1.0000 0.31310  0.06050  0.05872  Biso   1.000  H
  N104     1.0000 0.26248  0.10037  0.04332  Biso   1.000  N
  C173     1.0000 0.27178  0.89233  0.28225  Biso   1.000  C
  O51      1.0000 0.18269  0.70527  0.09660  Biso   1.000  O
  N105     1.0000 0.20225  0.75262  0.19869  Biso   1.000  N
  C174     1.0000 0.23844  0.77108  0.25712  Biso   1.000  C
  H191     1.0000 0.28799  0.72729  0.25852  Biso   1.000  H
  C175     1.0000 0.23729  0.07962  0.97685  Biso   1.000  C
  C176     1.0000 0.17938  0.00760  0.93526  Biso   1.000  C
  C177     1.0000 0.24980  0.16522  0.06199  Biso   1.000  C
  N106     1.0000 0.24164  0.85258  0.28004  Biso   1.000  N
  O52      1.0000 0.28572  0.95687  0.30964  Biso   1.000  O
  C178     1.0000 0.16714  0.73622  0.19888  Biso   1.000  C
  H192     1.0000 0.24448  0.73151  0.29111  Biso   1.000  H
  C179     1.0000 0.20311  0.13952  0.95418  Biso   1.000  C
  H193     1.0000 0.25018  0.08590  0.95211  Biso   1.000  H
  O53      1.0000 0.15633  0.95180  0.91370  Biso   1.000  O
  N107     1.0000 0.16989  0.08801  0.93208  Biso   1.000  N
  N108     1.0000 0.21392  0.18633  0.01102  Biso   1.000  N
  O54      1.0000 0.26717  0.20033  0.11364  Biso   1.000  O
  C180     1.0000 0.22659  0.87628  0.32071  Biso   1.000  C
  H194     1.0000 0.15000  0.70443  0.16120  Biso   1.000  H
  H195     1.0000 0.17349  0.70419  0.23662  Biso   1.000  H
  N109     1.0000 0.14694  0.80800  0.19922  Biso   1.000  N
  H196     1.0000 0.20056  0.17378  0.91928  Biso   1.000  H
  C181     1.0000 0.13020  0.11557  0.89353  Biso   1.000  C
  C182     1.0000 0.19263  0.25570  0.01271  Biso   1.000  C
  H197     1.0000 0.22879  0.83092  0.34771  Biso   1.000  H
  H198     1.0000 0.24250  0.91959  0.34882  Biso   1.000  H
  N110     1.0000 0.18663  0.90270  0.28547  Biso   1.000  N
  C183     1.0000 0.15445  0.84859  0.25799  Biso   1.000  C
  C184     1.0000 0.11395  0.83538  0.14642  Biso   1.000  C
  H199     1.0000 0.11448  0.07148  0.86638  Biso   1.000  H
  H200     1.0000 0.12917  0.15870  0.86557  Biso   1.000  H
  N111     1.0000 0.11370  0.14441  0.93040  Biso   1.000  N
  H201     1.0000 0.18487  0.28839  0.97468  Biso   1.000  H
  H202     1.0000 0.20950  0.28821  0.05011  Biso   1.000  H
  N112     1.0000 0.15862  0.23453  0.01511  Biso   1.000  N
  C185     1.0000 0.17639  0.98009  0.28851  Biso   1.000  C
  H203     1.0000 0.15600  0.81011  0.28990  Biso   1.000  H
  C186     1.0000 0.11942  0.90542  0.23431  Biso   1.000  C
  N113     1.0000 0.09920  0.89661  0.16500  Biso   1.000  N
  O55      1.0000 0.10018  0.80860  0.09198  Biso   1.000  O
  C187     1.0000 0.12074  0.22451  0.95861  Biso   1.000  C
  C188     1.0000 0.08345  0.10683  0.93059  Biso   1.000  C
  C189     1.0000 0.15670  0.24629  0.06970  Biso   1.000  C
  N114     1.0000 0.13679  0.98311  0.25765  Biso   1.000  N
  O56      1.0000 0.19858  0.03601  0.31546  Biso   1.000  O
  H204     1.0000 0.10308  0.88973  0.25159  Biso   1.000  H
  C190     1.0000 0.05974  0.92532  0.12399  Biso   1.000  C
  C191     1.0000 0.09317  0.22850  0.98469  Biso   1.000  C
  H205     1.0000 0.11508  0.26668  0.92660  Biso   1.000  H
  N115     1.0000 0.07234  0.15340  0.96496  Biso   1.000  N
  O57      1.0000 0.06798  0.04409  0.90248  Biso   1.000  O
  N116     1.0000 0.11890  0.23658  0.05314  Biso   1.000  N
  O58      1.0000 0.18379  0.26209  0.12269  Biso   1.000  O
  C192     1.0000 0.11545  0.05628  0.25308  Biso   1.000  C
  H206     1.0000 0.04650  0.92309  0.14791  Biso   1.000  H
  H207     1.0000 0.04630  0.88949  0.08731  Biso   1.000  H
  N117     1.0000 0.05776  0.00700  0.10098  Biso   1.000  N
  H208     1.0000 0.07556  0.27470  0.96688  Biso   1.000  H
  C193     1.0000 0.03808  0.13512  0.96809  Biso   1.000  C
  C194     1.0000 0.10581  0.25389  0.09689  Biso   1.000  C
  H209     1.0000 0.13290  0.09392  0.28591  Biso   1.000  H
  H210     1.0000 0.09519  0.04283  0.26199  Biso   1.000  H
  N118     1.0000 0.09799  0.09591  0.19085  Biso   1.000  N
  C195     1.0000 0.05962  0.08023  0.13525  Biso   1.000  C
  C196     1.0000 0.04659  0.02147  0.03822  Biso   1.000  C
  N119     1.0000 0.04623  0.10242  0.02941  Biso   1.000  N
  H211     1.0000 0.02306  0.18410  0.95947  Biso   1.000  H
  H212     1.0000 0.02238  0.09669  0.93440  Biso   1.000  H
  N120     1.0000 0.09441  0.18277  0.11841  Biso   1.000  N
  H213     1.0000 0.12629  0.28140  0.13429  Biso   1.000  H
  H214     1.0000 0.08389  0.29038  0.07610  Biso   1.000  H
  C197     1.0000 0.11719  0.15442  0.17929  Biso   1.000  C
  C198     1.0000 0.05559  0.14833  0.08664  Biso   1.000  C
  C199     1.0000 0.02878  0.08059  0.15412  Biso   1.000  C
  O59      1.0000 0.03798  0.96978  0.99697  Biso   1.000  O
  O60      1.0000 0.14974  0.17933  0.21843  Biso   1.000  O
  C200     1.0000 0.02503  0.21070  0.07278  Biso   1.000  C
  H215     1.0000 0.03049  0.12987  0.17631  Biso   1.000  H
  H216     1.0000 0.00360  0.07673  0.11610  Biso   1.000  H
  H217     1.0000 0.03280  0.03559  0.18180  Biso   1.000  H
  H218     1.0000 0.00008  0.18543  0.05208  Biso   1.000  H
  H219     1.0000 0.03010  0.23489  0.11239  Biso   1.000  H
  H220     1.0000 0.02550  0.25160  0.04510  Biso   1.000  H
  C201     1.0000 0.65939  0.79129  0.34651  Biso   1.000  C
  C202     1.0000 0.69446  0.84558  0.36889  Biso   1.000  C
  H221     1.0000 0.66278  0.75860  0.38179  Biso   1.000  H
  H222     1.0000 0.63660  0.82380  0.33120  Biso   1.000  H
  H223     1.0000 0.65658  0.75703  0.31238  Biso   1.000  H
  C203     1.0000 0.70167  0.90801  0.42251  Biso   1.000  C
  N121     1.0000 0.69047  0.89691  0.31666  Biso   1.000  N
  N122     1.0000 0.73000  0.79835  0.39863  Biso   1.000  N
  C204     1.0000 0.67356  0.90451  0.44691  Biso   1.000  C
  N123     1.0000 0.70004  0.98534  0.39204  Biso   1.000  N
  N124     1.0000 0.74093  0.88883  0.47382  Biso   1.000  N
  C205     1.0000 0.69290  0.97678  0.33067  Biso   1.000  C
  C206     1.0000 0.68137  0.86892  0.25371  Biso   1.000  C
  C207     1.0000 0.75515  0.82133  0.46068  Biso   1.000  C
  C208     1.0000 0.73871  0.72880  0.37168  Biso   1.000  C
  H224     1.0000 0.67539  0.85282  0.46612  Biso   1.000  H
  H225     1.0000 0.67987  0.94613  0.47839  Biso   1.000  H
  H226     1.0000 0.64769  0.91253  0.41149  Biso   1.000  H
  C209     1.0000 0.69950  0.06430  0.41649  Biso   1.000  C
  C210     1.0000 0.76203  0.92822  0.53552  Biso   1.000  C
  O61      1.0000 0.68892  0.03209  0.29443  Biso   1.000  O
  H227     1.0000 0.66718  0.91073  0.22218  Biso   1.000  H
  H228     1.0000 0.66479  0.82181  0.24211  Biso   1.000  H
  N125     1.0000 0.71545  0.84841  0.25130  Biso   1.000  N
  O62      1.0000 0.78584  0.78821  0.49812  Biso   1.000  O
  H229     1.0000 0.71520  0.69840  0.34550  Biso   1.000  H
  H230     1.0000 0.75677  0.69423  0.40658  Biso   1.000  H
  N126     1.0000 0.75504  0.74991  0.33289  Biso   1.000  N
  H231     1.0000 0.68408  0.09989  0.38030  Biso   1.000  H
  H232     1.0000 0.68689  0.06050  0.44128  Biso   1.000  H
  N127     1.0000 0.73751  0.10037  0.45668  Biso   1.000  N
  H233     1.0000 0.74429  0.94101  0.55011  Biso   1.000  H
  H234     1.0000 0.78128  0.89112  0.56638  Biso   1.000  H
  N128     1.0000 0.78126  0.00181  0.53422  Biso   1.000  N
  C211     1.0000 0.72821  0.89233  0.21775  Biso   1.000  C
  C212     1.0000 0.73180  0.76849  0.26487  Biso   1.000  C
  C213     1.0000 0.79297  0.73290  0.35118  Biso   1.000  C
  C214     1.0000 0.75019  0.16522  0.43801  Biso   1.000  C
  C215     1.0000 0.76266  0.07962  0.52315  Biso   1.000  C
  C216     1.0000 0.82056  0.00760  0.56474  Biso   1.000  C
  N129     1.0000 0.75834  0.85258  0.21992  Biso   1.000  N
  O63      1.0000 0.71427  0.95687  0.19036  Biso   1.000  O
  H235     1.0000 0.71197  0.72729  0.24148  Biso   1.000  H
  C217     1.0000 0.76155  0.77108  0.24288  Biso   1.000  C
  N130     1.0000 0.79772  0.75262  0.30131  Biso   1.000  N
  O64      1.0000 0.81730  0.70527  0.40340  Biso   1.000  O
  N131     1.0000 0.78607  0.18633  0.48898  Biso   1.000  N
  O65      1.0000 0.73282  0.20033  0.38636  Biso   1.000  O
  C218     1.0000 0.79685  0.13952  0.54582  Biso   1.000  C
  H236     1.0000 0.74979  0.08590  0.54789  Biso   1.000  H
  O66      1.0000 0.84363  0.95180  0.58626  Biso   1.000  O
  N132     1.0000 0.83005  0.08801  0.56792  Biso   1.000  N
  C219     1.0000 0.77338  0.87628  0.17929  Biso   1.000  C
  H237     1.0000 0.75548  0.73151  0.20890  Biso   1.000  H
  C220     1.0000 0.83283  0.73622  0.30112  Biso   1.000  C
  C221     1.0000 0.80736  0.25570  0.48729  Biso   1.000  C
  H238     1.0000 0.79939  0.17378  0.58067  Biso   1.000  H
  C222     1.0000 0.86975  0.11557  0.60642  Biso   1.000  C
  H239     1.0000 0.77118  0.83092  0.15229  Biso   1.000  H
  H240     1.0000 0.75749  0.91959  0.15118  Biso   1.000  H
  N133     1.0000 0.81336  0.90270  0.21453  Biso   1.000  N
  H241     1.0000 0.84999  0.70443  0.33881  Biso   1.000  H
  H242     1.0000 0.82647  0.70419  0.26338  Biso   1.000  H
  N134     1.0000 0.85303  0.80800  0.30078  Biso   1.000  N
  H243     1.0000 0.81508  0.28839  0.52527  Biso   1.000  H
  H244     1.0000 0.79049  0.28821  0.44990  Biso   1.000  H
  N135     1.0000 0.84137  0.23453  0.48489  Biso   1.000  N
  H245     1.0000 0.88549  0.07148  0.63362  Biso   1.000  H
  H246     1.0000 0.87079  0.15870  0.63439  Biso   1.000  H
  N136     1.0000 0.88627  0.14441  0.56960  Biso   1.000  N
  C223     1.0000 0.82360  0.98009  0.21149  Biso   1.000  C
  C224     1.0000 0.84554  0.84859  0.24201  Biso   1.000  C
  C225     1.0000 0.88604  0.83538  0.35358  Biso   1.000  C
  C226     1.0000 0.84327  0.24629  0.43031  Biso   1.000  C
  C227     1.0000 0.87919  0.22451  0.54135  Biso   1.000  C
  C228     1.0000 0.91651  0.10683  0.56941  Biso   1.000  C
  N137     1.0000 0.86318  0.98311  0.24230  Biso   1.000  N
  O67      1.0000 0.80141  0.03601  0.18454  Biso   1.000  O
  H247     1.0000 0.84399  0.81011  0.21010  Biso   1.000  H
  C229     1.0000 0.88057  0.90542  0.26569  Biso   1.000  C
  N138     1.0000 0.90078  0.89661  0.33496  Biso   1.000  N
  O68      1.0000 0.89981  0.80860  0.40802  Biso   1.000  O
  N139     1.0000 0.88109  0.23658  0.44686  Biso   1.000  N
  O69      1.0000 0.81620  0.26209  0.37731  Biso   1.000  O
  C230     1.0000 0.90678  0.22850  0.51526  Biso   1.000  C
  H248     1.0000 0.88488  0.26668  0.57340  Biso   1.000  H
  N140     1.0000 0.92761  0.15340  0.53499  Biso   1.000  N
  O70      1.0000 0.93196  0.04409  0.59752  Biso   1.000  O
  C231     1.0000 0.88454  0.05628  0.24692  Biso   1.000  C
  H249     1.0000 0.89689  0.88973  0.24841  Biso   1.000  H
  C232     1.0000 0.94022  0.92532  0.37601  Biso   1.000  C
  C233     1.0000 0.89418  0.25389  0.40311  Biso   1.000  C
  H250     1.0000 0.92438  0.27470  0.53312  Biso   1.000  H
  C234     1.0000 0.96188  0.13512  0.53191  Biso   1.000  C
  H251     1.0000 0.86709  0.09392  0.21409  Biso   1.000  H
  H252     1.0000 0.90480  0.04283  0.23802  Biso   1.000  H
  N141     1.0000 0.90197  0.09591  0.30916  Biso   1.000  N
  H253     1.0000 0.95349  0.92309  0.35209  Biso   1.000  H
  H254     1.0000 0.95367  0.88949  0.41269  Biso   1.000  H
  N142     1.0000 0.94223  0.00700  0.39902  Biso   1.000  N
  H255     1.0000 0.87370  0.28140  0.36571  Biso   1.000  H
  H256     1.0000 0.91608  0.29038  0.42390  Biso   1.000  H
  N143     1.0000 0.90558  0.18277  0.38160  Biso   1.000  N
  H257     1.0000 0.97689  0.18410  0.54048  Biso   1.000  H
  H258     1.0000 0.97759  0.09669  0.56561  Biso   1.000  H
  N144     1.0000 0.95374  0.10242  0.47059  Biso   1.000  N
  C235     1.0000 0.88280  0.15442  0.32071  Biso   1.000  C
  C236     1.0000 0.94037  0.08023  0.36475  Biso   1.000  C
  C237     1.0000 0.95338  0.02147  0.46178  Biso   1.000  C
  C238     1.0000 0.94440  0.14833  0.41336  Biso   1.000  C
  O71      1.0000 0.85023  0.17933  0.28158  Biso   1.000  O
  C239     1.0000 0.97121  0.08059  0.34588  Biso   1.000  C
  O72      1.0000 0.96196  0.96978  0.50303  Biso   1.000  O
  C240     1.0000 0.97494  0.21070  0.42718  Biso   1.000  C
  H259     1.0000 0.96948  0.12987  0.32369  Biso   1.000  H
  H260     1.0000 0.99639  0.07673  0.38391  Biso   1.000  H
  H261     1.0000 0.96719  0.03559  0.31820  Biso   1.000  H
  H262     1.0000 0.99987  0.18543  0.44787  Biso   1.000  H
  H263     1.0000 0.96989  0.23489  0.38761  Biso   1.000  H
  H264     1.0000 0.97449  0.25160  0.45490  Biso   1.000  H
  C241     1.0000 0.47120  0.41941  0.84588  Biso   1.000  C
  C242     1.0000 0.44036  0.41977  0.86475  Biso   1.000  C
  H265     1.0000 0.46947  0.37013  0.82369  Biso   1.000  H
  H266     1.0000 0.49638  0.42333  0.88391  Biso   1.000  H
  H267     1.0000 0.46718  0.46441  0.81821  Biso   1.000  H
  N145     1.0000 0.40195  0.40409  0.80911  Biso   1.000  N
  N146     1.0000 0.44221  0.49300  0.89897  Biso   1.000  N
  C243     1.0000 0.44439  0.35173  0.91337  Biso   1.000  C
  C244     1.0000 0.38453  0.44372  0.74692  Biso   1.000  C
  C245     1.0000 0.38279  0.34558  0.82071  Biso   1.000  C
  C246     1.0000 0.44021  0.57468  0.87601  Biso   1.000  C
  C247     1.0000 0.45339  0.47853  0.96179  Biso   1.000  C
  N147     1.0000 0.40557  0.31723  0.88160  Biso   1.000  N
  C248     1.0000 0.47493  0.28930  0.92718  Biso   1.000  C
  N148     1.0000 0.45373  0.39758  0.97059  Biso   1.000  N
  N149     1.0000 0.36317  0.51689  0.74230  Biso   1.000  N
  H268     1.0000 0.36708  0.40608  0.71410  Biso   1.000  H
  H269     1.0000 0.40477  0.45723  0.73797  Biso   1.000  H
  O73      1.0000 0.35025  0.32067  0.78158  Biso   1.000  O
  N150     1.0000 0.40077  0.60339  0.83496  Biso   1.000  N
  H270     1.0000 0.45348  0.57691  0.85209  Biso   1.000  H
  H271     1.0000 0.45369  0.61051  0.91269  Biso   1.000  H
  O74      1.0000 0.46197  0.53022  0.00304  Biso   1.000  O
  C249     1.0000 0.39417  0.24611  0.90311  Biso   1.000  C
  H272     1.0000 0.49986  0.31457  0.94788  Biso   1.000  H
  H273     1.0000 0.46988  0.26511  0.88761  Biso   1.000  H
  H274     1.0000 0.47448  0.24840  0.95490  Biso   1.000  H
  C250     1.0000 0.46190  0.36488  0.03192  Biso   1.000  C
  C251     1.0000 0.32359  0.51991  0.71150  Biso   1.000  C
  C252     1.0000 0.38057  0.59458  0.76569  Biso   1.000  C
  C253     1.0000 0.38604  0.66462  0.85358  Biso   1.000  C
  H275     1.0000 0.37369  0.21860  0.86571  Biso   1.000  H
  H276     1.0000 0.41607  0.20962  0.92391  Biso   1.000  H
  N151     1.0000 0.38108  0.26342  0.94687  Biso   1.000  N
  H277     1.0000 0.47690  0.31590  0.04048  Biso   1.000  H
  H278     1.0000 0.47760  0.40331  0.06561  Biso   1.000  H
  N152     1.0000 0.42764  0.34660  0.03504  Biso   1.000  N
  O75      1.0000 0.30140  0.46399  0.68454  Biso   1.000  O
  N153     1.0000 0.31334  0.59730  0.71448  Biso   1.000  N
  C254     1.0000 0.34554  0.65141  0.74201  Biso   1.000  C
  H279     1.0000 0.39688  0.61033  0.74841  Biso   1.000  H
  N154     1.0000 0.35304  0.69200  0.80078  Biso   1.000  N
  O76      1.0000 0.39980  0.69140  0.90802  Biso   1.000  O
  C255     1.0000 0.34326  0.25371  0.93031  Biso   1.000  C
  C256     1.0000 0.40680  0.27150  0.01526  Biso   1.000  C
  C257     1.0000 0.41653  0.39323  0.06941  Biso   1.000  C
  C258     1.0000 0.27337  0.62372  0.67930  Biso   1.000  C
  H280     1.0000 0.34398  0.68989  0.71010  Biso   1.000  H
  C259     1.0000 0.33280  0.76378  0.80107  Biso   1.000  C
  N155     1.0000 0.34136  0.26547  0.98489  Biso   1.000  N
  O77      1.0000 0.31619  0.23791  0.87731  Biso   1.000  O
  H281     1.0000 0.42442  0.22530  0.03312  Biso   1.000  H
  C260     1.0000 0.37920  0.27549  0.04135  Biso   1.000  C
  N156     1.0000 0.38628  0.35559  0.06960  Biso   1.000  N
  O78      1.0000 0.43198  0.45591  0.09752  Biso   1.000  O
  H282     1.0000 0.27117  0.66908  0.65229  Biso   1.000  H
  H283     1.0000 0.25748  0.58041  0.65119  Biso   1.000  H
  N157     1.0000 0.25833  0.64742  0.71992  Biso   1.000  N
  N158     1.0000 0.29771  0.74738  0.80131  Biso   1.000  N
  H284     1.0000 0.34998  0.79563  0.83881  Biso   1.000  H
  H285     1.0000 0.32646  0.79581  0.76338  Biso   1.000  H
  C261     1.0000 0.30735  0.24430  0.98730  Biso   1.000  C
  H286     1.0000 0.38490  0.23332  0.07341  Biso   1.000  H
  C262     1.0000 0.36978  0.38443  0.10647  Biso   1.000  C
  C263     1.0000 0.22820  0.60773  0.71775  Biso   1.000  C
  C264     1.0000 0.26154  0.72892  0.74288  Biso   1.000  C
  C265     1.0000 0.29296  0.76710  0.85118  Biso   1.000  C
  H287     1.0000 0.29048  0.21179  0.94990  Biso   1.000  H
  N159     1.0000 0.28606  0.31373  0.98898  Biso   1.000  N
  H288     1.0000 0.31511  0.21161  0.02532  Biso   1.000  H
  H289     1.0000 0.38551  0.42852  0.13362  Biso   1.000  H
  H290     1.0000 0.37080  0.34130  0.13439  Biso   1.000  H
  N160     1.0000 0.33007  0.41199  0.06792  Biso   1.000  N
  N161     1.0000 0.21543  0.65159  0.75125  Biso   1.000  N
  O79      1.0000 0.21426  0.54313  0.69037  Biso   1.000  O
  C266     1.0000 0.23179  0.73151  0.76488  Biso   1.000  C
  H291     1.0000 0.25547  0.76849  0.70890  Biso   1.000  H
  N162     1.0000 0.25503  0.75009  0.83289  Biso   1.000  N
  O80      1.0000 0.31727  0.79473  0.90335  Biso   1.000  O
  C267     1.0000 0.25018  0.33478  0.93801  Biso   1.000  C
  C268     1.0000 0.29687  0.36048  0.04583  Biso   1.000  C
  C269     1.0000 0.32060  0.49240  0.06474  Biso   1.000  C
  C270     1.0000 0.18136  0.63108  0.75371  Biso   1.000  C
  H292     1.0000 0.21199  0.77271  0.74148  Biso   1.000  H
  C271     1.0000 0.23870  0.77120  0.87168  Biso   1.000  C
  N163     1.0000 0.23750  0.39963  0.95668  Biso   1.000  N
  O81      1.0000 0.23281  0.29967  0.88636  Biso   1.000  O
  C272     1.0000 0.26270  0.42038  0.02316  Biso   1.000  C
  H293     1.0000 0.29942  0.32622  0.08072  Biso   1.000  H
  N164     1.0000 0.28128  0.49819  0.03423  Biso   1.000  N
  O82      1.0000 0.34364  0.54820  0.08626  Biso   1.000  O
  H294     1.0000 0.16717  0.58927  0.72218  Biso   1.000  H
  H295     1.0000 0.16478  0.67819  0.74211  Biso   1.000  H
  N165     1.0000 0.19046  0.60309  0.81667  Biso   1.000  N
  H296     1.0000 0.21519  0.80160  0.84550  Biso   1.000  H
  H297     1.0000 0.25676  0.80583  0.90658  Biso   1.000  H
  N166     1.0000 0.23000  0.70165  0.89859  Biso   1.000  N
  C273     1.0000 0.19949  0.43570  0.91649  Biso   1.000  C
  H298     1.0000 0.24980  0.41410  0.04790  Biso   1.000  H
  C274     1.0000 0.26207  0.57178  0.03553  Biso   1.000  C
  C275     1.0000 0.19289  0.52322  0.83067  Biso   1.000  C
  C276     1.0000 0.19446  0.65442  0.86889  Biso   1.000  C
  C277     1.0000 0.25514  0.67873  0.96068  Biso   1.000  C
  N167     1.0000 0.20003  0.51472  0.89204  Biso   1.000  N
  H299     1.0000 0.18408  0.40011  0.88030  Biso   1.000  H
  H300     1.0000 0.18688  0.43950  0.94128  Biso   1.000  H
  N168     1.0000 0.24092  0.61123  0.97382  Biso   1.000  N
  H301     1.0000 0.24430  0.55899  0.05011  Biso   1.000  H
  H302     1.0000 0.28131  0.60888  0.06643  Biso   1.000  H
  O83      1.0000 0.18891  0.46791  0.79443  Biso   1.000  O
  C278     1.0000 0.20166  0.59199  0.92251  Biso   1.000  C
  C279     1.0000 0.15938  0.70871  0.84651  Biso   1.000  C
  O84      1.0000 0.28583  0.71179  0.99813  Biso   1.000  O
  C280     1.0000 0.17355  0.59549  0.94691  Biso   1.000  C
  H303     1.0000 0.16277  0.74140  0.88179  Biso   1.000  H
  H304     1.0000 0.13659  0.67620  0.83120  Biso   1.000  H
  H305     1.0000 0.15657  0.74303  0.81238  Biso   1.000  H
  H306     1.0000 0.17537  0.64718  0.96607  Biso   1.000  H
  H307     1.0000 0.17989  0.55393  0.97839  Biso   1.000  H
  H308     1.0000 0.14768  0.58753  0.91149  Biso   1.000  H
  C281     1.0000 0.34059  0.20871  0.65350  Biso   1.000  C
  C282     1.0000 0.30552  0.15442  0.63112  Biso   1.000  C
  H309     1.0000 0.33718  0.24140  0.61822  Biso   1.000  H
  H310     1.0000 0.36338  0.17620  0.66880  Biso   1.000  H
  H311     1.0000 0.34339  0.24297  0.68757  Biso   1.000  H
  C283     1.0000 0.29831  0.09199  0.57750  Biso   1.000  C
  N169     1.0000 0.26996  0.20165  0.60137  Biso   1.000  N
  N170     1.0000 0.30949  0.10309  0.68334  Biso   1.000  N
  N171     1.0000 0.25905  0.11117  0.52619  Biso   1.000  N
  C284     1.0000 0.32640  0.09549  0.55309  Biso   1.000  C
  N172     1.0000 0.29992  0.01472  0.60792  Biso   1.000  N
  C285     1.0000 0.24482  0.17873  0.53928  Biso   1.000  C
  C286     1.0000 0.26123  0.27120  0.62828  Biso   1.000  C
  C287     1.0000 0.30707  0.02322  0.66928  Biso   1.000  C
  C288     1.0000 0.31861  0.13108  0.74630  Biso   1.000  C
  C289     1.0000 0.23793  0.07178  0.46448  Biso   1.000  C
  H312     1.0000 0.32459  0.14718  0.53389  Biso   1.000  H
  H313     1.0000 0.32009  0.05393  0.52161  Biso   1.000  H
  H314     1.0000 0.35229  0.08753  0.58852  Biso   1.000  H
  C290     1.0000 0.30049  0.93570  0.58351  Biso   1.000  C
  O85      1.0000 0.21413  0.21179  0.50183  Biso   1.000  O
  H315     1.0000 0.28479  0.30160  0.65451  Biso   1.000  H
  H316     1.0000 0.24317  0.30583  0.59338  Biso   1.000  H
  N173     1.0000 0.24490  0.25009  0.66707  Biso   1.000  N
  O86      1.0000 0.31106  0.96791  0.70558  Biso   1.000  O
  H317     1.0000 0.33277  0.08927  0.77778  Biso   1.000  H
  H318     1.0000 0.33517  0.17819  0.75790  Biso   1.000  H
  N174     1.0000 0.28453  0.15159  0.74870  Biso   1.000  N
  H319     1.0000 0.25569  0.05899  0.44990  Biso   1.000  H
  H320     1.0000 0.21869  0.10888  0.43358  Biso   1.000  H
  N175     1.0000 0.21872  0.99819  0.46578  Biso   1.000  N
  N176     1.0000 0.26246  0.89963  0.54327  Biso   1.000  N
  H321     1.0000 0.31590  0.90011  0.61971  Biso   1.000  H
  H322     1.0000 0.31308  0.93950  0.55868  Biso   1.000  H
  C291     1.0000 0.26814  0.23151  0.73508  Biso   1.000  C
  C292     1.0000 0.20699  0.26710  0.64878  Biso   1.000  C
  C293     1.0000 0.27177  0.10767  0.78225  Biso   1.000  C
  C294     1.0000 0.23730  0.92038  0.47685  Biso   1.000  C
  C295     1.0000 0.17940  0.99240  0.43526  Biso   1.000  C
  C296     1.0000 0.24979  0.83478  0.56200  Biso   1.000  C
  H323     1.0000 0.28797  0.27271  0.75847  Biso   1.000  H
  C297     1.0000 0.23843  0.22892  0.75713  Biso   1.000  C
  N177     1.0000 0.20224  0.24738  0.69869  Biso   1.000  N
  O87      1.0000 0.18268  0.29473  0.59660  Biso   1.000  O
  N178     1.0000 0.24163  0.14742  0.78004  Biso   1.000  N
  O88      1.0000 0.28571  0.04313  0.80964  Biso   1.000  O
  C298     1.0000 0.20313  0.86048  0.45418  Biso   1.000  C
  H324     1.0000 0.25020  0.91410  0.45211  Biso   1.000  H
  O89      1.0000 0.15636  0.04820  0.41375  Biso   1.000  O
  N179     1.0000 0.16993  0.91199  0.43209  Biso   1.000  N
  N180     1.0000 0.21391  0.81373  0.51102  Biso   1.000  N
  O90      1.0000 0.26717  0.79967  0.61364  Biso   1.000  O
  H325     1.0000 0.24447  0.26849  0.79111  Biso   1.000  H
  C299     1.0000 0.16713  0.26378  0.69889  Biso   1.000  C
  C300     1.0000 0.22656  0.12372  0.82066  Biso   1.000  C
  H326     1.0000 0.20058  0.82622  0.41928  Biso   1.000  H
  C301     1.0000 0.13021  0.88443  0.39353  Biso   1.000  C
  C302     1.0000 0.19262  0.74430  0.51271  Biso   1.000  C
  H327     1.0000 0.14999  0.29557  0.66120  Biso   1.000  H
  H328     1.0000 0.17347  0.29581  0.73657  Biso   1.000  H
  N181     1.0000 0.14693  0.19200  0.69922  Biso   1.000  N
  H329     1.0000 0.22878  0.16908  0.84771  Biso   1.000  H
  H330     1.0000 0.24248  0.08041  0.84877  Biso   1.000  H
  N182     1.0000 0.18662  0.09730  0.78548  Biso   1.000  N
  H331     1.0000 0.11449  0.92852  0.36639  Biso   1.000  H
  H332     1.0000 0.12920  0.84130  0.36562  Biso   1.000  H
  N183     1.0000 0.11371  0.85559  0.43040  Biso   1.000  N
  H333     1.0000 0.18488  0.71161  0.47468  Biso   1.000  H
  H334     1.0000 0.20949  0.71179  0.55011  Biso   1.000  H
  N184     1.0000 0.15860  0.76553  0.51507  Biso   1.000  N
  C303     1.0000 0.15442  0.15141  0.75794  Biso   1.000  C
  C304     1.0000 0.11392  0.16462  0.64637  Biso   1.000  C
  C305     1.0000 0.17637  0.01991  0.78846  Biso   1.000  C
  C306     1.0000 0.12075  0.77549  0.45861  Biso   1.000  C
  C307     1.0000 0.08347  0.89323  0.43059  Biso   1.000  C
  C308     1.0000 0.15669  0.75371  0.56970  Biso   1.000  C
  H335     1.0000 0.15599  0.18989  0.78990  Biso   1.000  H
  C309     1.0000 0.11941  0.09458  0.73431  Biso   1.000  C
  N185     1.0000 0.09917  0.10339  0.66500  Biso   1.000  N
  O91      1.0000 0.10017  0.19140  0.59198  Biso   1.000  O
  N186     1.0000 0.13678  0.01689  0.75766  Biso   1.000  N
  O92      1.0000 0.19857  0.96399  0.81546  Biso   1.000  O
  C310     1.0000 0.09318  0.77150  0.48470  Biso   1.000  C
  H336     1.0000 0.11510  0.73332  0.42660  Biso   1.000  H
  N187     1.0000 0.07235  0.84660  0.46496  Biso   1.000  N
  O93      1.0000 0.06800  0.95591  0.40249  Biso   1.000  O
  N188     1.0000 0.11889  0.76342  0.55314  Biso   1.000  N
  O94      1.0000 0.18378  0.73791  0.62269  Biso   1.000  O
  H337     1.0000 0.10307  0.11033  0.75159  Biso   1.000  H
  C311     1.0000 0.05973  0.07468  0.62399  Biso   1.000  C
  C312     1.0000 0.11543  0.94372  0.75304  Biso   1.000  C
  H338     1.0000 0.07558  0.72530  0.46689  Biso   1.000  H
  C313     1.0000 0.03810  0.86488  0.46809  Biso   1.000  C
  C314     1.0000 0.10581  0.74611  0.59689  Biso   1.000  C
  N189     1.0000 0.05775  0.99300  0.60098  Biso   1.000  N
  H339     1.0000 0.04649  0.07691  0.64791  Biso   1.000  H
  H340     1.0000 0.04629  0.11051  0.58731  Biso   1.000  H
  N190     1.0000 0.09798  0.90409  0.69085  Biso   1.000  N
  H341     1.0000 0.13289  0.90608  0.78591  Biso   1.000  H
  H342     1.0000 0.09518  0.95723  0.76199  Biso   1.000  H
  H343     1.0000 0.02308  0.81590  0.45947  Biso   1.000  H
  H344     1.0000 0.02239  0.90331  0.43440  Biso   1.000  H
  N191     1.0000 0.04622  0.89764  0.52941  Biso   1.000  N
  H345     1.0000 0.12628  0.71860  0.63429  Biso   1.000  H
  H346     1.0000 0.08388  0.70962  0.57610  Biso   1.000  H
  N192     1.0000 0.09440  0.81723  0.61841  Biso   1.000  N
  C315     1.0000 0.04658  0.97853  0.53822  Biso   1.000  C
  C316     1.0000 0.05960  0.91983  0.63521  Biso   1.000  C
  C317     1.0000 0.11718  0.84558  0.67930  Biso   1.000  C
  C318     1.0000 0.05557  0.85173  0.58659  Biso   1.000  C
  O95      1.0000 0.03800  0.03022  0.49697  Biso   1.000  O
  C319     1.0000 0.02876  0.91941  0.65407  Biso   1.000  C
  O96      1.0000 0.14973  0.82067  0.71843  Biso   1.000  O
  C320     1.0000 0.02502  0.78930  0.57278  Biso   1.000  C
  H347     1.0000 0.03048  0.87013  0.67631  Biso   1.000  H
  H348     1.0000 0.00359  0.92333  0.61610  Biso   1.000  H
  H349     1.0000 0.03279  0.96441  0.68180  Biso   1.000  H
  H350     1.0000 0.00007  0.81463  0.55208  Biso   1.000  H
  H351     1.0000 0.03010  0.76511  0.61239  Biso   1.000  H
  H352     1.0000 0.02549  0.74840  0.54510  Biso   1.000  H
  Ne1      1.0000 0.32044  0.49540  0.39251  Biso   1.000  Ne
  He1      1.0000 0.36070  0.35934  0.48833  Biso   1.000  He
  He2      1.0000 0.26796  0.60859  0.28177  Biso   1.000  He
  Ar1      1.0000 0.31802  0.49856  0.38795  Biso   1.000  Ar
  Ne2      1.0000 0.17953  0.00461  0.60747  Biso   1.000  Ne
  He3      1.0000 0.23056  0.89385  0.71652  Biso   1.000  He
  He4      1.0000 0.13896  0.14131  0.51103  Biso   1.000  He
  Ar2      1.0000 0.18195  0.00136  0.61201  Biso   1.000  Ar
  Ne3      1.0000 0.17954  0.99540  0.10748  Biso   1.000  Ne
  He5      1.0000 0.22954  0.10912  0.22192  Biso   1.000  He
  He6      1.0000 0.11688  0.89803  0.99266  Biso   1.000  He
  Ar3      1.0000 0.18198  0.99855  0.11201  Biso   1.000  Ar
  Ne4      1.0000 0.67953  0.50460  0.60747  Biso   1.000  Ne
  He7      1.0000 0.72814  0.39417  0.71903  Biso   1.000  He
  He8      1.0000 0.63895  0.64131  0.51103  Biso   1.000  He
  Ar4      1.0000 0.68197  0.50143  0.61207  Biso   1.000  Ar
  Ne5      1.0000 0.32044  0.50460  0.89251  Biso   1.000  Ne
  He9      1.0000 0.38435  0.60490  0.00990  Biso   1.000  He
  He10     1.0000 0.27023  0.39056  0.77776  Biso   1.000  He
  Ar5      1.0000 0.31799  0.50153  0.88793  Biso   1.000  Ar
  Ne6      1.0000 0.67953  0.49540  0.10748  Biso   1.000  Ne
  He11     1.0000 0.72958  0.60907  0.22192  Biso   1.000  He
  He12     1.0000 0.61686  0.39804  0.99265  Biso   1.000  He
  Ar6      1.0000 0.68194  0.49862  0.11194  Biso   1.000  Ar
  Ne7      1.0000 0.82043  0.00461  0.89251  Biso   1.000  Ne
  He13     1.0000 0.88435  0.10490  0.00990  Biso   1.000  He
  He14     1.0000 0.77023  0.89056  0.77776  Biso   1.000  He
  Ar7      1.0000 0.81800  0.00141  0.88805  Biso   1.000  Ar
  Ne8      1.0000 0.82044  0.99540  0.39251  Biso   1.000  Ne
  He15     1.0000 0.86069  0.85934  0.48833  Biso   1.000  He
  He16     1.0000 0.77078  0.10821  0.27884  Biso   1.000  He
  Ar8      1.0000 0.81802  0.99855  0.38795  Biso   1.000  Ar
