data_image0
_cell_length_a       25.909
_cell_length_b       26.983
_cell_length_c       13.028
_cell_angle_alpha    90
_cell_angle_beta     90
_cell_angle_gamma    90

_symmetry_space_group_name_H-M    "P 1"
_symmetry_int_tables_number       1

loop_
  _symmetry_equiv_pos_as_xyz
  'x, y, z'

loop_
  _atom_site_label
  _atom_site_occupancy
  _atom_site_fract_x
  _atom_site_fract_y
  _atom_site_fract_z
  _atom_site_thermal_displace_type
  _atom_site_B_iso_or_equiv
  _atom_site_type_symbol
  C1       1.0000 0.16589  0.14331  0.12558  Biso   1.000  C
  N1       1.0000 0.13432  0.18189  0.09932  Biso   1.000  N
  N2       1.0000 0.19788  0.13331  0.04498  Biso   1.000  N
  O1       1.0000 0.16488  0.12074  0.20809  Biso   1.000  O
  C2       1.0000 0.10599  0.21061  0.17531  Biso   1.000  C
  C3       1.0000 0.15099  0.20461  0.00177  Biso   1.000  C
  C4       1.0000 0.23849  0.09669  0.05112  Biso   1.000  C
  C5       1.0000 0.19271  0.16881  0.96262  Biso   1.000  C
  H1       1.0000 0.11841  0.24519  0.17340  Biso   1.000  H
  H2       1.0000 0.11359  0.19709  0.24432  Biso   1.000  H
  N3       1.0000 0.05129  0.21050  0.16027  Biso   1.000  N
  H3       1.0000 0.16469  0.23889  0.01197  Biso   1.000  H
  N4       1.0000 0.11201  0.20279  0.92270  Biso   1.000  N
  H4       1.0000 0.27130  0.11189  0.02779  Biso   1.000  H
  H5       1.0000 0.24300  0.08680  0.12373  Biso   1.000  H
  N5       1.0000 0.22849  0.05289  0.99010  Biso   1.000  N
  H6       1.0000 0.22591  0.18641  0.94873  Biso   1.000  H
  N6       1.0000 0.17002  0.14880  0.86813  Biso   1.000  N
  C6       1.0000 0.02601  0.24389  0.08873  Biso   1.000  C
  C7       1.0000 0.01748  0.18819  0.22597  Biso   1.000  C
  C8       1.0000 0.07052  0.23819  0.91449  Biso   1.000  C
  C9       1.0000 0.12509  0.17189  0.84349  Biso   1.000  C
  C10      1.0000 0.22151  0.00760  0.03569  Biso   1.000  C
  C11      1.0000 0.24239  0.04829  0.88271  Biso   1.000  C
  C12      1.0000 0.20070  0.12230  0.79160  Biso   1.000  C
  H7       1.0000 0.03821  0.27881  0.09671  Biso   1.000  H
  C13      1.0000 0.96769  0.23800  0.11759  Biso   1.000  C
  N7       1.0000 0.02771  0.22751  0.98227  Biso   1.000  N
  O2       1.0000 0.02872  0.16136  0.29767  Biso   1.000  O
  N8       1.0000 0.96831  0.20261  0.20041  Biso   1.000  N
  H8       1.0000 0.08391  0.27162  0.93038  Biso   1.000  H
  H9       1.0000 0.05782  0.23859  0.84288  Biso   1.000  H
  O3       1.0000 0.10089  0.16696  0.76343  Biso   1.000  O
  N9       1.0000 0.22401  0.97139  0.96108  Biso   1.000  N
  O4       1.0000 0.21491  0.99989  0.12749  Biso   1.000  O
  C14      1.0000 0.23749  0.99222  0.86161  Biso   1.000  C
  H10      1.0000 0.27809  0.06059  0.86897  Biso   1.000  H
  N10      1.0000 0.20479  0.06960  0.81141  Biso   1.000  N
  H11      1.0000 0.23579  0.13672  0.78984  Biso   1.000  H
  H12      1.0000 0.18492  0.12719  0.72321  Biso   1.000  H
  H13      1.0000 0.95229  0.27032  0.13947  Biso   1.000  H
  N11      1.0000 0.94488  0.22029  0.02349  Biso   1.000  N
  C15      1.0000 0.97862  0.21691  0.94481  Biso   1.000  C
  C16      1.0000 0.92470  0.19601  0.26750  Biso   1.000  C
  C17      1.0000 0.23031  0.91999  0.98526  Biso   1.000  C
  H14      1.0000 0.27072  0.97810  0.83551  Biso   1.000  H
  N12      1.0000 0.19731  0.98870  0.78577  Biso   1.000  N
  C18      1.0000 0.18110  0.03450  0.75169  Biso   1.000  C
  C19      1.0000 0.88938  0.21892  0.00668  Biso   1.000  C
  O5       1.0000 0.96920  0.20650  0.85600  Biso   1.000  O
  H15      1.0000 0.93709  0.18489  0.33558  Biso   1.000  H
  H16      1.0000 0.90721  0.22829  0.27687  Biso   1.000  H
  N13      1.0000 0.88730  0.15992  0.22843  Biso   1.000  N
  H17      1.0000 0.26350  0.90831  0.95648  Biso   1.000  H
  N14      1.0000 0.18901  0.88878  0.94612  Biso   1.000  N
  H18      1.0000 0.23208  0.91621  0.06079  Biso   1.000  H
  C20      1.0000 0.19221  0.94519  0.72083  Biso   1.000  C
  O6       1.0000 0.15161  0.04292  0.68061  Biso   1.000  O
  H19      1.0000 0.88259  0.21958  0.93192  Biso   1.000  H
  H20      1.0000 0.87371  0.24890  0.03707  Biso   1.000  H
  N15      1.0000 0.86449  0.17511  0.05058  Biso   1.000  N
  C21      1.0000 0.84781  0.17381  0.15720  Biso   1.000  C
  C22      1.0000 0.87838  0.11581  0.27602  Biso   1.000  C
  C23      1.0000 0.18920  0.87151  0.84057  Biso   1.000  C
  C24      1.0000 0.16029  0.85928  0.00760  Biso   1.000  C
  N16      1.0000 0.16400  0.90509  0.76988  Biso   1.000  N
  H21      1.0000 0.22710  0.93322  0.70203  Biso   1.000  H
  H22      1.0000 0.17419  0.95460  0.65666  Biso   1.000  H
  C25      1.0000 0.83971  0.14072  0.99240  Biso   1.000  C
  C26      1.0000 0.81080  0.12849  0.15943  Biso   1.000  C
  H23      1.0000 0.82998  0.20509  0.17800  Biso   1.000  H
  N17      1.0000 0.83600  0.09491  0.23012  Biso   1.000  N
  O7       1.0000 0.90281  0.09828  0.34641  Biso   1.000  O
  H24      1.0000 0.22459  0.86221  0.81693  Biso   1.000  H
  C27      1.0000 0.15219  0.82619  0.84280  Biso   1.000  C
  N18      1.0000 0.13551  0.82489  0.94942  Biso   1.000  N
  O8       1.0000 0.15709  0.86299  0.10170  Biso   1.000  O
  C28      1.0000 0.12162  0.88419  0.72398  Biso   1.000  C
  O9       1.0000 0.84291  0.13701  0.89830  Biso   1.000  O
  N19      1.0000 0.81099  0.11122  0.05388  Biso   1.000  N
  H25      1.0000 0.77541  0.13779  0.18307  Biso   1.000  H
  C29      1.0000 0.80779  0.05481  0.27917  Biso   1.000  C
  H26      1.0000 0.17002  0.79491  0.82200  Biso   1.000  H
  N20      1.0000 0.11270  0.84008  0.77157  Biso   1.000  N
  C30      1.0000 0.11062  0.78108  0.99332  Biso   1.000  C
  O10      1.0000 0.09719  0.90172  0.65359  Biso   1.000  O
  C31      1.0000 0.76969  0.08001  0.01474  Biso   1.000  C
  H27      1.0000 0.77290  0.06678  0.29797  Biso   1.000  H
  H28      1.0000 0.82581  0.04540  0.34334  Biso   1.000  H
  N21      1.0000 0.80269  0.01130  0.21423  Biso   1.000  N
  C32      1.0000 0.07530  0.80399  0.73250  Biso   1.000  C
  H29      1.0000 0.12629  0.75110  0.96293  Biso   1.000  H
  N22      1.0000 0.05512  0.77971  0.97651  Biso   1.000  N
  H30      1.0000 0.11741  0.78042  0.06808  Biso   1.000  H
  H31      1.0000 0.76792  0.08379  0.93921  Biso   1.000  H
  N23      1.0000 0.77599  0.02861  0.03892  Biso   1.000  N
  H32      1.0000 0.73650  0.09169  0.04352  Biso   1.000  H
  C33      1.0000 0.81890  0.96550  0.24831  Biso   1.000  C
  C34      1.0000 0.76251  0.00778  0.13839  Biso   1.000  C
  H33      1.0000 0.06291  0.81511  0.66442  Biso   1.000  H
  H34      1.0000 0.09279  0.77171  0.72313  Biso   1.000  H
  N24      1.0000 0.03169  0.79739  0.79959  Biso   1.000  N
  C35      1.0000 0.03231  0.76200  0.88241  Biso   1.000  C
  C36      1.0000 0.02138  0.78309  0.05519  Biso   1.000  C
  C37      1.0000 0.77849  0.99240  0.96431  Biso   1.000  C
  N25      1.0000 0.79521  0.93040  0.18859  Biso   1.000  N
  O11      1.0000 0.84839  0.95708  0.31939  Biso   1.000  O
  C38      1.0000 0.75761  0.95171  0.11729  Biso   1.000  C
  H35      1.0000 0.72928  0.02190  0.16449  Biso   1.000  H
  C39      1.0000 0.98252  0.81181  0.77403  Biso   1.000  C
  C40      1.0000 0.97399  0.75611  0.91127  Biso   1.000  C
  H36      1.0000 0.04771  0.72968  0.86053  Biso   1.000  H
  N26      1.0000 0.97229  0.77249  0.01773  Biso   1.000  N
  O12      1.0000 0.03080  0.79350  0.14400  Biso   1.000  O
  N27      1.0000 0.77151  0.94711  0.00990  Biso   1.000  N
  O13      1.0000 0.78509  0.00011  0.87251  Biso   1.000  O
  C41      1.0000 0.79930  0.87770  0.20840  Biso   1.000  C
  H37      1.0000 0.72191  0.93941  0.13103  Biso   1.000  H
  N28      1.0000 0.94871  0.78950  0.83973  Biso   1.000  N
  O14      1.0000 0.97128  0.83864  0.70233  Biso   1.000  O
  H38      1.0000 0.96179  0.72119  0.90329  Biso   1.000  H
  C42      1.0000 0.92948  0.76181  0.08551  Biso   1.000  C
  C43      1.0000 0.76151  0.90331  0.94888  Biso   1.000  C
  H39      1.0000 0.76421  0.86328  0.21016  Biso   1.000  H
  H40      1.0000 0.81508  0.87281  0.27679  Biso   1.000  H
  N29      1.0000 0.82998  0.85120  0.13187  Biso   1.000  N
  C44      1.0000 0.89401  0.78939  0.82469  Biso   1.000  C
  H41      1.0000 0.91609  0.72838  0.06962  Biso   1.000  H
  H42      1.0000 0.94218  0.76141  0.15712  Biso   1.000  H
  N30      1.0000 0.88799  0.79721  0.07730  Biso   1.000  N
  H43      1.0000 0.72870  0.88811  0.97221  Biso   1.000  H
  H44      1.0000 0.75700  0.91320  0.87627  Biso   1.000  H
  N31      1.0000 0.80212  0.86669  0.95502  Biso   1.000  N
  C45      1.0000 0.80729  0.83119  0.03738  Biso   1.000  C
  C46      1.0000 0.87491  0.82811  0.15651  Biso   1.000  C
  H45      1.0000 0.88159  0.75481  0.82660  Biso   1.000  H
  H46      1.0000 0.88641  0.80291  0.75568  Biso   1.000  H
  N32      1.0000 0.86568  0.81811  0.90068  Biso   1.000  N
  C47      1.0000 0.84901  0.79539  0.99823  Biso   1.000  C
  C48      1.0000 0.83411  0.85669  0.87442  Biso   1.000  C
  H47      1.0000 0.77409  0.81359  0.05127  Biso   1.000  H
  O15      1.0000 0.89911  0.83304  0.23657  Biso   1.000  O
  H48      1.0000 0.83531  0.76111  0.98803  Biso   1.000  H
  O16      1.0000 0.83512  0.87926  0.79191  Biso   1.000  O
  C49      1.0000 0.16589  0.14331  0.12558  Biso   1.000  C
  N33      1.0000 0.13432  0.18189  0.09932  Biso   1.000  N
  N34      1.0000 0.19788  0.13331  0.04498  Biso   1.000  N
  O17      1.0000 0.16488  0.12074  0.20809  Biso   1.000  O
  C50      1.0000 0.10599  0.21061  0.17531  Biso   1.000  C
  C51      1.0000 0.15099  0.20461  0.00177  Biso   1.000  C
  C52      1.0000 0.23849  0.09669  0.05112  Biso   1.000  C
  C53      1.0000 0.19271  0.16881  0.96262  Biso   1.000  C
  H49      1.0000 0.11841  0.24519  0.17340  Biso   1.000  H
  H50      1.0000 0.11359  0.19709  0.24432  Biso   1.000  H
  N35      1.0000 0.05129  0.21050  0.16027  Biso   1.000  N
  H51      1.0000 0.16469  0.23889  0.01197  Biso   1.000  H
  N36      1.0000 0.11201  0.20279  0.92270  Biso   1.000  N
  H52      1.0000 0.27130  0.11189  0.02779  Biso   1.000  H
  H53      1.0000 0.24300  0.08680  0.12373  Biso   1.000  H
  N37      1.0000 0.22849  0.05289  0.99010  Biso   1.000  N
  H54      1.0000 0.22591  0.18641  0.94873  Biso   1.000  H
  N38      1.0000 0.17002  0.14880  0.86813  Biso   1.000  N
  C54      1.0000 0.02601  0.24389  0.08873  Biso   1.000  C
  C55      1.0000 0.01748  0.18819  0.22597  Biso   1.000  C
  C56      1.0000 0.07052  0.23819  0.91449  Biso   1.000  C
  C57      1.0000 0.12509  0.17189  0.84349  Biso   1.000  C
  C58      1.0000 0.22151  0.00760  0.03569  Biso   1.000  C
  C59      1.0000 0.24239  0.04829  0.88271  Biso   1.000  C
  C60      1.0000 0.20070  0.12230  0.79160  Biso   1.000  C
  H55      1.0000 0.03821  0.27881  0.09671  Biso   1.000  H
  C61      1.0000 0.96769  0.23800  0.11759  Biso   1.000  C
  N39      1.0000 0.02771  0.22751  0.98227  Biso   1.000  N
  O18      1.0000 0.02872  0.16136  0.29767  Biso   1.000  O
  N40      1.0000 0.96831  0.20261  0.20041  Biso   1.000  N
  H56      1.0000 0.08391  0.27162  0.93038  Biso   1.000  H
  H57      1.0000 0.05782  0.23859  0.84288  Biso   1.000  H
  O19      1.0000 0.10089  0.16696  0.76343  Biso   1.000  O
  N41      1.0000 0.22401  0.97139  0.96108  Biso   1.000  N
  O20      1.0000 0.21491  0.99989  0.12749  Biso   1.000  O
  C62      1.0000 0.23749  0.99222  0.86161  Biso   1.000  C
  H58      1.0000 0.27809  0.06059  0.86897  Biso   1.000  H
  N42      1.0000 0.20479  0.06960  0.81141  Biso   1.000  N
  H59      1.0000 0.23579  0.13672  0.78984  Biso   1.000  H
  H60      1.0000 0.18492  0.12719  0.72321  Biso   1.000  H
  H61      1.0000 0.95229  0.27032  0.13947  Biso   1.000  H
  N43      1.0000 0.94488  0.22029  0.02349  Biso   1.000  N
  C63      1.0000 0.97862  0.21691  0.94481  Biso   1.000  C
  C64      1.0000 0.92470  0.19601  0.26750  Biso   1.000  C
  C65      1.0000 0.23031  0.91999  0.98526  Biso   1.000  C
  H62      1.0000 0.27072  0.97810  0.83551  Biso   1.000  H
  N44      1.0000 0.19731  0.98870  0.78577  Biso   1.000  N
  C66      1.0000 0.18110  0.03450  0.75169  Biso   1.000  C
  C67      1.0000 0.88938  0.21892  0.00668  Biso   1.000  C
  O21      1.0000 0.96920  0.20650  0.85600  Biso   1.000  O
  H63      1.0000 0.93709  0.18489  0.33558  Biso   1.000  H
  H64      1.0000 0.90721  0.22829  0.27687  Biso   1.000  H
  N45      1.0000 0.88730  0.15992  0.22843  Biso   1.000  N
  H65      1.0000 0.26350  0.90831  0.95648  Biso   1.000  H
  N46      1.0000 0.18901  0.88878  0.94612  Biso   1.000  N
  H66      1.0000 0.23208  0.91621  0.06079  Biso   1.000  H
  C68      1.0000 0.19221  0.94519  0.72083  Biso   1.000  C
  O22      1.0000 0.15161  0.04292  0.68061  Biso   1.000  O
  H67      1.0000 0.88259  0.21958  0.93192  Biso   1.000  H
  H68      1.0000 0.87371  0.24890  0.03707  Biso   1.000  H
  N47      1.0000 0.86449  0.17511  0.05058  Biso   1.000  N
  C69      1.0000 0.84781  0.17381  0.15720  Biso   1.000  C
  C70      1.0000 0.87838  0.11581  0.27602  Biso   1.000  C
  C71      1.0000 0.18920  0.87151  0.84057  Biso   1.000  C
  C72      1.0000 0.16029  0.85928  0.00760  Biso   1.000  C
  N48      1.0000 0.16400  0.90509  0.76988  Biso   1.000  N
  H69      1.0000 0.22710  0.93322  0.70203  Biso   1.000  H
  H70      1.0000 0.17419  0.95460  0.65666  Biso   1.000  H
  C73      1.0000 0.83971  0.14072  0.99240  Biso   1.000  C
  C74      1.0000 0.81080  0.12849  0.15943  Biso   1.000  C
  H71      1.0000 0.82998  0.20509  0.17800  Biso   1.000  H
  N49      1.0000 0.83600  0.09491  0.23012  Biso   1.000  N
  O23      1.0000 0.90281  0.09828  0.34641  Biso   1.000  O
  H72      1.0000 0.22459  0.86221  0.81693  Biso   1.000  H
  C75      1.0000 0.15219  0.82619  0.84280  Biso   1.000  C
  N50      1.0000 0.13551  0.82489  0.94942  Biso   1.000  N
  O24      1.0000 0.15709  0.86299  0.10170  Biso   1.000  O
  C76      1.0000 0.12162  0.88419  0.72398  Biso   1.000  C
  O25      1.0000 0.84291  0.13701  0.89830  Biso   1.000  O
  N51      1.0000 0.81099  0.11122  0.05388  Biso   1.000  N
  H73      1.0000 0.77541  0.13779  0.18307  Biso   1.000  H
  C77      1.0000 0.80779  0.05481  0.27917  Biso   1.000  C
  H74      1.0000 0.17002  0.79491  0.82200  Biso   1.000  H
  N52      1.0000 0.11270  0.84008  0.77157  Biso   1.000  N
  C78      1.0000 0.11062  0.78108  0.99332  Biso   1.000  C
  O26      1.0000 0.09719  0.90172  0.65359  Biso   1.000  O
  C79      1.0000 0.76969  0.08001  0.01474  Biso   1.000  C
  H75      1.0000 0.77290  0.06678  0.29797  Biso   1.000  H
  H76      1.0000 0.82581  0.04540  0.34334  Biso   1.000  H
  N53      1.0000 0.80269  0.01130  0.21423  Biso   1.000  N
  C80      1.0000 0.07530  0.80399  0.73250  Biso   1.000  C
  H77      1.0000 0.12629  0.75110  0.96293  Biso   1.000  H
  N54      1.0000 0.05512  0.77971  0.97651  Biso   1.000  N
  H78      1.0000 0.11741  0.78042  0.06808  Biso   1.000  H
  H79      1.0000 0.76792  0.08379  0.93921  Biso   1.000  H
  N55      1.0000 0.77599  0.02861  0.03892  Biso   1.000  N
  H80      1.0000 0.73650  0.09169  0.04352  Biso   1.000  H
  C81      1.0000 0.81890  0.96550  0.24831  Biso   1.000  C
  C82      1.0000 0.76251  0.00778  0.13839  Biso   1.000  C
  H81      1.0000 0.06291  0.81511  0.66442  Biso   1.000  H
  H82      1.0000 0.09279  0.77171  0.72313  Biso   1.000  H
  N56      1.0000 0.03169  0.79739  0.79959  Biso   1.000  N
  C83      1.0000 0.03231  0.76200  0.88241  Biso   1.000  C
  C84      1.0000 0.02138  0.78309  0.05519  Biso   1.000  C
  C85      1.0000 0.77849  0.99240  0.96431  Biso   1.000  C
  N57      1.0000 0.79521  0.93040  0.18859  Biso   1.000  N
  O27      1.0000 0.84839  0.95708  0.31939  Biso   1.000  O
  C86      1.0000 0.75761  0.95171  0.11729  Biso   1.000  C
  H83      1.0000 0.72928  0.02190  0.16449  Biso   1.000  H
  C87      1.0000 0.98252  0.81181  0.77403  Biso   1.000  C
  C88      1.0000 0.97399  0.75611  0.91127  Biso   1.000  C
  H84      1.0000 0.04771  0.72968  0.86053  Biso   1.000  H
  N58      1.0000 0.97229  0.77249  0.01773  Biso   1.000  N
  O28      1.0000 0.03080  0.79350  0.14400  Biso   1.000  O
  N59      1.0000 0.77151  0.94711  0.00990  Biso   1.000  N
  O29      1.0000 0.78509  0.00011  0.87251  Biso   1.000  O
  C89      1.0000 0.79930  0.87770  0.20840  Biso   1.000  C
  H85      1.0000 0.72191  0.93941  0.13103  Biso   1.000  H
  N60      1.0000 0.94871  0.78950  0.83973  Biso   1.000  N
  O30      1.0000 0.97128  0.83864  0.70233  Biso   1.000  O
  H86      1.0000 0.96179  0.72119  0.90329  Biso   1.000  H
  C90      1.0000 0.92948  0.76181  0.08551  Biso   1.000  C
  C91      1.0000 0.76151  0.90331  0.94888  Biso   1.000  C
  H87      1.0000 0.76421  0.86328  0.21016  Biso   1.000  H
  H88      1.0000 0.81508  0.87281  0.27679  Biso   1.000  H
  N61      1.0000 0.82998  0.85120  0.13187  Biso   1.000  N
  C92      1.0000 0.89401  0.78939  0.82469  Biso   1.000  C
  H89      1.0000 0.91609  0.72838  0.06962  Biso   1.000  H
  H90      1.0000 0.94218  0.76141  0.15712  Biso   1.000  H
  N62      1.0000 0.88799  0.79721  0.07730  Biso   1.000  N
  H91      1.0000 0.72870  0.88811  0.97221  Biso   1.000  H
  H92      1.0000 0.75700  0.91320  0.87627  Biso   1.000  H
  N63      1.0000 0.80212  0.86669  0.95502  Biso   1.000  N
  C93      1.0000 0.80729  0.83119  0.03738  Biso   1.000  C
  C94      1.0000 0.87491  0.82811  0.15651  Biso   1.000  C
  H93      1.0000 0.88159  0.75481  0.82660  Biso   1.000  H
  H94      1.0000 0.88641  0.80291  0.75568  Biso   1.000  H
  N64      1.0000 0.86568  0.81811  0.90068  Biso   1.000  N
  C95      1.0000 0.84901  0.79539  0.99823  Biso   1.000  C
  C96      1.0000 0.83411  0.85669  0.87442  Biso   1.000  C
  H95      1.0000 0.77409  0.81359  0.05127  Biso   1.000  H
  O31      1.0000 0.89911  0.83304  0.23657  Biso   1.000  O
  H96      1.0000 0.83531  0.76111  0.98803  Biso   1.000  H
  O32      1.0000 0.83512  0.87926  0.79191  Biso   1.000  O
  C97      1.0000 0.16589  0.14331  0.12558  Biso   1.000  C
  N65      1.0000 0.13432  0.18189  0.09932  Biso   1.000  N
  N66      1.0000 0.19788  0.13331  0.04498  Biso   1.000  N
  O33      1.0000 0.16488  0.12074  0.20809  Biso   1.000  O
  C98      1.0000 0.10599  0.21061  0.17531  Biso   1.000  C
  C99      1.0000 0.15099  0.20461  0.00177  Biso   1.000  C
  C100     1.0000 0.23849  0.09669  0.05112  Biso   1.000  C
  C101     1.0000 0.19271  0.16881  0.96262  Biso   1.000  C
  H97      1.0000 0.11841  0.24519  0.17340  Biso   1.000  H
  H98      1.0000 0.11359  0.19709  0.24432  Biso   1.000  H
  N67      1.0000 0.05129  0.21050  0.16027  Biso   1.000  N
  H99      1.0000 0.16469  0.23889  0.01197  Biso   1.000  H
  N68      1.0000 0.11201  0.20279  0.92270  Biso   1.000  N
  H100     1.0000 0.27130  0.11189  0.02779  Biso   1.000  H
  H101     1.0000 0.24300  0.08680  0.12373  Biso   1.000  H
  N69      1.0000 0.22849  0.05289  0.99010  Biso   1.000  N
  H102     1.0000 0.22591  0.18641  0.94873  Biso   1.000  H
  N70      1.0000 0.17002  0.14880  0.86813  Biso   1.000  N
  C102     1.0000 0.02601  0.24389  0.08873  Biso   1.000  C
  C103     1.0000 0.01748  0.18819  0.22597  Biso   1.000  C
  C104     1.0000 0.07052  0.23819  0.91449  Biso   1.000  C
  C105     1.0000 0.12509  0.17189  0.84349  Biso   1.000  C
  C106     1.0000 0.22151  0.00760  0.03569  Biso   1.000  C
  C107     1.0000 0.24239  0.04829  0.88271  Biso   1.000  C
  C108     1.0000 0.20070  0.12230  0.79160  Biso   1.000  C
  H103     1.0000 0.03821  0.27881  0.09671  Biso   1.000  H
  C109     1.0000 0.96769  0.23800  0.11759  Biso   1.000  C
  N71      1.0000 0.02771  0.22751  0.98227  Biso   1.000  N
  O34      1.0000 0.02872  0.16136  0.29767  Biso   1.000  O
  N72      1.0000 0.96831  0.20261  0.20041  Biso   1.000  N
  H104     1.0000 0.08391  0.27162  0.93038  Biso   1.000  H
  H105     1.0000 0.05782  0.23859  0.84288  Biso   1.000  H
  O35      1.0000 0.10089  0.16696  0.76343  Biso   1.000  O
  N73      1.0000 0.22401  0.97139  0.96108  Biso   1.000  N
  O36      1.0000 0.21491  0.99989  0.12749  Biso   1.000  O
  C110     1.0000 0.23749  0.99222  0.86161  Biso   1.000  C
  H106     1.0000 0.27809  0.06059  0.86897  Biso   1.000  H
  N74      1.0000 0.20479  0.06960  0.81141  Biso   1.000  N
  H107     1.0000 0.23579  0.13672  0.78984  Biso   1.000  H
  H108     1.0000 0.18492  0.12719  0.72321  Biso   1.000  H
  H109     1.0000 0.95229  0.27032  0.13947  Biso   1.000  H
  N75      1.0000 0.94488  0.22029  0.02349  Biso   1.000  N
  C111     1.0000 0.97862  0.21691  0.94481  Biso   1.000  C
  C112     1.0000 0.92470  0.19601  0.26750  Biso   1.000  C
  C113     1.0000 0.23031  0.91999  0.98526  Biso   1.000  C
  H110     1.0000 0.27072  0.97810  0.83551  Biso   1.000  H
  N76      1.0000 0.19731  0.98870  0.78577  Biso   1.000  N
  C114     1.0000 0.18110  0.03450  0.75169  Biso   1.000  C
  C115     1.0000 0.88938  0.21892  0.00668  Biso   1.000  C
  O37      1.0000 0.96920  0.20650  0.85600  Biso   1.000  O
  H111     1.0000 0.93709  0.18489  0.33558  Biso   1.000  H
  H112     1.0000 0.90721  0.22829  0.27687  Biso   1.000  H
  N77      1.0000 0.88730  0.15992  0.22843  Biso   1.000  N
  H113     1.0000 0.26350  0.90831  0.95648  Biso   1.000  H
  N78      1.0000 0.18901  0.88878  0.94612  Biso   1.000  N
  H114     1.0000 0.23208  0.91621  0.06079  Biso   1.000  H
  C116     1.0000 0.19221  0.94519  0.72083  Biso   1.000  C
  O38      1.0000 0.15161  0.04292  0.68061  Biso   1.000  O
  H115     1.0000 0.88259  0.21958  0.93192  Biso   1.000  H
  H116     1.0000 0.87371  0.24890  0.03707  Biso   1.000  H
  N79      1.0000 0.86449  0.17511  0.05058  Biso   1.000  N
  C117     1.0000 0.84781  0.17381  0.15720  Biso   1.000  C
  C118     1.0000 0.87838  0.11581  0.27602  Biso   1.000  C
  C119     1.0000 0.18920  0.87151  0.84057  Biso   1.000  C
  C120     1.0000 0.16029  0.85928  0.00760  Biso   1.000  C
  N80      1.0000 0.16400  0.90509  0.76988  Biso   1.000  N
  H117     1.0000 0.22710  0.93322  0.70203  Biso   1.000  H
  H118     1.0000 0.17419  0.95460  0.65666  Biso   1.000  H
  C121     1.0000 0.83971  0.14072  0.99240  Biso   1.000  C
  C122     1.0000 0.81080  0.12849  0.15943  Biso   1.000  C
  H119     1.0000 0.82998  0.20509  0.17800  Biso   1.000  H
  N81      1.0000 0.83600  0.09491  0.23012  Biso   1.000  N
  O39      1.0000 0.90281  0.09828  0.34641  Biso   1.000  O
  H120     1.0000 0.22459  0.86221  0.81693  Biso   1.000  H
  C123     1.0000 0.15219  0.82619  0.84280  Biso   1.000  C
  N82      1.0000 0.13551  0.82489  0.94942  Biso   1.000  N
  O40      1.0000 0.15709  0.86299  0.10170  Biso   1.000  O
  C124     1.0000 0.12162  0.88419  0.72398  Biso   1.000  C
  O41      1.0000 0.84291  0.13701  0.89830  Biso   1.000  O
  N83      1.0000 0.81099  0.11122  0.05388  Biso   1.000  N
  H121     1.0000 0.77541  0.13779  0.18307  Biso   1.000  H
  C125     1.0000 0.80779  0.05481  0.27917  Biso   1.000  C
  H122     1.0000 0.17002  0.79491  0.82200  Biso   1.000  H
  N84      1.0000 0.11270  0.84008  0.77157  Biso   1.000  N
  C126     1.0000 0.11062  0.78108  0.99332  Biso   1.000  C
  O42      1.0000 0.09719  0.90172  0.65359  Biso   1.000  O
  C127     1.0000 0.76969  0.08001  0.01474  Biso   1.000  C
  H123     1.0000 0.77290  0.06678  0.29797  Biso   1.000  H
  H124     1.0000 0.82581  0.04540  0.34334  Biso   1.000  H
  N85      1.0000 0.80269  0.01130  0.21423  Biso   1.000  N
  C128     1.0000 0.07530  0.80399  0.73250  Biso   1.000  C
  H125     1.0000 0.12629  0.75110  0.96293  Biso   1.000  H
  N86      1.0000 0.05512  0.77971  0.97651  Biso   1.000  N
  H126     1.0000 0.11741  0.78042  0.06808  Biso   1.000  H
  H127     1.0000 0.76792  0.08379  0.93921  Biso   1.000  H
  N87      1.0000 0.77599  0.02861  0.03892  Biso   1.000  N
  H128     1.0000 0.73650  0.09169  0.04352  Biso   1.000  H
  C129     1.0000 0.81890  0.96550  0.24831  Biso   1.000  C
  C130     1.0000 0.76251  0.00778  0.13839  Biso   1.000  C
  H129     1.0000 0.06291  0.81511  0.66442  Biso   1.000  H
  H130     1.0000 0.09279  0.77171  0.72313  Biso   1.000  H
  N88      1.0000 0.03169  0.79739  0.79959  Biso   1.000  N
  C131     1.0000 0.03231  0.76200  0.88241  Biso   1.000  C
  C132     1.0000 0.02138  0.78309  0.05519  Biso   1.000  C
  C133     1.0000 0.77849  0.99240  0.96431  Biso   1.000  C
  N89      1.0000 0.79521  0.93040  0.18859  Biso   1.000  N
  O43      1.0000 0.84839  0.95708  0.31939  Biso   1.000  O
  C134     1.0000 0.75761  0.95171  0.11729  Biso   1.000  C
  H131     1.0000 0.72928  0.02190  0.16449  Biso   1.000  H
  C135     1.0000 0.98252  0.81181  0.77403  Biso   1.000  C
  C136     1.0000 0.97399  0.75611  0.91127  Biso   1.000  C
  H132     1.0000 0.04771  0.72968  0.86053  Biso   1.000  H
  N90      1.0000 0.97229  0.77249  0.01773  Biso   1.000  N
  O44      1.0000 0.03080  0.79350  0.14400  Biso   1.000  O
  N91      1.0000 0.77151  0.94711  0.00990  Biso   1.000  N
  O45      1.0000 0.78509  0.00011  0.87251  Biso   1.000  O
  C137     1.0000 0.79930  0.87770  0.20840  Biso   1.000  C
  H133     1.0000 0.72191  0.93941  0.13103  Biso   1.000  H
  N92      1.0000 0.94871  0.78950  0.83973  Biso   1.000  N
  O46      1.0000 0.97128  0.83864  0.70233  Biso   1.000  O
  H134     1.0000 0.96179  0.72119  0.90329  Biso   1.000  H
  C138     1.0000 0.92948  0.76181  0.08551  Biso   1.000  C
  C139     1.0000 0.76151  0.90331  0.94888  Biso   1.000  C
  H135     1.0000 0.76421  0.86328  0.21016  Biso   1.000  H
  H136     1.0000 0.81508  0.87281  0.27679  Biso   1.000  H
  N93      1.0000 0.82998  0.85120  0.13187  Biso   1.000  N
  C140     1.0000 0.89401  0.78939  0.82469  Biso   1.000  C
  H137     1.0000 0.91609  0.72838  0.06962  Biso   1.000  H
  H138     1.0000 0.94218  0.76141  0.15712  Biso   1.000  H
  N94      1.0000 0.88799  0.79721  0.07730  Biso   1.000  N
  H139     1.0000 0.72870  0.88811  0.97221  Biso   1.000  H
  H140     1.0000 0.75700  0.91320  0.87627  Biso   1.000  H
  N95      1.0000 0.80212  0.86669  0.95502  Biso   1.000  N
  C141     1.0000 0.80729  0.83119  0.03738  Biso   1.000  C
  C142     1.0000 0.87491  0.82811  0.15651  Biso   1.000  C
  H141     1.0000 0.88159  0.75481  0.82660  Biso   1.000  H
  H142     1.0000 0.88641  0.80291  0.75568  Biso   1.000  H
  N96      1.0000 0.86568  0.81811  0.90068  Biso   1.000  N
  C143     1.0000 0.84901  0.79539  0.99823  Biso   1.000  C
  C144     1.0000 0.83411  0.85669  0.87442  Biso   1.000  C
  H143     1.0000 0.77409  0.81359  0.05127  Biso   1.000  H
  O47      1.0000 0.89911  0.83304  0.23657  Biso   1.000  O
  H144     1.0000 0.83531  0.76111  0.98803  Biso   1.000  H
  O48      1.0000 0.83512  0.87926  0.79191  Biso   1.000  O
  C145     1.0000 0.16589  0.14331  0.12558  Biso   1.000  C
  N97      1.0000 0.13432  0.18189  0.09932  Biso   1.000  N
  N98      1.0000 0.19788  0.13331  0.04498  Biso   1.000  N
  O49      1.0000 0.16488  0.12074  0.20809  Biso   1.000  O
  C146     1.0000 0.10599  0.21061  0.17531  Biso   1.000  C
  C147     1.0000 0.15099  0.20461  0.00177  Biso   1.000  C
  C148     1.0000 0.23849  0.09669  0.05112  Biso   1.000  C
  C149     1.0000 0.19271  0.16881  0.96262  Biso   1.000  C
  H145     1.0000 0.11841  0.24519  0.17340  Biso   1.000  H
  H146     1.0000 0.11359  0.19709  0.24432  Biso   1.000  H
  N99      1.0000 0.05129  0.21050  0.16027  Biso   1.000  N
  H147     1.0000 0.16469  0.23889  0.01197  Biso   1.000  H
  N100     1.0000 0.11201  0.20279  0.92270  Biso   1.000  N
  H148     1.0000 0.27130  0.11189  0.02779  Biso   1.000  H
  H149     1.0000 0.24300  0.08680  0.12373  Biso   1.000  H
  N101     1.0000 0.22849  0.05289  0.99010  Biso   1.000  N
  H150     1.0000 0.22591  0.18641  0.94873  Biso   1.000  H
  N102     1.0000 0.17002  0.14880  0.86813  Biso   1.000  N
  C150     1.0000 0.02601  0.24389  0.08873  Biso   1.000  C
  C151     1.0000 0.01748  0.18819  0.22597  Biso   1.000  C
  C152     1.0000 0.07052  0.23819  0.91449  Biso   1.000  C
  C153     1.0000 0.12509  0.17189  0.84349  Biso   1.000  C
  C154     1.0000 0.22151  0.00760  0.03569  Biso   1.000  C
  C155     1.0000 0.24239  0.04829  0.88271  Biso   1.000  C
  C156     1.0000 0.20070  0.12230  0.79160  Biso   1.000  C
  H151     1.0000 0.03821  0.27881  0.09671  Biso   1.000  H
  C157     1.0000 0.96769  0.23800  0.11759  Biso   1.000  C
  N103     1.0000 0.02771  0.22751  0.98227  Biso   1.000  N
  O50      1.0000 0.02872  0.16136  0.29767  Biso   1.000  O
  N104     1.0000 0.96831  0.20261  0.20041  Biso   1.000  N
  H152     1.0000 0.08391  0.27162  0.93038  Biso   1.000  H
  H153     1.0000 0.05782  0.23859  0.84288  Biso   1.000  H
  O51      1.0000 0.10089  0.16696  0.76343  Biso   1.000  O
  N105     1.0000 0.22401  0.97139  0.96108  Biso   1.000  N
  O52      1.0000 0.21491  0.99989  0.12749  Biso   1.000  O
  C158     1.0000 0.23749  0.99222  0.86161  Biso   1.000  C
  H154     1.0000 0.27809  0.06059  0.86897  Biso   1.000  H
  N106     1.0000 0.20479  0.06960  0.81141  Biso   1.000  N
  H155     1.0000 0.23579  0.13672  0.78984  Biso   1.000  H
  H156     1.0000 0.18492  0.12719  0.72321  Biso   1.000  H
  H157     1.0000 0.95229  0.27032  0.13947  Biso   1.000  H
  N107     1.0000 0.94488  0.22029  0.02349  Biso   1.000  N
  C159     1.0000 0.97862  0.21691  0.94481  Biso   1.000  C
  C160     1.0000 0.92470  0.19601  0.26750  Biso   1.000  C
  C161     1.0000 0.23031  0.91999  0.98526  Biso   1.000  C
  H158     1.0000 0.27072  0.97810  0.83551  Biso   1.000  H
  N108     1.0000 0.19731  0.98870  0.78577  Biso   1.000  N
  C162     1.0000 0.18110  0.03450  0.75169  Biso   1.000  C
  C163     1.0000 0.88938  0.21892  0.00668  Biso   1.000  C
  O53      1.0000 0.96920  0.20650  0.85600  Biso   1.000  O
  H159     1.0000 0.93709  0.18489  0.33558  Biso   1.000  H
  H160     1.0000 0.90721  0.22829  0.27687  Biso   1.000  H
  N109     1.0000 0.88730  0.15992  0.22843  Biso   1.000  N
  H161     1.0000 0.26350  0.90831  0.95648  Biso   1.000  H
  N110     1.0000 0.18901  0.88878  0.94612  Biso   1.000  N
  H162     1.0000 0.23208  0.91621  0.06079  Biso   1.000  H
  C164     1.0000 0.19221  0.94519  0.72083  Biso   1.000  C
  O54      1.0000 0.15161  0.04292  0.68061  Biso   1.000  O
  H163     1.0000 0.88259  0.21958  0.93192  Biso   1.000  H
  H164     1.0000 0.87371  0.24890  0.03707  Biso   1.000  H
  N111     1.0000 0.86449  0.17511  0.05058  Biso   1.000  N
  C165     1.0000 0.84781  0.17381  0.15720  Biso   1.000  C
  C166     1.0000 0.87838  0.11581  0.27602  Biso   1.000  C
  C167     1.0000 0.18920  0.87151  0.84057  Biso   1.000  C
  C168     1.0000 0.16029  0.85928  0.00760  Biso   1.000  C
  N112     1.0000 0.16400  0.90509  0.76988  Biso   1.000  N
  H165     1.0000 0.22710  0.93322  0.70203  Biso   1.000  H
  H166     1.0000 0.17419  0.95460  0.65666  Biso   1.000  H
  C169     1.0000 0.83971  0.14072  0.99240  Biso   1.000  C
  C170     1.0000 0.81080  0.12849  0.15943  Biso   1.000  C
  H167     1.0000 0.82998  0.20509  0.17800  Biso   1.000  H
  N113     1.0000 0.83600  0.09491  0.23012  Biso   1.000  N
  O55      1.0000 0.90281  0.09828  0.34641  Biso   1.000  O
  H168     1.0000 0.22459  0.86221  0.81693  Biso   1.000  H
  C171     1.0000 0.15219  0.82619  0.84280  Biso   1.000  C
  N114     1.0000 0.13551  0.82489  0.94942  Biso   1.000  N
  O56      1.0000 0.15709  0.86299  0.10170  Biso   1.000  O
  C172     1.0000 0.12162  0.88419  0.72398  Biso   1.000  C
  O57      1.0000 0.84291  0.13701  0.89830  Biso   1.000  O
  N115     1.0000 0.81099  0.11122  0.05388  Biso   1.000  N
  H169     1.0000 0.77541  0.13779  0.18307  Biso   1.000  H
  C173     1.0000 0.80779  0.05481  0.27917  Biso   1.000  C
  H170     1.0000 0.17002  0.79491  0.82200  Biso   1.000  H
  N116     1.0000 0.11270  0.84008  0.77157  Biso   1.000  N
  C174     1.0000 0.11062  0.78108  0.99332  Biso   1.000  C
  O58      1.0000 0.09719  0.90172  0.65359  Biso   1.000  O
  C175     1.0000 0.76969  0.08001  0.01474  Biso   1.000  C
  H171     1.0000 0.77290  0.06678  0.29797  Biso   1.000  H
  H172     1.0000 0.82581  0.04540  0.34334  Biso   1.000  H
  N117     1.0000 0.80269  0.01130  0.21423  Biso   1.000  N
  C176     1.0000 0.07530  0.80399  0.73250  Biso   1.000  C
  H173     1.0000 0.12629  0.75110  0.96293  Biso   1.000  H
  N118     1.0000 0.05512  0.77971  0.97651  Biso   1.000  N
  H174     1.0000 0.11741  0.78042  0.06808  Biso   1.000  H
  H175     1.0000 0.76792  0.08379  0.93921  Biso   1.000  H
  N119     1.0000 0.77599  0.02861  0.03892  Biso   1.000  N
  H176     1.0000 0.73650  0.09169  0.04352  Biso   1.000  H
  C177     1.0000 0.81890  0.96550  0.24831  Biso   1.000  C
  C178     1.0000 0.76251  0.00778  0.13839  Biso   1.000  C
  H177     1.0000 0.06291  0.81511  0.66442  Biso   1.000  H
  H178     1.0000 0.09279  0.77171  0.72313  Biso   1.000  H
  N120     1.0000 0.03169  0.79739  0.79959  Biso   1.000  N
  C179     1.0000 0.03231  0.76200  0.88241  Biso   1.000  C
  C180     1.0000 0.02138  0.78309  0.05519  Biso   1.000  C
  C181     1.0000 0.77849  0.99240  0.96431  Biso   1.000  C
  N121     1.0000 0.79521  0.93040  0.18859  Biso   1.000  N
  O59      1.0000 0.84839  0.95708  0.31939  Biso   1.000  O
  C182     1.0000 0.75761  0.95171  0.11729  Biso   1.000  C
  H179     1.0000 0.72928  0.02190  0.16449  Biso   1.000  H
  C183     1.0000 0.98252  0.81181  0.77403  Biso   1.000  C
  C184     1.0000 0.97399  0.75611  0.91127  Biso   1.000  C
  H180     1.0000 0.04771  0.72968  0.86053  Biso   1.000  H
  N122     1.0000 0.97229  0.77249  0.01773  Biso   1.000  N
  O60      1.0000 0.03080  0.79350  0.14400  Biso   1.000  O
  N123     1.0000 0.77151  0.94711  0.00990  Biso   1.000  N
  O61      1.0000 0.78509  0.00011  0.87251  Biso   1.000  O
  C185     1.0000 0.79930  0.87770  0.20840  Biso   1.000  C
  H181     1.0000 0.72191  0.93941  0.13103  Biso   1.000  H
  N124     1.0000 0.94871  0.78950  0.83973  Biso   1.000  N
  O62      1.0000 0.97128  0.83864  0.70233  Biso   1.000  O
  H182     1.0000 0.96179  0.72119  0.90329  Biso   1.000  H
  C186     1.0000 0.92948  0.76181  0.08551  Biso   1.000  C
  C187     1.0000 0.76151  0.90331  0.94888  Biso   1.000  C
  H183     1.0000 0.76421  0.86328  0.21016  Biso   1.000  H
  H184     1.0000 0.81508  0.87281  0.27679  Biso   1.000  H
  N125     1.0000 0.82998  0.85120  0.13187  Biso   1.000  N
  C188     1.0000 0.89401  0.78939  0.82469  Biso   1.000  C
  H185     1.0000 0.91609  0.72838  0.06962  Biso   1.000  H
  H186     1.0000 0.94218  0.76141  0.15712  Biso   1.000  H
  N126     1.0000 0.88799  0.79721  0.07730  Biso   1.000  N
  H187     1.0000 0.72870  0.88811  0.97221  Biso   1.000  H
  H188     1.0000 0.75700  0.91320  0.87627  Biso   1.000  H
  N127     1.0000 0.80212  0.86669  0.95502  Biso   1.000  N
  C189     1.0000 0.80729  0.83119  0.03738  Biso   1.000  C
  C190     1.0000 0.87491  0.82811  0.15651  Biso   1.000  C
  H189     1.0000 0.88159  0.75481  0.82660  Biso   1.000  H
  H190     1.0000 0.88641  0.80291  0.75568  Biso   1.000  H
  N128     1.0000 0.86568  0.81811  0.90068  Biso   1.000  N
  C191     1.0000 0.84901  0.79539  0.99823  Biso   1.000  C
  C192     1.0000 0.83411  0.85669  0.87442  Biso   1.000  C
  H191     1.0000 0.77409  0.81359  0.05127  Biso   1.000  H
  O63      1.0000 0.89911  0.83304  0.23657  Biso   1.000  O
  H192     1.0000 0.83531  0.76111  0.98803  Biso   1.000  H
  O64      1.0000 0.83512  0.87926  0.79191  Biso   1.000  O
  C193     1.0000 0.16589  0.14331  0.12558  Biso   1.000  C
  N129     1.0000 0.13432  0.18189  0.09932  Biso   1.000  N
  N130     1.0000 0.19788  0.13331  0.04498  Biso   1.000  N
  O65      1.0000 0.16488  0.12074  0.20809  Biso   1.000  O
  C194     1.0000 0.10599  0.21061  0.17531  Biso   1.000  C
  C195     1.0000 0.15099  0.20461  0.00177  Biso   1.000  C
  C196     1.0000 0.23849  0.09669  0.05112  Biso   1.000  C
  C197     1.0000 0.19271  0.16881  0.96262  Biso   1.000  C
  H193     1.0000 0.11841  0.24519  0.17340  Biso   1.000  H
  H194     1.0000 0.11359  0.19709  0.24432  Biso   1.000  H
  N131     1.0000 0.05129  0.21050  0.16027  Biso   1.000  N
  H195     1.0000 0.16469  0.23889  0.01197  Biso   1.000  H
  N132     1.0000 0.11201  0.20279  0.92270  Biso   1.000  N
  H196     1.0000 0.27130  0.11189  0.02779  Biso   1.000  H
  H197     1.0000 0.24300  0.08680  0.12373  Biso   1.000  H
  N133     1.0000 0.22849  0.05289  0.99010  Biso   1.000  N
  H198     1.0000 0.22591  0.18641  0.94873  Biso   1.000  H
  N134     1.0000 0.17002  0.14880  0.86813  Biso   1.000  N
  C198     1.0000 0.02601  0.24389  0.08873  Biso   1.000  C
  C199     1.0000 0.01748  0.18819  0.22597  Biso   1.000  C
  C200     1.0000 0.07052  0.23819  0.91449  Biso   1.000  C
  C201     1.0000 0.12509  0.17189  0.84349  Biso   1.000  C
  C202     1.0000 0.22151  0.00760  0.03569  Biso   1.000  C
  C203     1.0000 0.24239  0.04829  0.88271  Biso   1.000  C
  C204     1.0000 0.20070  0.12230  0.79160  Biso   1.000  C
  H199     1.0000 0.03821  0.27881  0.09671  Biso   1.000  H
  C205     1.0000 0.96769  0.23800  0.11759  Biso   1.000  C
  N135     1.0000 0.02771  0.22751  0.98227  Biso   1.000  N
  O66      1.0000 0.02872  0.16136  0.29767  Biso   1.000  O
  N136     1.0000 0.96831  0.20261  0.20041  Biso   1.000  N
  H200     1.0000 0.08391  0.27162  0.93038  Biso   1.000  H
  H201     1.0000 0.05782  0.23859  0.84288  Biso   1.000  H
  O67      1.0000 0.10089  0.16696  0.76343  Biso   1.000  O
  N137     1.0000 0.22401  0.97139  0.96108  Biso   1.000  N
  O68      1.0000 0.21491  0.99989  0.12749  Biso   1.000  O
  C206     1.0000 0.23749  0.99222  0.86161  Biso   1.000  C
  H202     1.0000 0.27809  0.06059  0.86897  Biso   1.000  H
  N138     1.0000 0.20479  0.06960  0.81141  Biso   1.000  N
  H203     1.0000 0.23579  0.13672  0.78984  Biso   1.000  H
  H204     1.0000 0.18492  0.12719  0.72321  Biso   1.000  H
  H205     1.0000 0.95229  0.27032  0.13947  Biso   1.000  H
  N139     1.0000 0.94488  0.22029  0.02349  Biso   1.000  N
  C207     1.0000 0.97862  0.21691  0.94481  Biso   1.000  C
  C208     1.0000 0.92470  0.19601  0.26750  Biso   1.000  C
  C209     1.0000 0.23031  0.91999  0.98526  Biso   1.000  C
  H206     1.0000 0.27072  0.97810  0.83551  Biso   1.000  H
  N140     1.0000 0.19731  0.98870  0.78577  Biso   1.000  N
  C210     1.0000 0.18110  0.03450  0.75169  Biso   1.000  C
  C211     1.0000 0.88938  0.21892  0.00668  Biso   1.000  C
  O69      1.0000 0.96920  0.20650  0.85600  Biso   1.000  O
  H207     1.0000 0.93709  0.18489  0.33558  Biso   1.000  H
  H208     1.0000 0.90721  0.22829  0.27687  Biso   1.000  H
  N141     1.0000 0.88730  0.15992  0.22843  Biso   1.000  N
  H209     1.0000 0.26350  0.90831  0.95648  Biso   1.000  H
  N142     1.0000 0.18901  0.88878  0.94612  Biso   1.000  N
  H210     1.0000 0.23208  0.91621  0.06079  Biso   1.000  H
  C212     1.0000 0.19221  0.94519  0.72083  Biso   1.000  C
  O70      1.0000 0.15161  0.04292  0.68061  Biso   1.000  O
  H211     1.0000 0.88259  0.21958  0.93192  Biso   1.000  H
  H212     1.0000 0.87371  0.24890  0.03707  Biso   1.000  H
  N143     1.0000 0.86449  0.17511  0.05058  Biso   1.000  N
  C213     1.0000 0.84781  0.17381  0.15720  Biso   1.000  C
  C214     1.0000 0.87838  0.11581  0.27602  Biso   1.000  C
  C215     1.0000 0.18920  0.87151  0.84057  Biso   1.000  C
  C216     1.0000 0.16029  0.85928  0.00760  Biso   1.000  C
  N144     1.0000 0.16400  0.90509  0.76988  Biso   1.000  N
  H213     1.0000 0.22710  0.93322  0.70203  Biso   1.000  H
  H214     1.0000 0.17419  0.95460  0.65666  Biso   1.000  H
  C217     1.0000 0.83971  0.14072  0.99240  Biso   1.000  C
  C218     1.0000 0.81080  0.12849  0.15943  Biso   1.000  C
  H215     1.0000 0.82998  0.20509  0.17800  Biso   1.000  H
  N145     1.0000 0.83600  0.09491  0.23012  Biso   1.000  N
  O71      1.0000 0.90281  0.09828  0.34641  Biso   1.000  O
  H216     1.0000 0.22459  0.86221  0.81693  Biso   1.000  H
  C219     1.0000 0.15219  0.82619  0.84280  Biso   1.000  C
  N146     1.0000 0.13551  0.82489  0.94942  Biso   1.000  N
  O72      1.0000 0.15709  0.86299  0.10170  Biso   1.000  O
  C220     1.0000 0.12162  0.88419  0.72398  Biso   1.000  C
  O73      1.0000 0.84291  0.13701  0.89830  Biso   1.000  O
  N147     1.0000 0.81099  0.11122  0.05388  Biso   1.000  N
  H217     1.0000 0.77541  0.13779  0.18307  Biso   1.000  H
  C221     1.0000 0.80779  0.05481  0.27917  Biso   1.000  C
  H218     1.0000 0.17002  0.79491  0.82200  Biso   1.000  H
  N148     1.0000 0.11270  0.84008  0.77157  Biso   1.000  N
  C222     1.0000 0.11062  0.78108  0.99332  Biso   1.000  C
  O74      1.0000 0.09719  0.90172  0.65359  Biso   1.000  O
  C223     1.0000 0.76969  0.08001  0.01474  Biso   1.000  C
  H219     1.0000 0.77290  0.06678  0.29797  Biso   1.000  H
  H220     1.0000 0.82581  0.04540  0.34334  Biso   1.000  H
  N149     1.0000 0.80269  0.01130  0.21423  Biso   1.000  N
  C224     1.0000 0.07530  0.80399  0.73250  Biso   1.000  C
  H221     1.0000 0.12629  0.75110  0.96293  Biso   1.000  H
  N150     1.0000 0.05512  0.77971  0.97651  Biso   1.000  N
  H222     1.0000 0.11741  0.78042  0.06808  Biso   1.000  H
  H223     1.0000 0.76792  0.08379  0.93921  Biso   1.000  H
  N151     1.0000 0.77599  0.02861  0.03892  Biso   1.000  N
  H224     1.0000 0.73650  0.09169  0.04352  Biso   1.000  H
  C225     1.0000 0.81890  0.96550  0.24831  Biso   1.000  C
  C226     1.0000 0.76251  0.00778  0.13839  Biso   1.000  C
  H225     1.0000 0.06291  0.81511  0.66442  Biso   1.000  H
  H226     1.0000 0.09279  0.77171  0.72313  Biso   1.000  H
  N152     1.0000 0.03169  0.79739  0.79959  Biso   1.000  N
  C227     1.0000 0.03231  0.76200  0.88241  Biso   1.000  C
  C228     1.0000 0.02138  0.78309  0.05519  Biso   1.000  C
  C229     1.0000 0.77849  0.99240  0.96431  Biso   1.000  C
  N153     1.0000 0.79521  0.93040  0.18859  Biso   1.000  N
  O75      1.0000 0.84839  0.95708  0.31939  Biso   1.000  O
  C230     1.0000 0.75761  0.95171  0.11729  Biso   1.000  C
  H227     1.0000 0.72928  0.02190  0.16449  Biso   1.000  H
  C231     1.0000 0.98252  0.81181  0.77403  Biso   1.000  C
  C232     1.0000 0.97399  0.75611  0.91127  Biso   1.000  C
  H228     1.0000 0.04771  0.72968  0.86053  Biso   1.000  H
  N154     1.0000 0.97229  0.77249  0.01773  Biso   1.000  N
  O76      1.0000 0.03080  0.79350  0.14400  Biso   1.000  O
  N155     1.0000 0.77151  0.94711  0.00990  Biso   1.000  N
  O77      1.0000 0.78509  0.00011  0.87251  Biso   1.000  O
  C233     1.0000 0.79930  0.87770  0.20840  Biso   1.000  C
  H229     1.0000 0.72191  0.93941  0.13103  Biso   1.000  H
  N156     1.0000 0.94871  0.78950  0.83973  Biso   1.000  N
  O78      1.0000 0.97128  0.83864  0.70233  Biso   1.000  O
  H230     1.0000 0.96179  0.72119  0.90329  Biso   1.000  H
  C234     1.0000 0.92948  0.76181  0.08551  Biso   1.000  C
  C235     1.0000 0.76151  0.90331  0.94888  Biso   1.000  C
  H231     1.0000 0.76421  0.86328  0.21016  Biso   1.000  H
  H232     1.0000 0.81508  0.87281  0.27679  Biso   1.000  H
  N157     1.0000 0.82998  0.85120  0.13187  Biso   1.000  N
  C236     1.0000 0.89401  0.78939  0.82469  Biso   1.000  C
  H233     1.0000 0.91609  0.72838  0.06962  Biso   1.000  H
  H234     1.0000 0.94218  0.76141  0.15712  Biso   1.000  H
  N158     1.0000 0.88799  0.79721  0.07730  Biso   1.000  N
  H235     1.0000 0.72870  0.88811  0.97221  Biso   1.000  H
  H236     1.0000 0.75700  0.91320  0.87627  Biso   1.000  H
  N159     1.0000 0.80212  0.86669  0.95502  Biso   1.000  N
  C237     1.0000 0.80729  0.83119  0.03738  Biso   1.000  C
  C238     1.0000 0.87491  0.82811  0.15651  Biso   1.000  C
  H237     1.0000 0.88159  0.75481  0.82660  Biso   1.000  H
  H238     1.0000 0.88641  0.80291  0.75568  Biso   1.000  H
  N160     1.0000 0.86568  0.81811  0.90068  Biso   1.000  N
  C239     1.0000 0.84901  0.79539  0.99823  Biso   1.000  C
  C240     1.0000 0.83411  0.85669  0.87442  Biso   1.000  C
  H239     1.0000 0.77409  0.81359  0.05127  Biso   1.000  H
  O79      1.0000 0.89911  0.83304  0.23657  Biso   1.000  O
  H240     1.0000 0.83531  0.76111  0.98803  Biso   1.000  H
  O80      1.0000 0.83512  0.87926  0.79191  Biso   1.000  O
  C241     1.0000 0.16589  0.14331  0.12558  Biso   1.000  C
  N161     1.0000 0.13432  0.18189  0.09932  Biso   1.000  N
  N162     1.0000 0.19788  0.13331  0.04498  Biso   1.000  N
  O81      1.0000 0.16488  0.12074  0.20809  Biso   1.000  O
  C242     1.0000 0.10599  0.21061  0.17531  Biso   1.000  C
  C243     1.0000 0.15099  0.20461  0.00177  Biso   1.000  C
  C244     1.0000 0.23849  0.09669  0.05112  Biso   1.000  C
  C245     1.0000 0.19271  0.16881  0.96262  Biso   1.000  C
  H241     1.0000 0.11841  0.24519  0.17340  Biso   1.000  H
  H242     1.0000 0.11359  0.19709  0.24432  Biso   1.000  H
  N163     1.0000 0.05129  0.21050  0.16027  Biso   1.000  N
  H243     1.0000 0.16469  0.23889  0.01197  Biso   1.000  H
  N164     1.0000 0.11201  0.20279  0.92270  Biso   1.000  N
  H244     1.0000 0.27130  0.11189  0.02779  Biso   1.000  H
  H245     1.0000 0.24300  0.08680  0.12373  Biso   1.000  H
  N165     1.0000 0.22849  0.05289  0.99010  Biso   1.000  N
  H246     1.0000 0.22591  0.18641  0.94873  Biso   1.000  H
  N166     1.0000 0.17002  0.14880  0.86813  Biso   1.000  N
  C246     1.0000 0.02601  0.24389  0.08873  Biso   1.000  C
  C247     1.0000 0.01748  0.18819  0.22597  Biso   1.000  C
  C248     1.0000 0.07052  0.23819  0.91449  Biso   1.000  C
  C249     1.0000 0.12509  0.17189  0.84349  Biso   1.000  C
  C250     1.0000 0.22151  0.00760  0.03569  Biso   1.000  C
  C251     1.0000 0.24239  0.04829  0.88271  Biso   1.000  C
  C252     1.0000 0.20070  0.12230  0.79160  Biso   1.000  C
  H247     1.0000 0.03821  0.27881  0.09671  Biso   1.000  H
  C253     1.0000 0.96769  0.23800  0.11759  Biso   1.000  C
  N167     1.0000 0.02771  0.22751  0.98227  Biso   1.000  N
  O82      1.0000 0.02872  0.16136  0.29767  Biso   1.000  O
  N168     1.0000 0.96831  0.20261  0.20041  Biso   1.000  N
  H248     1.0000 0.08391  0.27162  0.93038  Biso   1.000  H
  H249     1.0000 0.05782  0.23859  0.84288  Biso   1.000  H
  O83      1.0000 0.10089  0.16696  0.76343  Biso   1.000  O
  N169     1.0000 0.22401  0.97139  0.96108  Biso   1.000  N
  O84      1.0000 0.21491  0.99989  0.12749  Biso   1.000  O
  C254     1.0000 0.23749  0.99222  0.86161  Biso   1.000  C
  H250     1.0000 0.27809  0.06059  0.86897  Biso   1.000  H
  N170     1.0000 0.20479  0.06960  0.81141  Biso   1.000  N
  H251     1.0000 0.23579  0.13672  0.78984  Biso   1.000  H
  H252     1.0000 0.18492  0.12719  0.72321  Biso   1.000  H
  H253     1.0000 0.95229  0.27032  0.13947  Biso   1.000  H
  N171     1.0000 0.94488  0.22029  0.02349  Biso   1.000  N
  C255     1.0000 0.97862  0.21691  0.94481  Biso   1.000  C
  C256     1.0000 0.92470  0.19601  0.26750  Biso   1.000  C
  C257     1.0000 0.23031  0.91999  0.98526  Biso   1.000  C
  H254     1.0000 0.27072  0.97810  0.83551  Biso   1.000  H
  N172     1.0000 0.19731  0.98870  0.78577  Biso   1.000  N
  C258     1.0000 0.18110  0.03450  0.75169  Biso   1.000  C
  C259     1.0000 0.88938  0.21892  0.00668  Biso   1.000  C
  O85      1.0000 0.96920  0.20650  0.85600  Biso   1.000  O
  H255     1.0000 0.93709  0.18489  0.33558  Biso   1.000  H
  H256     1.0000 0.90721  0.22829  0.27687  Biso   1.000  H
  N173     1.0000 0.88730  0.15992  0.22843  Biso   1.000  N
  H257     1.0000 0.26350  0.90831  0.95648  Biso   1.000  H
  N174     1.0000 0.18901  0.88878  0.94612  Biso   1.000  N
  H258     1.0000 0.23208  0.91621  0.06079  Biso   1.000  H
  C260     1.0000 0.19221  0.94519  0.72083  Biso   1.000  C
  O86      1.0000 0.15161  0.04292  0.68061  Biso   1.000  O
  H259     1.0000 0.88259  0.21958  0.93192  Biso   1.000  H
  H260     1.0000 0.87371  0.24890  0.03707  Biso   1.000  H
  N175     1.0000 0.86449  0.17511  0.05058  Biso   1.000  N
  C261     1.0000 0.84781  0.17381  0.15720  Biso   1.000  C
  C262     1.0000 0.87838  0.11581  0.27602  Biso   1.000  C
  C263     1.0000 0.18920  0.87151  0.84057  Biso   1.000  C
  C264     1.0000 0.16029  0.85928  0.00760  Biso   1.000  C
  N176     1.0000 0.16400  0.90509  0.76988  Biso   1.000  N
  H261     1.0000 0.22710  0.93322  0.70203  Biso   1.000  H
  H262     1.0000 0.17419  0.95460  0.65666  Biso   1.000  H
  C265     1.0000 0.83971  0.14072  0.99240  Biso   1.000  C
  C266     1.0000 0.81080  0.12849  0.15943  Biso   1.000  C
  H263     1.0000 0.82998  0.20509  0.17800  Biso   1.000  H
  N177     1.0000 0.83600  0.09491  0.23012  Biso   1.000  N
  O87      1.0000 0.90281  0.09828  0.34641  Biso   1.000  O
  H264     1.0000 0.22459  0.86221  0.81693  Biso   1.000  H
  C267     1.0000 0.15219  0.82619  0.84280  Biso   1.000  C
  N178     1.0000 0.13551  0.82489  0.94942  Biso   1.000  N
  O88      1.0000 0.15709  0.86299  0.10170  Biso   1.000  O
  C268     1.0000 0.12162  0.88419  0.72398  Biso   1.000  C
  O89      1.0000 0.84291  0.13701  0.89830  Biso   1.000  O
  N179     1.0000 0.81099  0.11122  0.05388  Biso   1.000  N
  H265     1.0000 0.77541  0.13779  0.18307  Biso   1.000  H
  C269     1.0000 0.80779  0.05481  0.27917  Biso   1.000  C
  H266     1.0000 0.17002  0.79491  0.82200  Biso   1.000  H
  N180     1.0000 0.11270  0.84008  0.77157  Biso   1.000  N
  C270     1.0000 0.11062  0.78108  0.99332  Biso   1.000  C
  O90      1.0000 0.09719  0.90172  0.65359  Biso   1.000  O
  C271     1.0000 0.76969  0.08001  0.01474  Biso   1.000  C
  H267     1.0000 0.77290  0.06678  0.29797  Biso   1.000  H
  H268     1.0000 0.82581  0.04540  0.34334  Biso   1.000  H
  N181     1.0000 0.80269  0.01130  0.21423  Biso   1.000  N
  C272     1.0000 0.07530  0.80399  0.73250  Biso   1.000  C
  H269     1.0000 0.12629  0.75110  0.96293  Biso   1.000  H
  N182     1.0000 0.05512  0.77971  0.97651  Biso   1.000  N
  H270     1.0000 0.11741  0.78042  0.06808  Biso   1.000  H
  H271     1.0000 0.76792  0.08379  0.93921  Biso   1.000  H
  N183     1.0000 0.77599  0.02861  0.03892  Biso   1.000  N
  H272     1.0000 0.73650  0.09169  0.04352  Biso   1.000  H
  C273     1.0000 0.81890  0.96550  0.24831  Biso   1.000  C
  C274     1.0000 0.76251  0.00778  0.13839  Biso   1.000  C
  H273     1.0000 0.06291  0.81511  0.66442  Biso   1.000  H
  H274     1.0000 0.09279  0.77171  0.72313  Biso   1.000  H
  N184     1.0000 0.03169  0.79739  0.79959  Biso   1.000  N
  C275     1.0000 0.03231  0.76200  0.88241  Biso   1.000  C
  C276     1.0000 0.02138  0.78309  0.05519  Biso   1.000  C
  C277     1.0000 0.77849  0.99240  0.96431  Biso   1.000  C
  N185     1.0000 0.79521  0.93040  0.18859  Biso   1.000  N
  O91      1.0000 0.84839  0.95708  0.31939  Biso   1.000  O
  C278     1.0000 0.75761  0.95171  0.11729  Biso   1.000  C
  H275     1.0000 0.72928  0.02190  0.16449  Biso   1.000  H
  C279     1.0000 0.98252  0.81181  0.77403  Biso   1.000  C
  C280     1.0000 0.97399  0.75611  0.91127  Biso   1.000  C
  H276     1.0000 0.04771  0.72968  0.86053  Biso   1.000  H
  N186     1.0000 0.97229  0.77249  0.01773  Biso   1.000  N
  O92      1.0000 0.03080  0.79350  0.14400  Biso   1.000  O
  N187     1.0000 0.77151  0.94711  0.00990  Biso   1.000  N
  O93      1.0000 0.78509  0.00011  0.87251  Biso   1.000  O
  C281     1.0000 0.79930  0.87770  0.20840  Biso   1.000  C
  H277     1.0000 0.72191  0.93941  0.13103  Biso   1.000  H
  N188     1.0000 0.94871  0.78950  0.83973  Biso   1.000  N
  O94      1.0000 0.97128  0.83864  0.70233  Biso   1.000  O
  H278     1.0000 0.96179  0.72119  0.90329  Biso   1.000  H
  C282     1.0000 0.92948  0.76181  0.08551  Biso   1.000  C
  C283     1.0000 0.76151  0.90331  0.94888  Biso   1.000  C
  H279     1.0000 0.76421  0.86328  0.21016  Biso   1.000  H
  H280     1.0000 0.81508  0.87281  0.27679  Biso   1.000  H
  N189     1.0000 0.82998  0.85120  0.13187  Biso   1.000  N
  C284     1.0000 0.89401  0.78939  0.82469  Biso   1.000  C
  H281     1.0000 0.91609  0.72838  0.06962  Biso   1.000  H
  H282     1.0000 0.94218  0.76141  0.15712  Biso   1.000  H
  N190     1.0000 0.88799  0.79721  0.07730  Biso   1.000  N
  H283     1.0000 0.72870  0.88811  0.97221  Biso   1.000  H
  H284     1.0000 0.75700  0.91320  0.87627  Biso   1.000  H
  N191     1.0000 0.80212  0.86669  0.95502  Biso   1.000  N
  C285     1.0000 0.80729  0.83119  0.03738  Biso   1.000  C
  C286     1.0000 0.87491  0.82811  0.15651  Biso   1.000  C
  H285     1.0000 0.88159  0.75481  0.82660  Biso   1.000  H
  H286     1.0000 0.88641  0.80291  0.75568  Biso   1.000  H
  N192     1.0000 0.86568  0.81811  0.90068  Biso   1.000  N
  C287     1.0000 0.84901  0.79539  0.99823  Biso   1.000  C
  C288     1.0000 0.83411  0.85669  0.87442  Biso   1.000  C
  H287     1.0000 0.77409  0.81359  0.05127  Biso   1.000  H
  O95      1.0000 0.89911  0.83304  0.23657  Biso   1.000  O
  H288     1.0000 0.83531  0.76111  0.98803  Biso   1.000  H
  O96      1.0000 0.83512  0.87926  0.79191  Biso   1.000  O
  C289     1.0000 0.16589  0.14331  0.12558  Biso   1.000  C
  N193     1.0000 0.13432  0.18189  0.09932  Biso   1.000  N
  N194     1.0000 0.19788  0.13331  0.04498  Biso   1.000  N
  O97      1.0000 0.16488  0.12074  0.20809  Biso   1.000  O
  C290     1.0000 0.10599  0.21061  0.17531  Biso   1.000  C
  C291     1.0000 0.15099  0.20461  0.00177  Biso   1.000  C
  C292     1.0000 0.23849  0.09669  0.05112  Biso   1.000  C
  C293     1.0000 0.19271  0.16881  0.96262  Biso   1.000  C
  H289     1.0000 0.11841  0.24519  0.17340  Biso   1.000  H
  H290     1.0000 0.11359  0.19709  0.24432  Biso   1.000  H
  N195     1.0000 0.05129  0.21050  0.16027  Biso   1.000  N
  H291     1.0000 0.16469  0.23889  0.01197  Biso   1.000  H
  N196     1.0000 0.11201  0.20279  0.92270  Biso   1.000  N
  H292     1.0000 0.27130  0.11189  0.02779  Biso   1.000  H
  H293     1.0000 0.24300  0.08680  0.12373  Biso   1.000  H
  N197     1.0000 0.22849  0.05289  0.99010  Biso   1.000  N
  H294     1.0000 0.22591  0.18641  0.94873  Biso   1.000  H
  N198     1.0000 0.17002  0.14880  0.86813  Biso   1.000  N
  C294     1.0000 0.02601  0.24389  0.08873  Biso   1.000  C
  C295     1.0000 0.01748  0.18819  0.22597  Biso   1.000  C
  C296     1.0000 0.07052  0.23819  0.91449  Biso   1.000  C
  C297     1.0000 0.12509  0.17189  0.84349  Biso   1.000  C
  C298     1.0000 0.22151  0.00760  0.03569  Biso   1.000  C
  C299     1.0000 0.24239  0.04829  0.88271  Biso   1.000  C
  C300     1.0000 0.20070  0.12230  0.79160  Biso   1.000  C
  H295     1.0000 0.03821  0.27881  0.09671  Biso   1.000  H
  C301     1.0000 0.96769  0.23800  0.11759  Biso   1.000  C
  N199     1.0000 0.02771  0.22751  0.98227  Biso   1.000  N
  O98      1.0000 0.02872  0.16136  0.29767  Biso   1.000  O
  N200     1.0000 0.96831  0.20261  0.20041  Biso   1.000  N
  H296     1.0000 0.08391  0.27162  0.93038  Biso   1.000  H
  H297     1.0000 0.05782  0.23859  0.84288  Biso   1.000  H
  O99      1.0000 0.10089  0.16696  0.76343  Biso   1.000  O
  N201     1.0000 0.22401  0.97139  0.96108  Biso   1.000  N
  O100     1.0000 0.21491  0.99989  0.12749  Biso   1.000  O
  C302     1.0000 0.23749  0.99222  0.86161  Biso   1.000  C
  H298     1.0000 0.27809  0.06059  0.86897  Biso   1.000  H
  N202     1.0000 0.20479  0.06960  0.81141  Biso   1.000  N
  H299     1.0000 0.23579  0.13672  0.78984  Biso   1.000  H
  H300     1.0000 0.18492  0.12719  0.72321  Biso   1.000  H
  H301     1.0000 0.95229  0.27032  0.13947  Biso   1.000  H
  N203     1.0000 0.94488  0.22029  0.02349  Biso   1.000  N
  C303     1.0000 0.97862  0.21691  0.94481  Biso   1.000  C
  C304     1.0000 0.92470  0.19601  0.26750  Biso   1.000  C
  C305     1.0000 0.23031  0.91999  0.98526  Biso   1.000  C
  H302     1.0000 0.27072  0.97810  0.83551  Biso   1.000  H
  N204     1.0000 0.19731  0.98870  0.78577  Biso   1.000  N
  C306     1.0000 0.18110  0.03450  0.75169  Biso   1.000  C
  C307     1.0000 0.88938  0.21892  0.00668  Biso   1.000  C
  O101     1.0000 0.96920  0.20650  0.85600  Biso   1.000  O
  H303     1.0000 0.93709  0.18489  0.33558  Biso   1.000  H
  H304     1.0000 0.90721  0.22829  0.27687  Biso   1.000  H
  N205     1.0000 0.88730  0.15992  0.22843  Biso   1.000  N
  H305     1.0000 0.26350  0.90831  0.95648  Biso   1.000  H
  N206     1.0000 0.18901  0.88878  0.94612  Biso   1.000  N
  H306     1.0000 0.23208  0.91621  0.06079  Biso   1.000  H
  C308     1.0000 0.19221  0.94519  0.72083  Biso   1.000  C
  O102     1.0000 0.15161  0.04292  0.68061  Biso   1.000  O
  H307     1.0000 0.88259  0.21958  0.93192  Biso   1.000  H
  H308     1.0000 0.87371  0.24890  0.03707  Biso   1.000  H
  N207     1.0000 0.86449  0.17511  0.05058  Biso   1.000  N
  C309     1.0000 0.84781  0.17381  0.15720  Biso   1.000  C
  C310     1.0000 0.87838  0.11581  0.27602  Biso   1.000  C
  C311     1.0000 0.18920  0.87151  0.84057  Biso   1.000  C
  C312     1.0000 0.16029  0.85928  0.00760  Biso   1.000  C
  N208     1.0000 0.16400  0.90509  0.76988  Biso   1.000  N
  H309     1.0000 0.22710  0.93322  0.70203  Biso   1.000  H
  H310     1.0000 0.17419  0.95460  0.65666  Biso   1.000  H
  C313     1.0000 0.83971  0.14072  0.99240  Biso   1.000  C
  C314     1.0000 0.81080  0.12849  0.15943  Biso   1.000  C
  H311     1.0000 0.82998  0.20509  0.17800  Biso   1.000  H
  N209     1.0000 0.83600  0.09491  0.23012  Biso   1.000  N
  O103     1.0000 0.90281  0.09828  0.34641  Biso   1.000  O
  H312     1.0000 0.22459  0.86221  0.81693  Biso   1.000  H
  C315     1.0000 0.15219  0.82619  0.84280  Biso   1.000  C
  N210     1.0000 0.13551  0.82489  0.94942  Biso   1.000  N
  O104     1.0000 0.15709  0.86299  0.10170  Biso   1.000  O
  C316     1.0000 0.12162  0.88419  0.72398  Biso   1.000  C
  O105     1.0000 0.84291  0.13701  0.89830  Biso   1.000  O
  N211     1.0000 0.81099  0.11122  0.05388  Biso   1.000  N
  H313     1.0000 0.77541  0.13779  0.18307  Biso   1.000  H
  C317     1.0000 0.80779  0.05481  0.27917  Biso   1.000  C
  H314     1.0000 0.17002  0.79491  0.82200  Biso   1.000  H
  N212     1.0000 0.11270  0.84008  0.77157  Biso   1.000  N
  C318     1.0000 0.11062  0.78108  0.99332  Biso   1.000  C
  O106     1.0000 0.09719  0.90172  0.65359  Biso   1.000  O
  C319     1.0000 0.76969  0.08001  0.01474  Biso   1.000  C
  H315     1.0000 0.77290  0.06678  0.29797  Biso   1.000  H
  H316     1.0000 0.82581  0.04540  0.34334  Biso   1.000  H
  N213     1.0000 0.80269  0.01130  0.21423  Biso   1.000  N
  C320     1.0000 0.07530  0.80399  0.73250  Biso   1.000  C
  H317     1.0000 0.12629  0.75110  0.96293  Biso   1.000  H
  N214     1.0000 0.05512  0.77971  0.97651  Biso   1.000  N
  H318     1.0000 0.11741  0.78042  0.06808  Biso   1.000  H
  H319     1.0000 0.76792  0.08379  0.93921  Biso   1.000  H
  N215     1.0000 0.77599  0.02861  0.03892  Biso   1.000  N
  H320     1.0000 0.73650  0.09169  0.04352  Biso   1.000  H
  C321     1.0000 0.81890  0.96550  0.24831  Biso   1.000  C
  C322     1.0000 0.76251  0.00778  0.13839  Biso   1.000  C
  H321     1.0000 0.06291  0.81511  0.66442  Biso   1.000  H
  H322     1.0000 0.09279  0.77171  0.72313  Biso   1.000  H
  N216     1.0000 0.03169  0.79739  0.79959  Biso   1.000  N
  C323     1.0000 0.03231  0.76200  0.88241  Biso   1.000  C
  C324     1.0000 0.02138  0.78309  0.05519  Biso   1.000  C
  C325     1.0000 0.77849  0.99240  0.96431  Biso   1.000  C
  N217     1.0000 0.79521  0.93040  0.18859  Biso   1.000  N
  O107     1.0000 0.84839  0.95708  0.31939  Biso   1.000  O
  C326     1.0000 0.75761  0.95171  0.11729  Biso   1.000  C
  H323     1.0000 0.72928  0.02190  0.16449  Biso   1.000  H
  C327     1.0000 0.98252  0.81181  0.77403  Biso   1.000  C
  C328     1.0000 0.97399  0.75611  0.91127  Biso   1.000  C
  H324     1.0000 0.04771  0.72968  0.86053  Biso   1.000  H
  N218     1.0000 0.97229  0.77249  0.01773  Biso   1.000  N
  O108     1.0000 0.03080  0.79350  0.14400  Biso   1.000  O
  N219     1.0000 0.77151  0.94711  0.00990  Biso   1.000  N
  O109     1.0000 0.78509  0.00011  0.87251  Biso   1.000  O
  C329     1.0000 0.79930  0.87770  0.20840  Biso   1.000  C
  H325     1.0000 0.72191  0.93941  0.13103  Biso   1.000  H
  N220     1.0000 0.94871  0.78950  0.83973  Biso   1.000  N
  O110     1.0000 0.97128  0.83864  0.70233  Biso   1.000  O
  H326     1.0000 0.96179  0.72119  0.90329  Biso   1.000  H
  C330     1.0000 0.92948  0.76181  0.08551  Biso   1.000  C
  C331     1.0000 0.76151  0.90331  0.94888  Biso   1.000  C
  H327     1.0000 0.76421  0.86328  0.21016  Biso   1.000  H
  H328     1.0000 0.81508  0.87281  0.27679  Biso   1.000  H
  N221     1.0000 0.82998  0.85120  0.13187  Biso   1.000  N
  C332     1.0000 0.89401  0.78939  0.82469  Biso   1.000  C
  H329     1.0000 0.91609  0.72838  0.06962  Biso   1.000  H
  H330     1.0000 0.94218  0.76141  0.15712  Biso   1.000  H
  N222     1.0000 0.88799  0.79721  0.07730  Biso   1.000  N
  H331     1.0000 0.72870  0.88811  0.97221  Biso   1.000  H
  H332     1.0000 0.75700  0.91320  0.87627  Biso   1.000  H
  N223     1.0000 0.80212  0.86669  0.95502  Biso   1.000  N
  C333     1.0000 0.80729  0.83119  0.03738  Biso   1.000  C
  C334     1.0000 0.87491  0.82811  0.15651  Biso   1.000  C
  H333     1.0000 0.88159  0.75481  0.82660  Biso   1.000  H
  H334     1.0000 0.88641  0.80291  0.75568  Biso   1.000  H
  N224     1.0000 0.86568  0.81811  0.90068  Biso   1.000  N
  C335     1.0000 0.84901  0.79539  0.99823  Biso   1.000  C
  C336     1.0000 0.83411  0.85669  0.87442  Biso   1.000  C
  H335     1.0000 0.77409  0.81359  0.05127  Biso   1.000  H
  O111     1.0000 0.89911  0.83304  0.23657  Biso   1.000  O
  H336     1.0000 0.83531  0.76111  0.98803  Biso   1.000  H
  O112     1.0000 0.83512  0.87926  0.79191  Biso   1.000  O
  C337     1.0000 0.16589  0.14331  0.12558  Biso   1.000  C
  N225     1.0000 0.13432  0.18189  0.09932  Biso   1.000  N
  N226     1.0000 0.19788  0.13331  0.04498  Biso   1.000  N
  O113     1.0000 0.16488  0.12074  0.20809  Biso   1.000  O
  C338     1.0000 0.10599  0.21061  0.17531  Biso   1.000  C
  C339     1.0000 0.15099  0.20461  0.00177  Biso   1.000  C
  C340     1.0000 0.23849  0.09669  0.05112  Biso   1.000  C
  C341     1.0000 0.19271  0.16881  0.96262  Biso   1.000  C
  H337     1.0000 0.11841  0.24519  0.17340  Biso   1.000  H
  H338     1.0000 0.11359  0.19709  0.24432  Biso   1.000  H
  N227     1.0000 0.05129  0.21050  0.16027  Biso   1.000  N
  H339     1.0000 0.16469  0.23889  0.01197  Biso   1.000  H
  N228     1.0000 0.11201  0.20279  0.92270  Biso   1.000  N
  H340     1.0000 0.27130  0.11189  0.02779  Biso   1.000  H
  H341     1.0000 0.24300  0.08680  0.12373  Biso   1.000  H
  N229     1.0000 0.22849  0.05289  0.99010  Biso   1.000  N
  H342     1.0000 0.22591  0.18641  0.94873  Biso   1.000  H
  N230     1.0000 0.17002  0.14880  0.86813  Biso   1.000  N
  C342     1.0000 0.02601  0.24389  0.08873  Biso   1.000  C
  C343     1.0000 0.01748  0.18819  0.22597  Biso   1.000  C
  C344     1.0000 0.07052  0.23819  0.91449  Biso   1.000  C
  C345     1.0000 0.12509  0.17189  0.84349  Biso   1.000  C
  C346     1.0000 0.22151  0.00760  0.03569  Biso   1.000  C
  C347     1.0000 0.24239  0.04829  0.88271  Biso   1.000  C
  C348     1.0000 0.20070  0.12230  0.79160  Biso   1.000  C
  H343     1.0000 0.03821  0.27881  0.09671  Biso   1.000  H
  C349     1.0000 0.96769  0.23800  0.11759  Biso   1.000  C
  N231     1.0000 0.02771  0.22751  0.98227  Biso   1.000  N
  O114     1.0000 0.02872  0.16136  0.29767  Biso   1.000  O
  N232     1.0000 0.96831  0.20261  0.20041  Biso   1.000  N
  H344     1.0000 0.08391  0.27162  0.93038  Biso   1.000  H
  H345     1.0000 0.05782  0.23859  0.84288  Biso   1.000  H
  O115     1.0000 0.10089  0.16696  0.76343  Biso   1.000  O
  N233     1.0000 0.22401  0.97139  0.96108  Biso   1.000  N
  O116     1.0000 0.21491  0.99989  0.12749  Biso   1.000  O
  C350     1.0000 0.23749  0.99222  0.86161  Biso   1.000  C
  H346     1.0000 0.27809  0.06059  0.86897  Biso   1.000  H
  N234     1.0000 0.20479  0.06960  0.81141  Biso   1.000  N
  H347     1.0000 0.23579  0.13672  0.78984  Biso   1.000  H
  H348     1.0000 0.18492  0.12719  0.72321  Biso   1.000  H
  H349     1.0000 0.95229  0.27032  0.13947  Biso   1.000  H
  N235     1.0000 0.94488  0.22029  0.02349  Biso   1.000  N
  C351     1.0000 0.97862  0.21691  0.94481  Biso   1.000  C
  C352     1.0000 0.92470  0.19601  0.26750  Biso   1.000  C
  C353     1.0000 0.23031  0.91999  0.98526  Biso   1.000  C
  H350     1.0000 0.27072  0.97810  0.83551  Biso   1.000  H
  N236     1.0000 0.19731  0.98870  0.78577  Biso   1.000  N
  C354     1.0000 0.18110  0.03450  0.75169  Biso   1.000  C
  C355     1.0000 0.88938  0.21892  0.00668  Biso   1.000  C
  O117     1.0000 0.96920  0.20650  0.85600  Biso   1.000  O
  H351     1.0000 0.93709  0.18489  0.33558  Biso   1.000  H
  H352     1.0000 0.90721  0.22829  0.27687  Biso   1.000  H
  N237     1.0000 0.88730  0.15992  0.22843  Biso   1.000  N
  H353     1.0000 0.26350  0.90831  0.95648  Biso   1.000  H
  N238     1.0000 0.18901  0.88878  0.94612  Biso   1.000  N
  H354     1.0000 0.23208  0.91621  0.06079  Biso   1.000  H
  C356     1.0000 0.19221  0.94519  0.72083  Biso   1.000  C
  O118     1.0000 0.15161  0.04292  0.68061  Biso   1.000  O
  H355     1.0000 0.88259  0.21958  0.93192  Biso   1.000  H
  H356     1.0000 0.87371  0.24890  0.03707  Biso   1.000  H
  N239     1.0000 0.86449  0.17511  0.05058  Biso   1.000  N
  C357     1.0000 0.84781  0.17381  0.15720  Biso   1.000  C
  C358     1.0000 0.87838  0.11581  0.27602  Biso   1.000  C
  C359     1.0000 0.18920  0.87151  0.84057  Biso   1.000  C
  C360     1.0000 0.16029  0.85928  0.00760  Biso   1.000  C
  N240     1.0000 0.16400  0.90509  0.76988  Biso   1.000  N
  H357     1.0000 0.22710  0.93322  0.70203  Biso   1.000  H
  H358     1.0000 0.17419  0.95460  0.65666  Biso   1.000  H
  C361     1.0000 0.83971  0.14072  0.99240  Biso   1.000  C
  C362     1.0000 0.81080  0.12849  0.15943  Biso   1.000  C
  H359     1.0000 0.82998  0.20509  0.17800  Biso   1.000  H
  N241     1.0000 0.83600  0.09491  0.23012  Biso   1.000  N
  O119     1.0000 0.90281  0.09828  0.34641  Biso   1.000  O
  H360     1.0000 0.22459  0.86221  0.81693  Biso   1.000  H
  C363     1.0000 0.15219  0.82619  0.84280  Biso   1.000  C
  N242     1.0000 0.13551  0.82489  0.94942  Biso   1.000  N
  O120     1.0000 0.15709  0.86299  0.10170  Biso   1.000  O
  C364     1.0000 0.12162  0.88419  0.72398  Biso   1.000  C
  O121     1.0000 0.84291  0.13701  0.89830  Biso   1.000  O
  N243     1.0000 0.81099  0.11122  0.05388  Biso   1.000  N
  H361     1.0000 0.77541  0.13779  0.18307  Biso   1.000  H
  C365     1.0000 0.80779  0.05481  0.27917  Biso   1.000  C
  H362     1.0000 0.17002  0.79491  0.82200  Biso   1.000  H
  N244     1.0000 0.11270  0.84008  0.77157  Biso   1.000  N
  C366     1.0000 0.11062  0.78108  0.99332  Biso   1.000  C
  O122     1.0000 0.09719  0.90172  0.65359  Biso   1.000  O
  C367     1.0000 0.76969  0.08001  0.01474  Biso   1.000  C
  H363     1.0000 0.77290  0.06678  0.29797  Biso   1.000  H
  H364     1.0000 0.82581  0.04540  0.34334  Biso   1.000  H
  N245     1.0000 0.80269  0.01130  0.21423  Biso   1.000  N
  C368     1.0000 0.07530  0.80399  0.73250  Biso   1.000  C
  H365     1.0000 0.12629  0.75110  0.96293  Biso   1.000  H
  N246     1.0000 0.05512  0.77971  0.97651  Biso   1.000  N
  H366     1.0000 0.11741  0.78042  0.06808  Biso   1.000  H
  H367     1.0000 0.76792  0.08379  0.93921  Biso   1.000  H
  N247     1.0000 0.77599  0.02861  0.03892  Biso   1.000  N
  H368     1.0000 0.73650  0.09169  0.04352  Biso   1.000  H
  C369     1.0000 0.81890  0.96550  0.24831  Biso   1.000  C
  C370     1.0000 0.76251  0.00778  0.13839  Biso   1.000  C
  H369     1.0000 0.06291  0.81511  0.66442  Biso   1.000  H
  H370     1.0000 0.09279  0.77171  0.72313  Biso   1.000  H
  N248     1.0000 0.03169  0.79739  0.79959  Biso   1.000  N
  C371     1.0000 0.03231  0.76200  0.88241  Biso   1.000  C
  C372     1.0000 0.02138  0.78309  0.05519  Biso   1.000  C
  C373     1.0000 0.77849  0.99240  0.96431  Biso   1.000  C
  N249     1.0000 0.79521  0.93040  0.18859  Biso   1.000  N
  O123     1.0000 0.84839  0.95708  0.31939  Biso   1.000  O
  C374     1.0000 0.75761  0.95171  0.11729  Biso   1.000  C
  H371     1.0000 0.72928  0.02190  0.16449  Biso   1.000  H
  C375     1.0000 0.98252  0.81181  0.77403  Biso   1.000  C
  C376     1.0000 0.97399  0.75611  0.91127  Biso   1.000  C
  H372     1.0000 0.04771  0.72968  0.86053  Biso   1.000  H
  N250     1.0000 0.97229  0.77249  0.01773  Biso   1.000  N
  O124     1.0000 0.03080  0.79350  0.14400  Biso   1.000  O
  N251     1.0000 0.77151  0.94711  0.00990  Biso   1.000  N
  O125     1.0000 0.78509  0.00011  0.87251  Biso   1.000  O
  C377     1.0000 0.79930  0.87770  0.20840  Biso   1.000  C
  H373     1.0000 0.72191  0.93941  0.13103  Biso   1.000  H
  N252     1.0000 0.94871  0.78950  0.83973  Biso   1.000  N
  O126     1.0000 0.97128  0.83864  0.70233  Biso   1.000  O
  H374     1.0000 0.96179  0.72119  0.90329  Biso   1.000  H
  C378     1.0000 0.92948  0.76181  0.08551  Biso   1.000  C
  C379     1.0000 0.76151  0.90331  0.94888  Biso   1.000  C
  H375     1.0000 0.76421  0.86328  0.21016  Biso   1.000  H
  H376     1.0000 0.81508  0.87281  0.27679  Biso   1.000  H
  N253     1.0000 0.82998  0.85120  0.13187  Biso   1.000  N
  C380     1.0000 0.89401  0.78939  0.82469  Biso   1.000  C
  H377     1.0000 0.91609  0.72838  0.06962  Biso   1.000  H
  H378     1.0000 0.94218  0.76141  0.15712  Biso   1.000  H
  N254     1.0000 0.88799  0.79721  0.07730  Biso   1.000  N
  H379     1.0000 0.72870  0.88811  0.97221  Biso   1.000  H
  H380     1.0000 0.75700  0.91320  0.87627  Biso   1.000  H
  N255     1.0000 0.80212  0.86669  0.95502  Biso   1.000  N
  C381     1.0000 0.80729  0.83119  0.03738  Biso   1.000  C
  C382     1.0000 0.87491  0.82811  0.15651  Biso   1.000  C
  H381     1.0000 0.88159  0.75481  0.82660  Biso   1.000  H
  H382     1.0000 0.88641  0.80291  0.75568  Biso   1.000  H
  N256     1.0000 0.86568  0.81811  0.90068  Biso   1.000  N
  C383     1.0000 0.84901  0.79539  0.99823  Biso   1.000  C
  C384     1.0000 0.83411  0.85669  0.87442  Biso   1.000  C
  H383     1.0000 0.77409  0.81359  0.05127  Biso   1.000  H
  O127     1.0000 0.89911  0.83304  0.23657  Biso   1.000  O
  H384     1.0000 0.83531  0.76111  0.98803  Biso   1.000  H
  O128     1.0000 0.83512  0.87926  0.79191  Biso   1.000  O
  C385     1.0000 0.29932  0.12230  0.29160  Biso   1.000  C
  N257     1.0000 0.33000  0.14880  0.36813  Biso   1.000  N
  H385     1.0000 0.26419  0.13672  0.28984  Biso   1.000  H
  H386     1.0000 0.31510  0.12719  0.22321  Biso   1.000  H
  N258     1.0000 0.29519  0.06960  0.31141  Biso   1.000  N
  C386     1.0000 0.30731  0.16881  0.46262  Biso   1.000  C
  C387     1.0000 0.37489  0.17189  0.34349  Biso   1.000  C
  C388     1.0000 0.25759  0.04829  0.38271  Biso   1.000  C
  C389     1.0000 0.31889  0.03450  0.25169  Biso   1.000  C
  C390     1.0000 0.34899  0.20461  0.50177  Biso   1.000  C
  H387     1.0000 0.27411  0.18641  0.44873  Biso   1.000  H
  N259     1.0000 0.30210  0.13331  0.54498  Biso   1.000  N
  N260     1.0000 0.38801  0.20279  0.42270  Biso   1.000  N
  O129     1.0000 0.39909  0.16696  0.26343  Biso   1.000  O
  N261     1.0000 0.27149  0.05289  0.49010  Biso   1.000  N
  H388     1.0000 0.22189  0.06059  0.36897  Biso   1.000  H
  C391     1.0000 0.26250  0.99222  0.36161  Biso   1.000  C
  O130     1.0000 0.34841  0.04292  0.18061  Biso   1.000  O
  N262     1.0000 0.30271  0.98870  0.28577  Biso   1.000  N
  H389     1.0000 0.33529  0.23889  0.51197  Biso   1.000  H
  N263     1.0000 0.36570  0.18189  0.59932  Biso   1.000  N
  C392     1.0000 0.33409  0.14331  0.62558  Biso   1.000  C
  C393     1.0000 0.26149  0.09669  0.55112  Biso   1.000  C
  C394     1.0000 0.42950  0.23819  0.41449  Biso   1.000  C
  C395     1.0000 0.27851  0.00760  0.53569  Biso   1.000  C
  H390     1.0000 0.22930  0.97810  0.33551  Biso   1.000  H
  N264     1.0000 0.27600  0.97139  0.46108  Biso   1.000  N
  C396     1.0000 0.30781  0.94519  0.22083  Biso   1.000  C
  C397     1.0000 0.39399  0.21061  0.67531  Biso   1.000  C
  O131     1.0000 0.33513  0.12074  0.70809  Biso   1.000  O
  H391     1.0000 0.22869  0.11189  0.52779  Biso   1.000  H
  H392     1.0000 0.25701  0.08680  0.62373  Biso   1.000  H
  H393     1.0000 0.41611  0.27162  0.43038  Biso   1.000  H
  H394     1.0000 0.44220  0.23859  0.34288  Biso   1.000  H
  N265     1.0000 0.47231  0.22751  0.48227  Biso   1.000  N
  O132     1.0000 0.28511  0.99989  0.62749  Biso   1.000  O
  C398     1.0000 0.26971  0.91999  0.48526  Biso   1.000  C
  H395     1.0000 0.27292  0.93322  0.20203  Biso   1.000  H
  H396     1.0000 0.32579  0.95460  0.15666  Biso   1.000  H
  N266     1.0000 0.33598  0.90509  0.26988  Biso   1.000  N
  H397     1.0000 0.38160  0.24519  0.67340  Biso   1.000  H
  H398     1.0000 0.38639  0.19709  0.74432  Biso   1.000  H
  N267     1.0000 0.44869  0.21050  0.66027  Biso   1.000  N
  C399     1.0000 0.47401  0.24389  0.58873  Biso   1.000  C
  C400     1.0000 0.52140  0.21691  0.44481  Biso   1.000  C
  H399     1.0000 0.26790  0.91621  0.56079  Biso   1.000  H
  H400     1.0000 0.23648  0.90831  0.45648  Biso   1.000  H
  N268     1.0000 0.31101  0.88878  0.44612  Biso   1.000  N
  C401     1.0000 0.31082  0.87151  0.34057  Biso   1.000  C
  C402     1.0000 0.37840  0.88419  0.22398  Biso   1.000  C
  C403     1.0000 0.48250  0.18819  0.72597  Biso   1.000  C
  C404     1.0000 0.53229  0.23800  0.61759  Biso   1.000  C
  H401     1.0000 0.46181  0.27881  0.59671  Biso   1.000  H
  N269     1.0000 0.55510  0.22029  0.52349  Biso   1.000  N
  O133     1.0000 0.53078  0.20650  0.35600  Biso   1.000  O
  C405     1.0000 0.33969  0.85928  0.50760  Biso   1.000  C
  H402     1.0000 0.27539  0.86221  0.31693  Biso   1.000  H
  C406     1.0000 0.34779  0.82619  0.34280  Biso   1.000  C
  N270     1.0000 0.38732  0.84008  0.27157  Biso   1.000  N
  O134     1.0000 0.40279  0.90172  0.15359  Biso   1.000  O
  N271     1.0000 0.53171  0.20261  0.70041  Biso   1.000  N
  O135     1.0000 0.47130  0.16136  0.79767  Biso   1.000  O
  H403     1.0000 0.54769  0.27032  0.63947  Biso   1.000  H
  C407     1.0000 0.61060  0.21892  0.50668  Biso   1.000  C
  N272     1.0000 0.36451  0.82489  0.44942  Biso   1.000  N
  O136     1.0000 0.34289  0.86299  0.60170  Biso   1.000  O
  H404     1.0000 0.33000  0.79491  0.32200  Biso   1.000  H
  C408     1.0000 0.42472  0.80399  0.23250  Biso   1.000  C
  C409     1.0000 0.57528  0.19601  0.76750  Biso   1.000  C
  H405     1.0000 0.62631  0.24890  0.53707  Biso   1.000  H
  H406     1.0000 0.61739  0.21958  0.43192  Biso   1.000  H
  N273     1.0000 0.63549  0.17511  0.55058  Biso   1.000  N
  C410     1.0000 0.38940  0.78108  0.49332  Biso   1.000  C
  H407     1.0000 0.43711  0.81511  0.16442  Biso   1.000  H
  H408     1.0000 0.40719  0.77171  0.22313  Biso   1.000  H
  N274     1.0000 0.46829  0.79739  0.29959  Biso   1.000  N
  H409     1.0000 0.56289  0.18489  0.83558  Biso   1.000  H
  H410     1.0000 0.59281  0.22829  0.77687  Biso   1.000  H
  N275     1.0000 0.61268  0.15992  0.72843  Biso   1.000  N
  C411     1.0000 0.65221  0.17381  0.65720  Biso   1.000  C
  C412     1.0000 0.66031  0.14072  0.49240  Biso   1.000  C
  H411     1.0000 0.37369  0.75110  0.46293  Biso   1.000  H
  H412     1.0000 0.38261  0.78042  0.56808  Biso   1.000  H
  N276     1.0000 0.44490  0.77971  0.47651  Biso   1.000  N
  C413     1.0000 0.46771  0.76200  0.38241  Biso   1.000  C
  C414     1.0000 0.51750  0.81181  0.27403  Biso   1.000  C
  C415     1.0000 0.62160  0.11581  0.77602  Biso   1.000  C
  C416     1.0000 0.68918  0.12849  0.65943  Biso   1.000  C
  H413     1.0000 0.67000  0.20509  0.67800  Biso   1.000  H
  N277     1.0000 0.68899  0.11122  0.55388  Biso   1.000  N
  O137     1.0000 0.65711  0.13701  0.39830  Biso   1.000  O
  C417     1.0000 0.47860  0.78309  0.55519  Biso   1.000  C
  H414     1.0000 0.45231  0.72968  0.36053  Biso   1.000  H
  C418     1.0000 0.52599  0.75611  0.41127  Biso   1.000  C
  N278     1.0000 0.55131  0.78950  0.33973  Biso   1.000  N
  O138     1.0000 0.52870  0.83864  0.20233  Biso   1.000  O
  N279     1.0000 0.66402  0.09491  0.73012  Biso   1.000  N
  O139     1.0000 0.59721  0.09828  0.84641  Biso   1.000  O
  H415     1.0000 0.72461  0.13779  0.68307  Biso   1.000  H
  C419     1.0000 0.73029  0.08001  0.51474  Biso   1.000  C
  N280     1.0000 0.52769  0.77249  0.51773  Biso   1.000  N
  O140     1.0000 0.46922  0.79350  0.64400  Biso   1.000  O
  H416     1.0000 0.53819  0.72119  0.40329  Biso   1.000  H
  C420     1.0000 0.60601  0.78939  0.32469  Biso   1.000  C
  C421     1.0000 0.69219  0.05481  0.77917  Biso   1.000  C
  H417     1.0000 0.73210  0.08379  0.43921  Biso   1.000  H
  H418     1.0000 0.76352  0.09169  0.54352  Biso   1.000  H
  N281     1.0000 0.72400  0.02861  0.53892  Biso   1.000  N
  C422     1.0000 0.57050  0.76181  0.58551  Biso   1.000  C
  H419     1.0000 0.61840  0.75481  0.32660  Biso   1.000  H
  H420     1.0000 0.61361  0.80291  0.25568  Biso   1.000  H
  N282     1.0000 0.63430  0.81811  0.40068  Biso   1.000  N
  H421     1.0000 0.72708  0.06678  0.79797  Biso   1.000  H
  H422     1.0000 0.67421  0.04540  0.84334  Biso   1.000  H
  N283     1.0000 0.69729  0.01130  0.71423  Biso   1.000  N
  C423     1.0000 0.73750  0.00778  0.63839  Biso   1.000  C
  C424     1.0000 0.72149  0.99240  0.46431  Biso   1.000  C
  H423     1.0000 0.58389  0.72838  0.56962  Biso   1.000  H
  H424     1.0000 0.55780  0.76141  0.65712  Biso   1.000  H
  N284     1.0000 0.61199  0.79721  0.57730  Biso   1.000  N
  C425     1.0000 0.65101  0.79539  0.49823  Biso   1.000  C
  C426     1.0000 0.66591  0.85669  0.37442  Biso   1.000  C
  C427     1.0000 0.68111  0.96550  0.74831  Biso   1.000  C
  H425     1.0000 0.77070  0.02190  0.66449  Biso   1.000  H
  C428     1.0000 0.74241  0.95171  0.61729  Biso   1.000  C
  O141     1.0000 0.71489  0.00011  0.37251  Biso   1.000  O
  N285     1.0000 0.72851  0.94711  0.50990  Biso   1.000  N
  C429     1.0000 0.62511  0.82811  0.65651  Biso   1.000  C
  H426     1.0000 0.66471  0.76111  0.48803  Biso   1.000  H
  C430     1.0000 0.69269  0.83119  0.53738  Biso   1.000  C
  N286     1.0000 0.69790  0.86669  0.45502  Biso   1.000  N
  O142     1.0000 0.66487  0.87926  0.29191  Biso   1.000  O
  N287     1.0000 0.70481  0.93040  0.68859  Biso   1.000  N
  O143     1.0000 0.65159  0.95708  0.81939  Biso   1.000  O
  H427     1.0000 0.77811  0.93941  0.63103  Biso   1.000  H
  C431     1.0000 0.73851  0.90331  0.44888  Biso   1.000  C
  N288     1.0000 0.67000  0.85120  0.63187  Biso   1.000  N
  O144     1.0000 0.60091  0.83304  0.73657  Biso   1.000  O
  H428     1.0000 0.72589  0.81359  0.55127  Biso   1.000  H
  C432     1.0000 0.70068  0.87770  0.70840  Biso   1.000  C
  H429     1.0000 0.77131  0.88811  0.47221  Biso   1.000  H
  H430     1.0000 0.74299  0.91320  0.37627  Biso   1.000  H
  H431     1.0000 0.73581  0.86328  0.71016  Biso   1.000  H
  H432     1.0000 0.68490  0.87281  0.77679  Biso   1.000  H
  C433     1.0000 0.29932  0.12230  0.29160  Biso   1.000  C
  N289     1.0000 0.33000  0.14880  0.36813  Biso   1.000  N
  H433     1.0000 0.26419  0.13672  0.28984  Biso   1.000  H
  H434     1.0000 0.31510  0.12719  0.22321  Biso   1.000  H
  N290     1.0000 0.29519  0.06960  0.31141  Biso   1.000  N
  C434     1.0000 0.30731  0.16881  0.46262  Biso   1.000  C
  C435     1.0000 0.37489  0.17189  0.34349  Biso   1.000  C
  C436     1.0000 0.25759  0.04829  0.38271  Biso   1.000  C
  C437     1.0000 0.31889  0.03450  0.25169  Biso   1.000  C
  C438     1.0000 0.34899  0.20461  0.50177  Biso   1.000  C
  H435     1.0000 0.27411  0.18641  0.44873  Biso   1.000  H
  N291     1.0000 0.30210  0.13331  0.54498  Biso   1.000  N
  N292     1.0000 0.38801  0.20279  0.42270  Biso   1.000  N
  O145     1.0000 0.39909  0.16696  0.26343  Biso   1.000  O
  N293     1.0000 0.27149  0.05289  0.49010  Biso   1.000  N
  H436     1.0000 0.22189  0.06059  0.36897  Biso   1.000  H
  C439     1.0000 0.26250  0.99222  0.36161  Biso   1.000  C
  O146     1.0000 0.34841  0.04292  0.18061  Biso   1.000  O
  N294     1.0000 0.30271  0.98870  0.28577  Biso   1.000  N
  H437     1.0000 0.33529  0.23889  0.51197  Biso   1.000  H
  N295     1.0000 0.36570  0.18189  0.59932  Biso   1.000  N
  C440     1.0000 0.33409  0.14331  0.62558  Biso   1.000  C
  C441     1.0000 0.26149  0.09669  0.55112  Biso   1.000  C
  C442     1.0000 0.42950  0.23819  0.41449  Biso   1.000  C
  C443     1.0000 0.27851  0.00760  0.53569  Biso   1.000  C
  H438     1.0000 0.22930  0.97810  0.33551  Biso   1.000  H
  N296     1.0000 0.27600  0.97139  0.46108  Biso   1.000  N
  C444     1.0000 0.30781  0.94519  0.22083  Biso   1.000  C
  C445     1.0000 0.39399  0.21061  0.67531  Biso   1.000  C
  O147     1.0000 0.33513  0.12074  0.70809  Biso   1.000  O
  H439     1.0000 0.22869  0.11189  0.52779  Biso   1.000  H
  H440     1.0000 0.25701  0.08680  0.62373  Biso   1.000  H
  H441     1.0000 0.41611  0.27162  0.43038  Biso   1.000  H
  H442     1.0000 0.44220  0.23859  0.34288  Biso   1.000  H
  N297     1.0000 0.47231  0.22751  0.48227  Biso   1.000  N
  O148     1.0000 0.28511  0.99989  0.62749  Biso   1.000  O
  C446     1.0000 0.26971  0.91999  0.48526  Biso   1.000  C
  H443     1.0000 0.27292  0.93322  0.20203  Biso   1.000  H
  H444     1.0000 0.32579  0.95460  0.15666  Biso   1.000  H
  N298     1.0000 0.33598  0.90509  0.26988  Biso   1.000  N
  H445     1.0000 0.38160  0.24519  0.67340  Biso   1.000  H
  H446     1.0000 0.38639  0.19709  0.74432  Biso   1.000  H
  N299     1.0000 0.44869  0.21050  0.66027  Biso   1.000  N
  C447     1.0000 0.47401  0.24389  0.58873  Biso   1.000  C
  C448     1.0000 0.52140  0.21691  0.44481  Biso   1.000  C
  H447     1.0000 0.26790  0.91621  0.56079  Biso   1.000  H
  H448     1.0000 0.23648  0.90831  0.45648  Biso   1.000  H
  N300     1.0000 0.31101  0.88878  0.44612  Biso   1.000  N
  C449     1.0000 0.31082  0.87151  0.34057  Biso   1.000  C
  C450     1.0000 0.37840  0.88419  0.22398  Biso   1.000  C
  C451     1.0000 0.48250  0.18819  0.72597  Biso   1.000  C
  C452     1.0000 0.53229  0.23800  0.61759  Biso   1.000  C
  H449     1.0000 0.46181  0.27881  0.59671  Biso   1.000  H
  N301     1.0000 0.55510  0.22029  0.52349  Biso   1.000  N
  O149     1.0000 0.53078  0.20650  0.35600  Biso   1.000  O
  C453     1.0000 0.33969  0.85928  0.50760  Biso   1.000  C
  H450     1.0000 0.27539  0.86221  0.31693  Biso   1.000  H
  C454     1.0000 0.34779  0.82619  0.34280  Biso   1.000  C
  N302     1.0000 0.38732  0.84008  0.27157  Biso   1.000  N
  O150     1.0000 0.40279  0.90172  0.15359  Biso   1.000  O
  N303     1.0000 0.53171  0.20261  0.70041  Biso   1.000  N
  O151     1.0000 0.47130  0.16136  0.79767  Biso   1.000  O
  H451     1.0000 0.54769  0.27032  0.63947  Biso   1.000  H
  C455     1.0000 0.61060  0.21892  0.50668  Biso   1.000  C
  N304     1.0000 0.36451  0.82489  0.44942  Biso   1.000  N
  O152     1.0000 0.34289  0.86299  0.60170  Biso   1.000  O
  H452     1.0000 0.33000  0.79491  0.32200  Biso   1.000  H
  C456     1.0000 0.42472  0.80399  0.23250  Biso   1.000  C
  C457     1.0000 0.57528  0.19601  0.76750  Biso   1.000  C
  H453     1.0000 0.62631  0.24890  0.53707  Biso   1.000  H
  H454     1.0000 0.61739  0.21958  0.43192  Biso   1.000  H
  N305     1.0000 0.63549  0.17511  0.55058  Biso   1.000  N
  C458     1.0000 0.38940  0.78108  0.49332  Biso   1.000  C
  H455     1.0000 0.43711  0.81511  0.16442  Biso   1.000  H
  H456     1.0000 0.40719  0.77171  0.22313  Biso   1.000  H
  N306     1.0000 0.46829  0.79739  0.29959  Biso   1.000  N
  H457     1.0000 0.56289  0.18489  0.83558  Biso   1.000  H
  H458     1.0000 0.59281  0.22829  0.77687  Biso   1.000  H
  N307     1.0000 0.61268  0.15992  0.72843  Biso   1.000  N
  C459     1.0000 0.65221  0.17381  0.65720  Biso   1.000  C
  C460     1.0000 0.66031  0.14072  0.49240  Biso   1.000  C
  H459     1.0000 0.37369  0.75110  0.46293  Biso   1.000  H
  H460     1.0000 0.38261  0.78042  0.56808  Biso   1.000  H
  N308     1.0000 0.44490  0.77971  0.47651  Biso   1.000  N
  C461     1.0000 0.46771  0.76200  0.38241  Biso   1.000  C
  C462     1.0000 0.51750  0.81181  0.27403  Biso   1.000  C
  C463     1.0000 0.62160  0.11581  0.77602  Biso   1.000  C
  C464     1.0000 0.68918  0.12849  0.65943  Biso   1.000  C
  H461     1.0000 0.67000  0.20509  0.67800  Biso   1.000  H
  N309     1.0000 0.68899  0.11122  0.55388  Biso   1.000  N
  O153     1.0000 0.65711  0.13701  0.39830  Biso   1.000  O
  C465     1.0000 0.47860  0.78309  0.55519  Biso   1.000  C
  H462     1.0000 0.45231  0.72968  0.36053  Biso   1.000  H
  C466     1.0000 0.52599  0.75611  0.41127  Biso   1.000  C
  N310     1.0000 0.55131  0.78950  0.33973  Biso   1.000  N
  O154     1.0000 0.52870  0.83864  0.20233  Biso   1.000  O
  N311     1.0000 0.66402  0.09491  0.73012  Biso   1.000  N
  O155     1.0000 0.59721  0.09828  0.84641  Biso   1.000  O
  H463     1.0000 0.72461  0.13779  0.68307  Biso   1.000  H
  C467     1.0000 0.73029  0.08001  0.51474  Biso   1.000  C
  N312     1.0000 0.52769  0.77249  0.51773  Biso   1.000  N
  O156     1.0000 0.46922  0.79350  0.64400  Biso   1.000  O
  H464     1.0000 0.53819  0.72119  0.40329  Biso   1.000  H
  C468     1.0000 0.60601  0.78939  0.32469  Biso   1.000  C
  C469     1.0000 0.69219  0.05481  0.77917  Biso   1.000  C
  H465     1.0000 0.73210  0.08379  0.43921  Biso   1.000  H
  H466     1.0000 0.76352  0.09169  0.54352  Biso   1.000  H
  N313     1.0000 0.72400  0.02861  0.53892  Biso   1.000  N
  C470     1.0000 0.57050  0.76181  0.58551  Biso   1.000  C
  H467     1.0000 0.61840  0.75481  0.32660  Biso   1.000  H
  H468     1.0000 0.61361  0.80291  0.25568  Biso   1.000  H
  N314     1.0000 0.63430  0.81811  0.40068  Biso   1.000  N
  H469     1.0000 0.72708  0.06678  0.79797  Biso   1.000  H
  H470     1.0000 0.67421  0.04540  0.84334  Biso   1.000  H
  N315     1.0000 0.69729  0.01130  0.71423  Biso   1.000  N
  C471     1.0000 0.73750  0.00778  0.63839  Biso   1.000  C
  C472     1.0000 0.72149  0.99240  0.46431  Biso   1.000  C
  H471     1.0000 0.58389  0.72838  0.56962  Biso   1.000  H
  H472     1.0000 0.55780  0.76141  0.65712  Biso   1.000  H
  N316     1.0000 0.61199  0.79721  0.57730  Biso   1.000  N
  C473     1.0000 0.65101  0.79539  0.49823  Biso   1.000  C
  C474     1.0000 0.66591  0.85669  0.37442  Biso   1.000  C
  C475     1.0000 0.68111  0.96550  0.74831  Biso   1.000  C
  H473     1.0000 0.77070  0.02190  0.66449  Biso   1.000  H
  C476     1.0000 0.74241  0.95171  0.61729  Biso   1.000  C
  O157     1.0000 0.71489  0.00011  0.37251  Biso   1.000  O
  N317     1.0000 0.72851  0.94711  0.50990  Biso   1.000  N
  C477     1.0000 0.62511  0.82811  0.65651  Biso   1.000  C
  H474     1.0000 0.66471  0.76111  0.48803  Biso   1.000  H
  C478     1.0000 0.69269  0.83119  0.53738  Biso   1.000  C
  N318     1.0000 0.69790  0.86669  0.45502  Biso   1.000  N
  O158     1.0000 0.66487  0.87926  0.29191  Biso   1.000  O
  N319     1.0000 0.70481  0.93040  0.68859  Biso   1.000  N
  O159     1.0000 0.65159  0.95708  0.81939  Biso   1.000  O
  H475     1.0000 0.77811  0.93941  0.63103  Biso   1.000  H
  C479     1.0000 0.73851  0.90331  0.44888  Biso   1.000  C
  N320     1.0000 0.67000  0.85120  0.63187  Biso   1.000  N
  O160     1.0000 0.60091  0.83304  0.73657  Biso   1.000  O
  H476     1.0000 0.72589  0.81359  0.55127  Biso   1.000  H
  C480     1.0000 0.70068  0.87770  0.70840  Biso   1.000  C
  H477     1.0000 0.77131  0.88811  0.47221  Biso   1.000  H
  H478     1.0000 0.74299  0.91320  0.37627  Biso   1.000  H
  H479     1.0000 0.73581  0.86328  0.71016  Biso   1.000  H
  H480     1.0000 0.68490  0.87281  0.77679  Biso   1.000  H
  C481     1.0000 0.07052  0.26179  0.41449  Biso   1.000  C
  N321     1.0000 0.11201  0.29719  0.42270  Biso   1.000  N
  H481     1.0000 0.08391  0.22840  0.43038  Biso   1.000  H
  H482     1.0000 0.05782  0.26139  0.34288  Biso   1.000  H
  N322     1.0000 0.02771  0.27250  0.48227  Biso   1.000  N
  C482     1.0000 0.12509  0.32810  0.34349  Biso   1.000  C
  C483     1.0000 0.15099  0.29541  0.50177  Biso   1.000  C
  C484     1.0000 0.02601  0.25609  0.58873  Biso   1.000  C
  C485     1.0000 0.97862  0.28310  0.44481  Biso   1.000  C
  N323     1.0000 0.17002  0.35118  0.36813  Biso   1.000  N
  O161     1.0000 0.10089  0.33306  0.26343  Biso   1.000  O
  C486     1.0000 0.19271  0.33121  0.46262  Biso   1.000  C
  H483     1.0000 0.16469  0.26109  0.51197  Biso   1.000  H
  N324     1.0000 0.13432  0.31809  0.59932  Biso   1.000  N
  N325     1.0000 0.05129  0.28952  0.66027  Biso   1.000  N
  H484     1.0000 0.03821  0.22121  0.59671  Biso   1.000  H
  C487     1.0000 0.96769  0.26202  0.61759  Biso   1.000  C
  N326     1.0000 0.94488  0.27969  0.52349  Biso   1.000  N
  O162     1.0000 0.96920  0.29352  0.35600  Biso   1.000  O
  C488     1.0000 0.20070  0.37768  0.29160  Biso   1.000  C
  H485     1.0000 0.22591  0.31360  0.44873  Biso   1.000  H
  N327     1.0000 0.19788  0.36671  0.54498  Biso   1.000  N
  C489     1.0000 0.16589  0.35671  0.62558  Biso   1.000  C
  C490     1.0000 0.10599  0.28940  0.67531  Biso   1.000  C
  C491     1.0000 0.01748  0.31179  0.72597  Biso   1.000  C
  N328     1.0000 0.96831  0.29741  0.70041  Biso   1.000  N
  H486     1.0000 0.95229  0.22970  0.63947  Biso   1.000  H
  C492     1.0000 0.88938  0.28110  0.50668  Biso   1.000  C
  H487     1.0000 0.23579  0.36330  0.28984  Biso   1.000  H
  H488     1.0000 0.18492  0.37279  0.22321  Biso   1.000  H
  N329     1.0000 0.20479  0.43038  0.31141  Biso   1.000  N
  C493     1.0000 0.23849  0.40329  0.55112  Biso   1.000  C
  O163     1.0000 0.16488  0.37924  0.70809  Biso   1.000  O
  H489     1.0000 0.11841  0.25479  0.67340  Biso   1.000  H
  H490     1.0000 0.11359  0.30289  0.74432  Biso   1.000  H
  O164     1.0000 0.02872  0.33862  0.79767  Biso   1.000  O
  C494     1.0000 0.92470  0.30401  0.76750  Biso   1.000  C
  H491     1.0000 0.87371  0.25108  0.53707  Biso   1.000  H
  H492     1.0000 0.88259  0.28040  0.43192  Biso   1.000  H
  N330     1.0000 0.86449  0.32491  0.55058  Biso   1.000  N
  C495     1.0000 0.24239  0.45169  0.38271  Biso   1.000  C
  C496     1.0000 0.18110  0.46552  0.25169  Biso   1.000  C
  N331     1.0000 0.22849  0.44713  0.49010  Biso   1.000  N
  H493     1.0000 0.27130  0.38810  0.52779  Biso   1.000  H
  H494     1.0000 0.24300  0.41319  0.62373  Biso   1.000  H
  H495     1.0000 0.93709  0.31509  0.83558  Biso   1.000  H
  H496     1.0000 0.90721  0.27169  0.77687  Biso   1.000  H
  N332     1.0000 0.88730  0.34010  0.72843  Biso   1.000  N
  C497     1.0000 0.84781  0.32621  0.65720  Biso   1.000  C
  C498     1.0000 0.83971  0.35930  0.49240  Biso   1.000  C
  H497     1.0000 0.27809  0.43939  0.36897  Biso   1.000  H
  C499     1.0000 0.23749  0.50780  0.36161  Biso   1.000  C
  N333     1.0000 0.19731  0.51128  0.28577  Biso   1.000  N
  O165     1.0000 0.15161  0.45710  0.18061  Biso   1.000  O
  C500     1.0000 0.22151  0.49238  0.53569  Biso   1.000  C
  C501     1.0000 0.87838  0.38420  0.77602  Biso   1.000  C
  C502     1.0000 0.81080  0.37149  0.65943  Biso   1.000  C
  H498     1.0000 0.82998  0.29489  0.67800  Biso   1.000  H
  N334     1.0000 0.81099  0.38880  0.55388  Biso   1.000  N
  O166     1.0000 0.84291  0.36301  0.39830  Biso   1.000  O
  H499     1.0000 0.27072  0.52188  0.33551  Biso   1.000  H
  N335     1.0000 0.22401  0.52859  0.46108  Biso   1.000  N
  C503     1.0000 0.19221  0.55479  0.22083  Biso   1.000  C
  O167     1.0000 0.21491  0.50009  0.62749  Biso   1.000  O
  N336     1.0000 0.83600  0.40511  0.73012  Biso   1.000  N
  O168     1.0000 0.90281  0.40170  0.84641  Biso   1.000  O
  H500     1.0000 0.77541  0.36219  0.68307  Biso   1.000  H
  C504     1.0000 0.76969  0.42001  0.51474  Biso   1.000  C
  C505     1.0000 0.23031  0.57999  0.48526  Biso   1.000  C
  H501     1.0000 0.22710  0.56680  0.20203  Biso   1.000  H
  H502     1.0000 0.17419  0.54542  0.15666  Biso   1.000  H
  N337     1.0000 0.16400  0.59489  0.26988  Biso   1.000  N
  C506     1.0000 0.80779  0.44521  0.77917  Biso   1.000  C
  H503     1.0000 0.76792  0.41619  0.43921  Biso   1.000  H
  H504     1.0000 0.73650  0.40829  0.54352  Biso   1.000  H
  N338     1.0000 0.77599  0.47141  0.53892  Biso   1.000  N
  H505     1.0000 0.23208  0.58381  0.56079  Biso   1.000  H
  H506     1.0000 0.26350  0.59171  0.45648  Biso   1.000  H
  N339     1.0000 0.18901  0.61120  0.44612  Biso   1.000  N
  C507     1.0000 0.18920  0.62851  0.34057  Biso   1.000  C
  C508     1.0000 0.12162  0.61580  0.22398  Biso   1.000  C
  H507     1.0000 0.77290  0.43320  0.79797  Biso   1.000  H
  H508     1.0000 0.82581  0.45458  0.84334  Biso   1.000  H
  N340     1.0000 0.80269  0.48872  0.71423  Biso   1.000  N
  C509     1.0000 0.76251  0.49220  0.63839  Biso   1.000  C
  C510     1.0000 0.77849  0.50762  0.46431  Biso   1.000  C
  C511     1.0000 0.16029  0.64070  0.50760  Biso   1.000  C
  H509     1.0000 0.22459  0.63781  0.31693  Biso   1.000  H
  C512     1.0000 0.15219  0.67379  0.34280  Biso   1.000  C
  N341     1.0000 0.11270  0.65990  0.27157  Biso   1.000  N
  O169     1.0000 0.09719  0.59830  0.15359  Biso   1.000  O
  C513     1.0000 0.81890  0.53448  0.74831  Biso   1.000  C
  C514     1.0000 0.75761  0.54831  0.61729  Biso   1.000  C
  H510     1.0000 0.72928  0.47812  0.66449  Biso   1.000  H
  N342     1.0000 0.77151  0.55287  0.50990  Biso   1.000  N
  O170     1.0000 0.78509  0.49991  0.37251  Biso   1.000  O
  N343     1.0000 0.13551  0.67509  0.44942  Biso   1.000  N
  O171     1.0000 0.15709  0.63699  0.60170  Biso   1.000  O
  H511     1.0000 0.17002  0.70511  0.32200  Biso   1.000  H
  C515     1.0000 0.07530  0.69599  0.23250  Biso   1.000  C
  N344     1.0000 0.79521  0.56962  0.68859  Biso   1.000  N
  O172     1.0000 0.84839  0.54290  0.81939  Biso   1.000  O
  H512     1.0000 0.72191  0.56061  0.63103  Biso   1.000  H
  C516     1.0000 0.76151  0.59671  0.44888  Biso   1.000  C
  C517     1.0000 0.11062  0.71890  0.49332  Biso   1.000  C
  H513     1.0000 0.06291  0.68491  0.16442  Biso   1.000  H
  H514     1.0000 0.09279  0.72831  0.22313  Biso   1.000  H
  N345     1.0000 0.03169  0.70259  0.29959  Biso   1.000  N
  C518     1.0000 0.79930  0.62232  0.70840  Biso   1.000  C
  N346     1.0000 0.80212  0.63329  0.45502  Biso   1.000  N
  H515     1.0000 0.72870  0.61190  0.47221  Biso   1.000  H
  H516     1.0000 0.75700  0.58681  0.37627  Biso   1.000  H
  H517     1.0000 0.12629  0.74892  0.46293  Biso   1.000  H
  H518     1.0000 0.11741  0.71960  0.56808  Biso   1.000  H
  N347     1.0000 0.05512  0.72031  0.47651  Biso   1.000  N
  C519     1.0000 0.03231  0.73798  0.38241  Biso   1.000  C
  C520     1.0000 0.98252  0.68821  0.27403  Biso   1.000  C
  N348     1.0000 0.82998  0.64882  0.63187  Biso   1.000  N
  H519     1.0000 0.76421  0.63670  0.71016  Biso   1.000  H
  H520     1.0000 0.81508  0.62721  0.77679  Biso   1.000  H
  C521     1.0000 0.83411  0.64329  0.37442  Biso   1.000  C
  C522     1.0000 0.80729  0.66879  0.53738  Biso   1.000  C
  C523     1.0000 0.02138  0.71690  0.55519  Biso   1.000  C
  H521     1.0000 0.04771  0.77030  0.36053  Biso   1.000  H
  C524     1.0000 0.97399  0.74391  0.41127  Biso   1.000  C
  N349     1.0000 0.94871  0.71048  0.33973  Biso   1.000  N
  O173     1.0000 0.97128  0.66138  0.20233  Biso   1.000  O
  C525     1.0000 0.87491  0.67190  0.65651  Biso   1.000  C
  N350     1.0000 0.86568  0.68191  0.40068  Biso   1.000  N
  O174     1.0000 0.83512  0.62076  0.29191  Biso   1.000  O
  C526     1.0000 0.84901  0.70459  0.49823  Biso   1.000  C
  H522     1.0000 0.77409  0.68640  0.55127  Biso   1.000  H
  O175     1.0000 0.03080  0.70648  0.64400  Biso   1.000  O
  N351     1.0000 0.97229  0.72750  0.51773  Biso   1.000  N
  H523     1.0000 0.96179  0.77879  0.40329  Biso   1.000  H
  C527     1.0000 0.89401  0.71060  0.32469  Biso   1.000  C
  N352     1.0000 0.88799  0.70281  0.57730  Biso   1.000  N
  O176     1.0000 0.89911  0.66694  0.73657  Biso   1.000  O
  H524     1.0000 0.83531  0.73891  0.48803  Biso   1.000  H
  C528     1.0000 0.92948  0.73821  0.58551  Biso   1.000  C
  H525     1.0000 0.88159  0.74521  0.32660  Biso   1.000  H
  H526     1.0000 0.88641  0.69711  0.25568  Biso   1.000  H
  H527     1.0000 0.91609  0.77160  0.56962  Biso   1.000  H
  H528     1.0000 0.94218  0.73861  0.65712  Biso   1.000  H
  C529     1.0000 0.07052  0.26179  0.41449  Biso   1.000  C
  N353     1.0000 0.11201  0.29719  0.42270  Biso   1.000  N
  H529     1.0000 0.08391  0.22840  0.43038  Biso   1.000  H
  H530     1.0000 0.05782  0.26139  0.34288  Biso   1.000  H
  N354     1.0000 0.02771  0.27250  0.48227  Biso   1.000  N
  C530     1.0000 0.12509  0.32810  0.34349  Biso   1.000  C
  C531     1.0000 0.15099  0.29541  0.50177  Biso   1.000  C
  C532     1.0000 0.02601  0.25609  0.58873  Biso   1.000  C
  C533     1.0000 0.97862  0.28310  0.44481  Biso   1.000  C
  N355     1.0000 0.17002  0.35118  0.36813  Biso   1.000  N
  O177     1.0000 0.10089  0.33306  0.26343  Biso   1.000  O
  C534     1.0000 0.19271  0.33121  0.46262  Biso   1.000  C
  H531     1.0000 0.16469  0.26109  0.51197  Biso   1.000  H
  N356     1.0000 0.13432  0.31809  0.59932  Biso   1.000  N
  N357     1.0000 0.05129  0.28952  0.66027  Biso   1.000  N
  H532     1.0000 0.03821  0.22121  0.59671  Biso   1.000  H
  C535     1.0000 0.96769  0.26202  0.61759  Biso   1.000  C
  N358     1.0000 0.94488  0.27969  0.52349  Biso   1.000  N
  O178     1.0000 0.96920  0.29352  0.35600  Biso   1.000  O
  C536     1.0000 0.20070  0.37768  0.29160  Biso   1.000  C
  H533     1.0000 0.22591  0.31360  0.44873  Biso   1.000  H
  N359     1.0000 0.19788  0.36671  0.54498  Biso   1.000  N
  C537     1.0000 0.16589  0.35671  0.62558  Biso   1.000  C
  C538     1.0000 0.10599  0.28940  0.67531  Biso   1.000  C
  C539     1.0000 0.01748  0.31179  0.72597  Biso   1.000  C
  N360     1.0000 0.96831  0.29741  0.70041  Biso   1.000  N
  H534     1.0000 0.95229  0.22970  0.63947  Biso   1.000  H
  C540     1.0000 0.88938  0.28110  0.50668  Biso   1.000  C
  H535     1.0000 0.23579  0.36330  0.28984  Biso   1.000  H
  H536     1.0000 0.18492  0.37279  0.22321  Biso   1.000  H
  N361     1.0000 0.20479  0.43038  0.31141  Biso   1.000  N
  C541     1.0000 0.23849  0.40329  0.55112  Biso   1.000  C
  O179     1.0000 0.16488  0.37924  0.70809  Biso   1.000  O
  H537     1.0000 0.11841  0.25479  0.67340  Biso   1.000  H
  H538     1.0000 0.11359  0.30289  0.74432  Biso   1.000  H
  O180     1.0000 0.02872  0.33862  0.79767  Biso   1.000  O
  C542     1.0000 0.92470  0.30401  0.76750  Biso   1.000  C
  H539     1.0000 0.87371  0.25108  0.53707  Biso   1.000  H
  H540     1.0000 0.88259  0.28040  0.43192  Biso   1.000  H
  N362     1.0000 0.86449  0.32491  0.55058  Biso   1.000  N
  C543     1.0000 0.24239  0.45169  0.38271  Biso   1.000  C
  C544     1.0000 0.18110  0.46552  0.25169  Biso   1.000  C
  N363     1.0000 0.22849  0.44713  0.49010  Biso   1.000  N
  H541     1.0000 0.27130  0.38810  0.52779  Biso   1.000  H
  H542     1.0000 0.24300  0.41319  0.62373  Biso   1.000  H
  H543     1.0000 0.93709  0.31509  0.83558  Biso   1.000  H
  H544     1.0000 0.90721  0.27169  0.77687  Biso   1.000  H
  N364     1.0000 0.88730  0.34010  0.72843  Biso   1.000  N
  C545     1.0000 0.84781  0.32621  0.65720  Biso   1.000  C
  C546     1.0000 0.83971  0.35930  0.49240  Biso   1.000  C
  H545     1.0000 0.27809  0.43939  0.36897  Biso   1.000  H
  C547     1.0000 0.23749  0.50780  0.36161  Biso   1.000  C
  N365     1.0000 0.19731  0.51128  0.28577  Biso   1.000  N
  O181     1.0000 0.15161  0.45710  0.18061  Biso   1.000  O
  C548     1.0000 0.22151  0.49238  0.53569  Biso   1.000  C
  C549     1.0000 0.87838  0.38420  0.77602  Biso   1.000  C
  C550     1.0000 0.81080  0.37149  0.65943  Biso   1.000  C
  H546     1.0000 0.82998  0.29489  0.67800  Biso   1.000  H
  N366     1.0000 0.81099  0.38880  0.55388  Biso   1.000  N
  O182     1.0000 0.84291  0.36301  0.39830  Biso   1.000  O
  H547     1.0000 0.27072  0.52188  0.33551  Biso   1.000  H
  N367     1.0000 0.22401  0.52859  0.46108  Biso   1.000  N
  C551     1.0000 0.19221  0.55479  0.22083  Biso   1.000  C
  O183     1.0000 0.21491  0.50009  0.62749  Biso   1.000  O
  N368     1.0000 0.83600  0.40511  0.73012  Biso   1.000  N
  O184     1.0000 0.90281  0.40170  0.84641  Biso   1.000  O
  H548     1.0000 0.77541  0.36219  0.68307  Biso   1.000  H
  C552     1.0000 0.76969  0.42001  0.51474  Biso   1.000  C
  C553     1.0000 0.23031  0.57999  0.48526  Biso   1.000  C
  H549     1.0000 0.22710  0.56680  0.20203  Biso   1.000  H
  H550     1.0000 0.17419  0.54542  0.15666  Biso   1.000  H
  N369     1.0000 0.16400  0.59489  0.26988  Biso   1.000  N
  C554     1.0000 0.80779  0.44521  0.77917  Biso   1.000  C
  H551     1.0000 0.76792  0.41619  0.43921  Biso   1.000  H
  H552     1.0000 0.73650  0.40829  0.54352  Biso   1.000  H
  N370     1.0000 0.77599  0.47141  0.53892  Biso   1.000  N
  H553     1.0000 0.23208  0.58381  0.56079  Biso   1.000  H
  H554     1.0000 0.26350  0.59171  0.45648  Biso   1.000  H
  N371     1.0000 0.18901  0.61120  0.44612  Biso   1.000  N
  C555     1.0000 0.18920  0.62851  0.34057  Biso   1.000  C
  C556     1.0000 0.12162  0.61580  0.22398  Biso   1.000  C
  H555     1.0000 0.77290  0.43320  0.79797  Biso   1.000  H
  H556     1.0000 0.82581  0.45458  0.84334  Biso   1.000  H
  N372     1.0000 0.80269  0.48872  0.71423  Biso   1.000  N
  C557     1.0000 0.76251  0.49220  0.63839  Biso   1.000  C
  C558     1.0000 0.77849  0.50762  0.46431  Biso   1.000  C
  C559     1.0000 0.16029  0.64070  0.50760  Biso   1.000  C
  H557     1.0000 0.22459  0.63781  0.31693  Biso   1.000  H
  C560     1.0000 0.15219  0.67379  0.34280  Biso   1.000  C
  N373     1.0000 0.11270  0.65990  0.27157  Biso   1.000  N
  O185     1.0000 0.09719  0.59830  0.15359  Biso   1.000  O
  C561     1.0000 0.81890  0.53448  0.74831  Biso   1.000  C
  C562     1.0000 0.75761  0.54831  0.61729  Biso   1.000  C
  H558     1.0000 0.72928  0.47812  0.66449  Biso   1.000  H
  N374     1.0000 0.77151  0.55287  0.50990  Biso   1.000  N
  O186     1.0000 0.78509  0.49991  0.37251  Biso   1.000  O
  N375     1.0000 0.13551  0.67509  0.44942  Biso   1.000  N
  O187     1.0000 0.15709  0.63699  0.60170  Biso   1.000  O
  H559     1.0000 0.17002  0.70511  0.32200  Biso   1.000  H
  C563     1.0000 0.07530  0.69599  0.23250  Biso   1.000  C
  N376     1.0000 0.79521  0.56962  0.68859  Biso   1.000  N
  O188     1.0000 0.84839  0.54290  0.81939  Biso   1.000  O
  H560     1.0000 0.72191  0.56061  0.63103  Biso   1.000  H
  C564     1.0000 0.76151  0.59671  0.44888  Biso   1.000  C
  C565     1.0000 0.11062  0.71890  0.49332  Biso   1.000  C
  H561     1.0000 0.06291  0.68491  0.16442  Biso   1.000  H
  H562     1.0000 0.09279  0.72831  0.22313  Biso   1.000  H
  N377     1.0000 0.03169  0.70259  0.29959  Biso   1.000  N
  C566     1.0000 0.79930  0.62232  0.70840  Biso   1.000  C
  N378     1.0000 0.80212  0.63329  0.45502  Biso   1.000  N
  H563     1.0000 0.72870  0.61190  0.47221  Biso   1.000  H
  H564     1.0000 0.75700  0.58681  0.37627  Biso   1.000  H
  H565     1.0000 0.12629  0.74892  0.46293  Biso   1.000  H
  H566     1.0000 0.11741  0.71960  0.56808  Biso   1.000  H
  N379     1.0000 0.05512  0.72031  0.47651  Biso   1.000  N
  C567     1.0000 0.03231  0.73798  0.38241  Biso   1.000  C
  C568     1.0000 0.98252  0.68821  0.27403  Biso   1.000  C
  N380     1.0000 0.82998  0.64882  0.63187  Biso   1.000  N
  H567     1.0000 0.76421  0.63670  0.71016  Biso   1.000  H
  H568     1.0000 0.81508  0.62721  0.77679  Biso   1.000  H
  C569     1.0000 0.83411  0.64329  0.37442  Biso   1.000  C
  C570     1.0000 0.80729  0.66879  0.53738  Biso   1.000  C
  C571     1.0000 0.02138  0.71690  0.55519  Biso   1.000  C
  H569     1.0000 0.04771  0.77030  0.36053  Biso   1.000  H
  C572     1.0000 0.97399  0.74391  0.41127  Biso   1.000  C
  N381     1.0000 0.94871  0.71048  0.33973  Biso   1.000  N
  O189     1.0000 0.97128  0.66138  0.20233  Biso   1.000  O
  C573     1.0000 0.87491  0.67190  0.65651  Biso   1.000  C
  N382     1.0000 0.86568  0.68191  0.40068  Biso   1.000  N
  O190     1.0000 0.83512  0.62076  0.29191  Biso   1.000  O
  C574     1.0000 0.84901  0.70459  0.49823  Biso   1.000  C
  H570     1.0000 0.77409  0.68640  0.55127  Biso   1.000  H
  O191     1.0000 0.03080  0.70648  0.64400  Biso   1.000  O
  N383     1.0000 0.97229  0.72750  0.51773  Biso   1.000  N
  H571     1.0000 0.96179  0.77879  0.40329  Biso   1.000  H
  C575     1.0000 0.89401  0.71060  0.32469  Biso   1.000  C
  N384     1.0000 0.88799  0.70281  0.57730  Biso   1.000  N
  O192     1.0000 0.89911  0.66694  0.73657  Biso   1.000  O
  H572     1.0000 0.83531  0.73891  0.48803  Biso   1.000  H
  C576     1.0000 0.92948  0.73821  0.58551  Biso   1.000  C
  H573     1.0000 0.88159  0.74521  0.32660  Biso   1.000  H
  H574     1.0000 0.88641  0.69711  0.25568  Biso   1.000  H
  H575     1.0000 0.91609  0.77160  0.56962  Biso   1.000  H
  H576     1.0000 0.94218  0.73861  0.65712  Biso   1.000  H
  C577     1.0000 0.34899  0.29541  0.00177  Biso   1.000  C
  N385     1.0000 0.36570  0.31809  0.09932  Biso   1.000  N
  H577     1.0000 0.33529  0.26109  0.01197  Biso   1.000  H
  C578     1.0000 0.30731  0.33121  0.96262  Biso   1.000  C
  N386     1.0000 0.38801  0.29719  0.92270  Biso   1.000  N
  C579     1.0000 0.39399  0.28940  0.17531  Biso   1.000  C
  C580     1.0000 0.33409  0.35671  0.12558  Biso   1.000  C
  N387     1.0000 0.30210  0.36671  0.04498  Biso   1.000  N
  H578     1.0000 0.27411  0.31360  0.94873  Biso   1.000  H
  N388     1.0000 0.33000  0.35118  0.86813  Biso   1.000  N
  C581     1.0000 0.42950  0.26179  0.91449  Biso   1.000  C
  C582     1.0000 0.37489  0.32810  0.84349  Biso   1.000  C
  H579     1.0000 0.38160  0.25479  0.17340  Biso   1.000  H
  H580     1.0000 0.38639  0.30289  0.24432  Biso   1.000  H
  N389     1.0000 0.44869  0.28952  0.16027  Biso   1.000  N
  O193     1.0000 0.33513  0.37924  0.20809  Biso   1.000  O
  C583     1.0000 0.26149  0.40329  0.05112  Biso   1.000  C
  C584     1.0000 0.29932  0.37768  0.79160  Biso   1.000  C
  N390     1.0000 0.47231  0.27250  0.98227  Biso   1.000  N
  H581     1.0000 0.41611  0.22840  0.93038  Biso   1.000  H
  H582     1.0000 0.44220  0.26139  0.84288  Biso   1.000  H
  O194     1.0000 0.39909  0.33306  0.76343  Biso   1.000  O
  C585     1.0000 0.47401  0.25609  0.08873  Biso   1.000  C
  C586     1.0000 0.48250  0.31179  0.22597  Biso   1.000  C
  H583     1.0000 0.22869  0.38810  0.02779  Biso   1.000  H
  H584     1.0000 0.25701  0.41319  0.12373  Biso   1.000  H
  N391     1.0000 0.27149  0.44713  0.99010  Biso   1.000  N
  H585     1.0000 0.26419  0.36330  0.78984  Biso   1.000  H
  H586     1.0000 0.31510  0.37279  0.72321  Biso   1.000  H
  N392     1.0000 0.29519  0.43038  0.81141  Biso   1.000  N
  C587     1.0000 0.52140  0.28310  0.94481  Biso   1.000  C
  C588     1.0000 0.53229  0.26202  0.11759  Biso   1.000  C
  H587     1.0000 0.46181  0.22121  0.09671  Biso   1.000  H
  N393     1.0000 0.53171  0.29741  0.20041  Biso   1.000  N
  O195     1.0000 0.47130  0.33862  0.29767  Biso   1.000  O
  C589     1.0000 0.27851  0.49238  0.03569  Biso   1.000  C
  C590     1.0000 0.25759  0.45169  0.88271  Biso   1.000  C
  C591     1.0000 0.31889  0.46552  0.75169  Biso   1.000  C
  N394     1.0000 0.55510  0.27969  0.02349  Biso   1.000  N
  O196     1.0000 0.53078  0.29352  0.85600  Biso   1.000  O
  H588     1.0000 0.54769  0.22970  0.13947  Biso   1.000  H
  C592     1.0000 0.57528  0.30401  0.26750  Biso   1.000  C
  O197     1.0000 0.28511  0.50009  0.12749  Biso   1.000  O
  N395     1.0000 0.27600  0.52859  0.96108  Biso   1.000  N
  H589     1.0000 0.22189  0.43939  0.86897  Biso   1.000  H
  C593     1.0000 0.26250  0.50780  0.86161  Biso   1.000  C
  N396     1.0000 0.30271  0.51128  0.78577  Biso   1.000  N
  O198     1.0000 0.34841  0.45710  0.68061  Biso   1.000  O
  C594     1.0000 0.61060  0.28110  0.00668  Biso   1.000  C
  H590     1.0000 0.56289  0.31509  0.33558  Biso   1.000  H
  H591     1.0000 0.59281  0.27169  0.27687  Biso   1.000  H
  N397     1.0000 0.61268  0.34010  0.22843  Biso   1.000  N
  C595     1.0000 0.26971  0.57999  0.98526  Biso   1.000  C
  H592     1.0000 0.22930  0.52188  0.83551  Biso   1.000  H
  C596     1.0000 0.30781  0.55479  0.72083  Biso   1.000  C
  H593     1.0000 0.62631  0.25108  0.03707  Biso   1.000  H
  N398     1.0000 0.63549  0.32491  0.05058  Biso   1.000  N
  H594     1.0000 0.61739  0.28040  0.93192  Biso   1.000  H
  C597     1.0000 0.65221  0.32621  0.15720  Biso   1.000  C
  C598     1.0000 0.62160  0.38420  0.27602  Biso   1.000  C
  H595     1.0000 0.26790  0.58381  0.06079  Biso   1.000  H
  H596     1.0000 0.23648  0.59171  0.95648  Biso   1.000  H
  N399     1.0000 0.31101  0.61120  0.94612  Biso   1.000  N
  N400     1.0000 0.33598  0.59489  0.76988  Biso   1.000  N
  H597     1.0000 0.27292  0.56680  0.70203  Biso   1.000  H
  H598     1.0000 0.32579  0.54542  0.65666  Biso   1.000  H
  C599     1.0000 0.66031  0.35930  0.99240  Biso   1.000  C
  C600     1.0000 0.68918  0.37149  0.15943  Biso   1.000  C
  H599     1.0000 0.67000  0.29489  0.17800  Biso   1.000  H
  N401     1.0000 0.66402  0.40511  0.23012  Biso   1.000  N
  O199     1.0000 0.59721  0.40170  0.34641  Biso   1.000  O
  C601     1.0000 0.33969  0.64070  0.00760  Biso   1.000  C
  C602     1.0000 0.31082  0.62851  0.84057  Biso   1.000  C
  C603     1.0000 0.37840  0.61580  0.72398  Biso   1.000  C
  N402     1.0000 0.68899  0.38880  0.05388  Biso   1.000  N
  O200     1.0000 0.65711  0.36301  0.89830  Biso   1.000  O
  H600     1.0000 0.72461  0.36219  0.18307  Biso   1.000  H
  C604     1.0000 0.69219  0.44521  0.27917  Biso   1.000  C
  O201     1.0000 0.34289  0.63699  0.10170  Biso   1.000  O
  N403     1.0000 0.36451  0.67509  0.94942  Biso   1.000  N
  H601     1.0000 0.27539  0.63781  0.81693  Biso   1.000  H
  C605     1.0000 0.34779  0.67379  0.84280  Biso   1.000  C
  N404     1.0000 0.38732  0.65990  0.77157  Biso   1.000  N
  O202     1.0000 0.40279  0.59830  0.65359  Biso   1.000  O
  C606     1.0000 0.73029  0.42001  0.01474  Biso   1.000  C
  H602     1.0000 0.72708  0.43320  0.29797  Biso   1.000  H
  H603     1.0000 0.67421  0.45458  0.34334  Biso   1.000  H
  N405     1.0000 0.69729  0.48872  0.21423  Biso   1.000  N
  C607     1.0000 0.38940  0.71890  0.99332  Biso   1.000  C
  H604     1.0000 0.33000  0.70511  0.82200  Biso   1.000  H
  C608     1.0000 0.42472  0.69599  0.73250  Biso   1.000  C
  N406     1.0000 0.72400  0.47141  0.03892  Biso   1.000  N
  H605     1.0000 0.76352  0.40829  0.04352  Biso   1.000  H
  H606     1.0000 0.73210  0.41619  0.93921  Biso   1.000  H
  C609     1.0000 0.73750  0.49220  0.13839  Biso   1.000  C
  C610     1.0000 0.68111  0.53448  0.24831  Biso   1.000  C
  H607     1.0000 0.38261  0.71960  0.06808  Biso   1.000  H
  H608     1.0000 0.37369  0.74892  0.96293  Biso   1.000  H
  N407     1.0000 0.44490  0.72031  0.97651  Biso   1.000  N
  H609     1.0000 0.43711  0.68491  0.66442  Biso   1.000  H
  H610     1.0000 0.40719  0.72831  0.72313  Biso   1.000  H
  N408     1.0000 0.46829  0.70259  0.79959  Biso   1.000  N
  C611     1.0000 0.72149  0.50762  0.96431  Biso   1.000  C
  C612     1.0000 0.74241  0.54831  0.11729  Biso   1.000  C
  H611     1.0000 0.77070  0.47812  0.16449  Biso   1.000  H
  N409     1.0000 0.70481  0.56962  0.18859  Biso   1.000  N
  O203     1.0000 0.65159  0.54290  0.31939  Biso   1.000  O
  C613     1.0000 0.47860  0.71690  0.05519  Biso   1.000  C
  C614     1.0000 0.46771  0.73798  0.88241  Biso   1.000  C
  C615     1.0000 0.51750  0.68821  0.77403  Biso   1.000  C
  N410     1.0000 0.72851  0.55287  0.00990  Biso   1.000  N
  O204     1.0000 0.71489  0.49991  0.87251  Biso   1.000  O
  H612     1.0000 0.77811  0.56061  0.13103  Biso   1.000  H
  C616     1.0000 0.70068  0.62232  0.20840  Biso   1.000  C
  N411     1.0000 0.52769  0.72750  0.01773  Biso   1.000  N
  O205     1.0000 0.46922  0.70648  0.14400  Biso   1.000  O
  H613     1.0000 0.45231  0.77030  0.86053  Biso   1.000  H
  C617     1.0000 0.52599  0.74391  0.91127  Biso   1.000  C
  N412     1.0000 0.55131  0.71048  0.83973  Biso   1.000  N
  O206     1.0000 0.52870  0.66138  0.70233  Biso   1.000  O
  C618     1.0000 0.73851  0.59671  0.94888  Biso   1.000  C
  H614     1.0000 0.73581  0.63670  0.21016  Biso   1.000  H
  H615     1.0000 0.68490  0.62721  0.27679  Biso   1.000  H
  N413     1.0000 0.67000  0.64882  0.13187  Biso   1.000  N
  C619     1.0000 0.57050  0.73821  0.08551  Biso   1.000  C
  H616     1.0000 0.53819  0.77879  0.90329  Biso   1.000  H
  C620     1.0000 0.60601  0.71060  0.82469  Biso   1.000  C
  H617     1.0000 0.77131  0.61190  0.97221  Biso   1.000  H
  H618     1.0000 0.74299  0.58681  0.87627  Biso   1.000  H
  N414     1.0000 0.69790  0.63329  0.95502  Biso   1.000  N
  C621     1.0000 0.69269  0.66879  0.03738  Biso   1.000  C
  C622     1.0000 0.62511  0.67190  0.15651  Biso   1.000  C
  N415     1.0000 0.61199  0.70281  0.07730  Biso   1.000  N
  H619     1.0000 0.58389  0.77160  0.06962  Biso   1.000  H
  H620     1.0000 0.55780  0.73861  0.15712  Biso   1.000  H
  N416     1.0000 0.63430  0.68191  0.90068  Biso   1.000  N
  H621     1.0000 0.61840  0.74521  0.82660  Biso   1.000  H
  H622     1.0000 0.61361  0.69711  0.75568  Biso   1.000  H
  C623     1.0000 0.66591  0.64329  0.87442  Biso   1.000  C
  H623     1.0000 0.72589  0.68640  0.05127  Biso   1.000  H
  C624     1.0000 0.65101  0.70459  0.99823  Biso   1.000  C
  O207     1.0000 0.60091  0.66694  0.23657  Biso   1.000  O
  O208     1.0000 0.66487  0.62076  0.79191  Biso   1.000  O
  H624     1.0000 0.66471  0.73891  0.98803  Biso   1.000  H
  C625     1.0000 0.34899  0.29541  0.00177  Biso   1.000  C
  N417     1.0000 0.36570  0.31809  0.09932  Biso   1.000  N
  H625     1.0000 0.33529  0.26109  0.01197  Biso   1.000  H
  C626     1.0000 0.30731  0.33121  0.96262  Biso   1.000  C
  N418     1.0000 0.38801  0.29719  0.92270  Biso   1.000  N
  C627     1.0000 0.39399  0.28940  0.17531  Biso   1.000  C
  C628     1.0000 0.33409  0.35671  0.12558  Biso   1.000  C
  N419     1.0000 0.30210  0.36671  0.04498  Biso   1.000  N
  H626     1.0000 0.27411  0.31360  0.94873  Biso   1.000  H
  N420     1.0000 0.33000  0.35118  0.86813  Biso   1.000  N
  C629     1.0000 0.42950  0.26179  0.91449  Biso   1.000  C
  C630     1.0000 0.37489  0.32810  0.84349  Biso   1.000  C
  H627     1.0000 0.38160  0.25479  0.17340  Biso   1.000  H
  H628     1.0000 0.38639  0.30289  0.24432  Biso   1.000  H
  N421     1.0000 0.44869  0.28952  0.16027  Biso   1.000  N
  O209     1.0000 0.33513  0.37924  0.20809  Biso   1.000  O
  C631     1.0000 0.26149  0.40329  0.05112  Biso   1.000  C
  C632     1.0000 0.29932  0.37768  0.79160  Biso   1.000  C
  N422     1.0000 0.47231  0.27250  0.98227  Biso   1.000  N
  H629     1.0000 0.41611  0.22840  0.93038  Biso   1.000  H
  H630     1.0000 0.44220  0.26139  0.84288  Biso   1.000  H
  O210     1.0000 0.39909  0.33306  0.76343  Biso   1.000  O
  C633     1.0000 0.47401  0.25609  0.08873  Biso   1.000  C
  C634     1.0000 0.48250  0.31179  0.22597  Biso   1.000  C
  H631     1.0000 0.22869  0.38810  0.02779  Biso   1.000  H
  H632     1.0000 0.25701  0.41319  0.12373  Biso   1.000  H
  N423     1.0000 0.27149  0.44713  0.99010  Biso   1.000  N
  H633     1.0000 0.26419  0.36330  0.78984  Biso   1.000  H
  H634     1.0000 0.31510  0.37279  0.72321  Biso   1.000  H
  N424     1.0000 0.29519  0.43038  0.81141  Biso   1.000  N
  C635     1.0000 0.52140  0.28310  0.94481  Biso   1.000  C
  C636     1.0000 0.53229  0.26202  0.11759  Biso   1.000  C
  H635     1.0000 0.46181  0.22121  0.09671  Biso   1.000  H
  N425     1.0000 0.53171  0.29741  0.20041  Biso   1.000  N
  O211     1.0000 0.47130  0.33862  0.29767  Biso   1.000  O
  C637     1.0000 0.27851  0.49238  0.03569  Biso   1.000  C
  C638     1.0000 0.25759  0.45169  0.88271  Biso   1.000  C
  C639     1.0000 0.31889  0.46552  0.75169  Biso   1.000  C
  N426     1.0000 0.55510  0.27969  0.02349  Biso   1.000  N
  O212     1.0000 0.53078  0.29352  0.85600  Biso   1.000  O
  H636     1.0000 0.54769  0.22970  0.13947  Biso   1.000  H
  C640     1.0000 0.57528  0.30401  0.26750  Biso   1.000  C
  O213     1.0000 0.28511  0.50009  0.12749  Biso   1.000  O
  N427     1.0000 0.27600  0.52859  0.96108  Biso   1.000  N
  H637     1.0000 0.22189  0.43939  0.86897  Biso   1.000  H
  C641     1.0000 0.26250  0.50780  0.86161  Biso   1.000  C
  N428     1.0000 0.30271  0.51128  0.78577  Biso   1.000  N
  O214     1.0000 0.34841  0.45710  0.68061  Biso   1.000  O
  C642     1.0000 0.61060  0.28110  0.00668  Biso   1.000  C
  H638     1.0000 0.56289  0.31509  0.33558  Biso   1.000  H
  H639     1.0000 0.59281  0.27169  0.27687  Biso   1.000  H
  N429     1.0000 0.61268  0.34010  0.22843  Biso   1.000  N
  C643     1.0000 0.26971  0.57999  0.98526  Biso   1.000  C
  H640     1.0000 0.22930  0.52188  0.83551  Biso   1.000  H
  C644     1.0000 0.30781  0.55479  0.72083  Biso   1.000  C
  H641     1.0000 0.62631  0.25108  0.03707  Biso   1.000  H
  N430     1.0000 0.63549  0.32491  0.05058  Biso   1.000  N
  H642     1.0000 0.61739  0.28040  0.93192  Biso   1.000  H
  C645     1.0000 0.65221  0.32621  0.15720  Biso   1.000  C
  C646     1.0000 0.62160  0.38420  0.27602  Biso   1.000  C
  H643     1.0000 0.26790  0.58381  0.06079  Biso   1.000  H
  H644     1.0000 0.23648  0.59171  0.95648  Biso   1.000  H
  N431     1.0000 0.31101  0.61120  0.94612  Biso   1.000  N
  N432     1.0000 0.33598  0.59489  0.76988  Biso   1.000  N
  H645     1.0000 0.27292  0.56680  0.70203  Biso   1.000  H
  H646     1.0000 0.32579  0.54542  0.65666  Biso   1.000  H
  C647     1.0000 0.66031  0.35930  0.99240  Biso   1.000  C
  C648     1.0000 0.68918  0.37149  0.15943  Biso   1.000  C
  H647     1.0000 0.67000  0.29489  0.17800  Biso   1.000  H
  N433     1.0000 0.66402  0.40511  0.23012  Biso   1.000  N
  O215     1.0000 0.59721  0.40170  0.34641  Biso   1.000  O
  C649     1.0000 0.33969  0.64070  0.00760  Biso   1.000  C
  C650     1.0000 0.31082  0.62851  0.84057  Biso   1.000  C
  C651     1.0000 0.37840  0.61580  0.72398  Biso   1.000  C
  N434     1.0000 0.68899  0.38880  0.05388  Biso   1.000  N
  O216     1.0000 0.65711  0.36301  0.89830  Biso   1.000  O
  H648     1.0000 0.72461  0.36219  0.18307  Biso   1.000  H
  C652     1.0000 0.69219  0.44521  0.27917  Biso   1.000  C
  O217     1.0000 0.34289  0.63699  0.10170  Biso   1.000  O
  N435     1.0000 0.36451  0.67509  0.94942  Biso   1.000  N
  H649     1.0000 0.27539  0.63781  0.81693  Biso   1.000  H
  C653     1.0000 0.34779  0.67379  0.84280  Biso   1.000  C
  N436     1.0000 0.38732  0.65990  0.77157  Biso   1.000  N
  O218     1.0000 0.40279  0.59830  0.65359  Biso   1.000  O
  C654     1.0000 0.73029  0.42001  0.01474  Biso   1.000  C
  H650     1.0000 0.72708  0.43320  0.29797  Biso   1.000  H
  H651     1.0000 0.67421  0.45458  0.34334  Biso   1.000  H
  N437     1.0000 0.69729  0.48872  0.21423  Biso   1.000  N
  C655     1.0000 0.38940  0.71890  0.99332  Biso   1.000  C
  H652     1.0000 0.33000  0.70511  0.82200  Biso   1.000  H
  C656     1.0000 0.42472  0.69599  0.73250  Biso   1.000  C
  N438     1.0000 0.72400  0.47141  0.03892  Biso   1.000  N
  H653     1.0000 0.76352  0.40829  0.04352  Biso   1.000  H
  H654     1.0000 0.73210  0.41619  0.93921  Biso   1.000  H
  C657     1.0000 0.73750  0.49220  0.13839  Biso   1.000  C
  C658     1.0000 0.68111  0.53448  0.24831  Biso   1.000  C
  H655     1.0000 0.38261  0.71960  0.06808  Biso   1.000  H
  H656     1.0000 0.37369  0.74892  0.96293  Biso   1.000  H
  N439     1.0000 0.44490  0.72031  0.97651  Biso   1.000  N
  H657     1.0000 0.43711  0.68491  0.66442  Biso   1.000  H
  H658     1.0000 0.40719  0.72831  0.72313  Biso   1.000  H
  N440     1.0000 0.46829  0.70259  0.79959  Biso   1.000  N
  C659     1.0000 0.72149  0.50762  0.96431  Biso   1.000  C
  C660     1.0000 0.74241  0.54831  0.11729  Biso   1.000  C
  H659     1.0000 0.77070  0.47812  0.16449  Biso   1.000  H
  N441     1.0000 0.70481  0.56962  0.18859  Biso   1.000  N
  O219     1.0000 0.65159  0.54290  0.31939  Biso   1.000  O
  C661     1.0000 0.47860  0.71690  0.05519  Biso   1.000  C
  C662     1.0000 0.46771  0.73798  0.88241  Biso   1.000  C
  C663     1.0000 0.51750  0.68821  0.77403  Biso   1.000  C
  N442     1.0000 0.72851  0.55287  0.00990  Biso   1.000  N
  O220     1.0000 0.71489  0.49991  0.87251  Biso   1.000  O
  H660     1.0000 0.77811  0.56061  0.13103  Biso   1.000  H
  C664     1.0000 0.70068  0.62232  0.20840  Biso   1.000  C
  N443     1.0000 0.52769  0.72750  0.01773  Biso   1.000  N
  O221     1.0000 0.46922  0.70648  0.14400  Biso   1.000  O
  H661     1.0000 0.45231  0.77030  0.86053  Biso   1.000  H
  C665     1.0000 0.52599  0.74391  0.91127  Biso   1.000  C
  N444     1.0000 0.55131  0.71048  0.83973  Biso   1.000  N
  O222     1.0000 0.52870  0.66138  0.70233  Biso   1.000  O
  C666     1.0000 0.73851  0.59671  0.94888  Biso   1.000  C
  H662     1.0000 0.73581  0.63670  0.21016  Biso   1.000  H
  H663     1.0000 0.68490  0.62721  0.27679  Biso   1.000  H
  N445     1.0000 0.67000  0.64882  0.13187  Biso   1.000  N
  C667     1.0000 0.57050  0.73821  0.08551  Biso   1.000  C
  H664     1.0000 0.53819  0.77879  0.90329  Biso   1.000  H
  C668     1.0000 0.60601  0.71060  0.82469  Biso   1.000  C
  H665     1.0000 0.77131  0.61190  0.97221  Biso   1.000  H
  H666     1.0000 0.74299  0.58681  0.87627  Biso   1.000  H
  N446     1.0000 0.69790  0.63329  0.95502  Biso   1.000  N
  C669     1.0000 0.69269  0.66879  0.03738  Biso   1.000  C
  C670     1.0000 0.62511  0.67190  0.15651  Biso   1.000  C
  N447     1.0000 0.61199  0.70281  0.07730  Biso   1.000  N
  H667     1.0000 0.58389  0.77160  0.06962  Biso   1.000  H
  H668     1.0000 0.55780  0.73861  0.15712  Biso   1.000  H
  N448     1.0000 0.63430  0.68191  0.90068  Biso   1.000  N
  H669     1.0000 0.61840  0.74521  0.82660  Biso   1.000  H
  H670     1.0000 0.61361  0.69711  0.75568  Biso   1.000  H
  C671     1.0000 0.66591  0.64329  0.87442  Biso   1.000  C
  H671     1.0000 0.72589  0.68640  0.05127  Biso   1.000  H
  C672     1.0000 0.65101  0.70459  0.99823  Biso   1.000  C
  O223     1.0000 0.60091  0.66694  0.23657  Biso   1.000  O
  O224     1.0000 0.66487  0.62076  0.79191  Biso   1.000  O
  H672     1.0000 0.66471  0.73891  0.98803  Biso   1.000  H
