data_image0
_cell_length_a       20.131
_cell_length_b       17.273
_cell_length_c       25.521
_cell_angle_alpha    90
_cell_angle_beta     104.11
_cell_angle_gamma    90

_symmetry_space_group_name_H-M    "P 1"
_symmetry_int_tables_number       1

loop_
  _symmetry_equiv_pos_as_xyz
  'x, y, z'

loop_
  _atom_site_label
  _atom_site_occupancy
  _atom_site_fract_x
  _atom_site_fract_y
  _atom_site_fract_z
  _atom_site_thermal_displace_type
  _atom_site_B_iso_or_equiv
  _atom_site_type_symbol
  C1       1.0000 0.42338  0.41018  0.48798  Biso   1.000  C
  C2       1.0000 0.37202  0.44098  0.44782  Biso   1.000  C
  C3       1.0000 0.41069  0.35037  0.52038  Biso   1.000  C
  H1       1.0000 0.46898  0.43067  0.49440  Biso   1.000  H
  C4       1.0000 0.30458  0.41307  0.43679  Biso   1.000  C
  H2       1.0000 0.38141  0.48382  0.42661  Biso   1.000  H
  C5       1.0000 0.34510  0.31998  0.50939  Biso   1.000  C
  C6       1.0000 0.46692  0.32490  0.56810  Biso   1.000  C
  C7       1.0000 0.24861  0.45232  0.39679  Biso   1.000  C
  C8       1.0000 0.29230  0.35113  0.46810  Biso   1.000  C
  H3       1.0000 0.33570  0.27650  0.52992  Biso   1.000  H
  C9       1.0000 0.49318  0.39130  0.60519  Biso   1.000  C
  H4       1.0000 0.44913  0.28623  0.58802  Biso   1.000  H
  H5       1.0000 0.50401  0.30250  0.55569  Biso   1.000  H
  C10      1.0000 0.26373  0.49870  0.35651  Biso   1.000  C
  C11      1.0000 0.18089  0.44827  0.40111  Biso   1.000  C
  H6       1.0000 0.24668  0.33069  0.46160  Biso   1.000  H
  C12      1.0000 0.44683  0.42639  0.63812  Biso   1.000  C
  O1       1.0000 0.54868  0.42048  0.60749  Biso   1.000  O
  C13      1.0000 0.21362  0.54090  0.32039  Biso   1.000  C
  H7       1.0000 0.31058  0.50229  0.35429  Biso   1.000  H
  C14      1.0000 0.12899  0.48961  0.36609  Biso   1.000  C
  H8       1.0000 0.16999  0.41718  0.42899  Biso   1.000  H
  C15      1.0000 0.40138  0.48752  0.60422  Biso   1.000  C
  H9       1.0000 0.41912  0.38679  0.64842  Biso   1.000  H
  H10      1.0000 0.47418  0.45012  0.67019  Biso   1.000  H
  C16      1.0000 0.14680  0.53668  0.32649  Biso   1.000  C
  C17      1.0000 0.23198  0.59318  0.28112  Biso   1.000  C
  C18      1.0000 0.05681  0.48828  0.37089  Biso   1.000  C
  C19      1.0000 0.33219  0.47392  0.58381  Biso   1.000  C
  C20      1.0000 0.42941  0.55422  0.58850  Biso   1.000  C
  H11      1.0000 0.11179  0.56782  0.30370  Biso   1.000  H
  C21      1.0000 0.28329  0.57581  0.25538  Biso   1.000  C
  C22      1.0000 0.19860  0.66283  0.26860  Biso   1.000  C
  C23      1.0000 0.04082  0.47838  0.42010  Biso   1.000  C
  C24      1.0000 0.00338  0.50269  0.32710  Biso   1.000  C
  C25      1.0000 0.29319  0.52371  0.54701  Biso   1.000  C
  H12      1.0000 0.31151  0.42940  0.59581  Biso   1.000  H
  C26      1.0000 0.39038  0.60441  0.55238  Biso   1.000  C
  H13      1.0000 0.47687  0.56551  0.60369  Biso   1.000  H
  C27      1.0000 0.30342  0.62792  0.22039  Biso   1.000  C
  H14      1.0000 0.30598  0.52678  0.26290  Biso   1.000  H
  C28      1.0000 0.21851  0.71487  0.23320  Biso   1.000  C
  H15      1.0000 0.16147  0.67551  0.28459  Biso   1.000  H
  H16      1.0000 0.07700  0.46622  0.45101  Biso   1.000  H
  C29      1.0000 0.97362  0.48602  0.42479  Biso   1.000  C
  H17      1.0000 0.01341  0.50518  0.29219  Biso   1.000  H
  C30      1.0000 0.93628  0.51282  0.33178  Biso   1.000  C
  C31      1.0000 0.32071  0.58971  0.52931  Biso   1.000  C
  H18      1.0000 0.24542  0.51323  0.53258  Biso   1.000  H
  H19      1.0000 0.41040  0.65073  0.54212  Biso   1.000  H
  C32      1.0000 0.27213  0.69820  0.20949  Biso   1.000  C
  H20      1.0000 0.33881  0.61367  0.20310  Biso   1.000  H
  H21      1.0000 0.19489  0.76327  0.22492  Biso   1.000  H
  C33      1.0000 0.92182  0.50651  0.38079  Biso   1.000  C
  H22      1.0000 0.96288  0.47710  0.45901  Biso   1.000  H
  H23      1.0000 0.90560  0.52510  0.30051  Biso   1.000  H
  C34      1.0000 0.27911  0.63973  0.48681  Biso   1.000  C
  C35      1.0000 0.29438  0.75777  0.17361  Biso   1.000  C
  C36      1.0000 0.85161  0.52631  0.38988  Biso   1.000  C
  C37      1.0000 0.30880  0.68019  0.45142  Biso   1.000  C
  C38      1.0000 0.20851  0.64581  0.48018  Biso   1.000  C
  C39      1.0000 0.36808  0.78591  0.19688  Biso   1.000  C
  H24      1.0000 0.29162  0.73577  0.13850  Biso   1.000  H
  H25      1.0000 0.26372  0.80108  0.16941  Biso   1.000  H
  C40      1.0000 0.85449  0.59660  0.42588  Biso   1.000  C
  H26      1.0000 0.82049  0.53668  0.35558  Biso   1.000  H
  H27      1.0000 0.83441  0.48301  0.40608  Biso   1.000  H
  C41      1.0000 0.27003  0.72639  0.41081  Biso   1.000  C
  H28      1.0000 0.35741  0.67649  0.45582  Biso   1.000  H
  C42      1.0000 0.16828  0.69062  0.43970  Biso   1.000  C
  H29      1.0000 0.18748  0.61778  0.50438  Biso   1.000  H
  C43      1.0000 0.38062  0.84861  0.23841  Biso   1.000  C
  O2       1.0000 0.41341  0.75731  0.17991  Biso   1.000  O
  C44      1.0000 0.87272  0.67441  0.40661  Biso   1.000  C
  O3       1.0000 0.84391  0.58988  0.47008  Biso   1.000  O
  C45      1.0000 0.30231  0.76541  0.37142  Biso   1.000  C
  C46      1.0000 0.19960  0.73178  0.40540  Biso   1.000  C
  C47      1.0000 0.09299  0.69282  0.43218  Biso   1.000  C
  C48      1.0000 0.35663  0.82429  0.28791  Biso   1.000  C
  H30      1.0000 0.42877  0.85961  0.24860  Biso   1.000  H
  H31      1.0000 0.35670  0.89469  0.22338  Biso   1.000  H
  C49      1.0000 0.95002  0.68471  0.41610  Biso   1.000  C
  H32      1.0000 0.85270  0.67857  0.36851  Biso   1.000  H
  H33      1.0000 0.85403  0.71470  0.42471  Biso   1.000  H
  C50      1.0000 0.35662  0.72871  0.35570  Biso   1.000  C
  C51      1.0000 0.27810  0.83489  0.34580  Biso   1.000  C
  H34      1.0000 0.17241  0.76449  0.37800  Biso   1.000  H
  C52      1.0000 0.04999  0.69918  0.38132  Biso   1.000  C
  C53      1.0000 0.06211  0.68390  0.47582  Biso   1.000  C
  C54      1.0000 0.38350  0.75858  0.31538  Biso   1.000  C
  C55      1.0000 0.30458  0.86378  0.30419  Biso   1.000  C
  C56      1.0000 0.97960  0.69588  0.37279  Biso   1.000  C
  C57      1.0000 0.99160  0.68019  0.46770  Biso   1.000  C
  H35      1.0000 0.37580  0.68239  0.37421  Biso   1.000  H
  H36      1.0000 0.24279  0.86250  0.35740  Biso   1.000  H
  H37      1.0000 0.07022  0.70630  0.35130  Biso   1.000  H
  H38      1.0000 0.09098  0.68118  0.51170  Biso   1.000  H
  H39      1.0000 0.42069  0.73282  0.30520  Biso   1.000  H
  H40      1.0000 0.28741  0.91131  0.28641  Biso   1.000  H
  H41      1.0000 0.95032  0.70121  0.33720  Biso   1.000  H
  H42      1.0000 0.97139  0.67383  0.49780  Biso   1.000  H
  C58      1.0000 0.57660  0.58982  0.51202  Biso   1.000  C
  C59      1.0000 0.58929  0.64963  0.47962  Biso   1.000  C
  C60      1.0000 0.62802  0.55902  0.55222  Biso   1.000  C
  H43      1.0000 0.53100  0.56933  0.50560  Biso   1.000  H
  C61      1.0000 0.53311  0.67510  0.43190  Biso   1.000  C
  C62      1.0000 0.65488  0.68002  0.49061  Biso   1.000  C
  C63      1.0000 0.69540  0.58693  0.56321  Biso   1.000  C
  H44      1.0000 0.61862  0.51618  0.57339  Biso   1.000  H
  C64      1.0000 0.50680  0.60870  0.39481  Biso   1.000  C
  H45      1.0000 0.55090  0.71377  0.41198  Biso   1.000  H
  H46      1.0000 0.49602  0.69750  0.44430  Biso   1.000  H
  C65      1.0000 0.70768  0.64887  0.53190  Biso   1.000  C
  H47      1.0000 0.66428  0.72350  0.47008  Biso   1.000  H
  C66      1.0000 0.75142  0.54768  0.60321  Biso   1.000  C
  O4       1.0000 0.45130  0.57952  0.39251  Biso   1.000  O
  C67      1.0000 0.55320  0.57361  0.36188  Biso   1.000  C
  H48      1.0000 0.75330  0.66931  0.53840  Biso   1.000  H
  C68      1.0000 0.73630  0.50130  0.64349  Biso   1.000  C
  C69      1.0000 0.81909  0.55173  0.59888  Biso   1.000  C
  C70      1.0000 0.59860  0.51248  0.39578  Biso   1.000  C
  H49      1.0000 0.58092  0.61321  0.35158  Biso   1.000  H
  H50      1.0000 0.52580  0.54988  0.32980  Biso   1.000  H
  C71      1.0000 0.78641  0.45910  0.67961  Biso   1.000  C
  H51      1.0000 0.68940  0.49771  0.64571  Biso   1.000  H
  C72      1.0000 0.87099  0.51039  0.63391  Biso   1.000  C
  H52      1.0000 0.82999  0.58282  0.57101  Biso   1.000  H
  C73      1.0000 0.66779  0.52608  0.41618  Biso   1.000  C
  C74      1.0000 0.57062  0.44578  0.41150  Biso   1.000  C
  C75      1.0000 0.85323  0.46332  0.67351  Biso   1.000  C
  C76      1.0000 0.76801  0.40682  0.71892  Biso   1.000  C
  C77      1.0000 0.94322  0.51172  0.62911  Biso   1.000  C
  C78      1.0000 0.70679  0.47629  0.45299  Biso   1.000  C
  H53      1.0000 0.68847  0.57060  0.40419  Biso   1.000  H
  C79      1.0000 0.60960  0.39559  0.44762  Biso   1.000  C
  H54      1.0000 0.52311  0.43449  0.39631  Biso   1.000  H
  H55      1.0000 0.88819  0.43218  0.69629  Biso   1.000  H
  C80      1.0000 0.71669  0.42419  0.74462  Biso   1.000  C
  C81      1.0000 0.80138  0.33717  0.73140  Biso   1.000  C
  C82      1.0000 0.95921  0.52162  0.57990  Biso   1.000  C
  C83      1.0000 0.99660  0.49731  0.67290  Biso   1.000  C
  C84      1.0000 0.67927  0.41029  0.47069  Biso   1.000  C
  H56      1.0000 0.75461  0.48677  0.46742  Biso   1.000  H
  H57      1.0000 0.58958  0.34927  0.45788  Biso   1.000  H
  C85      1.0000 0.69661  0.37208  0.77960  Biso   1.000  C
  H58      1.0000 0.69400  0.47322  0.73710  Biso   1.000  H
  C86      1.0000 0.78152  0.28513  0.76680  Biso   1.000  C
  H59      1.0000 0.83851  0.32449  0.71540  Biso   1.000  H
  H60      1.0000 0.92298  0.53378  0.54899  Biso   1.000  H
  C87      1.0000 0.02641  0.51398  0.57521  Biso   1.000  C
  H61      1.0000 0.98662  0.49482  0.70781  Biso   1.000  H
  C88      1.0000 0.06370  0.48718  0.66821  Biso   1.000  C
  C89      1.0000 0.72092  0.36027  0.51319  Biso   1.000  C
  C90      1.0000 0.72785  0.30180  0.79051  Biso   1.000  C
  H62      1.0000 0.66122  0.38633  0.79690  Biso   1.000  H
  H63      1.0000 0.80510  0.23673  0.77512  Biso   1.000  H
  C91      1.0000 0.07821  0.49349  0.61921  Biso   1.000  C
  H64      1.0000 0.03710  0.52290  0.54099  Biso   1.000  H
  H65      1.0000 0.09438  0.47490  0.69949  Biso   1.000  H
  C92      1.0000 0.69118  0.31981  0.54858  Biso   1.000  C
  C93      1.0000 0.79152  0.35419  0.51982  Biso   1.000  C
  C94      1.0000 0.70560  0.24223  0.82639  Biso   1.000  C
  C95      1.0000 0.14842  0.47369  0.61012  Biso   1.000  C
  C96      1.0000 0.73000  0.27361  0.58919  Biso   1.000  C
  H66      1.0000 0.64259  0.32351  0.54422  Biso   1.000  H
  C97      1.0000 0.83170  0.30938  0.56030  Biso   1.000  C
  H67      1.0000 0.81250  0.38222  0.49562  Biso   1.000  H
  C98      1.0000 0.63190  0.21409  0.80312  Biso   1.000  C
  H68      1.0000 0.70841  0.26423  0.86150  Biso   1.000  H
  H69      1.0000 0.73631  0.19892  0.83059  Biso   1.000  H
  C99      1.0000 0.14549  0.40340  0.57412  Biso   1.000  C
  H70      1.0000 0.17949  0.46332  0.64442  Biso   1.000  H
  H71      1.0000 0.16562  0.51699  0.59391  Biso   1.000  H
  C100     1.0000 0.80038  0.26822  0.59460  Biso   1.000  C
  C101     1.0000 0.69767  0.23459  0.62858  Biso   1.000  C
  C102     1.0000 0.90700  0.30718  0.56782  Biso   1.000  C
  C103     1.0000 0.61941  0.15139  0.76158  Biso   1.000  C
  O5       1.0000 0.58657  0.24269  0.82009  Biso   1.000  O
  C104     1.0000 0.12731  0.32559  0.59339  Biso   1.000  C
  O6       1.0000 0.15612  0.41012  0.52992  Biso   1.000  O
  H72      1.0000 0.82762  0.23551  0.62199  Biso   1.000  H
  C105     1.0000 0.64341  0.27129  0.64430  Biso   1.000  C
  C106     1.0000 0.72188  0.16511  0.65420  Biso   1.000  C
  C107     1.0000 0.94999  0.30082  0.61868  Biso   1.000  C
  C108     1.0000 0.93787  0.31610  0.52418  Biso   1.000  C
  C109     1.0000 0.64340  0.17571  0.71209  Biso   1.000  C
  H73      1.0000 0.57121  0.14039  0.75140  Biso   1.000  H
  H74      1.0000 0.64333  0.10531  0.77661  Biso   1.000  H
  C110     1.0000 0.05001  0.31529  0.58390  Biso   1.000  C
  H75      1.0000 0.14728  0.32143  0.63149  Biso   1.000  H
  H76      1.0000 0.14601  0.28530  0.57529  Biso   1.000  H
  C111     1.0000 0.61648  0.24142  0.68462  Biso   1.000  C
  H77      1.0000 0.62418  0.31761  0.62579  Biso   1.000  H
  C112     1.0000 0.69540  0.13622  0.69581  Biso   1.000  C
  H78      1.0000 0.75719  0.13750  0.64260  Biso   1.000  H
  H79      1.0000 0.92981  0.29370  0.64870  Biso   1.000  H
  C113     1.0000 0.02038  0.30412  0.62721  Biso   1.000  C
  H80      1.0000 0.90900  0.31882  0.48830  Biso   1.000  H
  C114     1.0000 0.00838  0.31981  0.53230  Biso   1.000  C
  H81      1.0000 0.57929  0.26718  0.69480  Biso   1.000  H
  H82      1.0000 0.71262  0.08869  0.71359  Biso   1.000  H
  H83      1.0000 0.04971  0.29879  0.66280  Biso   1.000  H
  H84      1.0000 0.02859  0.32617  0.50220  Biso   1.000  H
  C115     1.0000 0.50841  0.81978  0.53230  Biso   1.000  C
  C116     1.0000 0.43789  0.81607  0.52418  Biso   1.000  C
  C117     1.0000 0.54999  0.81532  0.58390  Biso   1.000  C
  H85      1.0000 0.52861  0.82620  0.50220  Biso   1.000  H
  C118     1.0000 0.40702  0.80721  0.56782  Biso   1.000  C
  H86      1.0000 0.40902  0.81879  0.48830  Biso   1.000  H
  C119     1.0000 0.52040  0.80409  0.62721  Biso   1.000  C
  C120     1.0000 0.62728  0.82562  0.59339  Biso   1.000  C
  C121     1.0000 0.33168  0.80941  0.56030  Biso   1.000  C
  C122     1.0000 0.45001  0.80079  0.61868  Biso   1.000  C
  H87      1.0000 0.54968  0.79882  0.66280  Biso   1.000  H
  C123     1.0000 0.64552  0.90338  0.57412  Biso   1.000  C
  H88      1.0000 0.64730  0.82140  0.63149  Biso   1.000  H
  H89      1.0000 0.64598  0.78527  0.57529  Biso   1.000  H
  C124     1.0000 0.30040  0.76819  0.59460  Biso   1.000  C
  C125     1.0000 0.29150  0.85422  0.51982  Biso   1.000  C
  H90      1.0000 0.42978  0.79372  0.64870  Biso   1.000  H
  O7       1.0000 0.65610  0.91009  0.52992  Biso   1.000  O
  C126     1.0000 0.64840  0.97372  0.61012  Biso   1.000  C
  C127     1.0000 0.22998  0.77358  0.58919  Biso   1.000  C
  H91      1.0000 0.32759  0.73548  0.62199  Biso   1.000  H
  C128     1.0000 0.22090  0.86030  0.51319  Biso   1.000  C
  H92      1.0000 0.31253  0.88219  0.49562  Biso   1.000  H
  C129     1.0000 0.57819  0.99352  0.61921  Biso   1.000  C
  H93      1.0000 0.67952  0.96330  0.64442  Biso   1.000  H
  H94      1.0000 0.66560  0.01702  0.59391  Biso   1.000  H
  C130     1.0000 0.19120  0.81978  0.54858  Biso   1.000  C
  C131     1.0000 0.19769  0.73461  0.62858  Biso   1.000  C
  C132     1.0000 0.17930  0.91032  0.47069  Biso   1.000  C
  C133     1.0000 0.56373  0.98721  0.66821  Biso   1.000  C
  C134     1.0000 0.52639  0.01401  0.57521  Biso   1.000  C
  H95      1.0000 0.14261  0.82348  0.54422  Biso   1.000  H
  C135     1.0000 0.14339  0.77132  0.64430  Biso   1.000  C
  C136     1.0000 0.22190  0.66508  0.65420  Biso   1.000  C
  C137     1.0000 0.20681  0.97632  0.45299  Biso   1.000  C
  C138     1.0000 0.10963  0.89562  0.44762  Biso   1.000  C
  C139     1.0000 0.49662  0.99728  0.67290  Biso   1.000  C
  H96      1.0000 0.59440  0.97487  0.69949  Biso   1.000  H
  C140     1.0000 0.45919  0.02159  0.57990  Biso   1.000  C
  H97      1.0000 0.53707  0.02293  0.54099  Biso   1.000  H
  C141     1.0000 0.11651  0.74139  0.68462  Biso   1.000  C
  H98      1.0000 0.12421  0.81758  0.62579  Biso   1.000  H
  C142     1.0000 0.19542  0.63620  0.69581  Biso   1.000  C
  H99      1.0000 0.25722  0.63753  0.64260  Biso   1.000  H
  H100     1.0000 0.25459  0.98680  0.46742  Biso   1.000  H
  C143     1.0000 0.16782  0.02611  0.41618  Biso   1.000  C
  C144     1.0000 0.07060  0.94581  0.41150  Biso   1.000  C
  H101     1.0000 0.08960  0.84930  0.45788  Biso   1.000  H
  H102     1.0000 0.48660  0.99479  0.70781  Biso   1.000  H
  C145     1.0000 0.44320  0.01169  0.62911  Biso   1.000  C
  H103     1.0000 0.42301  0.03381  0.54899  Biso   1.000  H
  C146     1.0000 0.14338  0.67568  0.71209  Biso   1.000  C
  H104     1.0000 0.07932  0.76721  0.69480  Biso   1.000  H
  H105     1.0000 0.21259  0.58872  0.71359  Biso   1.000  H
  C147     1.0000 0.09857  0.01251  0.39578  Biso   1.000  C
  H106     1.0000 0.18850  0.07057  0.40419  Biso   1.000  H
  H107     1.0000 0.02308  0.93452  0.39631  Biso   1.000  H
  C148     1.0000 0.37102  0.01042  0.63391  Biso   1.000  C
  C149     1.0000 0.11938  0.65142  0.76158  Biso   1.000  C
  C150     1.0000 0.05318  0.07358  0.36188  Biso   1.000  C
  C151     1.0000 0.35320  0.96330  0.67351  Biso   1.000  C
  C152     1.0000 0.31911  0.05170  0.59888  Biso   1.000  C
  C153     1.0000 0.13192  0.71412  0.80312  Biso   1.000  C
  H108     1.0000 0.07118  0.64042  0.75140  Biso   1.000  H
  H109     1.0000 0.14330  0.60528  0.77661  Biso   1.000  H
  C154     1.0000 0.00682  0.10872  0.39481  Biso   1.000  C
  H110     1.0000 0.08089  0.11318  0.35158  Biso   1.000  H
  H111     1.0000 0.02578  0.04990  0.32980  Biso   1.000  H
  C155     1.0000 0.28639  0.95913  0.67961  Biso   1.000  C
  H112     1.0000 0.38821  0.93221  0.69629  Biso   1.000  H
  C156     1.0000 0.25140  0.04770  0.60321  Biso   1.000  C
  H113     1.0000 0.33002  0.08279  0.57101  Biso   1.000  H
  O8       1.0000 0.08660  0.74272  0.82009  Biso   1.000  O
  C157     1.0000 0.20558  0.74220  0.82639  Biso   1.000  C
  O9       1.0000 0.95132  0.07949  0.39251  Biso   1.000  O
  C158     1.0000 0.03309  0.17513  0.43190  Biso   1.000  C
  C159     1.0000 0.26799  0.90679  0.71892  Biso   1.000  C
  C160     1.0000 0.23628  0.00127  0.64349  Biso   1.000  C
  C161     1.0000 0.19542  0.08690  0.56321  Biso   1.000  C
  C162     1.0000 0.22782  0.80177  0.79051  Biso   1.000  C
  H114     1.0000 0.20838  0.76420  0.86150  Biso   1.000  H
  H115     1.0000 0.23628  0.69889  0.83059  Biso   1.000  H
  H116     1.0000 0.99599  0.19748  0.44430  Biso   1.000  H
  C163     1.0000 0.08931  0.14960  0.47962  Biso   1.000  C
  H117     1.0000 0.05088  0.21380  0.41198  Biso   1.000  H
  C164     1.0000 0.21672  0.92422  0.74462  Biso   1.000  C
  C165     1.0000 0.30140  0.83720  0.73140  Biso   1.000  C
  H118     1.0000 0.18943  0.99768  0.64571  Biso   1.000  H
  C166     1.0000 0.12800  0.05899  0.55222  Biso   1.000  C
  C167     1.0000 0.20770  0.14890  0.53190  Biso   1.000  C
  C168     1.0000 0.19658  0.87211  0.77960  Biso   1.000  C
  C169     1.0000 0.28149  0.78510  0.76680  Biso   1.000  C
  C170     1.0000 0.07663  0.08979  0.51202  Biso   1.000  C
  C171     1.0000 0.15490  0.17999  0.49061  Biso   1.000  C
  H119     1.0000 0.19398  0.97320  0.73710  Biso   1.000  H
  H120     1.0000 0.33848  0.82452  0.71540  Biso   1.000  H
  H121     1.0000 0.11859  0.01621  0.57339  Biso   1.000  H
  H122     1.0000 0.25328  0.16928  0.53840  Biso   1.000  H
  H123     1.0000 0.16119  0.88630  0.79690  Biso   1.000  H
  H124     1.0000 0.30513  0.73670  0.77512  Biso   1.000  H
  H125     1.0000 0.03098  0.06930  0.50560  Biso   1.000  H
  H126     1.0000 0.16431  0.22353  0.47008  Biso   1.000  H
  C172     1.0000 0.49162  0.18022  0.46770  Biso   1.000  C
  C173     1.0000 0.44999  0.18468  0.41610  Biso   1.000  C
  C174     1.0000 0.56209  0.18393  0.47582  Biso   1.000  C
  H127     1.0000 0.47142  0.17380  0.49780  Biso   1.000  H
  C175     1.0000 0.37270  0.17438  0.40661  Biso   1.000  C
  C176     1.0000 0.47958  0.19591  0.37279  Biso   1.000  C
  C177     1.0000 0.59301  0.19279  0.43218  Biso   1.000  C
  H128     1.0000 0.59101  0.18121  0.51170  Biso   1.000  H
  C178     1.0000 0.35451  0.09662  0.42588  Biso   1.000  C
  H129     1.0000 0.35273  0.17860  0.36851  Biso   1.000  H
  H130     1.0000 0.35400  0.21473  0.42471  Biso   1.000  H
  C179     1.0000 0.55002  0.19921  0.38132  Biso   1.000  C
  H131     1.0000 0.45030  0.20118  0.33720  Biso   1.000  H
  C180     1.0000 0.66830  0.19059  0.43970  Biso   1.000  C
  O10      1.0000 0.34388  0.08991  0.47008  Biso   1.000  O
  C181     1.0000 0.35158  0.02628  0.38988  Biso   1.000  C
  H132     1.0000 0.57020  0.20628  0.35130  Biso   1.000  H
  C182     1.0000 0.69958  0.23181  0.40540  Biso   1.000  C
  C183     1.0000 0.70848  0.14578  0.48018  Biso   1.000  C
  C184     1.0000 0.42179  0.00648  0.38079  Biso   1.000  C
  H133     1.0000 0.32052  0.03670  0.35558  Biso   1.000  H
  H134     1.0000 0.33438  0.98298  0.40608  Biso   1.000  H
  C185     1.0000 0.77000  0.22642  0.41081  Biso   1.000  C
  H135     1.0000 0.67239  0.26452  0.37800  Biso   1.000  H
  C186     1.0000 0.77908  0.13970  0.48681  Biso   1.000  C
  H136     1.0000 0.68750  0.11781  0.50438  Biso   1.000  H
  C187     1.0000 0.43630  0.01279  0.33178  Biso   1.000  C
  C188     1.0000 0.47359  0.98599  0.42479  Biso   1.000  C
  C189     1.0000 0.80883  0.18022  0.45142  Biso   1.000  C
  C190     1.0000 0.80229  0.26539  0.37142  Biso   1.000  C
  C191     1.0000 0.82068  0.08968  0.52931  Biso   1.000  C
  C192     1.0000 0.50341  0.00272  0.32710  Biso   1.000  C
  H137     1.0000 0.40563  0.02513  0.30051  Biso   1.000  H
  C193     1.0000 0.54079  0.97841  0.42010  Biso   1.000  C
  H138     1.0000 0.46291  0.97707  0.45901  Biso   1.000  H
  H139     1.0000 0.85743  0.17652  0.45582  Biso   1.000  H
  C194     1.0000 0.85659  0.22868  0.35570  Biso   1.000  C
  C195     1.0000 0.77808  0.33492  0.34580  Biso   1.000  C
  C196     1.0000 0.79322  0.02368  0.54701  Biso   1.000  C
  C197     1.0000 0.89040  0.10438  0.55238  Biso   1.000  C
  H140     1.0000 0.51338  0.00521  0.29219  Biso   1.000  H
  C198     1.0000 0.55678  0.98831  0.37089  Biso   1.000  C
  H141     1.0000 0.57702  0.96619  0.45101  Biso   1.000  H
  C199     1.0000 0.88347  0.25861  0.31538  Biso   1.000  C
  H142     1.0000 0.87582  0.18242  0.37421  Biso   1.000  H
  C200     1.0000 0.80461  0.36380  0.30419  Biso   1.000  C
  H143     1.0000 0.74281  0.36247  0.35740  Biso   1.000  H
  H144     1.0000 0.74539  0.01320  0.53258  Biso   1.000  H
  C201     1.0000 0.83221  0.97389  0.58381  Biso   1.000  C
  C202     1.0000 0.92938  0.05419  0.58850  Biso   1.000  C
  H145     1.0000 0.91043  0.15070  0.54212  Biso   1.000  H
  C203     1.0000 0.62901  0.98958  0.36609  Biso   1.000  C
  C204     1.0000 0.85660  0.32432  0.28791  Biso   1.000  C
  H146     1.0000 0.92071  0.23279  0.30520  Biso   1.000  H
  H147     1.0000 0.78739  0.41128  0.28641  Biso   1.000  H
  C205     1.0000 0.90141  0.98749  0.60422  Biso   1.000  C
  H148     1.0000 0.81148  0.92943  0.59581  Biso   1.000  H
  H149     1.0000 0.97690  0.06548  0.60369  Biso   1.000  H
  C206     1.0000 0.64678  0.03670  0.32649  Biso   1.000  C
  C207     1.0000 0.68092  0.94830  0.40111  Biso   1.000  C
  C208     1.0000 0.88060  0.34858  0.23841  Biso   1.000  C
  C209     1.0000 0.94680  0.92642  0.63812  Biso   1.000  C
  C210     1.0000 0.71359  0.04087  0.32039  Biso   1.000  C
  H150     1.0000 0.61182  0.06779  0.30370  Biso   1.000  H
  C211     1.0000 0.74858  0.95230  0.39679  Biso   1.000  C
  H151     1.0000 0.67001  0.91721  0.42899  Biso   1.000  H
  C212     1.0000 0.86811  0.28588  0.19688  Biso   1.000  C
  H152     1.0000 0.92880  0.35958  0.24860  Biso   1.000  H
  H153     1.0000 0.85668  0.39472  0.22338  Biso   1.000  H
  C213     1.0000 0.99321  0.89128  0.60519  Biso   1.000  C
  H154     1.0000 0.91909  0.88682  0.64842  Biso   1.000  H
  H155     1.0000 0.97420  0.95010  0.67019  Biso   1.000  H
  C214     1.0000 0.73201  0.09321  0.28112  Biso   1.000  C
  C215     1.0000 0.76370  0.99873  0.35651  Biso   1.000  C
  C216     1.0000 0.80461  0.91310  0.43679  Biso   1.000  C
  O11      1.0000 0.91338  0.25728  0.17991  Biso   1.000  O
  C217     1.0000 0.79440  0.25780  0.17361  Biso   1.000  C
  C218     1.0000 0.96689  0.82487  0.56810  Biso   1.000  C
  O12      1.0000 0.04871  0.92051  0.60749  Biso   1.000  O
  C219     1.0000 0.78331  0.07578  0.25538  Biso   1.000  C
  C220     1.0000 0.69858  0.16280  0.26860  Biso   1.000  C
  H156     1.0000 0.81060  0.00232  0.35429  Biso   1.000  H
  C221     1.0000 0.87200  0.94101  0.44782  Biso   1.000  C
  C222     1.0000 0.79228  0.85110  0.46810  Biso   1.000  C
  C223     1.0000 0.77216  0.19823  0.20949  Biso   1.000  C
  H157     1.0000 0.79160  0.23580  0.13850  Biso   1.000  H
  H158     1.0000 0.76370  0.30111  0.16941  Biso   1.000  H
  C224     1.0000 0.91072  0.85040  0.52038  Biso   1.000  C
  H159     1.0000 0.94910  0.78620  0.58802  Biso   1.000  H
  H160     1.0000 0.00399  0.80252  0.55569  Biso   1.000  H
  C225     1.0000 0.80340  0.12789  0.22039  Biso   1.000  C
  H161     1.0000 0.80600  0.02680  0.26290  Biso   1.000  H
  C226     1.0000 0.71849  0.21490  0.23320  Biso   1.000  C
  H162     1.0000 0.66150  0.17548  0.28459  Biso   1.000  H
  C227     1.0000 0.92340  0.91021  0.48798  Biso   1.000  C
  H163     1.0000 0.88139  0.98379  0.42661  Biso   1.000  H
  C228     1.0000 0.84508  0.82001  0.50939  Biso   1.000  C
  H164     1.0000 0.74670  0.83072  0.46160  Biso   1.000  H
  H165     1.0000 0.83879  0.11370  0.20310  Biso   1.000  H
  H166     1.0000 0.69492  0.26330  0.22492  Biso   1.000  H
  H167     1.0000 0.96900  0.93070  0.49440  Biso   1.000  H
  H168     1.0000 0.83572  0.77647  0.52992  Biso   1.000  H
  O13      1.0000 0.41339  0.24269  0.67989  Biso   1.000  O
  C229     1.0000 0.36808  0.21409  0.69690  Biso   1.000  C
  C230     1.0000 0.38061  0.15139  0.73839  Biso   1.000  C
  C231     1.0000 0.29441  0.24223  0.67359  Biso   1.000  C
  C232     1.0000 0.35661  0.17571  0.78789  Biso   1.000  C
  H169     1.0000 0.42882  0.14039  0.74862  Biso   1.000  H
  H170     1.0000 0.35670  0.10531  0.72340  Biso   1.000  H
  C233     1.0000 0.27218  0.30180  0.70951  Biso   1.000  C
  H171     1.0000 0.29162  0.26423  0.63852  Biso   1.000  H
  H172     1.0000 0.26371  0.19892  0.66939  Biso   1.000  H
  C234     1.0000 0.38349  0.24142  0.81540  Biso   1.000  C
  C235     1.0000 0.30458  0.13622  0.80421  Biso   1.000  C
  C236     1.0000 0.30342  0.37208  0.72041  Biso   1.000  C
  C237     1.0000 0.21850  0.28513  0.73318  Biso   1.000  C
  C238     1.0000 0.35660  0.27129  0.85568  Biso   1.000  C
  H173     1.0000 0.42068  0.26718  0.80522  Biso   1.000  H
  C239     1.0000 0.27809  0.16511  0.84578  Biso   1.000  C
  H174     1.0000 0.28740  0.08869  0.78639  Biso   1.000  H
  C240     1.0000 0.28329  0.42419  0.75540  Biso   1.000  C
  H175     1.0000 0.33880  0.38633  0.70308  Biso   1.000  H
  C241     1.0000 0.19860  0.33717  0.76861  Biso   1.000  C
  H176     1.0000 0.19488  0.23673  0.72490  Biso   1.000  H
  C242     1.0000 0.30230  0.23459  0.87140  Biso   1.000  C
  H177     1.0000 0.37578  0.31761  0.87419  Biso   1.000  H
  H178     1.0000 0.24279  0.13750  0.85742  Biso   1.000  H
  C243     1.0000 0.23202  0.40682  0.78110  Biso   1.000  C
  H179     1.0000 0.30602  0.47322  0.76292  Biso   1.000  H
  H180     1.0000 0.16152  0.32449  0.78461  Biso   1.000  H
  C244     1.0000 0.27001  0.27361  0.91079  Biso   1.000  C
  C245     1.0000 0.21361  0.45910  0.82041  Biso   1.000  C
  C246     1.0000 0.30879  0.31981  0.95140  Biso   1.000  C
  C247     1.0000 0.19960  0.26822  0.90542  Biso   1.000  C
  C248     1.0000 0.26371  0.50130  0.85649  Biso   1.000  C
  C249     1.0000 0.14680  0.46332  0.82651  Biso   1.000  C
  C250     1.0000 0.27909  0.36027  0.98679  Biso   1.000  C
  H181     1.0000 0.35739  0.32351  0.95580  Biso   1.000  H
  C251     1.0000 0.16833  0.30938  0.93972  Biso   1.000  C
  H182     1.0000 0.17239  0.23551  0.87798  Biso   1.000  H
  C252     1.0000 0.24860  0.54768  0.89681  Biso   1.000  C
  H183     1.0000 0.31062  0.49771  0.85431  Biso   1.000  H
  C253     1.0000 0.12898  0.51039  0.86611  Biso   1.000  C
  H184     1.0000 0.11178  0.43218  0.80368  Biso   1.000  H
  C254     1.0000 0.20851  0.35419  0.98020  Biso   1.000  C
  C255     1.0000 0.32069  0.41029  0.02929  Biso   1.000  C
  C256     1.0000 0.09298  0.30718  0.93220  Biso   1.000  C
  C257     1.0000 0.18088  0.55173  0.90109  Biso   1.000  C
  C258     1.0000 0.30458  0.58693  0.93681  Biso   1.000  C
  C259     1.0000 0.05680  0.51172  0.87091  Biso   1.000  C
  H185     1.0000 0.18747  0.38222  0.00440  Biso   1.000  H
  C260     1.0000 0.29318  0.47629  0.04699  Biso   1.000  C
  C261     1.0000 0.39037  0.39559  0.05240  Biso   1.000  C
  C262     1.0000 0.04998  0.30082  0.88130  Biso   1.000  C
  C263     1.0000 0.06210  0.31610  0.97580  Biso   1.000  C
  H186     1.0000 0.16998  0.58282  0.92901  Biso   1.000  H
  C264     1.0000 0.37201  0.55902  0.94780  Biso   1.000  C
  C265     1.0000 0.29229  0.64887  0.96808  Biso   1.000  C
  C266     1.0000 0.04080  0.52162  0.92008  Biso   1.000  C
  C267     1.0000 0.00343  0.49731  0.82712  Biso   1.000  C
  C268     1.0000 0.33217  0.52608  0.08379  Biso   1.000  C
  H187     1.0000 0.24537  0.48677  0.03260  Biso   1.000  H
  C269     1.0000 0.42939  0.44578  0.08848  Biso   1.000  C
  H188     1.0000 0.41039  0.34927  0.04210  Biso   1.000  H
  H189     1.0000 0.07022  0.29370  0.85132  Biso   1.000  H
  C270     1.0000 0.97960  0.30412  0.87281  Biso   1.000  C
  C271     1.0000 0.99159  0.31981  0.96772  Biso   1.000  C
  H190     1.0000 0.09098  0.31882  0.01172  Biso   1.000  H
  C272     1.0000 0.42342  0.58982  0.98800  Biso   1.000  C
  H191     1.0000 0.38140  0.51618  0.92659  Biso   1.000  H
  H192     1.0000 0.24672  0.66931  0.96162  Biso   1.000  H
  C273     1.0000 0.34510  0.68002  0.00941  Biso   1.000  C
  H193     1.0000 0.07698  0.53378  0.95099  Biso   1.000  H
  C274     1.0000 0.97361  0.51398  0.92481  Biso   1.000  C
  H194     1.0000 0.01340  0.49482  0.79221  Biso   1.000  H
  C275     1.0000 0.93633  0.48718  0.83180  Biso   1.000  C
  C276     1.0000 0.40137  0.51248  0.10420  Biso   1.000  C
  H195     1.0000 0.31149  0.57060  0.09579  Biso   1.000  H
  H196     1.0000 0.47687  0.43449  0.10371  Biso   1.000  H
  C277     1.0000 0.95000  0.31529  0.91608  Biso   1.000  C
  H197     1.0000 0.95032  0.29879  0.83722  Biso   1.000  H
  H198     1.0000 0.97139  0.32617  0.99782  Biso   1.000  H
  H199     1.0000 0.46901  0.56933  0.99438  Biso   1.000  H
  C278     1.0000 0.41069  0.64963  0.02040  Biso   1.000  C
  H200     1.0000 0.33568  0.72350  0.02990  Biso   1.000  H
  C279     1.0000 0.92182  0.49349  0.88081  Biso   1.000  C
  H201     1.0000 0.96292  0.52290  0.95899  Biso   1.000  H
  H202     1.0000 0.90559  0.47490  0.80049  Biso   1.000  H
  C280     1.0000 0.44676  0.57361  0.13809  Biso   1.000  C
  C281     1.0000 0.87271  0.32559  0.90659  Biso   1.000  C
  C282     1.0000 0.46686  0.67510  0.06812  Biso   1.000  C
  C283     1.0000 0.85160  0.47369  0.88990  Biso   1.000  C
  C284     1.0000 0.49318  0.60870  0.10521  Biso   1.000  C
  H203     1.0000 0.41910  0.61321  0.14840  Biso   1.000  H
  H204     1.0000 0.47418  0.54988  0.17021  Biso   1.000  H
  C285     1.0000 0.85448  0.40340  0.92590  Biso   1.000  C
  H205     1.0000 0.85269  0.32143  0.86849  Biso   1.000  H
  H206     1.0000 0.85401  0.28530  0.92469  Biso   1.000  H
  H207     1.0000 0.44906  0.71377  0.08800  Biso   1.000  H
  H208     1.0000 0.50396  0.69750  0.05571  Biso   1.000  H
  H209     1.0000 0.82049  0.46332  0.85560  Biso   1.000  H
  H210     1.0000 0.83441  0.51699  0.90610  Biso   1.000  H
  O14      1.0000 0.54868  0.57952  0.10751  Biso   1.000  O
  O15      1.0000 0.84390  0.41012  0.97010  Biso   1.000  O
  O16      1.0000 0.58659  0.75731  0.32011  Biso   1.000  O
  C286     1.0000 0.63190  0.78591  0.30310  Biso   1.000  C
  C287     1.0000 0.70562  0.75777  0.32641  Biso   1.000  C
  C288     1.0000 0.61942  0.84861  0.26161  Biso   1.000  C
  C289     1.0000 0.72785  0.69820  0.29049  Biso   1.000  C
  H211     1.0000 0.70841  0.73577  0.36148  Biso   1.000  H
  H212     1.0000 0.73632  0.80108  0.33061  Biso   1.000  H
  C290     1.0000 0.64342  0.82429  0.21211  Biso   1.000  C
  H213     1.0000 0.57121  0.85961  0.25138  Biso   1.000  H
  H214     1.0000 0.64328  0.89469  0.27659  Biso   1.000  H
  C291     1.0000 0.69661  0.62792  0.27958  Biso   1.000  C
  C292     1.0000 0.78148  0.71487  0.26682  Biso   1.000  C
  C293     1.0000 0.61649  0.75858  0.18460  Biso   1.000  C
  C294     1.0000 0.69540  0.86378  0.19579  Biso   1.000  C
  C295     1.0000 0.71669  0.57581  0.24460  Biso   1.000  C
  H215     1.0000 0.66118  0.61367  0.29692  Biso   1.000  H
  C296     1.0000 0.80138  0.66283  0.23138  Biso   1.000  C
  H216     1.0000 0.80510  0.76327  0.27510  Biso   1.000  H
  C297     1.0000 0.64343  0.72871  0.14432  Biso   1.000  C
  H217     1.0000 0.57930  0.73282  0.19478  Biso   1.000  H
  C298     1.0000 0.72190  0.83489  0.15422  Biso   1.000  C
  H218     1.0000 0.71258  0.91131  0.21361  Biso   1.000  H
  C299     1.0000 0.76802  0.59318  0.21890  Biso   1.000  C
  H219     1.0000 0.69401  0.52678  0.23708  Biso   1.000  H
  H220     1.0000 0.83851  0.67551  0.21539  Biso   1.000  H
  C300     1.0000 0.69769  0.76541  0.12860  Biso   1.000  C
  H221     1.0000 0.62420  0.68239  0.12581  Biso   1.000  H
  H222     1.0000 0.75719  0.86250  0.14258  Biso   1.000  H
  C301     1.0000 0.78642  0.54090  0.17959  Biso   1.000  C
  C302     1.0000 0.73002  0.72639  0.08921  Biso   1.000  C
  C303     1.0000 0.73632  0.49870  0.14351  Biso   1.000  C
  C304     1.0000 0.85318  0.53668  0.17349  Biso   1.000  C
  C305     1.0000 0.69119  0.68019  0.04860  Biso   1.000  C
  C306     1.0000 0.80038  0.73178  0.09458  Biso   1.000  C
  C307     1.0000 0.75138  0.45232  0.10319  Biso   1.000  C
  H223     1.0000 0.68941  0.50229  0.14569  Biso   1.000  H
  C308     1.0000 0.87100  0.48961  0.13389  Biso   1.000  C
  H224     1.0000 0.88820  0.56782  0.19632  Biso   1.000  H
  C309     1.0000 0.72089  0.63973  0.01321  Biso   1.000  C
  H225     1.0000 0.64259  0.67649  0.04420  Biso   1.000  H
  C310     1.0000 0.83170  0.69062  0.06028  Biso   1.000  C
  H226     1.0000 0.82759  0.76449  0.12202  Biso   1.000  H
  C311     1.0000 0.69540  0.41307  0.06319  Biso   1.000  C
  C312     1.0000 0.81910  0.44827  0.09891  Biso   1.000  C
  C313     1.0000 0.94318  0.48828  0.12909  Biso   1.000  C
  C314     1.0000 0.67934  0.58971  0.97071  Biso   1.000  C
  C315     1.0000 0.79147  0.64581  0.01980  Biso   1.000  C
  C316     1.0000 0.90700  0.69282  0.06780  Biso   1.000  C
  C317     1.0000 0.62798  0.44098  0.05220  Biso   1.000  C
  C318     1.0000 0.70769  0.35113  0.03192  Biso   1.000  C
  H227     1.0000 0.83000  0.41718  0.07099  Biso   1.000  H
  C319     1.0000 0.95923  0.47838  0.07992  Biso   1.000  C
  C320     1.0000 0.99660  0.50269  0.17288  Biso   1.000  C
  C321     1.0000 0.70680  0.52371  0.95301  Biso   1.000  C
  C322     1.0000 0.60961  0.60441  0.94760  Biso   1.000  C
  H228     1.0000 0.81251  0.61778  0.99560  Biso   1.000  H
  C323     1.0000 0.95000  0.69918  0.11870  Biso   1.000  C
  C324     1.0000 0.93789  0.68390  0.02420  Biso   1.000  C
  C325     1.0000 0.57661  0.41018  0.01200  Biso   1.000  C
  H229     1.0000 0.61859  0.48382  0.07341  Biso   1.000  H
  C326     1.0000 0.65493  0.31998  0.99059  Biso   1.000  C
  H230     1.0000 0.75331  0.33069  0.03838  Biso   1.000  H
  H231     1.0000 0.92300  0.46622  0.04901  Biso   1.000  H
  C327     1.0000 0.02642  0.48602  0.07519  Biso   1.000  C
  H232     1.0000 0.98658  0.50518  0.20779  Biso   1.000  H
  C328     1.0000 0.06371  0.51282  0.16820  Biso   1.000  C
  C329     1.0000 0.66781  0.47392  0.91621  Biso   1.000  C
  H233     1.0000 0.75461  0.51323  0.96740  Biso   1.000  H
  C330     1.0000 0.57064  0.55422  0.91152  Biso   1.000  C
  H234     1.0000 0.58964  0.65073  0.95790  Biso   1.000  H
  C331     1.0000 0.02038  0.69588  0.12719  Biso   1.000  C
  H235     1.0000 0.92981  0.70630  0.14868  Biso   1.000  H
  C332     1.0000 0.00839  0.68019  0.03228  Biso   1.000  C
  H236     1.0000 0.90900  0.68118  0.98828  Biso   1.000  H
  H237     1.0000 0.53102  0.43067  0.00562  Biso   1.000  H
  C333     1.0000 0.58934  0.35037  0.97960  Biso   1.000  C
  H238     1.0000 0.66430  0.27650  0.97010  Biso   1.000  H
  C334     1.0000 0.07821  0.50651  0.11919  Biso   1.000  C
  H239     1.0000 0.03711  0.47710  0.04101  Biso   1.000  H
  H240     1.0000 0.09439  0.52510  0.19951  Biso   1.000  H
  C335     1.0000 0.59862  0.48752  0.89580  Biso   1.000  C
  H241     1.0000 0.68854  0.42940  0.90421  Biso   1.000  H
  H242     1.0000 0.52311  0.56551  0.89629  Biso   1.000  H
  C336     1.0000 0.05003  0.68471  0.08392  Biso   1.000  C
  H243     1.0000 0.04971  0.70121  0.16278  Biso   1.000  H
  H244     1.0000 0.02859  0.67383  0.00218  Biso   1.000  H
  C337     1.0000 0.53312  0.32490  0.93188  Biso   1.000  C
  C338     1.0000 0.14838  0.52631  0.11010  Biso   1.000  C
  C339     1.0000 0.55322  0.42639  0.86190  Biso   1.000  C
  C340     1.0000 0.12732  0.67441  0.09341  Biso   1.000  C
  C341     1.0000 0.50680  0.39130  0.89479  Biso   1.000  C
  H245     1.0000 0.55092  0.28623  0.91200  Biso   1.000  H
  H246     1.0000 0.49602  0.30250  0.94429  Biso   1.000  H
  C342     1.0000 0.14550  0.59660  0.07410  Biso   1.000  C
  H247     1.0000 0.17949  0.53668  0.14440  Biso   1.000  H
  H248     1.0000 0.16557  0.48301  0.09390  Biso   1.000  H
  H249     1.0000 0.58093  0.38679  0.85160  Biso   1.000  H
  H250     1.0000 0.52581  0.45012  0.82978  Biso   1.000  H
  H251     1.0000 0.14730  0.67857  0.13151  Biso   1.000  H
  H252     1.0000 0.14602  0.71470  0.07531  Biso   1.000  H
  O17      1.0000 0.45130  0.42048  0.89249  Biso   1.000  O
  O18      1.0000 0.15608  0.58988  0.02990  Biso   1.000  O
  C343     1.0000 0.20559  0.25780  0.32641  Biso   1.000  C
  C344     1.0000 0.22782  0.19823  0.29049  Biso   1.000  C
  C345     1.0000 0.13192  0.28588  0.30310  Biso   1.000  C
  H253     1.0000 0.20838  0.23580  0.36148  Biso   1.000  H
  H254     1.0000 0.23630  0.30111  0.33061  Biso   1.000  H
  C346     1.0000 0.28151  0.21490  0.26682  Biso   1.000  C
  C347     1.0000 0.19659  0.12789  0.27958  Biso   1.000  C
  C348     1.0000 0.11940  0.34858  0.26161  Biso   1.000  C
  O19      1.0000 0.08661  0.25728  0.32011  Biso   1.000  O
  C349     1.0000 0.30141  0.16280  0.23138  Biso   1.000  C
  H255     1.0000 0.30508  0.26330  0.27510  Biso   1.000  H
  C350     1.0000 0.21672  0.07578  0.24460  Biso   1.000  C
  H256     1.0000 0.16121  0.11370  0.29692  Biso   1.000  H
  C351     1.0000 0.14339  0.32432  0.21211  Biso   1.000  C
  H257     1.0000 0.07118  0.35958  0.25138  Biso   1.000  H
  H258     1.0000 0.14330  0.39472  0.27659  Biso   1.000  H
  C352     1.0000 0.26799  0.09321  0.21890  Biso   1.000  C
  H259     1.0000 0.33849  0.17548  0.21539  Biso   1.000  H
  H260     1.0000 0.19398  0.02680  0.23708  Biso   1.000  H
  C353     1.0000 0.11651  0.25861  0.18460  Biso   1.000  C
  C354     1.0000 0.19538  0.36380  0.19579  Biso   1.000  C
  C355     1.0000 0.28639  0.04087  0.17959  Biso   1.000  C
  C356     1.0000 0.14341  0.22868  0.14432  Biso   1.000  C
  H261     1.0000 0.07927  0.23279  0.19478  Biso   1.000  H
  C357     1.0000 0.22192  0.33492  0.15422  Biso   1.000  C
  H262     1.0000 0.21261  0.41128  0.21361  Biso   1.000  H
  C358     1.0000 0.35321  0.03670  0.17349  Biso   1.000  C
  C359     1.0000 0.23630  0.99873  0.14351  Biso   1.000  C
  C360     1.0000 0.19771  0.26539  0.12860  Biso   1.000  C
  H263     1.0000 0.12422  0.18242  0.12581  Biso   1.000  H
  H264     1.0000 0.25717  0.36247  0.14258  Biso   1.000  H
  H265     1.0000 0.38823  0.06779  0.19632  Biso   1.000  H
  C361     1.0000 0.37102  0.98958  0.13389  Biso   1.000  C
  H266     1.0000 0.18938  0.00232  0.14569  Biso   1.000  H
  C362     1.0000 0.25140  0.95230  0.10319  Biso   1.000  C
  C363     1.0000 0.22999  0.22642  0.08921  Biso   1.000  C
  C364     1.0000 0.31908  0.94830  0.09891  Biso   1.000  C
  C365     1.0000 0.44320  0.98831  0.12909  Biso   1.000  C
  C366     1.0000 0.19538  0.91310  0.06319  Biso   1.000  C
  C367     1.0000 0.19122  0.18022  0.04860  Biso   1.000  C
  C368     1.0000 0.30040  0.23181  0.09458  Biso   1.000  C
  H267     1.0000 0.32997  0.91721  0.07099  Biso   1.000  H
  C369     1.0000 0.49658  0.00272  0.17288  Biso   1.000  C
  C370     1.0000 0.45920  0.97841  0.07992  Biso   1.000  C
  C371     1.0000 0.12800  0.94101  0.05220  Biso   1.000  C
  C372     1.0000 0.20772  0.85110  0.03192  Biso   1.000  C
  C373     1.0000 0.22091  0.13970  0.01321  Biso   1.000  C
  H268     1.0000 0.14262  0.17652  0.04420  Biso   1.000  H
  C374     1.0000 0.33168  0.19059  0.06028  Biso   1.000  C
  H269     1.0000 0.32761  0.26452  0.12202  Biso   1.000  H
  C375     1.0000 0.56368  0.01279  0.16820  Biso   1.000  C
  H270     1.0000 0.48660  0.00521  0.20779  Biso   1.000  H
  C376     1.0000 0.52639  0.98599  0.07519  Biso   1.000  C
  H271     1.0000 0.42302  0.96619  0.04901  Biso   1.000  H
  C377     1.0000 0.07658  0.91021  0.01200  Biso   1.000  C
  H272     1.0000 0.11861  0.98379  0.07341  Biso   1.000  H
  C378     1.0000 0.15491  0.82001  0.99059  Biso   1.000  C
  H273     1.0000 0.25328  0.83072  0.03838  Biso   1.000  H
  C379     1.0000 0.29150  0.14578  0.01980  Biso   1.000  C
  C380     1.0000 0.17931  0.08968  0.97071  Biso   1.000  C
  C381     1.0000 0.40697  0.19279  0.06780  Biso   1.000  C
  C382     1.0000 0.57819  0.00648  0.11919  Biso   1.000  C
  H274     1.0000 0.59442  0.02513  0.19951  Biso   1.000  H
  H275     1.0000 0.53709  0.97707  0.04101  Biso   1.000  H
  C383     1.0000 0.08932  0.85040  0.97960  Biso   1.000  C
  H276     1.0000 0.03099  0.93070  0.00562  Biso   1.000  H
  H277     1.0000 0.16432  0.77647  0.97010  Biso   1.000  H
  H278     1.0000 0.31253  0.11781  0.99560  Biso   1.000  H
  C384     1.0000 0.20683  0.02368  0.95301  Biso   1.000  C
  C385     1.0000 0.10963  0.10438  0.94760  Biso   1.000  C
  C386     1.0000 0.44998  0.19921  0.11870  Biso   1.000  C
  C387     1.0000 0.43791  0.18393  0.02420  Biso   1.000  C
  C388     1.0000 0.64840  0.02628  0.11010  Biso   1.000  C
  C389     1.0000 0.03309  0.82487  0.93188  Biso   1.000  C
  C390     1.0000 0.16783  0.97389  0.91621  Biso   1.000  C
  H279     1.0000 0.25464  0.01320  0.96740  Biso   1.000  H
  C391     1.0000 0.07061  0.05419  0.91152  Biso   1.000  C
  H280     1.0000 0.08962  0.15070  0.95790  Biso   1.000  H
  C392     1.0000 0.52041  0.19591  0.12719  Biso   1.000  C
  H281     1.0000 0.42979  0.20628  0.14868  Biso   1.000  H
  C393     1.0000 0.50841  0.18022  0.03228  Biso   1.000  C
  H282     1.0000 0.40903  0.18121  0.98828  Biso   1.000  H
  C394     1.0000 0.64552  0.09662  0.07410  Biso   1.000  C
  H283     1.0000 0.67952  0.03670  0.14440  Biso   1.000  H
  H284     1.0000 0.66560  0.98298  0.09390  Biso   1.000  H
  H285     1.0000 0.99599  0.80252  0.94429  Biso   1.000  H
  C395     1.0000 0.00683  0.89128  0.89479  Biso   1.000  C
  H286     1.0000 0.05094  0.78620  0.91200  Biso   1.000  H
  C396     1.0000 0.09864  0.98749  0.89580  Biso   1.000  C
  H287     1.0000 0.18852  0.92943  0.90421  Biso   1.000  H
  H288     1.0000 0.02314  0.06548  0.89629  Biso   1.000  H
  C397     1.0000 0.55000  0.18468  0.08392  Biso   1.000  C
  H289     1.0000 0.54969  0.20118  0.16278  Biso   1.000  H
  H290     1.0000 0.52862  0.17380  0.00218  Biso   1.000  H
  C398     1.0000 0.62730  0.17438  0.09341  Biso   1.000  C
  O20      1.0000 0.65610  0.08991  0.02990  Biso   1.000  O
  O21      1.0000 0.95132  0.92051  0.89249  Biso   1.000  O
  C399     1.0000 0.05324  0.92642  0.86190  Biso   1.000  C
  H291     1.0000 0.64732  0.17860  0.13151  Biso   1.000  H
  H292     1.0000 0.64600  0.21473  0.07531  Biso   1.000  H
  H293     1.0000 0.08091  0.88682  0.85160  Biso   1.000  H
  H294     1.0000 0.02583  0.95010  0.82978  Biso   1.000  H
  C400     1.0000 0.79439  0.74220  0.67359  Biso   1.000  C
  C401     1.0000 0.86811  0.71412  0.69690  Biso   1.000  C
  C402     1.0000 0.77216  0.80177  0.70951  Biso   1.000  C
  H295     1.0000 0.79160  0.76420  0.63852  Biso   1.000  H
  H296     1.0000 0.76368  0.69889  0.66939  Biso   1.000  H
  C403     1.0000 0.88058  0.65142  0.73839  Biso   1.000  C
  O22      1.0000 0.91342  0.74272  0.67989  Biso   1.000  O
  C404     1.0000 0.80340  0.87211  0.72041  Biso   1.000  C
  C405     1.0000 0.71847  0.78510  0.73318  Biso   1.000  C
  C406     1.0000 0.85659  0.67568  0.78789  Biso   1.000  C
  H297     1.0000 0.92880  0.64042  0.74862  Biso   1.000  H
  H298     1.0000 0.85673  0.60528  0.72340  Biso   1.000  H
  C407     1.0000 0.78331  0.92422  0.75540  Biso   1.000  C
  H299     1.0000 0.83877  0.88630  0.70308  Biso   1.000  H
  C408     1.0000 0.69863  0.83720  0.76861  Biso   1.000  C
  H300     1.0000 0.69490  0.73670  0.72490  Biso   1.000  H
  C409     1.0000 0.88352  0.74139  0.81540  Biso   1.000  C
  C410     1.0000 0.80460  0.63620  0.80421  Biso   1.000  C
  C411     1.0000 0.73199  0.90679  0.78110  Biso   1.000  C
  H301     1.0000 0.80600  0.97320  0.76292  Biso   1.000  H
  H302     1.0000 0.66150  0.82452  0.78461  Biso   1.000  H
  C412     1.0000 0.85658  0.77132  0.85568  Biso   1.000  C
  H303     1.0000 0.92071  0.76721  0.80522  Biso   1.000  H
  C413     1.0000 0.77811  0.66508  0.84578  Biso   1.000  C
  H304     1.0000 0.78737  0.58872  0.78639  Biso   1.000  H
  C414     1.0000 0.71359  0.95913  0.82041  Biso   1.000  C
  C415     1.0000 0.80232  0.73461  0.87140  Biso   1.000  C
  H305     1.0000 0.87581  0.81758  0.87419  Biso   1.000  H
  H306     1.0000 0.74281  0.63753  0.85742  Biso   1.000  H
  C416     1.0000 0.64683  0.96330  0.82651  Biso   1.000  C
  C417     1.0000 0.76369  0.00127  0.85649  Biso   1.000  C
  C418     1.0000 0.76999  0.77358  0.91079  Biso   1.000  C
  H307     1.0000 0.61180  0.93221  0.80368  Biso   1.000  H
  C419     1.0000 0.62901  0.01042  0.86611  Biso   1.000  C
  H308     1.0000 0.81060  0.99768  0.85431  Biso   1.000  H
  C420     1.0000 0.74863  0.04770  0.89681  Biso   1.000  C
  C421     1.0000 0.80881  0.81978  0.95140  Biso   1.000  C
  C422     1.0000 0.69963  0.76819  0.90542  Biso   1.000  C
  C423     1.0000 0.68090  0.05170  0.90109  Biso   1.000  C
  C424     1.0000 0.55683  0.01169  0.87091  Biso   1.000  C
  C425     1.0000 0.80460  0.08690  0.93681  Biso   1.000  C
  C426     1.0000 0.77912  0.86030  0.98679  Biso   1.000  C
  H309     1.0000 0.85741  0.82348  0.95580  Biso   1.000  H
  C427     1.0000 0.66830  0.80941  0.93972  Biso   1.000  C
  H310     1.0000 0.67242  0.73548  0.87798  Biso   1.000  H
  H311     1.0000 0.67001  0.08279  0.92901  Biso   1.000  H
  C428     1.0000 0.50340  0.99728  0.82712  Biso   1.000  C
  C429     1.0000 0.54078  0.02159  0.92008  Biso   1.000  C
  C430     1.0000 0.87198  0.05899  0.94780  Biso   1.000  C
  C431     1.0000 0.79231  0.14890  0.96808  Biso   1.000  C
  C432     1.0000 0.70848  0.85422  0.98020  Biso   1.000  C
  C433     1.0000 0.82067  0.91032  0.02929  Biso   1.000  C
  C434     1.0000 0.59301  0.80721  0.93220  Biso   1.000  C
  C435     1.0000 0.43630  0.98721  0.83180  Biso   1.000  C
  H312     1.0000 0.51338  0.99479  0.79221  Biso   1.000  H
  C436     1.0000 0.47359  0.01401  0.92481  Biso   1.000  C
  H313     1.0000 0.57701  0.03381  0.95099  Biso   1.000  H
  C437     1.0000 0.92340  0.08979  0.98800  Biso   1.000  C
  H314     1.0000 0.88142  0.01621  0.92659  Biso   1.000  H
  H315     1.0000 0.74670  0.16928  0.96162  Biso   1.000  H
  C438     1.0000 0.84507  0.17999  0.00941  Biso   1.000  C
  H316     1.0000 0.68750  0.88219  0.00440  Biso   1.000  H
  C439     1.0000 0.79315  0.97632  0.04699  Biso   1.000  C
  C440     1.0000 0.89040  0.89562  0.05240  Biso   1.000  C
  C441     1.0000 0.55000  0.80079  0.88130  Biso   1.000  C
  C442     1.0000 0.56212  0.81607  0.97580  Biso   1.000  C
  C443     1.0000 0.42179  0.99352  0.88081  Biso   1.000  C
  H317     1.0000 0.40561  0.97487  0.80049  Biso   1.000  H
  H318     1.0000 0.46289  0.02293  0.95899  Biso   1.000  H
  H319     1.0000 0.96899  0.06930  0.99438  Biso   1.000  H
  C444     1.0000 0.91066  0.14960  0.02040  Biso   1.000  C
  H320     1.0000 0.83566  0.22353  0.02990  Biso   1.000  H
  H321     1.0000 0.74539  0.98680  0.03260  Biso   1.000  H
  C445     1.0000 0.83220  0.02611  0.08379  Biso   1.000  C
  C446     1.0000 0.92937  0.94581  0.08848  Biso   1.000  C
  H322     1.0000 0.91036  0.84930  0.04210  Biso   1.000  H
  C447     1.0000 0.47962  0.80409  0.87281  Biso   1.000  C
  H323     1.0000 0.57019  0.79372  0.85132  Biso   1.000  H
  C448     1.0000 0.49162  0.81978  0.96772  Biso   1.000  C
  H324     1.0000 0.59100  0.81879  0.01172  Biso   1.000  H
  C449     1.0000 0.35158  0.97372  0.88990  Biso   1.000  C
  C450     1.0000 0.96689  0.17513  0.06812  Biso   1.000  C
  C451     1.0000 0.90139  0.01251  0.10420  Biso   1.000  C
  H325     1.0000 0.81147  0.07057  0.09579  Biso   1.000  H
  H326     1.0000 0.97690  0.93452  0.10371  Biso   1.000  H
  C452     1.0000 0.44998  0.81532  0.91608  Biso   1.000  C
  H327     1.0000 0.45029  0.79882  0.83722  Biso   1.000  H
  H328     1.0000 0.47141  0.82620  0.99782  Biso   1.000  H
  C453     1.0000 0.35451  0.90338  0.92590  Biso   1.000  C
  H329     1.0000 0.32051  0.96330  0.85560  Biso   1.000  H
  H330     1.0000 0.33438  0.01702  0.90610  Biso   1.000  H
  C454     1.0000 0.99320  0.10872  0.10521  Biso   1.000  C
  H331     1.0000 0.94909  0.21380  0.08800  Biso   1.000  H
  H332     1.0000 0.00399  0.19748  0.05571  Biso   1.000  H
  C455     1.0000 0.94679  0.07358  0.13809  Biso   1.000  C
  C456     1.0000 0.37268  0.82562  0.90659  Biso   1.000  C
  O23      1.0000 0.34388  0.91009  0.97010  Biso   1.000  O
  O24      1.0000 0.04871  0.07949  0.10751  Biso   1.000  O
  H333     1.0000 0.91907  0.11318  0.14840  Biso   1.000  H
  H334     1.0000 0.97420  0.04990  0.17021  Biso   1.000  H
  H335     1.0000 0.35271  0.82140  0.86849  Biso   1.000  H
  H336     1.0000 0.35398  0.78527  0.92469  Biso   1.000  H
  Ne1      1.0000 0.27763  0.09102  0.09541  Biso   1.000  Ne
  He1      1.0000 0.30798  0.13524  0.14016  Biso   1.000  He
  He2      1.0000 0.20731  0.05618  0.06916  Biso   1.000  He
  He3      1.0000 0.26901  0.04368  0.05518  Biso   1.000  He
  Ar1      1.0000 0.27686  0.08994  0.09613  Biso   1.000  Ar
  Ne2      1.0000 0.72237  0.09102  0.40458  Biso   1.000  Ne
  He4      1.0000 0.73104  0.04335  0.44514  Biso   1.000  He
  He5      1.0000 0.80426  0.05295  0.43390  Biso   1.000  He
  He6      1.0000 0.65902  0.13379  0.37019  Biso   1.000  He
  Ar2      1.0000 0.72306  0.08994  0.40383  Biso   1.000  Ar
  Ne3      1.0000 0.22237  0.59102  0.40458  Biso   1.000  Ne
  He7      1.0000 0.23107  0.54338  0.44514  Biso   1.000  He
  He8      1.0000 0.30801  0.54111  0.44594  Biso   1.000  He
  He9      1.0000 0.15902  0.63375  0.37021  Biso   1.000  He
  Ar3      1.0000 0.22306  0.58995  0.40383  Biso   1.000  Ar
  Ne4      1.0000 0.77763  0.40898  0.59542  Biso   1.000  Ne
  He10     1.0000 0.83654  0.36851  0.62799  Biso   1.000  He
  He11     1.0000 0.71788  0.38034  0.62844  Biso   1.000  He
  He12     1.0000 0.76890  0.45736  0.55410  Biso   1.000  He
  Ar4      1.0000 0.77689  0.41006  0.59614  Biso   1.000  Ar
  Ne5      1.0000 0.77763  0.59102  0.09541  Biso   1.000  Ne
  He13     1.0000 0.80802  0.63519  0.14012  Biso   1.000  He
  He14     1.0000 0.70626  0.56382  0.07291  Biso   1.000  He
  He15     1.0000 0.76900  0.54371  0.05519  Biso   1.000  He
  Ar5      1.0000 0.77695  0.58996  0.09615  Biso   1.000  Ar
  Ne6      1.0000 0.22237  0.40898  0.90458  Biso   1.000  Ne
  He16     1.0000 0.16206  0.44986  0.93774  Biso   1.000  He
  He17     1.0000 0.27993  0.38122  0.87300  Biso   1.000  He
  He18     1.0000 0.18731  0.35642  0.85018  Biso   1.000  He
  Ar6      1.0000 0.22305  0.41004  0.90385  Biso   1.000  Ar
  Ne7      1.0000 0.27763  0.90898  0.59542  Biso   1.000  Ne
  He19     1.0000 0.33651  0.86848  0.62800  Biso   1.000  He
  He20     1.0000 0.21539  0.88346  0.62194  Biso   1.000  He
  He21     1.0000 0.26886  0.95739  0.55409  Biso   1.000  He
  Ar7      1.0000 0.27692  0.91006  0.59616  Biso   1.000  Ar
  Ne8      1.0000 0.72237  0.90898  0.90458  Biso   1.000  Ne
  He22     1.0000 0.66206  0.94986  0.93772  Biso   1.000  He
  He23     1.0000 0.77992  0.88116  0.87293  Biso   1.000  He
  He24     1.0000 0.68736  0.85639  0.85017  Biso   1.000  He
  Ar8      1.0000 0.72312  0.91006  0.90387  Biso   1.000  Ar
