data_image0
_cell_length_a       26.198
_cell_length_b       15.139
_cell_length_c       31.831
_cell_angle_alpha    90
_cell_angle_beta     90
_cell_angle_gamma    90

_symmetry_space_group_name_H-M    "P 1"
_symmetry_int_tables_number       1

loop_
  _symmetry_equiv_pos_as_xyz
  'x, y, z'

loop_
  _atom_site_label
  _atom_site_occupancy
  _atom_site_fract_x
  _atom_site_fract_y
  _atom_site_fract_z
  _atom_site_thermal_displace_type
  _atom_site_B_iso_or_equiv
  _atom_site_type_symbol
  C1       1.0000 0.51111  0.63710  0.38032  Biso   1.000  C
  N1       1.0000 0.56352  0.63538  0.36405  Biso   1.000  N
  C2       1.0000 0.49840  0.72700  0.39876  Biso   1.000  C
  H1       1.0000 0.50725  0.59125  0.40228  Biso   1.000  H
  H2       1.0000 0.48695  0.62336  0.35732  Biso   1.000  H
  C3       1.0000 0.56817  0.63987  0.32493  Biso   1.000  C
  N2       1.0000 0.49156  0.79153  0.36559  Biso   1.000  N
  H3       1.0000 0.46672  0.72284  0.41560  Biso   1.000  H
  H4       1.0000 0.52634  0.74622  0.41761  Biso   1.000  H
  C4       1.0000 0.61768  0.63802  0.30269  Biso   1.000  C
  H5       1.0000 0.53798  0.64489  0.30857  Biso   1.000  H
  H6       1.0000 0.46763  0.77647  0.34850  Biso   1.000  H
  C5       1.0000 0.48630  0.88183  0.37954  Biso   1.000  C
  C6       1.0000 0.66211  0.60460  0.32051  Biso   1.000  C
  C7       1.0000 0.62001  0.66887  0.26166  Biso   1.000  C
  H7       1.0000 0.46114  0.88341  0.40272  Biso   1.000  H
  H8       1.0000 0.47221  0.91717  0.35610  Biso   1.000  H
  C8       1.0000 0.53516  0.92509  0.39446  Biso   1.000  C
  C9       1.0000 0.70723  0.60460  0.29817  Biso   1.000  C
  H9       1.0000 0.66139  0.58161  0.34825  Biso   1.000  H
  H10      1.0000 0.58974  0.68888  0.24825  Biso   1.000  H
  C10      1.0000 0.66539  0.67092  0.24027  Biso   1.000  C
  N3       1.0000 0.57245  0.92668  0.36069  Biso   1.000  N
  H11      1.0000 0.52790  0.98613  0.40385  Biso   1.000  H
  H12      1.0000 0.54913  0.89180  0.41865  Biso   1.000  H
  C11      1.0000 0.71036  0.63868  0.25783  Biso   1.000  C
  H13      1.0000 0.73700  0.58049  0.31080  Biso   1.000  H
  H14      1.0000 0.66623  0.69489  0.21272  Biso   1.000  H
  C12      1.0000 0.61081  0.88011  0.36471  Biso   1.000  C
  C13      1.0000 0.75941  0.64337  0.23427  Biso   1.000  C
  H15      1.0000 0.61367  0.84398  0.38899  Biso   1.000  H
  C14      1.0000 0.65268  0.87800  0.33326  Biso   1.000  C
  C15      1.0000 0.76010  0.64628  0.19063  Biso   1.000  C
  C16      1.0000 0.80586  0.64489  0.25560  Biso   1.000  C
  C17      1.0000 0.64986  0.92542  0.29588  Biso   1.000  C
  C18      1.0000 0.69589  0.82912  0.34181  Biso   1.000  C
  H16      1.0000 0.72876  0.64311  0.17571  Biso   1.000  H
  C19      1.0000 0.80586  0.65387  0.16808  Biso   1.000  C
  H17      1.0000 0.80594  0.64317  0.28541  Biso   1.000  H
  C20      1.0000 0.85251  0.64892  0.23408  Biso   1.000  C
  C21      1.0000 0.69047  0.92582  0.26848  Biso   1.000  C
  H18      1.0000 0.61982  0.95759  0.28925  Biso   1.000  H
  C22      1.0000 0.73674  0.83077  0.31520  Biso   1.000  C
  H19      1.0000 0.69723  0.79384  0.36647  Biso   1.000  H
  C23      1.0000 0.85129  0.65480  0.19057  Biso   1.000  C
  C24      1.0000 0.80479  0.66068  0.12164  Biso   1.000  C
  C25      1.0000 0.90098  0.64172  0.25767  Biso   1.000  C
  H20      1.0000 0.68795  0.95779  0.24291  Biso   1.000  H
  C26      1.0000 0.73544  0.87978  0.27772  Biso   1.000  C
  H21      1.0000 0.76659  0.79827  0.32211  Biso   1.000  H
  H22      1.0000 0.88259  0.65955  0.17568  Biso   1.000  H
  C27      1.0000 0.84613  0.63181  0.09701  Biso   1.000  C
  C28      1.0000 0.76258  0.69522  0.10063  Biso   1.000  C
  C29      1.0000 0.94183  0.59383  0.24096  Biso   1.000  C
  C30      1.0000 0.90721  0.67699  0.29779  Biso   1.000  C
  C31      1.0000 0.78025  0.88427  0.24963  Biso   1.000  C
  H23      1.0000 0.87572  0.60863  0.11030  Biso   1.000  H
  C32      1.0000 0.84422  0.63657  0.05347  Biso   1.000  C
  C33      1.0000 0.76075  0.69820  0.05724  Biso   1.000  C
  H24      1.0000 0.73452  0.71702  0.11643  Biso   1.000  H
  H25      1.0000 0.93912  0.56946  0.21353  Biso   1.000  H
  C34      1.0000 0.98588  0.58141  0.26367  Biso   1.000  C
  C35      1.0000 0.95122  0.66438  0.32054  Biso   1.000  C
  H26      1.0000 0.88026  0.71075  0.30976  Biso   1.000  H
  C36      1.0000 0.82968  0.88269  0.26663  Biso   1.000  C
  C37      1.0000 0.77510  0.89068  0.20625  Biso   1.000  C
  C38      1.0000 0.80109  0.66847  0.03299  Biso   1.000  C
  H27      1.0000 0.87281  0.61781  0.03742  Biso   1.000  H
  H28      1.0000 0.73120  0.72118  0.04379  Biso   1.000  H
  C39      1.0000 0.99176  0.61497  0.30401  Biso   1.000  C
  H29      1.0000 0.01309  0.54891  0.25142  Biso   1.000  H
  H30      1.0000 0.95423  0.68954  0.34777  Biso   1.000  H
  H31      1.0000 0.83377  0.87872  0.29622  Biso   1.000  H
  C40      1.0000 0.87255  0.88691  0.24137  Biso   1.000  C
  C41      1.0000 0.81735  0.89643  0.18023  Biso   1.000  C
  H32      1.0000 0.74189  0.89108  0.19424  Biso   1.000  H
  C42      1.0000 0.79647  0.66940  0.98693  Biso   1.000  C
  C43      1.0000 0.03851  0.59707  0.32713  Biso   1.000  C
  C44      1.0000 0.86617  0.89451  0.19817  Biso   1.000  C
  C45      1.0000 0.92469  0.88520  0.25972  Biso   1.000  C
  C46      1.0000 0.81151  0.90792  0.13411  Biso   1.000  C
  H33      1.0000 0.76403  0.68287  0.97521  Biso   1.000  H
  N4       1.0000 0.83235  0.65361  0.96221  Biso   1.000  N
  H34      1.0000 0.06573  0.56919  0.31253  Biso   1.000  H
  N5       1.0000 0.04531  0.61622  0.36534  Biso   1.000  N
  H35      1.0000 0.89534  0.89841  0.18055  Biso   1.000  H
  C47      1.0000 0.93435  0.91882  0.29983  Biso   1.000  C
  C48      1.0000 0.96553  0.84999  0.23703  Biso   1.000  C
  C49      1.0000 0.77117  0.95528  0.11787  Biso   1.000  C
  C50      1.0000 0.84751  0.87298  0.10575  Biso   1.000  C
  C51      1.0000 0.82090  0.65830  0.91731  Biso   1.000  C
  C52      1.0000 0.09470  0.59330  0.38384  Biso   1.000  C
  H36      1.0000 0.90702  0.94266  0.31582  Biso   1.000  H
  C53      1.0000 0.98286  0.91770  0.31658  Biso   1.000  C
  H37      1.0000 0.95981  0.82581  0.20992  Biso   1.000  H
  C54      1.0000 0.01405  0.85019  0.25375  Biso   1.000  C
  H38      1.0000 0.74624  0.97866  0.13647  Biso   1.000  H
  C55      1.0000 0.76601  0.96981  0.07537  Biso   1.000  C
  H39      1.0000 0.87491  0.83797  0.11596  Biso   1.000  H
  C56      1.0000 0.84327  0.88923  0.06359  Biso   1.000  C
  H40      1.0000 0.78353  0.65790  0.91298  Biso   1.000  H
  H41      1.0000 0.83556  0.60625  0.90277  Biso   1.000  H
  C57      1.0000 0.84400  0.74410  0.89878  Biso   1.000  C
  H42      1.0000 0.11852  0.57428  0.36144  Biso   1.000  H
  H43      1.0000 0.09039  0.54363  0.40376  Biso   1.000  H
  C58      1.0000 0.11634  0.67211  0.40646  Biso   1.000  C
  H44      1.0000 0.98851  0.94062  0.34397  Biso   1.000  H
  C59      1.0000 0.02367  0.88348  0.29383  Biso   1.000  C
  H45      1.0000 0.04153  0.82707  0.23766  Biso   1.000  H
  C60      1.0000 0.80224  0.93930  0.04756  Biso   1.000  C
  H46      1.0000 0.73716  0.00106  0.06513  Biso   1.000  H
  H47      1.0000 0.86827  0.86637  0.04489  Biso   1.000  H
  H48      1.0000 0.88129  0.74483  0.90402  Biso   1.000  H
  H49      1.0000 0.83858  0.74496  0.86802  Biso   1.000  H
  N6       1.0000 0.82109  0.82231  0.91731  Biso   1.000  N
  N7       1.0000 0.12474  0.74331  0.37665  Biso   1.000  N
  H50      1.0000 0.09226  0.69172  0.42858  Biso   1.000  H
  H51      1.0000 0.14898  0.65592  0.42009  Biso   1.000  H
  C61      1.0000 0.07550  0.88183  0.31114  Biso   1.000  C
  C62      1.0000 0.79769  0.96050  0.00248  Biso   1.000  C
  H52      1.0000 0.81678  0.81650  0.94399  Biso   1.000  H
  C63      1.0000 0.84449  0.90409  0.90669  Biso   1.000  C
  H53      1.0000 0.14551  0.72865  0.35692  Biso   1.000  H
  C64      1.0000 0.13825  0.82740  0.39568  Biso   1.000  C
  H54      1.0000 0.10215  0.85732  0.29456  Biso   1.000  H
  N8       1.0000 0.08630  0.91129  0.34702  Biso   1.000  N
  N9       1.0000 0.83300  0.95158  0.97779  Biso   1.000  N
  H55      1.0000 0.76597  0.98190  0.99224  Biso   1.000  H
  H56      1.0000 0.83812  0.91783  0.87679  Biso   1.000  H
  H57      1.0000 0.88190  0.89973  0.91094  Biso   1.000  H
  C65      1.0000 0.82350  0.97563  0.93356  Biso   1.000  C
  C66      1.0000 0.13783  0.89880  0.36229  Biso   1.000  C
  H58      1.0000 0.17265  0.82337  0.40847  Biso   1.000  H
  H59      1.0000 0.11352  0.84220  0.41811  Biso   1.000  H
  H60      1.0000 0.78643  0.98210  0.92850  Biso   1.000  H
  H61      1.0000 0.84041  0.03237  0.92686  Biso   1.000  H
  H62      1.0000 0.15085  0.95482  0.37429  Biso   1.000  H
  H63      1.0000 0.16043  0.88150  0.33876  Biso   1.000  H
  C67      1.0000 0.48889  0.36290  0.61965  Biso   1.000  C
  C68      1.0000 0.50160  0.27300  0.60121  Biso   1.000  C
  N10      1.0000 0.43648  0.36462  0.63595  Biso   1.000  N
  H64      1.0000 0.49275  0.40875  0.59772  Biso   1.000  H
  H65      1.0000 0.51305  0.37664  0.64268  Biso   1.000  H
  N11      1.0000 0.50844  0.20847  0.63441  Biso   1.000  N
  H66      1.0000 0.53328  0.27716  0.58437  Biso   1.000  H
  H67      1.0000 0.47366  0.25378  0.58239  Biso   1.000  H
  C69      1.0000 0.43183  0.36013  0.67503  Biso   1.000  C
  C70      1.0000 0.51370  0.11817  0.62046  Biso   1.000  C
  H68      1.0000 0.53237  0.22353  0.65147  Biso   1.000  H
  C71      1.0000 0.38232  0.36198  0.69731  Biso   1.000  C
  H69      1.0000 0.46202  0.35511  0.69143  Biso   1.000  H
  C72      1.0000 0.46484  0.07491  0.60554  Biso   1.000  C
  H70      1.0000 0.53886  0.11659  0.59725  Biso   1.000  H
  H71      1.0000 0.52779  0.08283  0.64390  Biso   1.000  H
  C73      1.0000 0.33789  0.39540  0.67949  Biso   1.000  C
  C74      1.0000 0.37999  0.33113  0.73831  Biso   1.000  C
  N12      1.0000 0.42755  0.07332  0.63931  Biso   1.000  N
  H72      1.0000 0.47210  0.01387  0.59615  Biso   1.000  H
  H73      1.0000 0.45087  0.10820  0.58135  Biso   1.000  H
  C75      1.0000 0.29277  0.39540  0.70180  Biso   1.000  C
  H74      1.0000 0.33861  0.41839  0.65172  Biso   1.000  H
  H75      1.0000 0.41026  0.31112  0.75172  Biso   1.000  H
  C76      1.0000 0.33461  0.32908  0.75970  Biso   1.000  C
  C77      1.0000 0.38919  0.11989  0.63526  Biso   1.000  C
  C78      1.0000 0.28964  0.36132  0.74214  Biso   1.000  C
  H76      1.0000 0.26300  0.41951  0.68920  Biso   1.000  H
  H77      1.0000 0.33377  0.30511  0.78728  Biso   1.000  H
  H78      1.0000 0.38633  0.15602  0.61098  Biso   1.000  H
  C79      1.0000 0.34732  0.12200  0.66671  Biso   1.000  C
  C80      1.0000 0.24059  0.35663  0.76573  Biso   1.000  C
  C81      1.0000 0.35014  0.07458  0.70409  Biso   1.000  C
  C82      1.0000 0.30411  0.17088  0.65819  Biso   1.000  C
  C83      1.0000 0.23990  0.35372  0.80934  Biso   1.000  C
  C84      1.0000 0.19414  0.35511  0.74440  Biso   1.000  C
  C85      1.0000 0.30953  0.07418  0.73149  Biso   1.000  C
  H79      1.0000 0.38018  0.04241  0.71075  Biso   1.000  H
  C86      1.0000 0.26326  0.16923  0.68480  Biso   1.000  C
  H80      1.0000 0.30277  0.20616  0.63353  Biso   1.000  H
  H81      1.0000 0.27124  0.35689  0.82426  Biso   1.000  H
  C87      1.0000 0.19414  0.34613  0.83189  Biso   1.000  C
  H82      1.0000 0.19406  0.35683  0.71455  Biso   1.000  H
  C88      1.0000 0.14749  0.35108  0.76592  Biso   1.000  C
  H83      1.0000 0.31205  0.04221  0.75709  Biso   1.000  H
  C89      1.0000 0.26456  0.12022  0.72228  Biso   1.000  C
  H84      1.0000 0.23341  0.20173  0.67786  Biso   1.000  H
  C90      1.0000 0.14871  0.34520  0.80943  Biso   1.000  C
  C91      1.0000 0.19521  0.33932  0.87836  Biso   1.000  C
  C92      1.0000 0.09902  0.35828  0.74233  Biso   1.000  C
  C93      1.0000 0.21975  0.11573  0.75037  Biso   1.000  C
  H85      1.0000 0.11741  0.34045  0.82432  Biso   1.000  H
  C94      1.0000 0.15387  0.36819  0.90299  Biso   1.000  C
  C95      1.0000 0.23742  0.30478  0.89934  Biso   1.000  C
  C96      1.0000 0.05817  0.40617  0.75904  Biso   1.000  C
  C97      1.0000 0.09279  0.32301  0.70218  Biso   1.000  C
  C98      1.0000 0.17032  0.11731  0.73334  Biso   1.000  C
  C99      1.0000 0.22490  0.10932  0.79372  Biso   1.000  C
  H86      1.0000 0.12428  0.39137  0.88967  Biso   1.000  H
  C100     1.0000 0.15578  0.36343  0.94653  Biso   1.000  C
  C101     1.0000 0.23925  0.30180  0.94276  Biso   1.000  C
  H87      1.0000 0.26548  0.28298  0.88354  Biso   1.000  H
  H88      1.0000 0.06088  0.43054  0.78647  Biso   1.000  H
  C102     1.0000 0.01412  0.41859  0.73633  Biso   1.000  C
  C103     1.0000 0.04878  0.33562  0.67946  Biso   1.000  C
  H89      1.0000 0.11974  0.28925  0.69024  Biso   1.000  H
  H90      1.0000 0.16623  0.12128  0.70375  Biso   1.000  H
  C104     1.0000 0.12745  0.11309  0.75860  Biso   1.000  C
  C105     1.0000 0.18265  0.10357  0.81977  Biso   1.000  C
  H91      1.0000 0.25811  0.10892  0.80576  Biso   1.000  H
  C106     1.0000 0.19891  0.33153  0.96698  Biso   1.000  C
  H92      1.0000 0.12719  0.38219  0.96255  Biso   1.000  H
  H93      1.0000 0.26880  0.27882  0.95617  Biso   1.000  H
  C107     1.0000 0.00824  0.38503  0.69596  Biso   1.000  C
  H94      1.0000 0.98691  0.45109  0.74855  Biso   1.000  H
  H95      1.0000 0.04577  0.31046  0.65223  Biso   1.000  H
  C108     1.0000 0.13383  0.10549  0.80180  Biso   1.000  C
  C109     1.0000 0.07531  0.11480  0.74025  Biso   1.000  C
  C110     1.0000 0.18849  0.09208  0.86585  Biso   1.000  C
  C111     1.0000 0.20353  0.33060  0.01307  Biso   1.000  C
  C112     1.0000 0.96149  0.40293  0.67287  Biso   1.000  C
  H96      1.0000 0.10466  0.10159  0.81942  Biso   1.000  H
  C113     1.0000 0.06565  0.08118  0.70017  Biso   1.000  C
  C114     1.0000 0.03447  0.15001  0.76294  Biso   1.000  C
  C115     1.0000 0.22883  0.04472  0.88213  Biso   1.000  C
  C116     1.0000 0.15249  0.12702  0.89422  Biso   1.000  C
  H97      1.0000 0.23597  0.31713  0.02479  Biso   1.000  H
  N13      1.0000 0.16765  0.34639  0.03779  Biso   1.000  N
  H98      1.0000 0.93427  0.43081  0.68744  Biso   1.000  H
  N14      1.0000 0.95469  0.38378  0.63466  Biso   1.000  N
  H99      1.0000 0.09298  0.05734  0.68418  Biso   1.000  H
  C117     1.0000 0.01714  0.08230  0.68342  Biso   1.000  C
  H100     1.0000 0.04019  0.17419  0.79008  Biso   1.000  H
  C118     1.0000 0.98595  0.14981  0.74622  Biso   1.000  C
  H101     1.0000 0.25376  0.02134  0.86350  Biso   1.000  H
  C119     1.0000 0.23399  0.03019  0.92460  Biso   1.000  C
  H102     1.0000 0.12509  0.16203  0.88404  Biso   1.000  H
  C120     1.0000 0.15673  0.11077  0.93638  Biso   1.000  C
  C121     1.0000 0.17910  0.34170  0.08269  Biso   1.000  C
  C122     1.0000 0.90530  0.40670  0.61616  Biso   1.000  C
  H103     1.0000 0.01149  0.05938  0.65603  Biso   1.000  H
  C123     1.0000 0.97633  0.11652  0.70614  Biso   1.000  C
  H104     1.0000 0.95847  0.17293  0.76234  Biso   1.000  H
  C124     1.0000 0.19776  0.06070  0.95244  Biso   1.000  C
  H105     1.0000 0.26284  0.99894  0.93487  Biso   1.000  H
  H106     1.0000 0.13173  0.13363  0.95511  Biso   1.000  H
  C125     1.0000 0.15600  0.25590  0.10122  Biso   1.000  C
  H107     1.0000 0.21647  0.34210  0.08702  Biso   1.000  H
  H108     1.0000 0.16444  0.39375  0.09720  Biso   1.000  H
  C126     1.0000 0.88366  0.32789  0.59351  Biso   1.000  C
  H109     1.0000 0.88148  0.42572  0.63853  Biso   1.000  H
  H110     1.0000 0.90961  0.45637  0.59621  Biso   1.000  H
  C127     1.0000 0.92450  0.11817  0.68883  Biso   1.000  C
  C128     1.0000 0.20231  0.03950  0.99749  Biso   1.000  C
  N15      1.0000 0.17891  0.17769  0.08269  Biso   1.000  N
  H111     1.0000 0.11871  0.25517  0.09601  Biso   1.000  H
  H112     1.0000 0.16142  0.25504  0.13198  Biso   1.000  H
  N16      1.0000 0.87526  0.25669  0.62335  Biso   1.000  N
  H113     1.0000 0.90774  0.30828  0.57142  Biso   1.000  H
  H114     1.0000 0.85102  0.34408  0.57987  Biso   1.000  H
  H115     1.0000 0.89785  0.14268  0.70541  Biso   1.000  H
  N17      1.0000 0.91370  0.08871  0.65295  Biso   1.000  N
  N18      1.0000 0.16700  0.04842  0.02221  Biso   1.000  N
  H116     1.0000 0.23403  0.01810  0.00773  Biso   1.000  H
  C129     1.0000 0.15551  0.09591  0.09327  Biso   1.000  C
  H117     1.0000 0.18322  0.18350  0.05601  Biso   1.000  H
  C130     1.0000 0.86175  0.17260  0.60429  Biso   1.000  C
  H118     1.0000 0.85449  0.27135  0.64308  Biso   1.000  H
  C131     1.0000 0.86217  0.10120  0.63768  Biso   1.000  C
  C132     1.0000 0.17650  0.02437  0.06644  Biso   1.000  C
  H119     1.0000 0.16188  0.08217  0.12318  Biso   1.000  H
  H120     1.0000 0.11810  0.10027  0.08906  Biso   1.000  H
  H121     1.0000 0.82735  0.17663  0.59150  Biso   1.000  H
  H122     1.0000 0.88648  0.15780  0.58189  Biso   1.000  H
  H123     1.0000 0.84915  0.04518  0.62571  Biso   1.000  H
  H124     1.0000 0.83957  0.11850  0.66124  Biso   1.000  H
  H125     1.0000 0.15959  0.96763  0.07314  Biso   1.000  H
  H126     1.0000 0.21357  0.01790  0.07150  Biso   1.000  H
  C133     1.0000 0.65578  0.36343  0.55345  Biso   1.000  C
  C134     1.0000 0.69891  0.33153  0.53297  Biso   1.000  C
  C135     1.0000 0.65387  0.36819  0.59700  Biso   1.000  C
  H127     1.0000 0.62719  0.38219  0.53743  Biso   1.000  H
  C136     1.0000 0.70353  0.33060  0.48692  Biso   1.000  C
  C137     1.0000 0.73925  0.30180  0.55722  Biso   1.000  C
  C138     1.0000 0.69521  0.33932  0.62163  Biso   1.000  C
  H128     1.0000 0.62428  0.39137  0.61032  Biso   1.000  H
  N19      1.0000 0.66765  0.34639  0.46219  Biso   1.000  N
  H129     1.0000 0.73597  0.31713  0.47520  Biso   1.000  H
  H130     1.0000 0.76880  0.27882  0.54378  Biso   1.000  H
  C139     1.0000 0.73742  0.30478  0.60064  Biso   1.000  C
  C140     1.0000 0.69414  0.34613  0.66809  Biso   1.000  C
  C141     1.0000 0.67910  0.34170  0.41730  Biso   1.000  C
  H131     1.0000 0.76548  0.28298  0.61644  Biso   1.000  H
  C142     1.0000 0.64871  0.34520  0.69055  Biso   1.000  C
  C143     1.0000 0.73990  0.35372  0.69065  Biso   1.000  C
  C144     1.0000 0.65600  0.25590  0.39879  Biso   1.000  C
  H132     1.0000 0.71647  0.34210  0.41296  Biso   1.000  H
  H133     1.0000 0.66444  0.39375  0.40275  Biso   1.000  H
  H134     1.0000 0.61741  0.34045  0.67566  Biso   1.000  H
  C145     1.0000 0.64749  0.35108  0.73406  Biso   1.000  C
  H135     1.0000 0.77124  0.35689  0.67569  Biso   1.000  H
  C146     1.0000 0.74059  0.35663  0.73425  Biso   1.000  C
  H136     1.0000 0.61871  0.25517  0.40401  Biso   1.000  H
  H137     1.0000 0.66142  0.25504  0.36801  Biso   1.000  H
  N20      1.0000 0.67891  0.17769  0.41733  Biso   1.000  N
  C147     1.0000 0.69414  0.35511  0.75558  Biso   1.000  C
  C148     1.0000 0.59902  0.35828  0.75766  Biso   1.000  C
  C149     1.0000 0.78964  0.36132  0.75785  Biso   1.000  C
  H138     1.0000 0.68322  0.18350  0.44397  Biso   1.000  H
  C150     1.0000 0.65551  0.09591  0.40668  Biso   1.000  C
  H139     1.0000 0.69406  0.35683  0.78540  Biso   1.000  H
  C151     1.0000 0.55817  0.40617  0.74094  Biso   1.000  C
  C152     1.0000 0.59279  0.32301  0.79778  Biso   1.000  C
  C153     1.0000 0.79277  0.39540  0.79815  Biso   1.000  C
  C154     1.0000 0.83461  0.32908  0.74025  Biso   1.000  C
  H140     1.0000 0.66188  0.08217  0.37677  Biso   1.000  H
  H141     1.0000 0.61810  0.10027  0.41092  Biso   1.000  H
  C155     1.0000 0.67650  0.02437  0.43354  Biso   1.000  C
  H142     1.0000 0.56088  0.43054  0.71352  Biso   1.000  H
  C156     1.0000 0.51412  0.41859  0.76366  Biso   1.000  C
  C157     1.0000 0.54878  0.33562  0.82052  Biso   1.000  C
  H143     1.0000 0.61974  0.28925  0.80975  Biso   1.000  H
  H144     1.0000 0.76300  0.41951  0.81078  Biso   1.000  H
  C158     1.0000 0.83789  0.39540  0.82049  Biso   1.000  C
  C159     1.0000 0.87999  0.33113  0.76168  Biso   1.000  C
  H145     1.0000 0.83377  0.30511  0.71270  Biso   1.000  H
  N21      1.0000 0.66700  0.04842  0.47780  Biso   1.000  N
  H146     1.0000 0.71357  0.01790  0.42848  Biso   1.000  H
  H147     1.0000 0.65959  0.96763  0.42685  Biso   1.000  H
  C160     1.0000 0.50824  0.38503  0.80400  Biso   1.000  C
  H148     1.0000 0.48691  0.45109  0.75144  Biso   1.000  H
  H149     1.0000 0.54577  0.31046  0.84776  Biso   1.000  H
  C161     1.0000 0.88232  0.36198  0.80268  Biso   1.000  C
  H150     1.0000 0.83861  0.41839  0.84826  Biso   1.000  H
  H151     1.0000 0.91026  0.31112  0.74826  Biso   1.000  H
  C162     1.0000 0.70231  0.03950  0.50250  Biso   1.000  C
  C163     1.0000 0.46149  0.40293  0.82712  Biso   1.000  C
  C164     1.0000 0.93183  0.36013  0.82492  Biso   1.000  C
  C165     1.0000 0.69776  0.06070  0.54755  Biso   1.000  C
  H152     1.0000 0.73403  0.01810  0.49222  Biso   1.000  H
  H153     1.0000 0.43427  0.43081  0.81251  Biso   1.000  H
  N22      1.0000 0.45469  0.38378  0.86532  Biso   1.000  N
  N23      1.0000 0.93648  0.36462  0.86403  Biso   1.000  N
  H154     1.0000 0.96202  0.35511  0.80855  Biso   1.000  H
  C166     1.0000 0.65673  0.11077  0.56357  Biso   1.000  C
  C167     1.0000 0.73399  0.03019  0.57535  Biso   1.000  C
  C168     1.0000 0.40530  0.40670  0.88382  Biso   1.000  C
  C169     1.0000 0.98889  0.36290  0.88031  Biso   1.000  C
  C170     1.0000 0.65249  0.12702  0.60576  Biso   1.000  C
  H155     1.0000 0.63173  0.13363  0.54488  Biso   1.000  H
  C171     1.0000 0.72883  0.04472  0.61786  Biso   1.000  C
  H156     1.0000 0.76284  0.99894  0.56511  Biso   1.000  H
  H157     1.0000 0.38148  0.42572  0.86142  Biso   1.000  H
  H158     1.0000 0.40961  0.45637  0.90377  Biso   1.000  H
  C172     1.0000 0.38366  0.32789  0.90647  Biso   1.000  C
  H159     1.0000 0.99275  0.40875  0.90227  Biso   1.000  H
  C173     1.0000 0.00160  0.27300  0.89875  Biso   1.000  C
  H160     1.0000 0.01305  0.37664  0.85731  Biso   1.000  H
  C174     1.0000 0.68849  0.09208  0.63410  Biso   1.000  C
  H161     1.0000 0.62509  0.16203  0.61594  Biso   1.000  H
  H162     1.0000 0.75376  0.02134  0.63646  Biso   1.000  H
  N24      1.0000 0.37526  0.25669  0.87663  Biso   1.000  N
  H163     1.0000 0.40774  0.30828  0.92856  Biso   1.000  H
  H164     1.0000 0.35102  0.34408  0.92008  Biso   1.000  H
  H165     1.0000 0.97366  0.25378  0.91760  Biso   1.000  H
  N25      1.0000 0.00844  0.20847  0.86557  Biso   1.000  N
  H166     1.0000 0.03328  0.27716  0.91559  Biso   1.000  H
  C175     1.0000 0.68265  0.10357  0.68022  Biso   1.000  C
  H167     1.0000 0.35449  0.27135  0.85690  Biso   1.000  H
  C176     1.0000 0.36175  0.17260  0.89570  Biso   1.000  C
  H168     1.0000 0.03237  0.22353  0.84851  Biso   1.000  H
  C177     1.0000 0.01370  0.11817  0.87952  Biso   1.000  C
  C178     1.0000 0.63383  0.10549  0.69816  Biso   1.000  C
  C179     1.0000 0.72490  0.10932  0.70626  Biso   1.000  C
  C180     1.0000 0.36217  0.10120  0.86227  Biso   1.000  C
  H169     1.0000 0.32735  0.17663  0.90849  Biso   1.000  H
  H170     1.0000 0.38648  0.15780  0.91810  Biso   1.000  H
  C181     1.0000 0.96484  0.07491  0.89444  Biso   1.000  C
  H171     1.0000 0.03886  0.11659  0.90274  Biso   1.000  H
  H172     1.0000 0.02779  0.08283  0.85608  Biso   1.000  H
  C182     1.0000 0.62745  0.11309  0.74135  Biso   1.000  C
  H173     1.0000 0.60466  0.10159  0.68056  Biso   1.000  H
  C183     1.0000 0.71975  0.11573  0.74962  Biso   1.000  C
  H174     1.0000 0.75811  0.10892  0.69423  Biso   1.000  H
  N26      1.0000 0.41370  0.08871  0.84704  Biso   1.000  N
  H175     1.0000 0.34915  0.04518  0.87427  Biso   1.000  H
  H176     1.0000 0.33957  0.11850  0.83874  Biso   1.000  H
  N27      1.0000 0.92755  0.07332  0.86067  Biso   1.000  N
  H177     1.0000 0.97210  0.01387  0.90384  Biso   1.000  H
  H178     1.0000 0.95087  0.10820  0.91863  Biso   1.000  H
  C184     1.0000 0.67032  0.11731  0.76664  Biso   1.000  C
  C185     1.0000 0.57531  0.11480  0.75970  Biso   1.000  C
  C186     1.0000 0.76456  0.12022  0.77770  Biso   1.000  C
  C187     1.0000 0.42450  0.11817  0.81116  Biso   1.000  C
  C188     1.0000 0.88919  0.11989  0.86469  Biso   1.000  C
  H179     1.0000 0.66623  0.12128  0.79620  Biso   1.000  H
  C189     1.0000 0.56565  0.08118  0.79982  Biso   1.000  C
  C190     1.0000 0.53447  0.15001  0.73705  Biso   1.000  C
  C191     1.0000 0.80953  0.07418  0.76846  Biso   1.000  C
  C192     1.0000 0.76326  0.16923  0.81518  Biso   1.000  C
  C193     1.0000 0.47633  0.11652  0.79382  Biso   1.000  C
  H180     1.0000 0.39785  0.14268  0.79457  Biso   1.000  H
  C194     1.0000 0.84732  0.12200  0.83324  Biso   1.000  C
  H181     1.0000 0.88633  0.15602  0.88901  Biso   1.000  H
  H182     1.0000 0.59298  0.05734  0.81581  Biso   1.000  H
  C195     1.0000 0.51714  0.08230  0.81656  Biso   1.000  C
  H183     1.0000 0.54019  0.17419  0.70991  Biso   1.000  H
  C196     1.0000 0.48595  0.14981  0.75376  Biso   1.000  C
  H184     1.0000 0.81205  0.04221  0.74289  Biso   1.000  H
  C197     1.0000 0.85014  0.07458  0.79586  Biso   1.000  C
  H185     1.0000 0.73341  0.20173  0.82212  Biso   1.000  H
  C198     1.0000 0.80411  0.17088  0.84179  Biso   1.000  C
  H186     1.0000 0.51149  0.05938  0.84396  Biso   1.000  H
  H187     1.0000 0.45847  0.17293  0.73765  Biso   1.000  H
  H188     1.0000 0.88018  0.04241  0.78923  Biso   1.000  H
  H189     1.0000 0.80277  0.20616  0.86645  Biso   1.000  H
  C199     1.0000 0.34422  0.63657  0.44651  Biso   1.000  C
  C200     1.0000 0.34613  0.63181  0.40300  Biso   1.000  C
  C201     1.0000 0.30109  0.66847  0.46700  Biso   1.000  C
  H190     1.0000 0.37281  0.61781  0.46257  Biso   1.000  H
  C202     1.0000 0.30479  0.66068  0.37834  Biso   1.000  C
  H191     1.0000 0.37572  0.60863  0.38968  Biso   1.000  H
  C203     1.0000 0.26075  0.69820  0.44278  Biso   1.000  C
  C204     1.0000 0.29647  0.66940  0.51308  Biso   1.000  C
  C205     1.0000 0.30586  0.65387  0.33191  Biso   1.000  C
  C206     1.0000 0.26258  0.69522  0.39936  Biso   1.000  C
  H192     1.0000 0.23120  0.72118  0.45619  Biso   1.000  H
  H193     1.0000 0.26403  0.68287  0.52480  Biso   1.000  H
  N28      1.0000 0.33235  0.65361  0.53778  Biso   1.000  N
  C207     1.0000 0.26010  0.64628  0.30935  Biso   1.000  C
  C208     1.0000 0.35129  0.65480  0.30945  Biso   1.000  C
  H194     1.0000 0.23452  0.71702  0.38356  Biso   1.000  H
  C209     1.0000 0.32090  0.65830  0.58270  Biso   1.000  C
  C210     1.0000 0.25941  0.64337  0.26572  Biso   1.000  C
  H195     1.0000 0.22876  0.64311  0.32428  Biso   1.000  H
  C211     1.0000 0.35251  0.64892  0.26594  Biso   1.000  C
  H196     1.0000 0.38259  0.65955  0.32434  Biso   1.000  H
  H197     1.0000 0.28353  0.65790  0.58704  Biso   1.000  H
  H198     1.0000 0.33556  0.60625  0.59722  Biso   1.000  H
  C212     1.0000 0.34400  0.74410  0.60121  Biso   1.000  C
  C213     1.0000 0.21036  0.63868  0.24215  Biso   1.000  C
  C214     1.0000 0.30586  0.64489  0.24442  Biso   1.000  C
  C215     1.0000 0.40098  0.64172  0.24231  Biso   1.000  C
  H199     1.0000 0.38129  0.74483  0.59599  Biso   1.000  H
  H200     1.0000 0.33858  0.74496  0.63196  Biso   1.000  H
  N29      1.0000 0.32109  0.82231  0.58267  Biso   1.000  N
  C216     1.0000 0.20723  0.60460  0.20182  Biso   1.000  C
  C217     1.0000 0.16539  0.67092  0.25972  Biso   1.000  C
  H201     1.0000 0.30594  0.64317  0.21457  Biso   1.000  H
  C218     1.0000 0.44183  0.59383  0.25906  Biso   1.000  C
  C219     1.0000 0.40721  0.67699  0.20219  Biso   1.000  C
  H202     1.0000 0.31678  0.81650  0.55603  Biso   1.000  H
  C220     1.0000 0.34449  0.90409  0.59329  Biso   1.000  C
  H203     1.0000 0.23700  0.58049  0.18919  Biso   1.000  H
  C221     1.0000 0.16211  0.60460  0.17951  Biso   1.000  C
  C222     1.0000 0.12001  0.66887  0.23832  Biso   1.000  C
  H204     1.0000 0.16623  0.69489  0.28727  Biso   1.000  H
  H205     1.0000 0.43912  0.56946  0.28645  Biso   1.000  H
  C223     1.0000 0.48588  0.58141  0.23634  Biso   1.000  C
  C224     1.0000 0.45122  0.66438  0.17945  Biso   1.000  C
  H206     1.0000 0.38026  0.71075  0.19022  Biso   1.000  H
  H207     1.0000 0.33812  0.91783  0.62320  Biso   1.000  H
  H208     1.0000 0.38190  0.89973  0.58905  Biso   1.000  H
  C225     1.0000 0.32350  0.97563  0.56643  Biso   1.000  C
  C226     1.0000 0.11768  0.63802  0.19729  Biso   1.000  C
  H209     1.0000 0.16139  0.58161  0.15174  Biso   1.000  H
  H210     1.0000 0.08974  0.68888  0.25174  Biso   1.000  H
  C227     1.0000 0.49176  0.61497  0.19597  Biso   1.000  C
  H211     1.0000 0.51309  0.54891  0.24856  Biso   1.000  H
  H212     1.0000 0.45423  0.68954  0.15221  Biso   1.000  H
  N30      1.0000 0.33300  0.95158  0.52220  Biso   1.000  N
  H213     1.0000 0.28643  0.98210  0.57149  Biso   1.000  H
  H214     1.0000 0.34041  0.03237  0.57312  Biso   1.000  H
  C228     1.0000 0.06817  0.63987  0.17505  Biso   1.000  C
  C229     1.0000 0.53851  0.59707  0.17288  Biso   1.000  C
  C230     1.0000 0.29769  0.96050  0.49750  Biso   1.000  C
  N31      1.0000 0.06352  0.63538  0.13597  Biso   1.000  N
  H215     1.0000 0.03798  0.64489  0.19145  Biso   1.000  H
  H216     1.0000 0.56573  0.56919  0.18746  Biso   1.000  H
  N32      1.0000 0.54531  0.61622  0.13465  Biso   1.000  N
  C231     1.0000 0.30224  0.93930  0.45245  Biso   1.000  C
  H217     1.0000 0.26597  0.98190  0.50774  Biso   1.000  H
  C232     1.0000 0.01111  0.63710  0.11966  Biso   1.000  C
  C233     1.0000 0.59470  0.59330  0.11618  Biso   1.000  C
  C234     1.0000 0.34327  0.88923  0.43640  Biso   1.000  C
  C235     1.0000 0.26601  0.96981  0.42462  Biso   1.000  C
  H218     1.0000 0.00725  0.59125  0.09770  Biso   1.000  H
  C236     1.0000 0.99840  0.72700  0.10122  Biso   1.000  C
  H219     1.0000 0.98695  0.62336  0.14266  Biso   1.000  H
  H220     1.0000 0.61852  0.57428  0.13854  Biso   1.000  H
  H221     1.0000 0.59039  0.54363  0.09623  Biso   1.000  H
  C237     1.0000 0.61634  0.67211  0.09353  Biso   1.000  C
  C238     1.0000 0.34751  0.87298  0.39424  Biso   1.000  C
  H222     1.0000 0.36827  0.86637  0.45512  Biso   1.000  H
  C239     1.0000 0.27117  0.95528  0.38214  Biso   1.000  C
  H223     1.0000 0.23716  0.00106  0.43489  Biso   1.000  H
  H224     1.0000 0.02634  0.74622  0.08237  Biso   1.000  H
  N33      1.0000 0.99156  0.79153  0.13443  Biso   1.000  N
  H225     1.0000 0.96672  0.72284  0.08438  Biso   1.000  H
  N34      1.0000 0.62474  0.74331  0.12334  Biso   1.000  N
  H226     1.0000 0.59226  0.69172  0.07141  Biso   1.000  H
  H227     1.0000 0.64898  0.65592  0.07989  Biso   1.000  H
  C240     1.0000 0.31151  0.90792  0.36587  Biso   1.000  C
  H228     1.0000 0.37491  0.83797  0.38403  Biso   1.000  H
  H229     1.0000 0.24624  0.97866  0.36351  Biso   1.000  H
  H230     1.0000 0.96763  0.77647  0.15149  Biso   1.000  H
  C241     1.0000 0.98630  0.88183  0.12048  Biso   1.000  C
  H231     1.0000 0.64551  0.72865  0.14307  Biso   1.000  H
  C242     1.0000 0.63825  0.82740  0.10430  Biso   1.000  C
  C243     1.0000 0.31735  0.89643  0.31975  Biso   1.000  C
  C244     1.0000 0.03516  0.92509  0.10553  Biso   1.000  C
  H232     1.0000 0.96114  0.88341  0.09726  Biso   1.000  H
  H233     1.0000 0.97221  0.91717  0.14392  Biso   1.000  H
  C245     1.0000 0.63783  0.89880  0.13770  Biso   1.000  C
  H234     1.0000 0.67265  0.82337  0.09151  Biso   1.000  H
  H235     1.0000 0.61352  0.84220  0.08190  Biso   1.000  H
  C246     1.0000 0.27510  0.89068  0.29374  Biso   1.000  C
  C247     1.0000 0.36617  0.89451  0.30181  Biso   1.000  C
  N35      1.0000 0.07245  0.92668  0.13933  Biso   1.000  N
  H236     1.0000 0.02790  0.98613  0.09616  Biso   1.000  H
  H237     1.0000 0.04913  0.89180  0.08137  Biso   1.000  H
  H238     1.0000 0.65085  0.95482  0.12573  Biso   1.000  H
  H239     1.0000 0.66043  0.88150  0.16126  Biso   1.000  H
  N36      1.0000 0.58630  0.91129  0.15296  Biso   1.000  N
  C248     1.0000 0.28025  0.88427  0.25038  Biso   1.000  C
  H240     1.0000 0.24189  0.89108  0.30577  Biso   1.000  H
  C249     1.0000 0.37255  0.88691  0.25862  Biso   1.000  C
  H241     1.0000 0.39534  0.89841  0.31944  Biso   1.000  H
  C250     1.0000 0.11081  0.88011  0.13528  Biso   1.000  C
  C251     1.0000 0.57550  0.88183  0.18884  Biso   1.000  C
  C252     1.0000 0.23544  0.87978  0.22227  Biso   1.000  C
  C253     1.0000 0.32968  0.88269  0.23336  Biso   1.000  C
  C254     1.0000 0.42469  0.88520  0.24027  Biso   1.000  C
  H242     1.0000 0.11367  0.84398  0.11099  Biso   1.000  H
  C255     1.0000 0.15268  0.87800  0.16672  Biso   1.000  C
  C256     1.0000 0.52367  0.88348  0.20615  Biso   1.000  C
  H243     1.0000 0.60215  0.85732  0.20543  Biso   1.000  H
  C257     1.0000 0.19047  0.92582  0.23150  Biso   1.000  C
  C258     1.0000 0.23674  0.83077  0.18482  Biso   1.000  C
  H244     1.0000 0.33377  0.87872  0.20376  Biso   1.000  H
  C259     1.0000 0.43435  0.91882  0.20018  Biso   1.000  C
  C260     1.0000 0.46553  0.84999  0.26295  Biso   1.000  C
  C261     1.0000 0.14986  0.92542  0.20411  Biso   1.000  C
  C262     1.0000 0.19589  0.82912  0.15821  Biso   1.000  C
  C263     1.0000 0.48286  0.91770  0.18341  Biso   1.000  C
  C264     1.0000 0.51405  0.85019  0.24624  Biso   1.000  C
  H245     1.0000 0.18795  0.95779  0.25711  Biso   1.000  H
  H246     1.0000 0.26659  0.79827  0.17788  Biso   1.000  H
  H247     1.0000 0.40702  0.94266  0.18419  Biso   1.000  H
  H248     1.0000 0.45981  0.82581  0.29009  Biso   1.000  H
  H249     1.0000 0.11982  0.95759  0.21074  Biso   1.000  H
  H250     1.0000 0.19723  0.79384  0.13355  Biso   1.000  H
  H251     1.0000 0.48851  0.94062  0.15601  Biso   1.000  H
  H252     1.0000 0.54153  0.82707  0.26235  Biso   1.000  H
  N37      1.0000 0.58630  0.58868  0.65295  Biso   1.000  N
  C265     1.0000 0.57550  0.61820  0.68883  Biso   1.000  C
  C266     1.0000 0.63783  0.60123  0.63768  Biso   1.000  C
  C267     1.0000 0.52367  0.61649  0.70614  Biso   1.000  C
  H253     1.0000 0.60215  0.64264  0.70541  Biso   1.000  H
  H254     1.0000 0.65085  0.54521  0.62571  Biso   1.000  H
  H255     1.0000 0.66043  0.61847  0.66124  Biso   1.000  H
  C268     1.0000 0.63825  0.67257  0.60429  Biso   1.000  C
  C269     1.0000 0.48286  0.58227  0.68342  Biso   1.000  C
  C270     1.0000 0.51405  0.64978  0.74622  Biso   1.000  C
  N38      1.0000 0.62474  0.75672  0.62335  Biso   1.000  N
  H256     1.0000 0.67265  0.67666  0.59150  Biso   1.000  H
  H257     1.0000 0.61352  0.65784  0.58189  Biso   1.000  H
  C271     1.0000 0.43435  0.58121  0.70017  Biso   1.000  C
  H258     1.0000 0.48851  0.55935  0.65603  Biso   1.000  H
  C272     1.0000 0.46553  0.64998  0.76294  Biso   1.000  C
  H259     1.0000 0.54153  0.67290  0.76234  Biso   1.000  H
  H260     1.0000 0.64551  0.77139  0.64308  Biso   1.000  H
  C273     1.0000 0.61634  0.82793  0.59351  Biso   1.000  C
  C274     1.0000 0.42469  0.61477  0.74025  Biso   1.000  C
  H261     1.0000 0.40702  0.55730  0.68418  Biso   1.000  H
  H262     1.0000 0.45981  0.67415  0.79008  Biso   1.000  H
  C275     1.0000 0.59470  0.90673  0.61616  Biso   1.000  C
  H263     1.0000 0.59226  0.80824  0.57142  Biso   1.000  H
  H264     1.0000 0.64898  0.84405  0.57987  Biso   1.000  H
  C276     1.0000 0.37255  0.61312  0.75860  Biso   1.000  C
  N39      1.0000 0.54531  0.88381  0.63466  Biso   1.000  N
  H265     1.0000 0.61852  0.92575  0.63853  Biso   1.000  H
  H266     1.0000 0.59039  0.95640  0.59621  Biso   1.000  H
  C277     1.0000 0.32968  0.61728  0.73334  Biso   1.000  C
  C278     1.0000 0.36617  0.60552  0.80180  Biso   1.000  C
  C279     1.0000 0.53851  0.90290  0.67287  Biso   1.000  C
  C280     1.0000 0.28025  0.61569  0.75037  Biso   1.000  C
  H267     1.0000 0.33377  0.62131  0.70375  Biso   1.000  H
  C281     1.0000 0.31735  0.60361  0.81977  Biso   1.000  C
  H268     1.0000 0.39534  0.60156  0.81942  Biso   1.000  H
  C282     1.0000 0.49176  0.88500  0.69596  Biso   1.000  C
  H269     1.0000 0.56573  0.93077  0.68744  Biso   1.000  H
  C283     1.0000 0.23544  0.62019  0.72228  Biso   1.000  C
  C284     1.0000 0.27510  0.60929  0.79372  Biso   1.000  C
  C285     1.0000 0.31151  0.59211  0.86585  Biso   1.000  C
  C286     1.0000 0.48588  0.91862  0.73633  Biso   1.000  C
  C287     1.0000 0.45122  0.83559  0.67946  Biso   1.000  C
  C288     1.0000 0.19047  0.57421  0.73149  Biso   1.000  C
  C289     1.0000 0.23674  0.66920  0.68480  Biso   1.000  C
  H270     1.0000 0.24189  0.60896  0.80576  Biso   1.000  H
  C290     1.0000 0.27117  0.54469  0.88213  Biso   1.000  C
  C291     1.0000 0.34751  0.62699  0.89422  Biso   1.000  C
  C292     1.0000 0.44183  0.90620  0.75904  Biso   1.000  C
  H271     1.0000 0.51309  0.95105  0.74855  Biso   1.000  H
  C293     1.0000 0.40721  0.82297  0.70218  Biso   1.000  C
  H272     1.0000 0.45423  0.81042  0.65223  Biso   1.000  H
  C294     1.0000 0.14986  0.57461  0.70409  Biso   1.000  C
  H273     1.0000 0.18795  0.54218  0.75709  Biso   1.000  H
  C295     1.0000 0.19589  0.67092  0.65819  Biso   1.000  C
  H274     1.0000 0.26659  0.70170  0.67786  Biso   1.000  H
  H275     1.0000 0.24624  0.52130  0.86350  Biso   1.000  H
  C296     1.0000 0.26601  0.53022  0.92460  Biso   1.000  C
  H276     1.0000 0.37491  0.66206  0.88404  Biso   1.000  H
  C297     1.0000 0.34327  0.61081  0.93638  Biso   1.000  C
  C298     1.0000 0.40098  0.85831  0.74233  Biso   1.000  C
  H277     1.0000 0.43912  0.93051  0.78647  Biso   1.000  H
  H278     1.0000 0.38026  0.78929  0.69024  Biso   1.000  H
  C299     1.0000 0.15268  0.62197  0.66671  Biso   1.000  C
  H279     1.0000 0.11982  0.54237  0.71075  Biso   1.000  H
  H280     1.0000 0.19723  0.70612  0.63353  Biso   1.000  H
  C300     1.0000 0.30224  0.56067  0.95244  Biso   1.000  C
  H281     1.0000 0.23716  0.49891  0.93487  Biso   1.000  H
  H282     1.0000 0.36827  0.63366  0.95511  Biso   1.000  H
  C301     1.0000 0.35251  0.85111  0.76592  Biso   1.000  C
  C302     1.0000 0.11081  0.61992  0.63526  Biso   1.000  C
  C303     1.0000 0.29769  0.53947  0.99749  Biso   1.000  C
  C304     1.0000 0.30586  0.85508  0.74440  Biso   1.000  C
  C305     1.0000 0.35129  0.84517  0.80943  Biso   1.000  C
  N40      1.0000 0.07245  0.57329  0.63931  Biso   1.000  N
  H283     1.0000 0.11367  0.65605  0.61098  Biso   1.000  H
  N41      1.0000 0.33300  0.54838  0.02221  Biso   1.000  N
  H284     1.0000 0.26597  0.51807  0.00773  Biso   1.000  H
  C306     1.0000 0.25941  0.85660  0.76573  Biso   1.000  C
  H285     1.0000 0.30594  0.85686  0.71455  Biso   1.000  H
  C307     1.0000 0.30586  0.84609  0.83189  Biso   1.000  C
  H286     1.0000 0.38259  0.84048  0.82432  Biso   1.000  H
  C308     1.0000 0.03516  0.57487  0.60554  Biso   1.000  C
  C309     1.0000 0.32350  0.52441  0.06644  Biso   1.000  C
  C310     1.0000 0.21036  0.86129  0.74214  Biso   1.000  C
  C311     1.0000 0.26010  0.85369  0.80934  Biso   1.000  C
  C312     1.0000 0.30479  0.83929  0.87836  Biso   1.000  C
  H287     1.0000 0.02790  0.51390  0.59615  Biso   1.000  H
  H288     1.0000 0.04913  0.60823  0.58135  Biso   1.000  H
  C313     1.0000 0.98630  0.61820  0.62046  Biso   1.000  C
  C314     1.0000 0.34449  0.59588  0.09327  Biso   1.000  C
  H289     1.0000 0.34041  0.46767  0.07314  Biso   1.000  H
  H290     1.0000 0.28643  0.51787  0.07150  Biso   1.000  H
  C315     1.0000 0.20723  0.89537  0.70180  Biso   1.000  C
  C316     1.0000 0.16539  0.82912  0.75970  Biso   1.000  C
  H291     1.0000 0.22876  0.85693  0.82426  Biso   1.000  H
  C317     1.0000 0.34613  0.86822  0.90299  Biso   1.000  C
  C318     1.0000 0.26258  0.80481  0.89934  Biso   1.000  C
  N42      1.0000 0.99156  0.70850  0.63441  Biso   1.000  N
  H292     1.0000 0.96114  0.61655  0.59725  Biso   1.000  H
  H293     1.0000 0.97221  0.58280  0.64390  Biso   1.000  H
  N43      1.0000 0.32109  0.67772  0.08269  Biso   1.000  N
  H294     1.0000 0.33812  0.58220  0.12318  Biso   1.000  H
  H295     1.0000 0.38190  0.60024  0.08906  Biso   1.000  H
  C319     1.0000 0.16211  0.89537  0.67949  Biso   1.000  C
  H296     1.0000 0.23700  0.91948  0.68920  Biso   1.000  H
  C320     1.0000 0.12001  0.83110  0.73831  Biso   1.000  C
  H297     1.0000 0.16623  0.80507  0.78728  Biso   1.000  H
  H298     1.0000 0.37572  0.89134  0.88967  Biso   1.000  H
  C321     1.0000 0.34422  0.86340  0.94653  Biso   1.000  C
  C322     1.0000 0.26075  0.80177  0.94276  Biso   1.000  C
  H299     1.0000 0.23452  0.78301  0.88354  Biso   1.000  H
  H300     1.0000 0.96763  0.72350  0.65147  Biso   1.000  H
  C323     1.0000 0.99840  0.77297  0.60121  Biso   1.000  C
  C324     1.0000 0.34400  0.75593  0.10122  Biso   1.000  C
  H301     1.0000 0.31678  0.68353  0.05601  Biso   1.000  H
  C325     1.0000 0.11768  0.86201  0.69731  Biso   1.000  C
  H302     1.0000 0.16139  0.91842  0.65172  Biso   1.000  H
  H303     1.0000 0.08974  0.81108  0.75172  Biso   1.000  H
  C326     1.0000 0.30109  0.83149  0.96698  Biso   1.000  C
  H304     1.0000 0.37281  0.88222  0.96255  Biso   1.000  H
  H305     1.0000 0.23120  0.77885  0.95617  Biso   1.000  H
  H306     1.0000 0.02634  0.75375  0.58239  Biso   1.000  H
  C327     1.0000 0.01111  0.86287  0.61965  Biso   1.000  C
  H307     1.0000 0.96672  0.77720  0.58437  Biso   1.000  H
  C328     1.0000 0.32090  0.84167  0.08269  Biso   1.000  C
  H308     1.0000 0.38129  0.75520  0.09601  Biso   1.000  H
  H309     1.0000 0.33858  0.75507  0.13198  Biso   1.000  H
  C329     1.0000 0.06817  0.86010  0.67503  Biso   1.000  C
  C330     1.0000 0.29647  0.83057  0.01307  Biso   1.000  C
  N44      1.0000 0.06352  0.86459  0.63595  Biso   1.000  N
  H310     1.0000 0.00725  0.90878  0.59772  Biso   1.000  H
  H311     1.0000 0.98695  0.87661  0.64268  Biso   1.000  H
  N45      1.0000 0.33235  0.84642  0.03779  Biso   1.000  N
  H312     1.0000 0.28353  0.84206  0.08702  Biso   1.000  H
  H313     1.0000 0.33556  0.89372  0.09720  Biso   1.000  H
  H314     1.0000 0.03798  0.85508  0.69143  Biso   1.000  H
  H315     1.0000 0.26403  0.81716  0.02479  Biso   1.000  H
  N46      1.0000 0.41370  0.41132  0.34702  Biso   1.000  N
  C331     1.0000 0.36217  0.39877  0.36229  Biso   1.000  C
  C332     1.0000 0.42450  0.38180  0.31114  Biso   1.000  C
  H316     1.0000 0.34915  0.45479  0.37429  Biso   1.000  H
  H317     1.0000 0.33957  0.38153  0.33876  Biso   1.000  H
  C333     1.0000 0.36175  0.32743  0.39568  Biso   1.000  C
  C334     1.0000 0.47633  0.38351  0.29383  Biso   1.000  C
  H318     1.0000 0.39785  0.35736  0.29456  Biso   1.000  H
  N47      1.0000 0.37526  0.24328  0.37665  Biso   1.000  N
  H319     1.0000 0.32735  0.32334  0.40847  Biso   1.000  H
  H320     1.0000 0.38648  0.34216  0.41811  Biso   1.000  H
  C335     1.0000 0.51714  0.41773  0.31658  Biso   1.000  C
  C336     1.0000 0.48595  0.35022  0.25375  Biso   1.000  C
  H321     1.0000 0.35449  0.22861  0.35692  Biso   1.000  H
  C337     1.0000 0.38366  0.17207  0.40646  Biso   1.000  C
  C338     1.0000 0.56565  0.41879  0.29983  Biso   1.000  C
  H322     1.0000 0.51149  0.44065  0.34397  Biso   1.000  H
  C339     1.0000 0.53447  0.35002  0.23703  Biso   1.000  C
  H323     1.0000 0.45847  0.32710  0.23766  Biso   1.000  H
  C340     1.0000 0.40530  0.09327  0.38384  Biso   1.000  C
  H324     1.0000 0.40774  0.19176  0.42858  Biso   1.000  H
  H325     1.0000 0.35102  0.15595  0.42009  Biso   1.000  H
  H326     1.0000 0.59298  0.44270  0.31582  Biso   1.000  H
  C341     1.0000 0.57531  0.38523  0.25972  Biso   1.000  C
  H327     1.0000 0.54019  0.32585  0.20992  Biso   1.000  H
  N48      1.0000 0.45469  0.11619  0.36534  Biso   1.000  N
  H328     1.0000 0.38148  0.07425  0.36144  Biso   1.000  H
  H329     1.0000 0.40961  0.04360  0.40376  Biso   1.000  H
  C342     1.0000 0.62745  0.38688  0.24137  Biso   1.000  C
  C343     1.0000 0.46149  0.09710  0.32713  Biso   1.000  C
  C344     1.0000 0.67032  0.38272  0.26663  Biso   1.000  C
  C345     1.0000 0.63383  0.39448  0.19817  Biso   1.000  C
  C346     1.0000 0.50824  0.11500  0.30401  Biso   1.000  C
  H330     1.0000 0.43427  0.06923  0.31253  Biso   1.000  H
  H331     1.0000 0.66623  0.37869  0.29622  Biso   1.000  H
  C347     1.0000 0.71975  0.38431  0.24963  Biso   1.000  C
  H332     1.0000 0.60466  0.39844  0.18055  Biso   1.000  H
  C348     1.0000 0.68265  0.39639  0.18023  Biso   1.000  C
  C349     1.0000 0.54878  0.16441  0.32054  Biso   1.000  C
  C350     1.0000 0.51412  0.08138  0.26367  Biso   1.000  C
  C351     1.0000 0.76456  0.37981  0.27772  Biso   1.000  C
  C352     1.0000 0.72490  0.39071  0.20625  Biso   1.000  C
  C353     1.0000 0.68849  0.40789  0.13411  Biso   1.000  C
  H333     1.0000 0.54577  0.18958  0.34777  Biso   1.000  H
  C354     1.0000 0.59279  0.17703  0.29779  Biso   1.000  C
  C355     1.0000 0.55817  0.09380  0.24096  Biso   1.000  C
  H334     1.0000 0.48691  0.04895  0.25142  Biso   1.000  H
  C356     1.0000 0.80953  0.42579  0.26848  Biso   1.000  C
  C357     1.0000 0.76326  0.33080  0.31520  Biso   1.000  C
  H335     1.0000 0.75811  0.39104  0.19424  Biso   1.000  H
  C358     1.0000 0.72883  0.45531  0.11787  Biso   1.000  C
  C359     1.0000 0.65249  0.37301  0.10575  Biso   1.000  C
  C360     1.0000 0.59902  0.14169  0.25767  Biso   1.000  C
  H336     1.0000 0.61974  0.21071  0.30976  Biso   1.000  H
  H337     1.0000 0.56088  0.06949  0.21353  Biso   1.000  H
  H338     1.0000 0.81205  0.45782  0.24291  Biso   1.000  H
  C361     1.0000 0.85014  0.42539  0.29588  Biso   1.000  C
  H339     1.0000 0.73341  0.29830  0.32211  Biso   1.000  H
  C362     1.0000 0.80411  0.32908  0.34181  Biso   1.000  C
  H340     1.0000 0.75376  0.47870  0.13647  Biso   1.000  H
  C363     1.0000 0.73399  0.46978  0.07537  Biso   1.000  C
  H341     1.0000 0.62509  0.33794  0.11596  Biso   1.000  H
  C364     1.0000 0.65673  0.38919  0.06359  Biso   1.000  C
  C365     1.0000 0.64749  0.14889  0.23408  Biso   1.000  C
  H342     1.0000 0.88018  0.45763  0.28925  Biso   1.000  H
  C366     1.0000 0.84732  0.37803  0.33326  Biso   1.000  C
  H343     1.0000 0.80277  0.29388  0.36647  Biso   1.000  H
  C367     1.0000 0.69776  0.43933  0.04756  Biso   1.000  C
  H344     1.0000 0.76284  0.50109  0.06513  Biso   1.000  H
  H345     1.0000 0.63173  0.36634  0.04489  Biso   1.000  H
  C368     1.0000 0.64871  0.15483  0.19057  Biso   1.000  C
  C369     1.0000 0.69414  0.14492  0.25560  Biso   1.000  C
  C370     1.0000 0.88919  0.38008  0.36471  Biso   1.000  C
  C371     1.0000 0.70231  0.46053  0.00248  Biso   1.000  C
  H346     1.0000 0.61741  0.15952  0.17568  Biso   1.000  H
  C372     1.0000 0.69414  0.15391  0.16808  Biso   1.000  C
  H347     1.0000 0.69406  0.14314  0.28541  Biso   1.000  H
  C373     1.0000 0.74059  0.14340  0.23427  Biso   1.000  C
  H348     1.0000 0.88633  0.34395  0.38899  Biso   1.000  H
  N49      1.0000 0.92755  0.42671  0.36069  Biso   1.000  N
  N50      1.0000 0.66700  0.45162  0.97779  Biso   1.000  N
  H349     1.0000 0.73403  0.48193  0.99224  Biso   1.000  H
  C374     1.0000 0.73990  0.14631  0.19063  Biso   1.000  C
  C375     1.0000 0.69521  0.16071  0.12164  Biso   1.000  C
  C376     1.0000 0.78964  0.13871  0.25783  Biso   1.000  C
  C377     1.0000 0.96484  0.42513  0.39446  Biso   1.000  C
  C378     1.0000 0.67650  0.47559  0.93356  Biso   1.000  C
  H350     1.0000 0.77124  0.14307  0.17571  Biso   1.000  H
  C379     1.0000 0.65387  0.13178  0.09701  Biso   1.000  C
  C380     1.0000 0.73742  0.19519  0.10063  Biso   1.000  C
  C381     1.0000 0.79277  0.10463  0.29817  Biso   1.000  C
  C382     1.0000 0.83461  0.17088  0.24027  Biso   1.000  C
  H351     1.0000 0.97210  0.48610  0.40385  Biso   1.000  H
  H352     1.0000 0.95087  0.39177  0.41865  Biso   1.000  H
  C383     1.0000 0.01370  0.38180  0.37954  Biso   1.000  C
  C384     1.0000 0.65551  0.40412  0.90669  Biso   1.000  C
  H353     1.0000 0.65959  0.53233  0.92686  Biso   1.000  H
  H354     1.0000 0.71357  0.48213  0.92850  Biso   1.000  H
  H355     1.0000 0.62428  0.10866  0.11030  Biso   1.000  H
  C385     1.0000 0.65578  0.13660  0.05347  Biso   1.000  C
  C386     1.0000 0.73925  0.19823  0.05724  Biso   1.000  C
  H356     1.0000 0.76548  0.21699  0.11643  Biso   1.000  H
  H357     1.0000 0.76300  0.08052  0.31080  Biso   1.000  H
  C387     1.0000 0.83789  0.10463  0.32051  Biso   1.000  C
  C388     1.0000 0.87999  0.16890  0.26166  Biso   1.000  C
  H358     1.0000 0.83377  0.19493  0.21272  Biso   1.000  H
  N51      1.0000 0.00844  0.29150  0.36559  Biso   1.000  N
  H359     1.0000 0.03886  0.38345  0.40272  Biso   1.000  H
  H360     1.0000 0.02779  0.41720  0.35610  Biso   1.000  H
  N52      1.0000 0.67891  0.32228  0.91731  Biso   1.000  N
  H361     1.0000 0.66188  0.41780  0.87679  Biso   1.000  H
  H362     1.0000 0.61810  0.39976  0.91094  Biso   1.000  H
  C389     1.0000 0.69891  0.16851  0.03299  Biso   1.000  C
  H363     1.0000 0.62719  0.11778  0.03742  Biso   1.000  H
  H364     1.0000 0.76880  0.22115  0.04379  Biso   1.000  H
  C390     1.0000 0.88232  0.13799  0.30269  Biso   1.000  C
  H365     1.0000 0.83861  0.08158  0.34825  Biso   1.000  H
  H366     1.0000 0.91026  0.18892  0.24825  Biso   1.000  H
  H367     1.0000 0.03237  0.27650  0.34850  Biso   1.000  H
  C391     1.0000 0.00160  0.22703  0.39876  Biso   1.000  C
  C392     1.0000 0.65600  0.24407  0.89878  Biso   1.000  C
  H368     1.0000 0.68322  0.31647  0.94399  Biso   1.000  H
  C393     1.0000 0.70353  0.16943  0.98693  Biso   1.000  C
  C394     1.0000 0.93183  0.13990  0.32493  Biso   1.000  C
  H369     1.0000 0.97366  0.24625  0.41761  Biso   1.000  H
  C395     1.0000 0.98889  0.13713  0.38032  Biso   1.000  C
  H370     1.0000 0.03328  0.22280  0.41560  Biso   1.000  H
  C396     1.0000 0.67910  0.15833  0.91731  Biso   1.000  C
  H371     1.0000 0.61871  0.24480  0.90402  Biso   1.000  H
  H372     1.0000 0.66142  0.24493  0.86802  Biso   1.000  H
  H373     1.0000 0.73597  0.18284  0.97521  Biso   1.000  H
  N53      1.0000 0.66765  0.15358  0.96221  Biso   1.000  N
  N54      1.0000 0.93648  0.13541  0.36405  Biso   1.000  N
  H374     1.0000 0.96202  0.14492  0.30857  Biso   1.000  H
  H375     1.0000 0.99275  0.09122  0.40228  Biso   1.000  H
  H376     1.0000 0.01305  0.12339  0.35732  Biso   1.000  H
  H377     1.0000 0.71647  0.15794  0.91298  Biso   1.000  H
  H378     1.0000 0.66444  0.10628  0.90277  Biso   1.000  H
  C397     1.0000 0.76601  0.53022  0.57535  Biso   1.000  C
  C398     1.0000 0.80224  0.56067  0.54755  Biso   1.000  C
  C399     1.0000 0.77117  0.54469  0.61786  Biso   1.000  C
  H379     1.0000 0.73716  0.49891  0.56511  Biso   1.000  H
  C400     1.0000 0.79769  0.53947  0.50250  Biso   1.000  C
  C401     1.0000 0.84327  0.61081  0.56357  Biso   1.000  C
  C402     1.0000 0.81151  0.59211  0.63410  Biso   1.000  C
  H380     1.0000 0.74624  0.52130  0.63646  Biso   1.000  H
  N55      1.0000 0.83300  0.54838  0.47780  Biso   1.000  N
  H381     1.0000 0.76597  0.51807  0.49222  Biso   1.000  H
  C403     1.0000 0.84751  0.62699  0.60576  Biso   1.000  C
  H382     1.0000 0.86827  0.63366  0.54488  Biso   1.000  H
  C404     1.0000 0.81735  0.60361  0.68022  Biso   1.000  C
  C405     1.0000 0.82350  0.52441  0.43354  Biso   1.000  C
  H383     1.0000 0.87491  0.66206  0.61594  Biso   1.000  H
  C406     1.0000 0.86617  0.60552  0.69816  Biso   1.000  C
  C407     1.0000 0.77510  0.60929  0.70626  Biso   1.000  C
  C408     1.0000 0.84449  0.59588  0.40668  Biso   1.000  C
  H384     1.0000 0.84041  0.46767  0.42685  Biso   1.000  H
  H385     1.0000 0.78643  0.51787  0.42848  Biso   1.000  H
  C409     1.0000 0.87255  0.61312  0.74135  Biso   1.000  C
  H386     1.0000 0.89534  0.60156  0.68056  Biso   1.000  H
  C410     1.0000 0.78025  0.61569  0.74962  Biso   1.000  C
  H387     1.0000 0.74189  0.60896  0.69423  Biso   1.000  H
  N56      1.0000 0.82109  0.67772  0.41733  Biso   1.000  N
  H388     1.0000 0.83812  0.58220  0.37677  Biso   1.000  H
  H389     1.0000 0.88190  0.60024  0.41092  Biso   1.000  H
  C411     1.0000 0.82968  0.61728  0.76664  Biso   1.000  C
  C412     1.0000 0.92469  0.61477  0.75970  Biso   1.000  C
  C413     1.0000 0.73544  0.62019  0.77770  Biso   1.000  C
  C414     1.0000 0.84400  0.75593  0.39879  Biso   1.000  C
  H390     1.0000 0.81678  0.68353  0.44397  Biso   1.000  H
  H391     1.0000 0.83377  0.62131  0.79620  Biso   1.000  H
  C415     1.0000 0.93435  0.58121  0.79982  Biso   1.000  C
  C416     1.0000 0.96553  0.64998  0.73705  Biso   1.000  C
  C417     1.0000 0.69047  0.57421  0.76846  Biso   1.000  C
  C418     1.0000 0.73674  0.66920  0.81518  Biso   1.000  C
  C419     1.0000 0.82090  0.84167  0.41730  Biso   1.000  C
  H392     1.0000 0.88129  0.75520  0.40401  Biso   1.000  H
  H393     1.0000 0.83858  0.75507  0.36801  Biso   1.000  H
  H394     1.0000 0.90702  0.55730  0.81581  Biso   1.000  H
  C420     1.0000 0.98286  0.58227  0.81656  Biso   1.000  C
  H395     1.0000 0.95981  0.67415  0.70991  Biso   1.000  H
  C421     1.0000 0.01405  0.64978  0.75376  Biso   1.000  C
  H396     1.0000 0.68795  0.54218  0.74289  Biso   1.000  H
  C422     1.0000 0.64986  0.57461  0.79586  Biso   1.000  C
  H397     1.0000 0.76659  0.70170  0.82212  Biso   1.000  H
  C423     1.0000 0.69589  0.67092  0.84179  Biso   1.000  C
  N57      1.0000 0.83235  0.84642  0.46219  Biso   1.000  N
  H398     1.0000 0.78353  0.84206  0.41296  Biso   1.000  H
  H399     1.0000 0.83556  0.89372  0.40275  Biso   1.000  H
  H400     1.0000 0.98851  0.55935  0.84396  Biso   1.000  H
  C424     1.0000 0.02367  0.61649  0.79382  Biso   1.000  C
  H401     1.0000 0.04153  0.67290  0.73765  Biso   1.000  H
  H402     1.0000 0.61982  0.54237  0.78923  Biso   1.000  H
  C425     1.0000 0.65268  0.62197  0.83324  Biso   1.000  C
  H403     1.0000 0.69723  0.70612  0.86645  Biso   1.000  H
  C426     1.0000 0.79647  0.83057  0.48692  Biso   1.000  C
  C427     1.0000 0.07550  0.61820  0.81116  Biso   1.000  C
  C428     1.0000 0.61081  0.61992  0.86469  Biso   1.000  C
  C429     1.0000 0.80109  0.83149  0.53297  Biso   1.000  C
  H404     1.0000 0.76403  0.81716  0.47520  Biso   1.000  H
  H405     1.0000 0.10215  0.64264  0.79457  Biso   1.000  H
  N58      1.0000 0.08630  0.58868  0.84704  Biso   1.000  N
  H406     1.0000 0.61367  0.65605  0.88901  Biso   1.000  H
  N59      1.0000 0.57245  0.57329  0.86067  Biso   1.000  N
  C430     1.0000 0.76075  0.80177  0.55722  Biso   1.000  C
  C431     1.0000 0.84422  0.86340  0.55345  Biso   1.000  C
  C432     1.0000 0.13783  0.60123  0.86227  Biso   1.000  C
  C433     1.0000 0.53516  0.57487  0.89444  Biso   1.000  C
  H407     1.0000 0.73120  0.77885  0.54378  Biso   1.000  H
  C434     1.0000 0.76258  0.80481  0.60064  Biso   1.000  C
  C435     1.0000 0.84613  0.86822  0.59700  Biso   1.000  C
  H408     1.0000 0.87281  0.88222  0.53743  Biso   1.000  H
  H409     1.0000 0.15085  0.54521  0.87427  Biso   1.000  H
  H410     1.0000 0.16043  0.61847  0.83874  Biso   1.000  H
  C436     1.0000 0.13825  0.67257  0.89570  Biso   1.000  C
  C437     1.0000 0.48630  0.61820  0.87952  Biso   1.000  C
  H411     1.0000 0.52790  0.51390  0.90384  Biso   1.000  H
  H412     1.0000 0.54913  0.60823  0.91863  Biso   1.000  H
  C438     1.0000 0.80479  0.83929  0.62163  Biso   1.000  C
  H413     1.0000 0.73452  0.78301  0.61644  Biso   1.000  H
  H414     1.0000 0.87572  0.89134  0.61032  Biso   1.000  H
  N60      1.0000 0.12474  0.75672  0.87663  Biso   1.000  N
  H415     1.0000 0.17265  0.67666  0.90849  Biso   1.000  H
  H416     1.0000 0.11352  0.65784  0.91810  Biso   1.000  H
  N61      1.0000 0.49156  0.70850  0.86557  Biso   1.000  N
  H417     1.0000 0.46114  0.61655  0.90274  Biso   1.000  H
  H418     1.0000 0.47221  0.58280  0.85608  Biso   1.000  H
  C439     1.0000 0.80586  0.84609  0.66809  Biso   1.000  C
  H419     1.0000 0.14551  0.77139  0.85690  Biso   1.000  H
  C440     1.0000 0.11634  0.82793  0.90647  Biso   1.000  C
  H420     1.0000 0.46763  0.72350  0.84851  Biso   1.000  H
  C441     1.0000 0.49840  0.77297  0.89875  Biso   1.000  C
  C442     1.0000 0.85129  0.84517  0.69055  Biso   1.000  C
  C443     1.0000 0.76010  0.85369  0.69065  Biso   1.000  C
  C444     1.0000 0.09470  0.90673  0.88382  Biso   1.000  C
  H421     1.0000 0.09226  0.80824  0.92856  Biso   1.000  H
  H422     1.0000 0.14898  0.84405  0.92008  Biso   1.000  H
  H423     1.0000 0.46672  0.77720  0.91559  Biso   1.000  H
  H424     1.0000 0.52634  0.75375  0.91760  Biso   1.000  H
  C445     1.0000 0.51111  0.86287  0.88031  Biso   1.000  C
  H425     1.0000 0.88259  0.84048  0.67566  Biso   1.000  H
  C446     1.0000 0.85251  0.85111  0.73406  Biso   1.000  C
  H426     1.0000 0.72876  0.85693  0.67569  Biso   1.000  H
  C447     1.0000 0.75941  0.85660  0.73425  Biso   1.000  C
  N62      1.0000 0.04531  0.88381  0.86532  Biso   1.000  N
  H427     1.0000 0.11852  0.92575  0.86142  Biso   1.000  H
  H428     1.0000 0.09039  0.95640  0.90377  Biso   1.000  H
  N63      1.0000 0.56352  0.86459  0.86403  Biso   1.000  N
  H429     1.0000 0.50725  0.90878  0.90227  Biso   1.000  H
  H430     1.0000 0.48695  0.87661  0.85731  Biso   1.000  H
  C448     1.0000 0.80586  0.85508  0.75558  Biso   1.000  C
  C449     1.0000 0.90098  0.85831  0.75766  Biso   1.000  C
  C450     1.0000 0.71036  0.86129  0.75785  Biso   1.000  C
  C451     1.0000 0.03851  0.90290  0.82712  Biso   1.000  C
  C452     1.0000 0.56817  0.86010  0.82492  Biso   1.000  C
  H431     1.0000 0.80594  0.85686  0.78540  Biso   1.000  H
  C453     1.0000 0.94183  0.90620  0.74094  Biso   1.000  C
  C454     1.0000 0.90721  0.82297  0.79778  Biso   1.000  C
  C455     1.0000 0.70723  0.89537  0.79815  Biso   1.000  C
  C456     1.0000 0.66539  0.82912  0.74025  Biso   1.000  C
  C457     1.0000 0.99176  0.88500  0.80400  Biso   1.000  C
  H432     1.0000 0.06573  0.93077  0.81251  Biso   1.000  H
  C458     1.0000 0.61768  0.86201  0.80268  Biso   1.000  C
  H433     1.0000 0.53798  0.85508  0.80855  Biso   1.000  H
  H434     1.0000 0.93912  0.93051  0.71352  Biso   1.000  H
  C459     1.0000 0.98588  0.91862  0.76366  Biso   1.000  C
  C460     1.0000 0.95122  0.83559  0.82052  Biso   1.000  C
  H435     1.0000 0.88026  0.78929  0.80975  Biso   1.000  H
  H436     1.0000 0.73700  0.91948  0.81078  Biso   1.000  H
  C461     1.0000 0.66211  0.89537  0.82049  Biso   1.000  C
  C462     1.0000 0.62001  0.83110  0.76168  Biso   1.000  C
  H437     1.0000 0.66623  0.80507  0.71270  Biso   1.000  H
  H438     1.0000 0.01309  0.95105  0.75144  Biso   1.000  H
  H439     1.0000 0.95423  0.81042  0.84776  Biso   1.000  H
  H440     1.0000 0.66139  0.91842  0.84826  Biso   1.000  H
  H441     1.0000 0.58974  0.81108  0.74826  Biso   1.000  H
  C463     1.0000 0.23399  0.46978  0.42462  Biso   1.000  C
  C464     1.0000 0.19776  0.43933  0.45245  Biso   1.000  C
  C465     1.0000 0.22883  0.45531  0.38214  Biso   1.000  C
  H442     1.0000 0.26284  0.50109  0.43489  Biso   1.000  H
  C466     1.0000 0.20231  0.46053  0.49750  Biso   1.000  C
  C467     1.0000 0.15673  0.38919  0.43640  Biso   1.000  C
  C468     1.0000 0.18849  0.40789  0.36587  Biso   1.000  C
  H443     1.0000 0.25376  0.47870  0.36351  Biso   1.000  H
  N64      1.0000 0.16700  0.45162  0.52220  Biso   1.000  N
  H444     1.0000 0.23403  0.48193  0.50774  Biso   1.000  H
  C469     1.0000 0.15249  0.37301  0.39424  Biso   1.000  C
  H445     1.0000 0.13173  0.36634  0.45512  Biso   1.000  H
  C470     1.0000 0.18265  0.39639  0.31975  Biso   1.000  C
  C471     1.0000 0.17650  0.47559  0.56643  Biso   1.000  C
  H446     1.0000 0.12509  0.33794  0.38403  Biso   1.000  H
  C472     1.0000 0.22490  0.39071  0.29374  Biso   1.000  C
  C473     1.0000 0.13383  0.39448  0.30181  Biso   1.000  C
  C474     1.0000 0.15551  0.40412  0.59329  Biso   1.000  C
  H447     1.0000 0.15959  0.53233  0.57312  Biso   1.000  H
  H448     1.0000 0.21357  0.48213  0.57149  Biso   1.000  H
  C475     1.0000 0.21975  0.38431  0.25038  Biso   1.000  C
  H449     1.0000 0.25811  0.39104  0.30577  Biso   1.000  H
  C476     1.0000 0.12745  0.38688  0.25862  Biso   1.000  C
  H450     1.0000 0.10466  0.39844  0.31944  Biso   1.000  H
  N65      1.0000 0.17891  0.32228  0.58267  Biso   1.000  N
  H451     1.0000 0.16188  0.41780  0.62320  Biso   1.000  H
  H452     1.0000 0.11810  0.39976  0.58905  Biso   1.000  H
  C477     1.0000 0.26456  0.37981  0.22227  Biso   1.000  C
  C478     1.0000 0.17032  0.38272  0.23336  Biso   1.000  C
  C479     1.0000 0.07531  0.38523  0.24027  Biso   1.000  C
  C480     1.0000 0.15600  0.24407  0.60121  Biso   1.000  C
  H453     1.0000 0.18322  0.31647  0.55603  Biso   1.000  H
  C481     1.0000 0.30953  0.42579  0.23150  Biso   1.000  C
  C482     1.0000 0.26326  0.33080  0.18482  Biso   1.000  C
  H454     1.0000 0.16623  0.37869  0.20376  Biso   1.000  H
  C483     1.0000 0.06565  0.41879  0.20018  Biso   1.000  C
  C484     1.0000 0.03447  0.35002  0.26295  Biso   1.000  C
  C485     1.0000 0.17910  0.15833  0.58270  Biso   1.000  C
  H455     1.0000 0.11871  0.24480  0.59599  Biso   1.000  H
  H456     1.0000 0.16142  0.24493  0.63196  Biso   1.000  H
  C486     1.0000 0.35014  0.42539  0.20411  Biso   1.000  C
  H457     1.0000 0.31205  0.45782  0.25711  Biso   1.000  H
  C487     1.0000 0.30411  0.32908  0.15821  Biso   1.000  C
  H458     1.0000 0.23341  0.29830  0.17788  Biso   1.000  H
  C488     1.0000 0.01714  0.41773  0.18341  Biso   1.000  C
  H459     1.0000 0.09298  0.44270  0.18419  Biso   1.000  H
  C489     1.0000 0.98595  0.35022  0.24624  Biso   1.000  C
  H460     1.0000 0.04019  0.32585  0.29009  Biso   1.000  H
  N66      1.0000 0.16765  0.15358  0.53778  Biso   1.000  N
  H461     1.0000 0.21647  0.15794  0.58704  Biso   1.000  H
  H462     1.0000 0.16444  0.10628  0.59722  Biso   1.000  H
  C490     1.0000 0.34732  0.37803  0.16672  Biso   1.000  C
  H463     1.0000 0.38018  0.45763  0.21074  Biso   1.000  H
  H464     1.0000 0.30277  0.29388  0.13355  Biso   1.000  H
  C491     1.0000 0.97633  0.38351  0.20615  Biso   1.000  C
  H465     1.0000 0.01149  0.44065  0.15601  Biso   1.000  H
  H466     1.0000 0.95847  0.32710  0.26235  Biso   1.000  H
  C492     1.0000 0.20353  0.16943  0.51308  Biso   1.000  C
  C493     1.0000 0.38919  0.38008  0.13528  Biso   1.000  C
  C494     1.0000 0.92450  0.38180  0.18884  Biso   1.000  C
  C495     1.0000 0.19891  0.16851  0.46700  Biso   1.000  C
  H467     1.0000 0.23597  0.18284  0.52480  Biso   1.000  H
  N67      1.0000 0.42755  0.42671  0.13933  Biso   1.000  N
  H468     1.0000 0.38633  0.34395  0.11099  Biso   1.000  H
  N68      1.0000 0.91370  0.41132  0.15296  Biso   1.000  N
  H469     1.0000 0.89785  0.35736  0.20543  Biso   1.000  H
  C496     1.0000 0.15578  0.13660  0.44651  Biso   1.000  C
  C497     1.0000 0.23925  0.19823  0.44278  Biso   1.000  C
  C498     1.0000 0.46484  0.42513  0.10553  Biso   1.000  C
  C499     1.0000 0.86217  0.39877  0.13770  Biso   1.000  C
  C500     1.0000 0.15387  0.13178  0.40300  Biso   1.000  C
  H470     1.0000 0.12719  0.11778  0.46257  Biso   1.000  H
  C501     1.0000 0.23742  0.19519  0.39936  Biso   1.000  C
  H471     1.0000 0.26880  0.22115  0.45619  Biso   1.000  H
  C502     1.0000 0.51370  0.38180  0.12048  Biso   1.000  C
  H472     1.0000 0.47210  0.48610  0.09616  Biso   1.000  H
  H473     1.0000 0.45087  0.39177  0.08137  Biso   1.000  H
  C503     1.0000 0.86175  0.32743  0.10430  Biso   1.000  C
  H474     1.0000 0.84915  0.45479  0.12573  Biso   1.000  H
  H475     1.0000 0.83957  0.38153  0.16126  Biso   1.000  H
  C504     1.0000 0.19521  0.16071  0.37834  Biso   1.000  C
  H476     1.0000 0.12428  0.10866  0.38968  Biso   1.000  H
  H477     1.0000 0.26548  0.21699  0.38356  Biso   1.000  H
  N69      1.0000 0.50844  0.29150  0.13443  Biso   1.000  N
  H478     1.0000 0.53886  0.38345  0.09726  Biso   1.000  H
  H479     1.0000 0.52779  0.41720  0.14392  Biso   1.000  H
  N70      1.0000 0.87526  0.24328  0.12334  Biso   1.000  N
  H480     1.0000 0.82735  0.32334  0.09151  Biso   1.000  H
  H481     1.0000 0.88648  0.34216  0.08190  Biso   1.000  H
  C505     1.0000 0.19414  0.15391  0.33191  Biso   1.000  C
  C506     1.0000 0.50160  0.22703  0.10122  Biso   1.000  C
  H482     1.0000 0.53237  0.27650  0.15149  Biso   1.000  H
  C507     1.0000 0.88366  0.17207  0.09353  Biso   1.000  C
  H483     1.0000 0.85449  0.22861  0.14307  Biso   1.000  H
  C508     1.0000 0.23990  0.14631  0.30935  Biso   1.000  C
  C509     1.0000 0.14871  0.15483  0.30945  Biso   1.000  C
  C510     1.0000 0.48889  0.13713  0.11966  Biso   1.000  C
  H484     1.0000 0.53328  0.22280  0.08438  Biso   1.000  H
  H485     1.0000 0.47366  0.24625  0.08237  Biso   1.000  H
  C511     1.0000 0.90530  0.09327  0.11618  Biso   1.000  C
  H486     1.0000 0.90774  0.19176  0.07141  Biso   1.000  H
  H487     1.0000 0.85102  0.15595  0.07989  Biso   1.000  H
  C512     1.0000 0.24059  0.14340  0.26572  Biso   1.000  C
  H488     1.0000 0.27124  0.14307  0.32428  Biso   1.000  H
  C513     1.0000 0.14749  0.14889  0.26594  Biso   1.000  C
  H489     1.0000 0.11741  0.15952  0.32434  Biso   1.000  H
  N71      1.0000 0.43648  0.13541  0.13597  Biso   1.000  N
  H490     1.0000 0.49275  0.09122  0.09770  Biso   1.000  H
  H491     1.0000 0.51305  0.12339  0.14266  Biso   1.000  H
  N72      1.0000 0.95469  0.11619  0.13465  Biso   1.000  N
  H492     1.0000 0.88148  0.07425  0.13854  Biso   1.000  H
  H493     1.0000 0.90961  0.04360  0.09623  Biso   1.000  H
  C514     1.0000 0.19414  0.14492  0.24442  Biso   1.000  C
  C515     1.0000 0.28964  0.13871  0.24215  Biso   1.000  C
  C516     1.0000 0.09902  0.14169  0.24231  Biso   1.000  C
  C517     1.0000 0.43183  0.13990  0.17505  Biso   1.000  C
  C518     1.0000 0.96149  0.09710  0.17288  Biso   1.000  C
  H494     1.0000 0.19406  0.14314  0.21457  Biso   1.000  H
  C519     1.0000 0.29277  0.10463  0.20182  Biso   1.000  C
  C520     1.0000 0.33461  0.17088  0.25972  Biso   1.000  C
  C521     1.0000 0.05817  0.09380  0.25906  Biso   1.000  C
  C522     1.0000 0.09279  0.17703  0.20219  Biso   1.000  C
  C523     1.0000 0.38232  0.13799  0.19729  Biso   1.000  C
  H495     1.0000 0.46202  0.14492  0.19145  Biso   1.000  H
  C524     1.0000 0.00824  0.11500  0.19597  Biso   1.000  C
  H496     1.0000 0.93427  0.06923  0.18746  Biso   1.000  H
  H497     1.0000 0.26300  0.08052  0.18919  Biso   1.000  H
  C525     1.0000 0.33789  0.10463  0.17951  Biso   1.000  C
  C526     1.0000 0.37999  0.16890  0.23832  Biso   1.000  C
  H498     1.0000 0.33377  0.19493  0.28727  Biso   1.000  H
  H499     1.0000 0.06088  0.06949  0.28645  Biso   1.000  H
  C527     1.0000 0.01412  0.08138  0.23634  Biso   1.000  C
  C528     1.0000 0.04878  0.16441  0.17945  Biso   1.000  C
  H500     1.0000 0.11974  0.21071  0.19022  Biso   1.000  H
  H501     1.0000 0.33861  0.08158  0.15174  Biso   1.000  H
  H502     1.0000 0.41026  0.18892  0.25174  Biso   1.000  H
  H503     1.0000 0.98691  0.04895  0.24856  Biso   1.000  H
  H504     1.0000 0.04577  0.18958  0.15221  Biso   1.000  H
  Ne1      1.0000 0.18374  0.27433  0.27857  Biso   1.000  Ne
  He1      1.0000 0.16554  0.27282  0.32993  Biso   1.000  He
  He2      1.0000 0.22434  0.28229  0.33487  Biso   1.000  He
  He3      1.0000 0.16489  0.25922  0.24179  Biso   1.000  He
  Ar1      1.0000 0.18304  0.27316  0.27918  Biso   1.000  Ar
  Ne2      1.0000 0.68374  0.27433  0.22143  Biso   1.000  Ne
  He4      1.0000 0.72505  0.26266  0.21439  Biso   1.000  He
  He5      1.0000 0.62485  0.26771  0.21546  Biso   1.000  He
  Ar2      1.0000 0.68304  0.27316  0.22081  Biso   1.000  Ar
  Ne3      1.0000 0.31626  0.77433  0.27857  Biso   1.000  Ne
  He6      1.0000 0.36593  0.77006  0.28435  Biso   1.000  He
  He7      1.0000 0.23908  0.77597  0.27268  Biso   1.000  He
  He8      1.0000 0.33862  0.75757  0.23745  Biso   1.000  He
  Ar3      1.0000 0.31696  0.77316  0.27918  Biso   1.000  Ar
  Ne4      1.0000 0.81626  0.77433  0.22143  Biso   1.000  Ne
  He9      1.0000 0.80166  0.76840  0.26222  Biso   1.000  He
  He10     1.0000 0.84654  0.77927  0.17759  Biso   1.000  He
  He11     1.0000 0.67989  0.80271  0.15975  Biso   1.000  He
  Ar4      1.0000 0.81696  0.77316  0.22081  Biso   1.000  Ar
  Ne5      1.0000 0.68374  0.22567  0.72142  Biso   1.000  Ne
  He12     1.0000 0.69801  0.23157  0.76155  Biso   1.000  He
  He13     1.0000 0.63629  0.22925  0.71555  Biso   1.000  He
  He14     1.0000 0.81700  0.20033  0.66110  Biso   1.000  He
  Ar5      1.0000 0.68304  0.22685  0.72081  Biso   1.000  Ar
  Ne6      1.0000 0.18374  0.22567  0.77856  Biso   1.000  Ne
  He15     1.0000 0.15331  0.22071  0.82266  Biso   1.000  He
  He16     1.0000 0.21211  0.23425  0.80506  Biso   1.000  He
  He17     1.0000 0.16396  0.24138  0.74037  Biso   1.000  He
  Ar6      1.0000 0.18304  0.22684  0.77917  Biso   1.000  Ar
  Ne7      1.0000 0.31626  0.72567  0.77856  Biso   1.000  Ne
  He18     1.0000 0.37656  0.73262  0.78457  Biso   1.000  He
  He19     1.0000 0.27511  0.73737  0.78559  Biso   1.000  He
  He20     1.0000 0.33595  0.74128  0.74057  Biso   1.000  He
  Ar7      1.0000 0.31696  0.72684  0.77917  Biso   1.000  Ar
  Ne8      1.0000 0.81626  0.72567  0.72142  Biso   1.000  Ne
  He21     1.0000 0.84043  0.74396  0.76588  Biso   1.000  He
  He22     1.0000 0.78845  0.73453  0.69567  Biso   1.000  He
  He23     1.0000 0.94616  0.78670  0.68692  Biso   1.000  He
  Ar8      1.0000 0.82430  0.72101  0.71845  Biso   1.000  Ar
