data_image0
_cell_length_a       11.894
_cell_length_b       15.526
_cell_length_c       14.86
_cell_angle_alpha    90
_cell_angle_beta     91.67
_cell_angle_gamma    90

_symmetry_space_group_name_H-M    "P 1"
_symmetry_int_tables_number       1

loop_
  _symmetry_equiv_pos_as_xyz
  'x, y, z'

loop_
  _atom_site_label
  _atom_site_occupancy
  _atom_site_fract_x
  _atom_site_fract_y
  _atom_site_fract_z
  _atom_site_thermal_displace_type
  _atom_site_B_iso_or_equiv
  _atom_site_type_symbol
  O1       1.0000 0.84737  0.22530  0.37082  Biso   1.000  O
  C1       1.0000 0.94781  0.23077  0.35850  Biso   1.000  C
  C2       1.0000 0.94781  0.23084  0.35850  Biso   1.000  C
  C3       1.0000 0.94773  0.23077  0.35850  Biso   1.000  C
  C4       1.0000 0.94773  0.23084  0.35850  Biso   1.000  C
  N1       1.0000 0.00221  0.20462  0.28249  Biso   1.000  N
  N2       1.0000 0.00213  0.20462  0.28249  Biso   1.000  N
  N3       1.0000 0.02726  0.26343  0.41848  Biso   1.000  N
  N4       1.0000 0.02734  0.26343  0.41848  Biso   1.000  N
  C5       1.0000 0.94323  0.18047  0.20029  Biso   1.000  C
  C6       1.0000 0.94323  0.18054  0.20029  Biso   1.000  C
  C7       1.0000 0.94314  0.18047  0.20029  Biso   1.000  C
  C8       1.0000 0.94314  0.18054  0.20029  Biso   1.000  C
  C9       1.0000 0.12125  0.22440  0.28673  Biso   1.000  C
  C10      1.0000 0.13738  0.27019  0.37869  Biso   1.000  C
  C11      1.0000 0.99638  0.31521  0.49631  Biso   1.000  C
  C12      1.0000 0.99629  0.31521  0.49631  Biso   1.000  C
  N5       1.0000 0.93899  0.08869  0.18319  Biso   1.000  N
  H1       1.0000 0.86603  0.20237  0.20217  Biso   1.000  H
  H2       1.0000 0.97956  0.20868  0.14979  Biso   1.000  H
  H3       1.0000 0.86603  0.20243  0.20217  Biso   1.000  H
  H4       1.0000 0.86595  0.20237  0.20217  Biso   1.000  H
  H5       1.0000 0.86595  0.20243  0.20217  Biso   1.000  H
  N6       1.0000 0.19321  0.14930  0.29562  Biso   1.000  N
  H6       1.0000 0.14338  0.26169  0.23624  Biso   1.000  H
  H7       1.0000 0.14346  0.26169  0.23624  Biso   1.000  H
  N7       1.0000 0.22434  0.21892  0.42340  Biso   1.000  N
  H8       1.0000 0.16083  0.33099  0.37169  Biso   1.000  H
  N8       1.0000 0.22443  0.21892  0.42340  Biso   1.000  N
  H9       1.0000 0.16092  0.33099  0.37169  Biso   1.000  H
  H10      1.0000 0.91513  0.32578  0.49314  Biso   1.000  H
  H11      1.0000 0.91513  0.32584  0.49314  Biso   1.000  H
  N9       1.0000 0.02521  0.27528  0.58154  Biso   1.000  N
  H12      1.0000 0.03436  0.37112  0.49335  Biso   1.000  H
  H13      1.0000 0.03444  0.37112  0.49335  Biso   1.000  H
  C13      1.0000 0.85131  0.03922  0.21133  Biso   1.000  C
  C14      1.0000 0.85123  0.03922  0.21133  Biso   1.000  C
  C15      1.0000 0.02943  0.03749  0.14791  Biso   1.000  C
  C16      1.0000 0.02935  0.03749  0.14791  Biso   1.000  C
  C17      1.0000 0.21362  0.09152  0.22109  Biso   1.000  C
  C18      1.0000 0.25409  0.14833  0.37452  Biso   1.000  C
  C19      1.0000 0.28118  0.24462  0.50654  Biso   1.000  C
  C20      1.0000 0.28110  0.24462  0.50654  Biso   1.000  C
  C21      1.0000 0.94490  0.24932  0.64112  Biso   1.000  C
  C22      1.0000 0.94482  0.24932  0.64112  Biso   1.000  C
  C23      1.0000 0.13608  0.28179  0.62469  Biso   1.000  C
  C24      1.0000 0.13600  0.28179  0.62469  Biso   1.000  C
  O2       1.0000 0.76517  0.06621  0.24452  Biso   1.000  O
  N10      1.0000 0.87666  0.95408  0.19618  Biso   1.000  N
  C25      1.0000 0.97869  0.94538  0.14427  Biso   1.000  C
  N11      1.0000 0.12696  0.02673  0.20803  Biso   1.000  N
  H14      1.0000 0.05103  0.05752  0.08759  Biso   1.000  H
  H15      1.0000 0.05094  0.05752  0.08759  Biso   1.000  H
  H16      1.0000 0.28606  0.06280  0.23179  Biso   1.000  H
  H17      1.0000 0.21875  0.12553  0.16582  Biso   1.000  H
  H18      1.0000 0.28614  0.06280  0.23179  Biso   1.000  H
  O3       1.0000 0.32589  0.09500  0.39741  Biso   1.000  O
  N12      1.0000 0.22004  0.22549  0.58692  Biso   1.000  N
  H19      1.0000 0.35439  0.21570  0.51071  Biso   1.000  H
  H20      1.0000 0.29514  0.30678  0.50439  Biso   1.000  H
  H21      1.0000 0.29514  0.30684  0.50439  Biso   1.000  H
  O4       1.0000 0.84381  0.24797  0.62651  Biso   1.000  O
  O5       1.0000 0.84381  0.24804  0.62651  Biso   1.000  O
  O6       1.0000 0.84373  0.24797  0.62651  Biso   1.000  O
  O7       1.0000 0.84373  0.24804  0.62651  Biso   1.000  O
  N13      1.0000 0.00033  0.22478  0.72029  Biso   1.000  N
  N14      1.0000 0.00041  0.22478  0.72029  Biso   1.000  N
  C26      1.0000 0.11970  0.24320  0.71982  Biso   1.000  C
  H22      1.0000 0.16243  0.34220  0.62799  Biso   1.000  H
  C27      1.0000 0.11962  0.24320  0.71982  Biso   1.000  C
  H23      1.0000 0.16252  0.34220  0.62799  Biso   1.000  H
  C28      1.0000 0.79211  0.88748  0.20170  Biso   1.000  C
  C29      1.0000 0.79203  0.88748  0.20170  Biso   1.000  C
  H24      1.0000 0.96102  0.92728  0.08160  Biso   1.000  H
  H25      1.0000 0.96093  0.92728  0.08160  Biso   1.000  H
  N15      1.0000 0.06535  0.89250  0.18527  Biso   1.000  N
  C30      1.0000 0.15232  0.94068  0.22109  Biso   1.000  C
  C31      1.0000 0.24890  0.15883  0.64280  Biso   1.000  C
  C32      1.0000 0.24881  0.15883  0.64280  Biso   1.000  C
  C33      1.0000 0.94154  0.20018  0.80041  Biso   1.000  C
  N16      1.0000 0.19078  0.16753  0.72070  Biso   1.000  N
  H26      1.0000 0.14222  0.28430  0.76789  Biso   1.000  H
  H27      1.0000 0.14230  0.28430  0.76789  Biso   1.000  H
  N17      1.0000 0.80923  0.83247  0.27932  Biso   1.000  N
  H28      1.0000 0.79323  0.85218  0.14710  Biso   1.000  H
  H29      1.0000 0.71780  0.91440  0.20439  Biso   1.000  H
  N18      1.0000 0.80914  0.83247  0.27932  Biso   1.000  N
  H30      1.0000 0.79315  0.85218  0.14710  Biso   1.000  H
  C34      1.0000 0.05839  0.79982  0.19961  Biso   1.000  C
  C35      1.0000 0.05847  0.79982  0.19961  Biso   1.000  C
  O8       1.0000 0.23691  0.91221  0.25819  Biso   1.000  O
  O9       1.0000 0.23683  0.91221  0.25819  Biso   1.000  O
  O10      1.0000 0.31718  0.10222  0.62712  Biso   1.000  O
  O11      1.0000 0.31710  0.10222  0.62712  Biso   1.000  O
  N19      1.0000 0.93458  0.10750  0.81475  Biso   1.000  N
  H31      1.0000 0.86505  0.22369  0.79644  Biso   1.000  H
  H32      1.0000 0.97977  0.22633  0.85292  Biso   1.000  H
  N20      1.0000 0.93449  0.10750  0.81475  Biso   1.000  N
  H33      1.0000 0.97968  0.22633  0.85292  Biso   1.000  H
  C36      1.0000 0.20790  0.11252  0.79832  Biso   1.000  C
  C37      1.0000 0.20781  0.11252  0.79832  Biso   1.000  C
  C38      1.0000 0.75111  0.84117  0.35722  Biso   1.000  C
  C39      1.0000 0.88030  0.75680  0.28020  Biso   1.000  C
  C40      1.0000 0.75111  0.84123  0.35722  Biso   1.000  C
  C41      1.0000 0.75103  0.84117  0.35722  Biso   1.000  C
  C42      1.0000 0.88022  0.75680  0.28020  Biso   1.000  C
  C43      1.0000 0.75103  0.84123  0.35722  Biso   1.000  C
  N21      1.0000 0.99959  0.77522  0.27973  Biso   1.000  N
  N22      1.0000 0.99951  0.77522  0.27973  Biso   1.000  N
  H34      1.0000 0.13487  0.77631  0.20359  Biso   1.000  H
  H35      1.0000 0.02015  0.77367  0.14710  Biso   1.000  H
  H36      1.0000 0.02015  0.77373  0.14710  Biso   1.000  H
  H37      1.0000 0.02024  0.77367  0.14710  Biso   1.000  H
  H38      1.0000 0.02024  0.77373  0.14710  Biso   1.000  H
  C44      1.0000 0.84768  0.05932  0.77893  Biso   1.000  C
  C45      1.0000 0.84760  0.05932  0.77893  Biso   1.000  C
  C46      1.0000 0.02124  0.05462  0.85575  Biso   1.000  C
  C47      1.0000 0.02132  0.05462  0.85575  Biso   1.000  C
  N23      1.0000 0.12326  0.04592  0.80384  Biso   1.000  N
  H39      1.0000 0.20677  0.14782  0.85292  Biso   1.000  H
  H40      1.0000 0.28212  0.08560  0.79563  Biso   1.000  H
  N24      1.0000 0.12318  0.04592  0.80384  Biso   1.000  N
  H41      1.0000 0.28221  0.08560  0.79563  Biso   1.000  H
  O12      1.0000 0.68282  0.89778  0.37290  Biso   1.000  O
  N25      1.0000 0.77988  0.77451  0.41310  Biso   1.000  N
  O13      1.0000 0.68274  0.89778  0.37290  Biso   1.000  O
  H42      1.0000 0.85770  0.71570  0.23213  Biso   1.000  H
  C48      1.0000 0.86393  0.71821  0.37533  Biso   1.000  C
  H43      1.0000 0.85762  0.71570  0.23213  Biso   1.000  H
  C49      1.0000 0.86384  0.71821  0.37533  Biso   1.000  C
  C50      1.0000 0.05511  0.75068  0.35890  Biso   1.000  C
  N26      1.0000 0.87296  0.97327  0.79199  Biso   1.000  N
  N27      1.0000 0.87296  0.97334  0.79199  Biso   1.000  N
  O14      1.0000 0.76310  0.08779  0.74184  Biso   1.000  O
  O15      1.0000 0.76301  0.08779  0.74184  Biso   1.000  O
  C51      1.0000 0.97057  0.96251  0.85211  Biso   1.000  C
  C52      1.0000 0.97049  0.96251  0.85211  Biso   1.000  C
  H44      1.0000 0.03899  0.07272  0.91843  Biso   1.000  H
  H45      1.0000 0.03890  0.07272  0.91843  Biso   1.000  H
  C53      1.0000 0.14869  0.96078  0.78869  Biso   1.000  C
  C54      1.0000 0.71883  0.75538  0.49348  Biso   1.000  C
  C55      1.0000 0.71874  0.75538  0.49348  Biso   1.000  C
  N28      1.0000 0.97480  0.72472  0.41848  Biso   1.000  N
  H46      1.0000 0.83749  0.65780  0.37203  Biso   1.000  H
  N29      1.0000 0.97471  0.72472  0.41848  Biso   1.000  N
  O16      1.0000 0.15619  0.75203  0.37351  Biso   1.000  O
  O17      1.0000 0.15611  0.75203  0.37351  Biso   1.000  O
  C56      1.0000 0.78639  0.90848  0.77893  Biso   1.000  C
  C57      1.0000 0.78631  0.90848  0.77893  Biso   1.000  C
  N30      1.0000 0.06093  0.91131  0.81683  Biso   1.000  N
  N31      1.0000 0.06102  0.91131  0.81683  Biso   1.000  N
  H47      1.0000 0.94898  0.94248  0.91243  Biso   1.000  H
  H48      1.0000 0.94889  0.94248  0.91243  Biso   1.000  H
  O18      1.0000 0.23476  0.93379  0.75550  Biso   1.000  O
  O19      1.0000 0.23484  0.93379  0.75550  Biso   1.000  O
  N32      1.0000 0.77558  0.78108  0.57662  Biso   1.000  N
  H49      1.0000 0.64561  0.78430  0.48931  Biso   1.000  H
  H50      1.0000 0.70478  0.69322  0.49563  Biso   1.000  H
  H51      1.0000 0.64553  0.78430  0.48931  Biso   1.000  H
  C58      1.0000 0.00354  0.68479  0.50371  Biso   1.000  C
  C59      1.0000 0.00363  0.68479  0.50371  Biso   1.000  C
  N33      1.0000 0.80680  0.85070  0.70440  Biso   1.000  N
  N34      1.0000 0.80671  0.85070  0.70440  Biso   1.000  N
  H52      1.0000 0.71386  0.93720  0.76823  Biso   1.000  H
  H53      1.0000 0.78117  0.87447  0.83420  Biso   1.000  H
  H54      1.0000 0.78117  0.87453  0.83420  Biso   1.000  H
  H55      1.0000 0.78109  0.87447  0.83420  Biso   1.000  H
  H56      1.0000 0.78109  0.87453  0.83420  Biso   1.000  H
  C60      1.0000 0.05678  0.81953  0.79973  Biso   1.000  C
  C61      1.0000 0.05670  0.81953  0.79973  Biso   1.000  C
  C62      1.0000 0.74591  0.85167  0.62550  Biso   1.000  C
  C63      1.0000 0.86254  0.72981  0.62133  Biso   1.000  C
  C64      1.0000 0.74591  0.85173  0.62550  Biso   1.000  C
  C65      1.0000 0.74583  0.85167  0.62550  Biso   1.000  C
  C66      1.0000 0.74583  0.85173  0.62550  Biso   1.000  C
  N35      1.0000 0.97266  0.73657  0.58154  Biso   1.000  N
  H57      1.0000 0.96557  0.62888  0.50674  Biso   1.000  H
  N36      1.0000 0.97266  0.73664  0.58154  Biso   1.000  N
  H58      1.0000 0.08479  0.67422  0.50694  Biso   1.000  H
  H59      1.0000 0.08471  0.67422  0.50694  Biso   1.000  H
  C67      1.0000 0.87867  0.77560  0.71329  Biso   1.000  C
  N37      1.0000 0.99779  0.79538  0.71753  Biso   1.000  N
  N38      1.0000 0.99771  0.79538  0.71753  Biso   1.000  N
  H60      1.0000 0.13398  0.79763  0.79785  Biso   1.000  H
  H61      1.0000 0.02036  0.79132  0.85023  Biso   1.000  H
  H62      1.0000 0.02028  0.79132  0.85023  Biso   1.000  H
  O20      1.0000 0.67412  0.90500  0.60261  Biso   1.000  O
  O21      1.0000 0.67403  0.90500  0.60261  Biso   1.000  O
  H63      1.0000 0.83909  0.66901  0.62833  Biso   1.000  H
  H64      1.0000 0.83900  0.66901  0.62833  Biso   1.000  H
  C68      1.0000 0.05220  0.76923  0.64152  Biso   1.000  C
  H65      1.0000 0.85655  0.73831  0.76385  Biso   1.000  H
  O22      1.0000 0.15255  0.77470  0.62920  Biso   1.000  O
  O23      1.0000 0.84737  0.22530  0.37082  Biso   1.000  O
  C69      1.0000 0.94781  0.23077  0.35850  Biso   1.000  C
  C70      1.0000 0.94781  0.23084  0.35850  Biso   1.000  C
  C71      1.0000 0.94773  0.23077  0.35850  Biso   1.000  C
  C72      1.0000 0.94773  0.23084  0.35850  Biso   1.000  C
  N39      1.0000 0.00221  0.20462  0.28249  Biso   1.000  N
  N40      1.0000 0.00213  0.20462  0.28249  Biso   1.000  N
  N41      1.0000 0.02726  0.26343  0.41848  Biso   1.000  N
  N42      1.0000 0.02734  0.26343  0.41848  Biso   1.000  N
  C73      1.0000 0.94323  0.18047  0.20029  Biso   1.000  C
  C74      1.0000 0.94323  0.18054  0.20029  Biso   1.000  C
  C75      1.0000 0.94314  0.18047  0.20029  Biso   1.000  C
  C76      1.0000 0.94314  0.18054  0.20029  Biso   1.000  C
  C77      1.0000 0.12125  0.22440  0.28673  Biso   1.000  C
  C78      1.0000 0.13738  0.27019  0.37869  Biso   1.000  C
  C79      1.0000 0.99638  0.31521  0.49631  Biso   1.000  C
  C80      1.0000 0.99629  0.31521  0.49631  Biso   1.000  C
  N43      1.0000 0.93899  0.08869  0.18319  Biso   1.000  N
  H66      1.0000 0.97956  0.20868  0.14979  Biso   1.000  H
  H67      1.0000 0.86603  0.20237  0.20217  Biso   1.000  H
  H68      1.0000 0.86603  0.20243  0.20217  Biso   1.000  H
  H69      1.0000 0.86595  0.20237  0.20217  Biso   1.000  H
  H70      1.0000 0.86595  0.20243  0.20217  Biso   1.000  H
  N44      1.0000 0.19321  0.14930  0.29562  Biso   1.000  N
  H71      1.0000 0.14338  0.26169  0.23624  Biso   1.000  H
  H72      1.0000 0.14346  0.26169  0.23624  Biso   1.000  H
  N45      1.0000 0.22434  0.21892  0.42340  Biso   1.000  N
  H73      1.0000 0.16083  0.33099  0.37169  Biso   1.000  H
  N46      1.0000 0.22443  0.21892  0.42340  Biso   1.000  N
  H74      1.0000 0.16092  0.33099  0.37169  Biso   1.000  H
  H75      1.0000 0.91513  0.32578  0.49314  Biso   1.000  H
  H76      1.0000 0.91513  0.32584  0.49314  Biso   1.000  H
  N47      1.0000 0.02521  0.27528  0.58154  Biso   1.000  N
  H77      1.0000 0.03436  0.37112  0.49335  Biso   1.000  H
  H78      1.0000 0.03444  0.37112  0.49335  Biso   1.000  H
  C81      1.0000 0.85131  0.03922  0.21133  Biso   1.000  C
  C82      1.0000 0.85123  0.03922  0.21133  Biso   1.000  C
  C83      1.0000 0.02943  0.03749  0.14791  Biso   1.000  C
  C84      1.0000 0.02935  0.03749  0.14791  Biso   1.000  C
  C85      1.0000 0.21362  0.09152  0.22109  Biso   1.000  C
  C86      1.0000 0.25409  0.14833  0.37452  Biso   1.000  C
  C87      1.0000 0.28118  0.24462  0.50654  Biso   1.000  C
  C88      1.0000 0.28110  0.24462  0.50654  Biso   1.000  C
  C89      1.0000 0.94490  0.24932  0.64112  Biso   1.000  C
  C90      1.0000 0.94482  0.24932  0.64112  Biso   1.000  C
  C91      1.0000 0.13608  0.28179  0.62469  Biso   1.000  C
  C92      1.0000 0.13600  0.28179  0.62469  Biso   1.000  C
  O24      1.0000 0.76517  0.06621  0.24452  Biso   1.000  O
  N48      1.0000 0.87666  0.95408  0.19618  Biso   1.000  N
  C93      1.0000 0.97869  0.94538  0.14427  Biso   1.000  C
  N49      1.0000 0.12696  0.02673  0.20803  Biso   1.000  N
  H79      1.0000 0.05103  0.05752  0.08759  Biso   1.000  H
  H80      1.0000 0.05094  0.05752  0.08759  Biso   1.000  H
  H81      1.0000 0.28606  0.06280  0.23179  Biso   1.000  H
  H82      1.0000 0.21875  0.12553  0.16582  Biso   1.000  H
  H83      1.0000 0.28614  0.06280  0.23179  Biso   1.000  H
  O25      1.0000 0.32589  0.09500  0.39741  Biso   1.000  O
  N50      1.0000 0.22004  0.22549  0.58692  Biso   1.000  N
  H84      1.0000 0.35439  0.21570  0.51071  Biso   1.000  H
  H85      1.0000 0.29514  0.30678  0.50439  Biso   1.000  H
  H86      1.0000 0.29514  0.30684  0.50439  Biso   1.000  H
  O26      1.0000 0.84381  0.24797  0.62651  Biso   1.000  O
  O27      1.0000 0.84381  0.24804  0.62651  Biso   1.000  O
  O28      1.0000 0.84373  0.24797  0.62651  Biso   1.000  O
  O29      1.0000 0.84373  0.24804  0.62651  Biso   1.000  O
  N51      1.0000 0.00033  0.22478  0.72029  Biso   1.000  N
  N52      1.0000 0.00041  0.22478  0.72029  Biso   1.000  N
  C94      1.0000 0.11970  0.24320  0.71982  Biso   1.000  C
  H87      1.0000 0.16243  0.34220  0.62799  Biso   1.000  H
  C95      1.0000 0.11962  0.24320  0.71982  Biso   1.000  C
  H88      1.0000 0.16252  0.34220  0.62799  Biso   1.000  H
  C96      1.0000 0.79211  0.88748  0.20170  Biso   1.000  C
  C97      1.0000 0.79203  0.88748  0.20170  Biso   1.000  C
  H89      1.0000 0.96102  0.92728  0.08160  Biso   1.000  H
  H90      1.0000 0.96093  0.92728  0.08160  Biso   1.000  H
  N53      1.0000 0.06535  0.89250  0.18527  Biso   1.000  N
  C98      1.0000 0.15232  0.94068  0.22109  Biso   1.000  C
  C99      1.0000 0.24890  0.15883  0.64280  Biso   1.000  C
  C100     1.0000 0.24881  0.15883  0.64280  Biso   1.000  C
  C101     1.0000 0.94154  0.20018  0.80041  Biso   1.000  C
  N54      1.0000 0.19078  0.16753  0.72070  Biso   1.000  N
  H91      1.0000 0.14222  0.28430  0.76789  Biso   1.000  H
  H92      1.0000 0.14230  0.28430  0.76789  Biso   1.000  H
  N55      1.0000 0.80923  0.83247  0.27932  Biso   1.000  N
  H93      1.0000 0.79323  0.85218  0.14710  Biso   1.000  H
  H94      1.0000 0.71780  0.91440  0.20439  Biso   1.000  H
  N56      1.0000 0.80914  0.83247  0.27932  Biso   1.000  N
  H95      1.0000 0.79315  0.85218  0.14710  Biso   1.000  H
  C102     1.0000 0.05839  0.79982  0.19961  Biso   1.000  C
  C103     1.0000 0.05847  0.79982  0.19961  Biso   1.000  C
  O30      1.0000 0.23691  0.91221  0.25819  Biso   1.000  O
  O31      1.0000 0.23683  0.91221  0.25819  Biso   1.000  O
  O32      1.0000 0.31718  0.10222  0.62712  Biso   1.000  O
  O33      1.0000 0.31710  0.10222  0.62712  Biso   1.000  O
  N57      1.0000 0.93458  0.10750  0.81475  Biso   1.000  N
  H96      1.0000 0.86505  0.22369  0.79644  Biso   1.000  H
  H97      1.0000 0.97977  0.22633  0.85292  Biso   1.000  H
  N58      1.0000 0.93449  0.10750  0.81475  Biso   1.000  N
  H98      1.0000 0.97968  0.22633  0.85292  Biso   1.000  H
  C104     1.0000 0.20790  0.11252  0.79832  Biso   1.000  C
  C105     1.0000 0.20781  0.11252  0.79832  Biso   1.000  C
  C106     1.0000 0.75111  0.84117  0.35722  Biso   1.000  C
  C107     1.0000 0.88030  0.75680  0.28020  Biso   1.000  C
  C108     1.0000 0.75111  0.84123  0.35722  Biso   1.000  C
  C109     1.0000 0.75103  0.84117  0.35722  Biso   1.000  C
  C110     1.0000 0.88022  0.75680  0.28020  Biso   1.000  C
  C111     1.0000 0.75103  0.84123  0.35722  Biso   1.000  C
  N59      1.0000 0.99959  0.77522  0.27973  Biso   1.000  N
  N60      1.0000 0.99951  0.77522  0.27973  Biso   1.000  N
  H99      1.0000 0.13487  0.77631  0.20359  Biso   1.000  H
  H100     1.0000 0.02015  0.77367  0.14710  Biso   1.000  H
  H101     1.0000 0.02015  0.77373  0.14710  Biso   1.000  H
  H102     1.0000 0.02024  0.77367  0.14710  Biso   1.000  H
  H103     1.0000 0.02024  0.77373  0.14710  Biso   1.000  H
  C112     1.0000 0.84768  0.05932  0.77893  Biso   1.000  C
  C113     1.0000 0.84760  0.05932  0.77893  Biso   1.000  C
  C114     1.0000 0.02124  0.05462  0.85575  Biso   1.000  C
  C115     1.0000 0.02132  0.05462  0.85575  Biso   1.000  C
  N61      1.0000 0.12326  0.04592  0.80384  Biso   1.000  N
  H104     1.0000 0.20677  0.14782  0.85292  Biso   1.000  H
  H105     1.0000 0.28212  0.08560  0.79563  Biso   1.000  H
  N62      1.0000 0.12318  0.04592  0.80384  Biso   1.000  N
  H106     1.0000 0.28221  0.08560  0.79563  Biso   1.000  H
  O34      1.0000 0.68282  0.89778  0.37290  Biso   1.000  O
  N63      1.0000 0.77988  0.77451  0.41310  Biso   1.000  N
  O35      1.0000 0.68274  0.89778  0.37290  Biso   1.000  O
  H107     1.0000 0.85770  0.71570  0.23213  Biso   1.000  H
  C116     1.0000 0.86393  0.71821  0.37533  Biso   1.000  C
  H108     1.0000 0.85762  0.71570  0.23213  Biso   1.000  H
  C117     1.0000 0.86384  0.71821  0.37533  Biso   1.000  C
  C118     1.0000 0.05511  0.75068  0.35890  Biso   1.000  C
  N64      1.0000 0.87296  0.97327  0.79199  Biso   1.000  N
  N65      1.0000 0.87296  0.97334  0.79199  Biso   1.000  N
  O36      1.0000 0.76310  0.08779  0.74184  Biso   1.000  O
  O37      1.0000 0.76301  0.08779  0.74184  Biso   1.000  O
  C119     1.0000 0.97057  0.96251  0.85211  Biso   1.000  C
  C120     1.0000 0.97049  0.96251  0.85211  Biso   1.000  C
  H109     1.0000 0.03899  0.07272  0.91843  Biso   1.000  H
  H110     1.0000 0.03890  0.07272  0.91843  Biso   1.000  H
  C121     1.0000 0.14869  0.96078  0.78869  Biso   1.000  C
  C122     1.0000 0.71883  0.75538  0.49348  Biso   1.000  C
  C123     1.0000 0.71874  0.75538  0.49348  Biso   1.000  C
  N66      1.0000 0.97480  0.72472  0.41848  Biso   1.000  N
  H111     1.0000 0.83749  0.65780  0.37203  Biso   1.000  H
  N67      1.0000 0.97471  0.72472  0.41848  Biso   1.000  N
  O38      1.0000 0.15619  0.75203  0.37351  Biso   1.000  O
  O39      1.0000 0.15611  0.75203  0.37351  Biso   1.000  O
  C124     1.0000 0.78639  0.90848  0.77893  Biso   1.000  C
  C125     1.0000 0.78631  0.90848  0.77893  Biso   1.000  C
  N68      1.0000 0.06093  0.91131  0.81683  Biso   1.000  N
  N69      1.0000 0.06102  0.91131  0.81683  Biso   1.000  N
  H112     1.0000 0.94898  0.94248  0.91243  Biso   1.000  H
  H113     1.0000 0.94889  0.94248  0.91243  Biso   1.000  H
  O40      1.0000 0.23476  0.93379  0.75550  Biso   1.000  O
  O41      1.0000 0.23484  0.93379  0.75550  Biso   1.000  O
  N70      1.0000 0.77558  0.78108  0.57662  Biso   1.000  N
  H114     1.0000 0.64561  0.78430  0.48931  Biso   1.000  H
  H115     1.0000 0.70478  0.69322  0.49563  Biso   1.000  H
  H116     1.0000 0.64553  0.78430  0.48931  Biso   1.000  H
  C126     1.0000 0.00354  0.68479  0.50371  Biso   1.000  C
  C127     1.0000 0.00363  0.68479  0.50371  Biso   1.000  C
  N71      1.0000 0.80680  0.85070  0.70440  Biso   1.000  N
  N72      1.0000 0.80671  0.85070  0.70440  Biso   1.000  N
  H117     1.0000 0.71386  0.93720  0.76823  Biso   1.000  H
  H118     1.0000 0.78117  0.87447  0.83420  Biso   1.000  H
  H119     1.0000 0.78117  0.87453  0.83420  Biso   1.000  H
  H120     1.0000 0.78109  0.87447  0.83420  Biso   1.000  H
  H121     1.0000 0.78109  0.87453  0.83420  Biso   1.000  H
  C128     1.0000 0.05678  0.81953  0.79973  Biso   1.000  C
  C129     1.0000 0.05670  0.81953  0.79973  Biso   1.000  C
  C130     1.0000 0.74591  0.85167  0.62550  Biso   1.000  C
  C131     1.0000 0.86254  0.72981  0.62133  Biso   1.000  C
  C132     1.0000 0.74591  0.85173  0.62550  Biso   1.000  C
  C133     1.0000 0.74583  0.85167  0.62550  Biso   1.000  C
  C134     1.0000 0.74583  0.85173  0.62550  Biso   1.000  C
  N73      1.0000 0.97266  0.73657  0.58154  Biso   1.000  N
  H122     1.0000 0.96557  0.62888  0.50674  Biso   1.000  H
  N74      1.0000 0.97266  0.73664  0.58154  Biso   1.000  N
  H123     1.0000 0.08479  0.67422  0.50694  Biso   1.000  H
  H124     1.0000 0.08471  0.67422  0.50694  Biso   1.000  H
  C135     1.0000 0.87867  0.77560  0.71329  Biso   1.000  C
  N75      1.0000 0.99779  0.79538  0.71753  Biso   1.000  N
  N76      1.0000 0.99771  0.79538  0.71753  Biso   1.000  N
  H125     1.0000 0.13398  0.79763  0.79785  Biso   1.000  H
  H126     1.0000 0.02036  0.79132  0.85023  Biso   1.000  H
  H127     1.0000 0.02028  0.79132  0.85023  Biso   1.000  H
  O42      1.0000 0.67412  0.90500  0.60261  Biso   1.000  O
  O43      1.0000 0.67403  0.90500  0.60261  Biso   1.000  O
  H128     1.0000 0.83909  0.66901  0.62833  Biso   1.000  H
  H129     1.0000 0.83900  0.66901  0.62833  Biso   1.000  H
  C136     1.0000 0.05220  0.76923  0.64152  Biso   1.000  C
  H130     1.0000 0.85655  0.73831  0.76385  Biso   1.000  H
  O44      1.0000 0.15255  0.77470  0.62920  Biso   1.000  O
  O45      1.0000 0.84737  0.22530  0.37082  Biso   1.000  O
  C137     1.0000 0.94781  0.23077  0.35850  Biso   1.000  C
  C138     1.0000 0.94781  0.23084  0.35850  Biso   1.000  C
  C139     1.0000 0.94773  0.23077  0.35850  Biso   1.000  C
  C140     1.0000 0.94773  0.23084  0.35850  Biso   1.000  C
  N77      1.0000 0.00221  0.20462  0.28249  Biso   1.000  N
  N78      1.0000 0.00213  0.20462  0.28249  Biso   1.000  N
  N79      1.0000 0.02726  0.26343  0.41848  Biso   1.000  N
  N80      1.0000 0.02734  0.26343  0.41848  Biso   1.000  N
  C141     1.0000 0.94323  0.18047  0.20029  Biso   1.000  C
  C142     1.0000 0.94323  0.18054  0.20029  Biso   1.000  C
  C143     1.0000 0.94314  0.18047  0.20029  Biso   1.000  C
  C144     1.0000 0.94314  0.18054  0.20029  Biso   1.000  C
  C145     1.0000 0.12125  0.22440  0.28673  Biso   1.000  C
  C146     1.0000 0.13738  0.27019  0.37869  Biso   1.000  C
  C147     1.0000 0.99638  0.31521  0.49631  Biso   1.000  C
  C148     1.0000 0.99629  0.31521  0.49631  Biso   1.000  C
  N81      1.0000 0.93899  0.08869  0.18319  Biso   1.000  N
  H131     1.0000 0.97956  0.20868  0.14979  Biso   1.000  H
  H132     1.0000 0.86603  0.20237  0.20217  Biso   1.000  H
  H133     1.0000 0.86603  0.20243  0.20217  Biso   1.000  H
  H134     1.0000 0.86595  0.20237  0.20217  Biso   1.000  H
  H135     1.0000 0.86595  0.20243  0.20217  Biso   1.000  H
  N82      1.0000 0.19321  0.14930  0.29562  Biso   1.000  N
  H136     1.0000 0.14338  0.26169  0.23624  Biso   1.000  H
  H137     1.0000 0.14346  0.26169  0.23624  Biso   1.000  H
  N83      1.0000 0.22434  0.21892  0.42340  Biso   1.000  N
  H138     1.0000 0.16083  0.33099  0.37169  Biso   1.000  H
  N84      1.0000 0.22443  0.21892  0.42340  Biso   1.000  N
  H139     1.0000 0.16092  0.33099  0.37169  Biso   1.000  H
  H140     1.0000 0.91513  0.32578  0.49314  Biso   1.000  H
  H141     1.0000 0.91513  0.32584  0.49314  Biso   1.000  H
  N85      1.0000 0.02521  0.27528  0.58154  Biso   1.000  N
  H142     1.0000 0.03436  0.37112  0.49335  Biso   1.000  H
  H143     1.0000 0.03444  0.37112  0.49335  Biso   1.000  H
  C149     1.0000 0.85131  0.03922  0.21133  Biso   1.000  C
  C150     1.0000 0.85123  0.03922  0.21133  Biso   1.000  C
  C151     1.0000 0.02943  0.03749  0.14791  Biso   1.000  C
  C152     1.0000 0.02935  0.03749  0.14791  Biso   1.000  C
  C153     1.0000 0.21362  0.09152  0.22109  Biso   1.000  C
  C154     1.0000 0.25409  0.14833  0.37452  Biso   1.000  C
  C155     1.0000 0.28118  0.24462  0.50654  Biso   1.000  C
  C156     1.0000 0.28110  0.24462  0.50654  Biso   1.000  C
  C157     1.0000 0.94490  0.24932  0.64112  Biso   1.000  C
  C158     1.0000 0.94482  0.24932  0.64112  Biso   1.000  C
  C159     1.0000 0.13608  0.28179  0.62469  Biso   1.000  C
  C160     1.0000 0.13600  0.28179  0.62469  Biso   1.000  C
  O46      1.0000 0.76517  0.06621  0.24452  Biso   1.000  O
  N86      1.0000 0.87666  0.95408  0.19618  Biso   1.000  N
  C161     1.0000 0.97869  0.94538  0.14427  Biso   1.000  C
  N87      1.0000 0.12696  0.02673  0.20803  Biso   1.000  N
  H144     1.0000 0.05103  0.05752  0.08759  Biso   1.000  H
  H145     1.0000 0.05094  0.05752  0.08759  Biso   1.000  H
  H146     1.0000 0.28606  0.06280  0.23179  Biso   1.000  H
  H147     1.0000 0.21875  0.12553  0.16582  Biso   1.000  H
  H148     1.0000 0.28614  0.06280  0.23179  Biso   1.000  H
  O47      1.0000 0.32589  0.09500  0.39741  Biso   1.000  O
  N88      1.0000 0.22004  0.22549  0.58692  Biso   1.000  N
  H149     1.0000 0.35439  0.21570  0.51071  Biso   1.000  H
  H150     1.0000 0.29514  0.30678  0.50439  Biso   1.000  H
  H151     1.0000 0.29514  0.30684  0.50439  Biso   1.000  H
  O48      1.0000 0.84381  0.24797  0.62651  Biso   1.000  O
  O49      1.0000 0.84381  0.24804  0.62651  Biso   1.000  O
  O50      1.0000 0.84373  0.24797  0.62651  Biso   1.000  O
  O51      1.0000 0.84373  0.24804  0.62651  Biso   1.000  O
  N89      1.0000 0.00033  0.22478  0.72029  Biso   1.000  N
  N90      1.0000 0.00041  0.22478  0.72029  Biso   1.000  N
  C162     1.0000 0.11970  0.24320  0.71982  Biso   1.000  C
  H152     1.0000 0.16243  0.34220  0.62799  Biso   1.000  H
  C163     1.0000 0.11962  0.24320  0.71982  Biso   1.000  C
  H153     1.0000 0.16252  0.34220  0.62799  Biso   1.000  H
  C164     1.0000 0.79211  0.88748  0.20170  Biso   1.000  C
  C165     1.0000 0.79203  0.88748  0.20170  Biso   1.000  C
  H154     1.0000 0.96102  0.92728  0.08160  Biso   1.000  H
  H155     1.0000 0.96093  0.92728  0.08160  Biso   1.000  H
  N91      1.0000 0.06535  0.89250  0.18527  Biso   1.000  N
  C166     1.0000 0.15232  0.94068  0.22109  Biso   1.000  C
  C167     1.0000 0.24890  0.15883  0.64280  Biso   1.000  C
  C168     1.0000 0.24881  0.15883  0.64280  Biso   1.000  C
  C169     1.0000 0.94154  0.20018  0.80041  Biso   1.000  C
  N92      1.0000 0.19078  0.16753  0.72070  Biso   1.000  N
  H156     1.0000 0.14222  0.28430  0.76789  Biso   1.000  H
  H157     1.0000 0.14230  0.28430  0.76789  Biso   1.000  H
  N93      1.0000 0.80923  0.83247  0.27932  Biso   1.000  N
  H158     1.0000 0.79323  0.85218  0.14710  Biso   1.000  H
  H159     1.0000 0.71780  0.91440  0.20439  Biso   1.000  H
  N94      1.0000 0.80914  0.83247  0.27932  Biso   1.000  N
  H160     1.0000 0.79315  0.85218  0.14710  Biso   1.000  H
  C170     1.0000 0.05839  0.79982  0.19961  Biso   1.000  C
  C171     1.0000 0.05847  0.79982  0.19961  Biso   1.000  C
  O52      1.0000 0.23691  0.91221  0.25819  Biso   1.000  O
  O53      1.0000 0.23683  0.91221  0.25819  Biso   1.000  O
  O54      1.0000 0.31718  0.10222  0.62712  Biso   1.000  O
  O55      1.0000 0.31710  0.10222  0.62712  Biso   1.000  O
  H161     1.0000 0.86505  0.22369  0.79644  Biso   1.000  H
  N95      1.0000 0.93458  0.10750  0.81475  Biso   1.000  N
  H162     1.0000 0.97977  0.22633  0.85292  Biso   1.000  H
  N96      1.0000 0.93449  0.10750  0.81475  Biso   1.000  N
  H163     1.0000 0.97968  0.22633  0.85292  Biso   1.000  H
  C172     1.0000 0.20790  0.11252  0.79832  Biso   1.000  C
  C173     1.0000 0.20781  0.11252  0.79832  Biso   1.000  C
  C174     1.0000 0.75111  0.84117  0.35722  Biso   1.000  C
  C175     1.0000 0.88030  0.75680  0.28020  Biso   1.000  C
  C176     1.0000 0.75111  0.84123  0.35722  Biso   1.000  C
  C177     1.0000 0.75103  0.84117  0.35722  Biso   1.000  C
  C178     1.0000 0.88022  0.75680  0.28020  Biso   1.000  C
  C179     1.0000 0.75103  0.84123  0.35722  Biso   1.000  C
  N97      1.0000 0.99959  0.77522  0.27973  Biso   1.000  N
  N98      1.0000 0.99951  0.77522  0.27973  Biso   1.000  N
  H164     1.0000 0.13487  0.77631  0.20359  Biso   1.000  H
  H165     1.0000 0.02015  0.77367  0.14710  Biso   1.000  H
  H166     1.0000 0.02015  0.77373  0.14710  Biso   1.000  H
  H167     1.0000 0.02024  0.77367  0.14710  Biso   1.000  H
  H168     1.0000 0.02024  0.77373  0.14710  Biso   1.000  H
  C180     1.0000 0.84768  0.05932  0.77893  Biso   1.000  C
  C181     1.0000 0.84760  0.05932  0.77893  Biso   1.000  C
  C182     1.0000 0.02124  0.05462  0.85575  Biso   1.000  C
  C183     1.0000 0.02132  0.05462  0.85575  Biso   1.000  C
  N99      1.0000 0.12326  0.04592  0.80384  Biso   1.000  N
  H169     1.0000 0.20677  0.14782  0.85292  Biso   1.000  H
  H170     1.0000 0.28212  0.08560  0.79563  Biso   1.000  H
  N100     1.0000 0.12318  0.04592  0.80384  Biso   1.000  N
  H171     1.0000 0.28221  0.08560  0.79563  Biso   1.000  H
  O56      1.0000 0.68282  0.89778  0.37290  Biso   1.000  O
  N101     1.0000 0.77988  0.77451  0.41310  Biso   1.000  N
  O57      1.0000 0.68274  0.89778  0.37290  Biso   1.000  O
  H172     1.0000 0.85770  0.71570  0.23213  Biso   1.000  H
  C184     1.0000 0.86393  0.71821  0.37533  Biso   1.000  C
  H173     1.0000 0.85762  0.71570  0.23213  Biso   1.000  H
  C185     1.0000 0.86384  0.71821  0.37533  Biso   1.000  C
  C186     1.0000 0.05511  0.75068  0.35890  Biso   1.000  C
  N102     1.0000 0.87296  0.97327  0.79199  Biso   1.000  N
  N103     1.0000 0.87296  0.97334  0.79199  Biso   1.000  N
  O58      1.0000 0.76310  0.08779  0.74184  Biso   1.000  O
  O59      1.0000 0.76301  0.08779  0.74184  Biso   1.000  O
  C187     1.0000 0.97057  0.96251  0.85211  Biso   1.000  C
  C188     1.0000 0.97049  0.96251  0.85211  Biso   1.000  C
  H174     1.0000 0.03899  0.07272  0.91843  Biso   1.000  H
  H175     1.0000 0.03890  0.07272  0.91843  Biso   1.000  H
  C189     1.0000 0.14869  0.96078  0.78869  Biso   1.000  C
  C190     1.0000 0.71883  0.75538  0.49348  Biso   1.000  C
  C191     1.0000 0.71874  0.75538  0.49348  Biso   1.000  C
  N104     1.0000 0.97480  0.72472  0.41848  Biso   1.000  N
  H176     1.0000 0.83749  0.65780  0.37203  Biso   1.000  H
  N105     1.0000 0.97471  0.72472  0.41848  Biso   1.000  N
  O60      1.0000 0.15619  0.75203  0.37351  Biso   1.000  O
  O61      1.0000 0.15611  0.75203  0.37351  Biso   1.000  O
  C192     1.0000 0.78639  0.90848  0.77893  Biso   1.000  C
  C193     1.0000 0.78631  0.90848  0.77893  Biso   1.000  C
  N106     1.0000 0.06093  0.91131  0.81683  Biso   1.000  N
  N107     1.0000 0.06102  0.91131  0.81683  Biso   1.000  N
  H177     1.0000 0.94898  0.94248  0.91243  Biso   1.000  H
  H178     1.0000 0.94889  0.94248  0.91243  Biso   1.000  H
  O62      1.0000 0.23476  0.93379  0.75550  Biso   1.000  O
  O63      1.0000 0.23484  0.93379  0.75550  Biso   1.000  O
  N108     1.0000 0.77558  0.78108  0.57662  Biso   1.000  N
  H179     1.0000 0.64561  0.78430  0.48931  Biso   1.000  H
  H180     1.0000 0.70478  0.69322  0.49563  Biso   1.000  H
  H181     1.0000 0.64553  0.78430  0.48931  Biso   1.000  H
  C194     1.0000 0.00354  0.68479  0.50371  Biso   1.000  C
  C195     1.0000 0.00363  0.68479  0.50371  Biso   1.000  C
  N109     1.0000 0.80680  0.85070  0.70440  Biso   1.000  N
  N110     1.0000 0.80671  0.85070  0.70440  Biso   1.000  N
  H182     1.0000 0.71386  0.93720  0.76823  Biso   1.000  H
  H183     1.0000 0.78117  0.87447  0.83420  Biso   1.000  H
  H184     1.0000 0.78117  0.87453  0.83420  Biso   1.000  H
  H185     1.0000 0.78109  0.87447  0.83420  Biso   1.000  H
  H186     1.0000 0.78109  0.87453  0.83420  Biso   1.000  H
  C196     1.0000 0.05678  0.81953  0.79973  Biso   1.000  C
  C197     1.0000 0.05670  0.81953  0.79973  Biso   1.000  C
  C198     1.0000 0.74591  0.85167  0.62550  Biso   1.000  C
  C199     1.0000 0.86254  0.72981  0.62133  Biso   1.000  C
  C200     1.0000 0.74591  0.85173  0.62550  Biso   1.000  C
  C201     1.0000 0.74583  0.85167  0.62550  Biso   1.000  C
  C202     1.0000 0.74583  0.85173  0.62550  Biso   1.000  C
  N111     1.0000 0.97266  0.73657  0.58154  Biso   1.000  N
  H187     1.0000 0.96557  0.62888  0.50674  Biso   1.000  H
  N112     1.0000 0.97266  0.73664  0.58154  Biso   1.000  N
  H188     1.0000 0.08479  0.67422  0.50694  Biso   1.000  H
  H189     1.0000 0.08471  0.67422  0.50694  Biso   1.000  H
  C203     1.0000 0.87867  0.77560  0.71329  Biso   1.000  C
  N113     1.0000 0.99779  0.79538  0.71753  Biso   1.000  N
  N114     1.0000 0.99771  0.79538  0.71753  Biso   1.000  N
  H190     1.0000 0.13398  0.79763  0.79785  Biso   1.000  H
  H191     1.0000 0.02036  0.79132  0.85023  Biso   1.000  H
  H192     1.0000 0.02028  0.79132  0.85023  Biso   1.000  H
  O64      1.0000 0.67412  0.90500  0.60261  Biso   1.000  O
  O65      1.0000 0.67403  0.90500  0.60261  Biso   1.000  O
  H193     1.0000 0.83909  0.66901  0.62833  Biso   1.000  H
  H194     1.0000 0.83900  0.66901  0.62833  Biso   1.000  H
  C204     1.0000 0.05220  0.76923  0.64152  Biso   1.000  C
  H195     1.0000 0.85655  0.73831  0.76385  Biso   1.000  H
  O66      1.0000 0.15255  0.77470  0.62920  Biso   1.000  O
  O67      1.0000 0.84737  0.22530  0.37082  Biso   1.000  O
  C205     1.0000 0.94781  0.23077  0.35850  Biso   1.000  C
  C206     1.0000 0.94781  0.23084  0.35850  Biso   1.000  C
  C207     1.0000 0.94773  0.23077  0.35850  Biso   1.000  C
  C208     1.0000 0.94773  0.23084  0.35850  Biso   1.000  C
  N115     1.0000 0.00221  0.20462  0.28249  Biso   1.000  N
  N116     1.0000 0.00213  0.20462  0.28249  Biso   1.000  N
  N117     1.0000 0.02726  0.26343  0.41848  Biso   1.000  N
  N118     1.0000 0.02734  0.26343  0.41848  Biso   1.000  N
  C209     1.0000 0.94323  0.18047  0.20029  Biso   1.000  C
  C210     1.0000 0.94323  0.18054  0.20029  Biso   1.000  C
  C211     1.0000 0.94314  0.18047  0.20029  Biso   1.000  C
  C212     1.0000 0.94314  0.18054  0.20029  Biso   1.000  C
  C213     1.0000 0.12125  0.22440  0.28673  Biso   1.000  C
  C214     1.0000 0.13738  0.27019  0.37869  Biso   1.000  C
  C215     1.0000 0.99638  0.31521  0.49631  Biso   1.000  C
  C216     1.0000 0.99629  0.31521  0.49631  Biso   1.000  C
  N119     1.0000 0.93899  0.08869  0.18319  Biso   1.000  N
  H196     1.0000 0.97956  0.20868  0.14979  Biso   1.000  H
  H197     1.0000 0.86603  0.20237  0.20217  Biso   1.000  H
  H198     1.0000 0.86603  0.20243  0.20217  Biso   1.000  H
  H199     1.0000 0.86595  0.20237  0.20217  Biso   1.000  H
  H200     1.0000 0.86595  0.20243  0.20217  Biso   1.000  H
  N120     1.0000 0.19321  0.14930  0.29562  Biso   1.000  N
  H201     1.0000 0.14338  0.26169  0.23624  Biso   1.000  H
  H202     1.0000 0.14346  0.26169  0.23624  Biso   1.000  H
  N121     1.0000 0.22434  0.21892  0.42340  Biso   1.000  N
  H203     1.0000 0.16083  0.33099  0.37169  Biso   1.000  H
  N122     1.0000 0.22443  0.21892  0.42340  Biso   1.000  N
  H204     1.0000 0.16092  0.33099  0.37169  Biso   1.000  H
  H205     1.0000 0.91513  0.32578  0.49314  Biso   1.000  H
  H206     1.0000 0.91513  0.32584  0.49314  Biso   1.000  H
  N123     1.0000 0.02521  0.27528  0.58154  Biso   1.000  N
  H207     1.0000 0.03436  0.37112  0.49335  Biso   1.000  H
  H208     1.0000 0.03444  0.37112  0.49335  Biso   1.000  H
  C217     1.0000 0.85131  0.03922  0.21133  Biso   1.000  C
  C218     1.0000 0.85123  0.03922  0.21133  Biso   1.000  C
  C219     1.0000 0.02943  0.03749  0.14791  Biso   1.000  C
  C220     1.0000 0.02935  0.03749  0.14791  Biso   1.000  C
  C221     1.0000 0.21362  0.09152  0.22109  Biso   1.000  C
  C222     1.0000 0.25409  0.14833  0.37452  Biso   1.000  C
  C223     1.0000 0.28118  0.24462  0.50654  Biso   1.000  C
  C224     1.0000 0.28110  0.24462  0.50654  Biso   1.000  C
  C225     1.0000 0.94490  0.24932  0.64112  Biso   1.000  C
  C226     1.0000 0.94482  0.24932  0.64112  Biso   1.000  C
  C227     1.0000 0.13608  0.28179  0.62469  Biso   1.000  C
  C228     1.0000 0.13600  0.28179  0.62469  Biso   1.000  C
  O68      1.0000 0.76517  0.06621  0.24452  Biso   1.000  O
  N124     1.0000 0.87666  0.95408  0.19618  Biso   1.000  N
  C229     1.0000 0.97869  0.94538  0.14427  Biso   1.000  C
  N125     1.0000 0.12696  0.02673  0.20803  Biso   1.000  N
  H209     1.0000 0.05103  0.05752  0.08759  Biso   1.000  H
  H210     1.0000 0.05094  0.05752  0.08759  Biso   1.000  H
  H211     1.0000 0.28606  0.06280  0.23179  Biso   1.000  H
  H212     1.0000 0.21875  0.12553  0.16582  Biso   1.000  H
  H213     1.0000 0.28614  0.06280  0.23179  Biso   1.000  H
  O69      1.0000 0.32589  0.09500  0.39741  Biso   1.000  O
  N126     1.0000 0.22004  0.22549  0.58692  Biso   1.000  N
  H214     1.0000 0.35439  0.21570  0.51071  Biso   1.000  H
  H215     1.0000 0.29514  0.30678  0.50439  Biso   1.000  H
  H216     1.0000 0.29514  0.30684  0.50439  Biso   1.000  H
  O70      1.0000 0.84381  0.24797  0.62651  Biso   1.000  O
  O71      1.0000 0.84381  0.24804  0.62651  Biso   1.000  O
  O72      1.0000 0.84373  0.24797  0.62651  Biso   1.000  O
  O73      1.0000 0.84373  0.24804  0.62651  Biso   1.000  O
  N127     1.0000 0.00033  0.22478  0.72029  Biso   1.000  N
  N128     1.0000 0.00041  0.22478  0.72029  Biso   1.000  N
  C230     1.0000 0.11970  0.24320  0.71982  Biso   1.000  C
  H217     1.0000 0.16243  0.34220  0.62799  Biso   1.000  H
  C231     1.0000 0.11962  0.24320  0.71982  Biso   1.000  C
  H218     1.0000 0.16252  0.34220  0.62799  Biso   1.000  H
  C232     1.0000 0.79211  0.88748  0.20170  Biso   1.000  C
  C233     1.0000 0.79203  0.88748  0.20170  Biso   1.000  C
  H219     1.0000 0.96102  0.92728  0.08160  Biso   1.000  H
  H220     1.0000 0.96093  0.92728  0.08160  Biso   1.000  H
  N129     1.0000 0.06535  0.89250  0.18527  Biso   1.000  N
  C234     1.0000 0.15232  0.94068  0.22109  Biso   1.000  C
  C235     1.0000 0.24890  0.15883  0.64280  Biso   1.000  C
  C236     1.0000 0.24881  0.15883  0.64280  Biso   1.000  C
  C237     1.0000 0.94154  0.20018  0.80041  Biso   1.000  C
  N130     1.0000 0.19078  0.16753  0.72070  Biso   1.000  N
  H221     1.0000 0.14222  0.28430  0.76789  Biso   1.000  H
  H222     1.0000 0.14230  0.28430  0.76789  Biso   1.000  H
  N131     1.0000 0.80923  0.83247  0.27932  Biso   1.000  N
  H223     1.0000 0.79323  0.85218  0.14710  Biso   1.000  H
  H224     1.0000 0.71780  0.91440  0.20439  Biso   1.000  H
  N132     1.0000 0.80914  0.83247  0.27932  Biso   1.000  N
  H225     1.0000 0.79315  0.85218  0.14710  Biso   1.000  H
  C238     1.0000 0.05839  0.79982  0.19961  Biso   1.000  C
  C239     1.0000 0.05847  0.79982  0.19961  Biso   1.000  C
  O74      1.0000 0.23691  0.91221  0.25819  Biso   1.000  O
  O75      1.0000 0.23683  0.91221  0.25819  Biso   1.000  O
  O76      1.0000 0.31718  0.10222  0.62712  Biso   1.000  O
  O77      1.0000 0.31710  0.10222  0.62712  Biso   1.000  O
  H226     1.0000 0.86505  0.22369  0.79644  Biso   1.000  H
  N133     1.0000 0.93458  0.10750  0.81475  Biso   1.000  N
  H227     1.0000 0.97977  0.22633  0.85292  Biso   1.000  H
  N134     1.0000 0.93449  0.10750  0.81475  Biso   1.000  N
  H228     1.0000 0.97968  0.22633  0.85292  Biso   1.000  H
  C240     1.0000 0.20790  0.11252  0.79832  Biso   1.000  C
  C241     1.0000 0.20781  0.11252  0.79832  Biso   1.000  C
  C242     1.0000 0.75111  0.84117  0.35722  Biso   1.000  C
  C243     1.0000 0.88030  0.75680  0.28020  Biso   1.000  C
  C244     1.0000 0.75111  0.84123  0.35722  Biso   1.000  C
  C245     1.0000 0.75103  0.84117  0.35722  Biso   1.000  C
  C246     1.0000 0.88022  0.75680  0.28020  Biso   1.000  C
  C247     1.0000 0.75103  0.84123  0.35722  Biso   1.000  C
  N135     1.0000 0.99959  0.77522  0.27973  Biso   1.000  N
  N136     1.0000 0.99951  0.77522  0.27973  Biso   1.000  N
  H229     1.0000 0.13487  0.77631  0.20359  Biso   1.000  H
  H230     1.0000 0.02015  0.77367  0.14710  Biso   1.000  H
  H231     1.0000 0.02015  0.77373  0.14710  Biso   1.000  H
  H232     1.0000 0.02024  0.77367  0.14710  Biso   1.000  H
  H233     1.0000 0.02024  0.77373  0.14710  Biso   1.000  H
  C248     1.0000 0.84768  0.05932  0.77893  Biso   1.000  C
  C249     1.0000 0.84760  0.05932  0.77893  Biso   1.000  C
  C250     1.0000 0.02124  0.05462  0.85575  Biso   1.000  C
  C251     1.0000 0.02132  0.05462  0.85575  Biso   1.000  C
  N137     1.0000 0.12326  0.04592  0.80384  Biso   1.000  N
  H234     1.0000 0.20677  0.14782  0.85292  Biso   1.000  H
  H235     1.0000 0.28212  0.08560  0.79563  Biso   1.000  H
  N138     1.0000 0.12318  0.04592  0.80384  Biso   1.000  N
  H236     1.0000 0.28221  0.08560  0.79563  Biso   1.000  H
  O78      1.0000 0.68282  0.89778  0.37290  Biso   1.000  O
  N139     1.0000 0.77988  0.77451  0.41310  Biso   1.000  N
  O79      1.0000 0.68274  0.89778  0.37290  Biso   1.000  O
  H237     1.0000 0.85770  0.71570  0.23213  Biso   1.000  H
  C252     1.0000 0.86393  0.71821  0.37533  Biso   1.000  C
  H238     1.0000 0.85762  0.71570  0.23213  Biso   1.000  H
  C253     1.0000 0.86384  0.71821  0.37533  Biso   1.000  C
  C254     1.0000 0.05511  0.75068  0.35890  Biso   1.000  C
  N140     1.0000 0.87296  0.97327  0.79199  Biso   1.000  N
  N141     1.0000 0.87296  0.97334  0.79199  Biso   1.000  N
  O80      1.0000 0.76310  0.08779  0.74184  Biso   1.000  O
  O81      1.0000 0.76301  0.08779  0.74184  Biso   1.000  O
  C255     1.0000 0.97057  0.96251  0.85211  Biso   1.000  C
  C256     1.0000 0.97049  0.96251  0.85211  Biso   1.000  C
  H239     1.0000 0.03899  0.07272  0.91843  Biso   1.000  H
  H240     1.0000 0.03890  0.07272  0.91843  Biso   1.000  H
  C257     1.0000 0.14869  0.96078  0.78869  Biso   1.000  C
  C258     1.0000 0.71883  0.75538  0.49348  Biso   1.000  C
  C259     1.0000 0.71874  0.75538  0.49348  Biso   1.000  C
  N142     1.0000 0.97480  0.72472  0.41848  Biso   1.000  N
  H241     1.0000 0.83749  0.65780  0.37203  Biso   1.000  H
  N143     1.0000 0.97471  0.72472  0.41848  Biso   1.000  N
  O82      1.0000 0.15619  0.75203  0.37351  Biso   1.000  O
  O83      1.0000 0.15611  0.75203  0.37351  Biso   1.000  O
  C260     1.0000 0.78639  0.90848  0.77893  Biso   1.000  C
  C261     1.0000 0.78631  0.90848  0.77893  Biso   1.000  C
  N144     1.0000 0.06093  0.91131  0.81683  Biso   1.000  N
  N145     1.0000 0.06102  0.91131  0.81683  Biso   1.000  N
  H242     1.0000 0.94898  0.94248  0.91243  Biso   1.000  H
  H243     1.0000 0.94889  0.94248  0.91243  Biso   1.000  H
  O84      1.0000 0.23476  0.93379  0.75550  Biso   1.000  O
  O85      1.0000 0.23484  0.93379  0.75550  Biso   1.000  O
  N146     1.0000 0.77558  0.78108  0.57662  Biso   1.000  N
  H244     1.0000 0.64561  0.78430  0.48931  Biso   1.000  H
  H245     1.0000 0.70478  0.69322  0.49563  Biso   1.000  H
  H246     1.0000 0.64553  0.78430  0.48931  Biso   1.000  H
  C262     1.0000 0.00354  0.68479  0.50371  Biso   1.000  C
  C263     1.0000 0.00363  0.68479  0.50371  Biso   1.000  C
  N147     1.0000 0.80680  0.85070  0.70440  Biso   1.000  N
  N148     1.0000 0.80671  0.85070  0.70440  Biso   1.000  N
  H247     1.0000 0.71386  0.93720  0.76823  Biso   1.000  H
  H248     1.0000 0.78117  0.87447  0.83420  Biso   1.000  H
  H249     1.0000 0.78117  0.87453  0.83420  Biso   1.000  H
  H250     1.0000 0.78109  0.87447  0.83420  Biso   1.000  H
  H251     1.0000 0.78109  0.87453  0.83420  Biso   1.000  H
  C264     1.0000 0.05678  0.81953  0.79973  Biso   1.000  C
  C265     1.0000 0.05670  0.81953  0.79973  Biso   1.000  C
  C266     1.0000 0.74591  0.85167  0.62550  Biso   1.000  C
  C267     1.0000 0.86254  0.72981  0.62133  Biso   1.000  C
  C268     1.0000 0.74591  0.85173  0.62550  Biso   1.000  C
  C269     1.0000 0.74583  0.85167  0.62550  Biso   1.000  C
  C270     1.0000 0.74583  0.85173  0.62550  Biso   1.000  C
  N149     1.0000 0.97266  0.73657  0.58154  Biso   1.000  N
  H252     1.0000 0.96557  0.62888  0.50674  Biso   1.000  H
  N150     1.0000 0.97266  0.73664  0.58154  Biso   1.000  N
  H253     1.0000 0.08479  0.67422  0.50694  Biso   1.000  H
  H254     1.0000 0.08471  0.67422  0.50694  Biso   1.000  H
  C271     1.0000 0.87867  0.77560  0.71329  Biso   1.000  C
  N151     1.0000 0.99779  0.79538  0.71753  Biso   1.000  N
  N152     1.0000 0.99771  0.79538  0.71753  Biso   1.000  N
  H255     1.0000 0.13398  0.79763  0.79785  Biso   1.000  H
  H256     1.0000 0.02036  0.79132  0.85023  Biso   1.000  H
  H257     1.0000 0.02028  0.79132  0.85023  Biso   1.000  H
  O86      1.0000 0.67412  0.90500  0.60261  Biso   1.000  O
  O87      1.0000 0.67403  0.90500  0.60261  Biso   1.000  O
  H258     1.0000 0.83909  0.66901  0.62833  Biso   1.000  H
  H259     1.0000 0.83900  0.66901  0.62833  Biso   1.000  H
  C272     1.0000 0.05220  0.76923  0.64152  Biso   1.000  C
  H260     1.0000 0.85655  0.73831  0.76385  Biso   1.000  H
  O88      1.0000 0.15255  0.77470  0.62920  Biso   1.000  O
  C273     1.0000 0.61974  0.25680  0.21981  Biso   1.000  C
  N153     1.0000 0.50037  0.27522  0.22028  Biso   1.000  N
  C274     1.0000 0.63603  0.21821  0.12468  Biso   1.000  C
  C275     1.0000 0.63612  0.21821  0.12468  Biso   1.000  C
  N154     1.0000 0.69073  0.33247  0.22069  Biso   1.000  N
  H261     1.0000 0.64226  0.21570  0.26788  Biso   1.000  H
  N155     1.0000 0.69082  0.33247  0.22069  Biso   1.000  N
  C276     1.0000 0.44486  0.25068  0.14111  Biso   1.000  C
  C277     1.0000 0.44494  0.25068  0.14111  Biso   1.000  C
  C278     1.0000 0.61966  0.25680  0.21981  Biso   1.000  C
  C279     1.0000 0.44157  0.29982  0.30040  Biso   1.000  C
  N156     1.0000 0.52516  0.22472  0.08153  Biso   1.000  N
  N157     1.0000 0.52525  0.22472  0.08153  Biso   1.000  N
  N158     1.0000 0.72008  0.27451  0.08691  Biso   1.000  N
  H262     1.0000 0.66247  0.15780  0.12798  Biso   1.000  H
  C280     1.0000 0.74885  0.34123  0.14279  Biso   1.000  C
  C281     1.0000 0.74894  0.34123  0.14279  Biso   1.000  C
  C282     1.0000 0.70785  0.38748  0.29831  Biso   1.000  C
  O89      1.0000 0.34377  0.25203  0.12650  Biso   1.000  O
  O90      1.0000 0.34385  0.25203  0.12650  Biso   1.000  O
  N159     1.0000 0.43453  0.39250  0.31474  Biso   1.000  N
  H263     1.0000 0.36509  0.27631  0.29642  Biso   1.000  H
  H264     1.0000 0.47972  0.27367  0.35291  Biso   1.000  H
  N160     1.0000 0.43461  0.39250  0.31474  Biso   1.000  N
  H265     1.0000 0.47981  0.27367  0.35291  Biso   1.000  H
  C283     1.0000 0.49633  0.18479  0.99630  Biso   1.000  C
  C284     1.0000 0.78114  0.25538  0.00653  Biso   1.000  C
  C285     1.0000 0.78122  0.25538  0.00653  Biso   1.000  C
  O91      1.0000 0.81714  0.39778  0.12711  Biso   1.000  O
  O92      1.0000 0.81722  0.39778  0.12711  Biso   1.000  O
  H266     1.0000 0.70673  0.35218  0.35291  Biso   1.000  H
  H267     1.0000 0.78216  0.41440  0.29562  Biso   1.000  H
  N161     1.0000 0.62322  0.45408  0.30383  Biso   1.000  N
  H268     1.0000 0.70681  0.35218  0.35291  Biso   1.000  H
  N162     1.0000 0.62330  0.45408  0.30383  Biso   1.000  N
  C286     1.0000 0.34764  0.44068  0.27892  Biso   1.000  C
  C287     1.0000 0.52128  0.44538  0.35574  Biso   1.000  C
  C288     1.0000 0.34772  0.44068  0.27892  Biso   1.000  C
  N163     1.0000 0.52721  0.23657  0.91847  Biso   1.000  N
  H269     1.0000 0.41509  0.17422  0.99313  Biso   1.000  H
  H270     1.0000 0.53431  0.12888  0.99327  Biso   1.000  H
  H271     1.0000 0.41517  0.17422  0.99313  Biso   1.000  H
  H272     1.0000 0.53431  0.12888  0.99333  Biso   1.000  H
  H273     1.0000 0.85435  0.28430  0.01070  Biso   1.000  H
  H274     1.0000 0.79518  0.19322  0.00438  Biso   1.000  H
  H275     1.0000 0.85443  0.28430  0.01070  Biso   1.000  H
  N164     1.0000 0.72430  0.28108  0.92339  Biso   1.000  N
  C289     1.0000 0.64865  0.53922  0.28868  Biso   1.000  C
  C290     1.0000 0.64873  0.53922  0.28868  Biso   1.000  C
  O93      1.0000 0.26305  0.41221  0.24183  Biso   1.000  O
  N165     1.0000 0.37300  0.52673  0.29198  Biso   1.000  N
  O94      1.0000 0.26313  0.41221  0.24183  Biso   1.000  O
  C291     1.0000 0.47053  0.53749  0.35210  Biso   1.000  C
  H276     1.0000 0.53894  0.42728  0.41841  Biso   1.000  H
  C292     1.0000 0.47061  0.53749  0.35210  Biso   1.000  C
  H277     1.0000 0.53903  0.42728  0.41841  Biso   1.000  H
  C293     1.0000 0.63733  0.22981  0.87868  Biso   1.000  C
  C294     1.0000 0.44768  0.26923  0.85849  Biso   1.000  C
  C295     1.0000 0.44776  0.26923  0.85849  Biso   1.000  C
  C296     1.0000 0.75396  0.35173  0.87451  Biso   1.000  C
  C297     1.0000 0.75405  0.35173  0.87451  Biso   1.000  C
  N166     1.0000 0.56097  0.58869  0.31682  Biso   1.000  N
  O95      1.0000 0.73479  0.56621  0.25549  Biso   1.000  O
  C298     1.0000 0.28635  0.59152  0.27892  Biso   1.000  C
  C299     1.0000 0.28643  0.59152  0.27892  Biso   1.000  C
  H278     1.0000 0.44893  0.55752  0.41242  Biso   1.000  H
  H279     1.0000 0.44902  0.55752  0.41242  Biso   1.000  H
  H280     1.0000 0.66079  0.16901  0.87168  Biso   1.000  H
  C300     1.0000 0.62121  0.27560  0.78672  Biso   1.000  C
  O96      1.0000 0.34732  0.27470  0.87081  Biso   1.000  O
  N167     1.0000 0.50209  0.29538  0.78248  Biso   1.000  N
  N168     1.0000 0.50217  0.29538  0.78248  Biso   1.000  N
  N169     1.0000 0.69308  0.35070  0.79561  Biso   1.000  N
  N170     1.0000 0.69316  0.35070  0.79561  Biso   1.000  N
  O97      1.0000 0.82576  0.40500  0.89740  Biso   1.000  O
  O98      1.0000 0.82584  0.40500  0.89740  Biso   1.000  O
  C301     1.0000 0.55673  0.68054  0.29972  Biso   1.000  C
  C302     1.0000 0.55682  0.68054  0.29972  Biso   1.000  C
  N171     1.0000 0.30675  0.64930  0.20439  Biso   1.000  N
  H281     1.0000 0.21390  0.56280  0.26822  Biso   1.000  H
  H282     1.0000 0.28121  0.62553  0.33419  Biso   1.000  H
  N172     1.0000 0.30684  0.64930  0.20439  Biso   1.000  N
  H283     1.0000 0.64333  0.23831  0.73616  Biso   1.000  H
  H284     1.0000 0.64333  0.23831  0.73623  Biso   1.000  H
  C303     1.0000 0.44310  0.31953  0.70028  Biso   1.000  C
  C304     1.0000 0.44318  0.31953  0.70028  Biso   1.000  C
  C305     1.0000 0.71349  0.40848  0.72108  Biso   1.000  C
  C306     1.0000 0.71357  0.40848  0.72108  Biso   1.000  C
  N173     1.0000 0.49775  0.70462  0.21752  Biso   1.000  N
  H285     1.0000 0.63393  0.70243  0.29784  Biso   1.000  H
  H286     1.0000 0.52040  0.70868  0.35022  Biso   1.000  H
  N174     1.0000 0.49783  0.70462  0.21752  Biso   1.000  N
  H287     1.0000 0.63402  0.70243  0.29784  Biso   1.000  H
  C307     1.0000 0.24587  0.64833  0.12549  Biso   1.000  C
  C308     1.0000 0.37871  0.72440  0.21328  Biso   1.000  C
  C309     1.0000 0.24595  0.64833  0.12549  Biso   1.000  C
  N175     1.0000 0.43894  0.41131  0.68318  Biso   1.000  N
  H288     1.0000 0.36590  0.29763  0.70216  Biso   1.000  H
  H289     1.0000 0.47951  0.29132  0.64978  Biso   1.000  H
  H290     1.0000 0.36599  0.29763  0.70223  Biso   1.000  H
  N176     1.0000 0.62692  0.47334  0.70802  Biso   1.000  N
  H291     1.0000 0.78601  0.43720  0.73178  Biso   1.000  H
  H292     1.0000 0.71870  0.37453  0.66581  Biso   1.000  H
  C310     1.0000 0.55215  0.73077  0.14151  Biso   1.000  C
  C311     1.0000 0.55224  0.73077  0.14151  Biso   1.000  C
  O99      1.0000 0.17407  0.59500  0.10260  Biso   1.000  O
  N177     1.0000 0.27562  0.71892  0.07661  Biso   1.000  N
  O100     1.0000 0.17416  0.59500  0.10260  Biso   1.000  O
  C312     1.0000 0.36258  0.77019  0.12132  Biso   1.000  C
  H293     1.0000 0.35659  0.76169  0.26384  Biso   1.000  H
  C313     1.0000 0.52930  0.46251  0.64790  Biso   1.000  C
  C314     1.0000 0.35118  0.46078  0.71132  Biso   1.000  C
  C315     1.0000 0.35127  0.46078  0.71132  Biso   1.000  C
  C316     1.0000 0.65220  0.55932  0.72108  Biso   1.000  C
  N178     1.0000 0.47270  0.76343  0.08153  Biso   1.000  N
  O101     1.0000 0.65259  0.72530  0.12919  Biso   1.000  O
  C317     1.0000 0.21870  0.74462  0.99347  Biso   1.000  C
  C318     1.0000 0.21878  0.74462  0.99354  Biso   1.000  C
  H294     1.0000 0.33904  0.83099  0.12832  Biso   1.000  H
  H295     1.0000 0.33913  0.83099  0.12832  Biso   1.000  H
  H296     1.0000 0.55090  0.44248  0.58758  Biso   1.000  H
  C319     1.0000 0.47864  0.55462  0.64426  Biso   1.000  C
  H297     1.0000 0.55098  0.44248  0.58758  Biso   1.000  H
  O102     1.0000 0.26512  0.43379  0.74451  Biso   1.000  O
  N179     1.0000 0.37661  0.54592  0.69617  Biso   1.000  N
  O103     1.0000 0.73678  0.58779  0.75817  Biso   1.000  O
  N180     1.0000 0.56530  0.60750  0.68526  Biso   1.000  N
  O104     1.0000 0.73687  0.58779  0.75817  Biso   1.000  O
  C320     1.0000 0.50358  0.81521  0.00370  Biso   1.000  C
  N181     1.0000 0.27984  0.72549  0.91309  Biso   1.000  N
  H298     1.0000 0.14548  0.71570  0.98930  Biso   1.000  H
  H299     1.0000 0.20473  0.80678  0.99562  Biso   1.000  H
  H300     1.0000 0.14557  0.71570  0.98930  Biso   1.000  H
  H301     1.0000 0.46089  0.57272  0.58159  Biso   1.000  H
  H302     1.0000 0.46097  0.57272  0.58159  Biso   1.000  H
  C321     1.0000 0.29198  0.61252  0.70169  Biso   1.000  C
  C322     1.0000 0.29206  0.61252  0.70169  Biso   1.000  C
  C323     1.0000 0.55834  0.70018  0.69960  Biso   1.000  C
  H303     1.0000 0.58475  0.82578  0.00687  Biso   1.000  H
  H304     1.0000 0.46561  0.87112  0.00673  Biso   1.000  H
  H305     1.0000 0.58483  0.82578  0.00693  Biso   1.000  H
  N182     1.0000 0.47467  0.77528  0.91847  Biso   1.000  N
  N183     1.0000 0.47475  0.77528  0.91847  Biso   1.000  N
  C324     1.0000 0.25098  0.65883  0.85721  Biso   1.000  C
  C325     1.0000 0.25106  0.65883  0.85721  Biso   1.000  C
  C326     1.0000 0.36380  0.78179  0.87532  Biso   1.000  C
  C327     1.0000 0.36388  0.78179  0.87532  Biso   1.000  C
  N184     1.0000 0.30910  0.66753  0.77931  Biso   1.000  N
  H306     1.0000 0.29310  0.64782  0.64709  Biso   1.000  H
  H307     1.0000 0.21776  0.58560  0.70438  Biso   1.000  H
  N185     1.0000 0.30918  0.66753  0.77931  Biso   1.000  N
  H308     1.0000 0.29319  0.64782  0.64709  Biso   1.000  H
  N186     1.0000 0.49955  0.72478  0.77972  Biso   1.000  N
  H309     1.0000 0.63483  0.72369  0.70358  Biso   1.000  H
  H310     1.0000 0.52011  0.72633  0.64709  Biso   1.000  H
  C328     1.0000 0.55498  0.74932  0.85889  Biso   1.000  C
  C329     1.0000 0.55506  0.74932  0.85889  Biso   1.000  C
  O105     1.0000 0.18269  0.60222  0.87289  Biso   1.000  O
  O106     1.0000 0.18278  0.60222  0.87289  Biso   1.000  O
  C330     1.0000 0.38018  0.74320  0.78019  Biso   1.000  C
  C331     1.0000 0.38026  0.74320  0.78019  Biso   1.000  C
  H311     1.0000 0.33745  0.84220  0.87202  Biso   1.000  H
  O107     1.0000 0.65606  0.74804  0.87350  Biso   1.000  O
  O108     1.0000 0.65615  0.74804  0.87350  Biso   1.000  O
  H312     1.0000 0.35757  0.78430  0.73212  Biso   1.000  H
  H313     1.0000 0.35766  0.78430  0.73212  Biso   1.000  H
  C332     1.0000 0.61974  0.25680  0.21981  Biso   1.000  C
  N187     1.0000 0.50037  0.27522  0.22028  Biso   1.000  N
  H314     1.0000 0.64226  0.21570  0.26788  Biso   1.000  H
  N188     1.0000 0.69073  0.33247  0.22069  Biso   1.000  N
  C333     1.0000 0.63603  0.21821  0.12468  Biso   1.000  C
  N189     1.0000 0.69082  0.33247  0.22069  Biso   1.000  N
  C334     1.0000 0.63612  0.21821  0.12468  Biso   1.000  C
  C335     1.0000 0.44157  0.29982  0.30040  Biso   1.000  C
  C336     1.0000 0.61966  0.25680  0.21981  Biso   1.000  C
  C337     1.0000 0.44486  0.25068  0.14111  Biso   1.000  C
  C338     1.0000 0.44494  0.25068  0.14111  Biso   1.000  C
  C339     1.0000 0.70785  0.38748  0.29831  Biso   1.000  C
  C340     1.0000 0.74885  0.34123  0.14279  Biso   1.000  C
  C341     1.0000 0.74894  0.34123  0.14279  Biso   1.000  C
  N190     1.0000 0.52516  0.22472  0.08153  Biso   1.000  N
  N191     1.0000 0.52525  0.22472  0.08153  Biso   1.000  N
  N192     1.0000 0.72008  0.27451  0.08691  Biso   1.000  N
  H315     1.0000 0.66247  0.15780  0.12798  Biso   1.000  H
  H316     1.0000 0.36509  0.27631  0.29642  Biso   1.000  H
  N193     1.0000 0.43453  0.39250  0.31474  Biso   1.000  N
  H317     1.0000 0.47972  0.27367  0.35291  Biso   1.000  H
  N194     1.0000 0.43461  0.39250  0.31474  Biso   1.000  N
  H318     1.0000 0.47981  0.27367  0.35291  Biso   1.000  H
  O109     1.0000 0.34377  0.25203  0.12650  Biso   1.000  O
  O110     1.0000 0.34385  0.25203  0.12650  Biso   1.000  O
  N195     1.0000 0.62322  0.45408  0.30383  Biso   1.000  N
  N196     1.0000 0.62330  0.45408  0.30383  Biso   1.000  N
  H319     1.0000 0.78216  0.41440  0.29562  Biso   1.000  H
  H320     1.0000 0.70673  0.35218  0.35291  Biso   1.000  H
  H321     1.0000 0.70681  0.35218  0.35291  Biso   1.000  H
  O111     1.0000 0.81714  0.39778  0.12711  Biso   1.000  O
  O112     1.0000 0.81722  0.39778  0.12711  Biso   1.000  O
  C342     1.0000 0.49633  0.18479  0.99630  Biso   1.000  C
  C343     1.0000 0.78114  0.25538  0.00653  Biso   1.000  C
  C344     1.0000 0.78122  0.25538  0.00653  Biso   1.000  C
  C345     1.0000 0.52128  0.44538  0.35574  Biso   1.000  C
  C346     1.0000 0.34764  0.44068  0.27892  Biso   1.000  C
  C347     1.0000 0.34772  0.44068  0.27892  Biso   1.000  C
  C348     1.0000 0.64865  0.53922  0.28868  Biso   1.000  C
  C349     1.0000 0.64873  0.53922  0.28868  Biso   1.000  C
  N197     1.0000 0.52721  0.23657  0.91847  Biso   1.000  N
  H322     1.0000 0.41509  0.17422  0.99313  Biso   1.000  H
  H323     1.0000 0.53431  0.12888  0.99327  Biso   1.000  H
  H324     1.0000 0.41517  0.17422  0.99313  Biso   1.000  H
  H325     1.0000 0.53431  0.12888  0.99333  Biso   1.000  H
  H326     1.0000 0.79518  0.19322  0.00438  Biso   1.000  H
  N198     1.0000 0.72430  0.28108  0.92339  Biso   1.000  N
  H327     1.0000 0.85435  0.28430  0.01070  Biso   1.000  H
  H328     1.0000 0.85443  0.28430  0.01070  Biso   1.000  H
  C350     1.0000 0.47053  0.53749  0.35210  Biso   1.000  C
  H329     1.0000 0.53894  0.42728  0.41841  Biso   1.000  H
  C351     1.0000 0.47061  0.53749  0.35210  Biso   1.000  C
  H330     1.0000 0.53903  0.42728  0.41841  Biso   1.000  H
  N199     1.0000 0.37300  0.52673  0.29198  Biso   1.000  N
  O113     1.0000 0.26305  0.41221  0.24183  Biso   1.000  O
  O114     1.0000 0.26313  0.41221  0.24183  Biso   1.000  O
  N200     1.0000 0.56097  0.58869  0.31682  Biso   1.000  N
  O115     1.0000 0.73479  0.56621  0.25549  Biso   1.000  O
  C352     1.0000 0.63733  0.22981  0.87868  Biso   1.000  C
  C353     1.0000 0.44768  0.26923  0.85849  Biso   1.000  C
  C354     1.0000 0.44776  0.26923  0.85849  Biso   1.000  C
  C355     1.0000 0.75396  0.35173  0.87451  Biso   1.000  C
  C356     1.0000 0.75405  0.35173  0.87451  Biso   1.000  C
  H331     1.0000 0.44893  0.55752  0.41242  Biso   1.000  H
  H332     1.0000 0.44902  0.55752  0.41242  Biso   1.000  H
  C357     1.0000 0.28635  0.59152  0.27892  Biso   1.000  C
  C358     1.0000 0.28643  0.59152  0.27892  Biso   1.000  C
  C359     1.0000 0.55673  0.68054  0.29972  Biso   1.000  C
  C360     1.0000 0.55682  0.68054  0.29972  Biso   1.000  C
  H333     1.0000 0.66079  0.16901  0.87168  Biso   1.000  H
  C361     1.0000 0.62121  0.27560  0.78672  Biso   1.000  C
  O116     1.0000 0.34732  0.27470  0.87081  Biso   1.000  O
  N201     1.0000 0.50209  0.29538  0.78248  Biso   1.000  N
  N202     1.0000 0.50217  0.29538  0.78248  Biso   1.000  N
  O117     1.0000 0.82576  0.40500  0.89740  Biso   1.000  O
  N203     1.0000 0.69308  0.35070  0.79561  Biso   1.000  N
  O118     1.0000 0.82584  0.40500  0.89740  Biso   1.000  O
  N204     1.0000 0.69316  0.35070  0.79561  Biso   1.000  N
  H334     1.0000 0.21390  0.56280  0.26822  Biso   1.000  H
  H335     1.0000 0.28121  0.62553  0.33419  Biso   1.000  H
  N205     1.0000 0.30675  0.64930  0.20439  Biso   1.000  N
  N206     1.0000 0.30684  0.64930  0.20439  Biso   1.000  N
  H336     1.0000 0.52040  0.70868  0.35022  Biso   1.000  H
  N207     1.0000 0.49775  0.70462  0.21752  Biso   1.000  N
  H337     1.0000 0.63393  0.70243  0.29784  Biso   1.000  H
  N208     1.0000 0.49783  0.70462  0.21752  Biso   1.000  N
  H338     1.0000 0.63402  0.70243  0.29784  Biso   1.000  H
  H339     1.0000 0.64333  0.23831  0.73616  Biso   1.000  H
  H340     1.0000 0.64333  0.23831  0.73623  Biso   1.000  H
  C362     1.0000 0.44310  0.31953  0.70028  Biso   1.000  C
  C363     1.0000 0.44318  0.31953  0.70028  Biso   1.000  C
  C364     1.0000 0.71349  0.40848  0.72108  Biso   1.000  C
  C365     1.0000 0.71357  0.40848  0.72108  Biso   1.000  C
  C366     1.0000 0.37871  0.72440  0.21328  Biso   1.000  C
  C367     1.0000 0.24587  0.64833  0.12549  Biso   1.000  C
  C368     1.0000 0.24595  0.64833  0.12549  Biso   1.000  C
  C369     1.0000 0.55215  0.73077  0.14151  Biso   1.000  C
  C370     1.0000 0.55224  0.73077  0.14151  Biso   1.000  C
  N209     1.0000 0.43894  0.41131  0.68318  Biso   1.000  N
  H341     1.0000 0.36590  0.29763  0.70216  Biso   1.000  H
  H342     1.0000 0.47951  0.29132  0.64978  Biso   1.000  H
  H343     1.0000 0.36599  0.29763  0.70223  Biso   1.000  H
  N210     1.0000 0.62692  0.47334  0.70802  Biso   1.000  N
  H344     1.0000 0.78601  0.43720  0.73178  Biso   1.000  H
  H345     1.0000 0.71870  0.37453  0.66581  Biso   1.000  H
  C371     1.0000 0.36258  0.77019  0.12132  Biso   1.000  C
  H346     1.0000 0.35659  0.76169  0.26384  Biso   1.000  H
  N211     1.0000 0.27562  0.71892  0.07661  Biso   1.000  N
  O119     1.0000 0.17407  0.59500  0.10260  Biso   1.000  O
  O120     1.0000 0.17416  0.59500  0.10260  Biso   1.000  O
  N212     1.0000 0.47270  0.76343  0.08153  Biso   1.000  N
  O121     1.0000 0.65259  0.72530  0.12919  Biso   1.000  O
  C372     1.0000 0.52930  0.46251  0.64790  Biso   1.000  C
  C373     1.0000 0.35118  0.46078  0.71132  Biso   1.000  C
  C374     1.0000 0.35127  0.46078  0.71132  Biso   1.000  C
  C375     1.0000 0.65220  0.55932  0.72108  Biso   1.000  C
  H347     1.0000 0.33904  0.83099  0.12832  Biso   1.000  H
  H348     1.0000 0.33913  0.83099  0.12832  Biso   1.000  H
  C376     1.0000 0.21870  0.74462  0.99347  Biso   1.000  C
  C377     1.0000 0.21878  0.74462  0.99354  Biso   1.000  C
  C378     1.0000 0.50358  0.81521  0.00370  Biso   1.000  C
  H349     1.0000 0.55090  0.44248  0.58758  Biso   1.000  H
  C379     1.0000 0.47864  0.55462  0.64426  Biso   1.000  C
  H350     1.0000 0.55098  0.44248  0.58758  Biso   1.000  H
  O122     1.0000 0.26512  0.43379  0.74451  Biso   1.000  O
  N213     1.0000 0.37661  0.54592  0.69617  Biso   1.000  N
  O123     1.0000 0.73678  0.58779  0.75817  Biso   1.000  O
  N214     1.0000 0.56530  0.60750  0.68526  Biso   1.000  N
  O124     1.0000 0.73687  0.58779  0.75817  Biso   1.000  O
  N215     1.0000 0.27984  0.72549  0.91309  Biso   1.000  N
  H351     1.0000 0.14548  0.71570  0.98930  Biso   1.000  H
  H352     1.0000 0.20473  0.80678  0.99562  Biso   1.000  H
  H353     1.0000 0.14557  0.71570  0.98930  Biso   1.000  H
  H354     1.0000 0.46561  0.87112  0.00673  Biso   1.000  H
  N216     1.0000 0.47467  0.77528  0.91847  Biso   1.000  N
  N217     1.0000 0.47475  0.77528  0.91847  Biso   1.000  N
  H355     1.0000 0.58475  0.82578  0.00687  Biso   1.000  H
  H356     1.0000 0.58483  0.82578  0.00693  Biso   1.000  H
  H357     1.0000 0.46089  0.57272  0.58159  Biso   1.000  H
  H358     1.0000 0.46097  0.57272  0.58159  Biso   1.000  H
  C380     1.0000 0.29198  0.61252  0.70169  Biso   1.000  C
  C381     1.0000 0.29206  0.61252  0.70169  Biso   1.000  C
  C382     1.0000 0.55834  0.70018  0.69960  Biso   1.000  C
  C383     1.0000 0.25098  0.65883  0.85721  Biso   1.000  C
  C384     1.0000 0.36380  0.78179  0.87532  Biso   1.000  C
  C385     1.0000 0.25106  0.65883  0.85721  Biso   1.000  C
  C386     1.0000 0.36388  0.78179  0.87532  Biso   1.000  C
  C387     1.0000 0.55498  0.74932  0.85889  Biso   1.000  C
  C388     1.0000 0.55506  0.74932  0.85889  Biso   1.000  C
  N218     1.0000 0.30910  0.66753  0.77931  Biso   1.000  N
  N219     1.0000 0.30918  0.66753  0.77931  Biso   1.000  N
  H359     1.0000 0.29310  0.64782  0.64709  Biso   1.000  H
  H360     1.0000 0.21776  0.58560  0.70438  Biso   1.000  H
  H361     1.0000 0.29319  0.64782  0.64709  Biso   1.000  H
  N220     1.0000 0.49955  0.72478  0.77972  Biso   1.000  N
  H362     1.0000 0.63483  0.72369  0.70358  Biso   1.000  H
  H363     1.0000 0.52011  0.72633  0.64709  Biso   1.000  H
  O125     1.0000 0.18269  0.60222  0.87289  Biso   1.000  O
  O126     1.0000 0.18278  0.60222  0.87289  Biso   1.000  O
  C389     1.0000 0.38018  0.74320  0.78019  Biso   1.000  C
  H364     1.0000 0.33745  0.84220  0.87202  Biso   1.000  H
  C390     1.0000 0.38026  0.74320  0.78019  Biso   1.000  C
  O127     1.0000 0.65606  0.74804  0.87350  Biso   1.000  O
  O128     1.0000 0.65615  0.74804  0.87350  Biso   1.000  O
  H365     1.0000 0.35757  0.78430  0.73212  Biso   1.000  H
  H366     1.0000 0.35766  0.78430  0.73212  Biso   1.000  H
