data_image0
_cell_length_a       15.391
_cell_length_b       18.641
_cell_length_c       12.872
_cell_angle_alpha    90
_cell_angle_beta     95.93
_cell_angle_gamma    90

_symmetry_space_group_name_H-M    "P 1"
_symmetry_int_tables_number       1

loop_
  _symmetry_equiv_pos_as_xyz
  'x, y, z'

loop_
  _atom_site_label
  _atom_site_occupancy
  _atom_site_fract_x
  _atom_site_fract_y
  _atom_site_fract_z
  _atom_site_thermal_displace_type
  _atom_site_B_iso_or_equiv
  _atom_site_type_symbol
  O1       1.0000 0.11635  0.35535  0.25252  Biso   1.000  O
  C1       1.0000 0.04631  0.33045  0.21792  Biso   1.000  C
  N1       1.0000 0.03207  0.28850  0.13130  Biso   1.000  N
  N2       1.0000 0.03214  0.28850  0.13130  Biso   1.000  N
  N3       1.0000 0.96874  0.33909  0.25939  Biso   1.000  N
  C2       1.0000 0.10297  0.25830  0.07881  Biso   1.000  C
  C3       1.0000 0.10303  0.25830  0.07881  Biso   1.000  C
  C4       1.0000 0.94388  0.26066  0.11599  Biso   1.000  C
  C5       1.0000 0.96388  0.36951  0.36171  Biso   1.000  C
  C6       1.0000 0.90008  0.29505  0.20768  Biso   1.000  C
  C7       1.0000 0.96394  0.36951  0.36171  Biso   1.000  C
  H1       1.0000 0.09510  0.20680  0.07342  Biso   1.000  H
  H2       1.0000 0.15772  0.26710  0.12138  Biso   1.000  H
  N4       1.0000 0.10896  0.28727  0.97516  Biso   1.000  N
  N5       1.0000 0.10896  0.28727  0.97524  Biso   1.000  N
  H3       1.0000 0.94299  0.20809  0.11927  Biso   1.000  H
  N6       1.0000 0.89104  0.28727  0.02484  Biso   1.000  N
  H4       1.0000 0.94300  0.20809  0.11935  Biso   1.000  H
  H5       1.0000 0.02229  0.37192  0.39787  Biso   1.000  H
  H6       1.0000 0.92948  0.33802  0.40131  Biso   1.000  H
  N7       1.0000 0.92534  0.44112  0.35866  Biso   1.000  N
  N8       1.0000 0.92535  0.44112  0.35874  Biso   1.000  N
  H7       1.0000 0.88078  0.25841  0.25494  Biso   1.000  H
  N9       1.0000 0.82709  0.33346  0.15543  Biso   1.000  N
  H8       1.0000 0.88084  0.25841  0.25494  Biso   1.000  H
  C8       1.0000 0.05612  0.26066  0.88401  Biso   1.000  C
  C9       1.0000 0.17981  0.32536  0.95072  Biso   1.000  C
  C10      1.0000 0.89703  0.25830  0.92119  Biso   1.000  C
  C11      1.0000 0.82019  0.32536  0.04928  Biso   1.000  C
  C12      1.0000 0.97652  0.50003  0.36663  Biso   1.000  C
  C13      1.0000 0.83193  0.45727  0.35062  Biso   1.000  C
  C14      1.0000 0.76212  0.36919  0.21042  Biso   1.000  C
  N10      1.0000 0.96793  0.28850  0.86870  Biso   1.000  N
  C15      1.0000 0.09992  0.29505  0.79232  Biso   1.000  C
  H9       1.0000 0.05701  0.20809  0.88073  Biso   1.000  H
  O2       1.0000 0.23949  0.34644  0.01133  Biso   1.000  O
  O3       1.0000 0.23956  0.34644  0.01133  Biso   1.000  O
  N11      1.0000 0.17291  0.33346  0.84457  Biso   1.000  N
  N12      1.0000 0.17292  0.33346  0.84465  Biso   1.000  N
  H10      1.0000 0.90490  0.20680  0.92658  Biso   1.000  H
  H11      1.0000 0.84228  0.26710  0.87862  Biso   1.000  H
  O4       1.0000 0.76051  0.34644  0.98867  Biso   1.000  O
  O5       1.0000 0.05642  0.50003  0.37920  Biso   1.000  O
  N13      1.0000 0.92534  0.55888  0.35866  Biso   1.000  N
  N14      1.0000 0.92535  0.55888  0.35874  Biso   1.000  N
  C16      1.0000 0.83193  0.54273  0.35062  Biso   1.000  C
  C17      1.0000 0.78899  0.42219  0.43942  Biso   1.000  C
  N15      1.0000 0.78652  0.44075  0.24838  Biso   1.000  N
  H12      1.0000 0.70842  0.37273  0.16418  Biso   1.000  H
  H13      1.0000 0.75027  0.33968  0.26947  Biso   1.000  H
  H14      1.0000 0.75034  0.33968  0.26954  Biso   1.000  H
  C18      1.0000 0.95369  0.33045  0.78208  Biso   1.000  C
  H15      1.0000 0.11922  0.25841  0.74506  Biso   1.000  H
  N16      1.0000 0.03126  0.33909  0.74061  Biso   1.000  N
  H16      1.0000 0.11923  0.25841  0.74514  Biso   1.000  H
  C19      1.0000 0.23788  0.36919  0.78958  Biso   1.000  C
  C20      1.0000 0.96388  0.63049  0.36171  Biso   1.000  C
  C21      1.0000 0.96394  0.63049  0.36171  Biso   1.000  C
  C22      1.0000 0.78899  0.57781  0.43942  Biso   1.000  C
  N17      1.0000 0.78652  0.55925  0.24838  Biso   1.000  N
  H17      1.0000 0.82078  0.43469  0.50503  Biso   1.000  H
  H18      1.0000 0.72977  0.43892  0.43833  Biso   1.000  H
  H19      1.0000 0.78923  0.37112  0.43091  Biso   1.000  H
  H20      1.0000 0.82084  0.43469  0.50503  Biso   1.000  H
  H21      1.0000 0.72984  0.43892  0.43833  Biso   1.000  H
  C23      1.0000 0.75721  0.50003  0.19417  Biso   1.000  C
  O6       1.0000 0.88365  0.35535  0.74748  Biso   1.000  O
  C24      1.0000 0.03612  0.36951  0.63829  Biso   1.000  C
  H22      1.0000 0.29158  0.37273  0.83582  Biso   1.000  H
  H23      1.0000 0.24973  0.33968  0.73053  Biso   1.000  H
  N18      1.0000 0.21348  0.44075  0.75162  Biso   1.000  N
  H24      1.0000 0.29164  0.37273  0.83582  Biso   1.000  H
  H25      1.0000 0.02229  0.62808  0.39787  Biso   1.000  H
  H26      1.0000 0.92948  0.66198  0.40131  Biso   1.000  H
  N19      1.0000 0.96874  0.66091  0.25939  Biso   1.000  N
  H27      1.0000 0.82078  0.56531  0.50503  Biso   1.000  H
  H28      1.0000 0.72977  0.56108  0.43833  Biso   1.000  H
  H29      1.0000 0.78923  0.62888  0.43091  Biso   1.000  H
  H30      1.0000 0.82084  0.56531  0.50503  Biso   1.000  H
  H31      1.0000 0.72984  0.56108  0.43833  Biso   1.000  H
  C25      1.0000 0.76212  0.63081  0.21042  Biso   1.000  C
  O7       1.0000 0.71342  0.50003  0.10997  Biso   1.000  O
  H32      1.0000 0.97771  0.37192  0.60213  Biso   1.000  H
  H33      1.0000 0.07052  0.33802  0.59869  Biso   1.000  H
  N20      1.0000 0.07466  0.44112  0.64134  Biso   1.000  N
  C26      1.0000 0.16807  0.45727  0.64938  Biso   1.000  C
  C27      1.0000 0.24279  0.50003  0.80583  Biso   1.000  C
  C28      1.0000 0.16813  0.45727  0.64938  Biso   1.000  C
  C29      1.0000 0.04631  0.66955  0.21792  Biso   1.000  C
  C30      1.0000 0.90008  0.70495  0.20768  Biso   1.000  C
  H34      1.0000 0.70842  0.62727  0.16418  Biso   1.000  H
  H35      1.0000 0.75027  0.66032  0.26947  Biso   1.000  H
  N21      1.0000 0.82709  0.66654  0.15543  Biso   1.000  N
  H36      1.0000 0.75034  0.66032  0.26954  Biso   1.000  H
  C31      1.0000 0.02348  0.50003  0.63337  Biso   1.000  C
  C32      1.0000 0.16807  0.54273  0.64938  Biso   1.000  C
  C33      1.0000 0.21101  0.42219  0.56058  Biso   1.000  C
  C34      1.0000 0.16813  0.54273  0.64938  Biso   1.000  C
  N22      1.0000 0.21348  0.55925  0.75162  Biso   1.000  N
  O8       1.0000 0.28658  0.50003  0.89003  Biso   1.000  O
  N23      1.0000 0.03207  0.71150  0.13130  Biso   1.000  N
  O9       1.0000 0.11635  0.64465  0.25252  Biso   1.000  O
  N24      1.0000 0.03214  0.71150  0.13130  Biso   1.000  N
  H37      1.0000 0.88078  0.74159  0.25494  Biso   1.000  H
  C35      1.0000 0.94388  0.73934  0.11599  Biso   1.000  C
  H38      1.0000 0.88084  0.74159  0.25494  Biso   1.000  H
  C36      1.0000 0.82019  0.67464  0.04928  Biso   1.000  C
  O10      1.0000 0.94358  0.50003  0.62080  Biso   1.000  O
  N25      1.0000 0.07466  0.55888  0.64134  Biso   1.000  N
  C37      1.0000 0.21101  0.57781  0.56058  Biso   1.000  C
  H39      1.0000 0.17922  0.43469  0.49497  Biso   1.000  H
  H40      1.0000 0.27023  0.43892  0.56167  Biso   1.000  H
  H41      1.0000 0.21077  0.37112  0.56909  Biso   1.000  H
  H42      1.0000 0.17923  0.43469  0.49504  Biso   1.000  H
  H43      1.0000 0.27024  0.43892  0.56175  Biso   1.000  H
  H44      1.0000 0.21083  0.37112  0.56909  Biso   1.000  H
  C38      1.0000 0.23788  0.63081  0.78958  Biso   1.000  C
  C39      1.0000 0.10297  0.74170  0.07881  Biso   1.000  C
  C40      1.0000 0.10303  0.74170  0.07881  Biso   1.000  C
  H45      1.0000 0.94299  0.79191  0.11927  Biso   1.000  H
  N26      1.0000 0.89104  0.71273  0.02484  Biso   1.000  N
  H46      1.0000 0.94300  0.79191  0.11935  Biso   1.000  H
  O11      1.0000 0.76051  0.65356  0.98867  Biso   1.000  O
  C41      1.0000 0.03612  0.63049  0.63829  Biso   1.000  C
  H47      1.0000 0.17922  0.56531  0.49497  Biso   1.000  H
  H48      1.0000 0.27023  0.56108  0.56167  Biso   1.000  H
  H49      1.0000 0.21077  0.62888  0.56909  Biso   1.000  H
  H50      1.0000 0.17923  0.56531  0.49504  Biso   1.000  H
  H51      1.0000 0.27024  0.56108  0.56175  Biso   1.000  H
  H52      1.0000 0.21083  0.62888  0.56909  Biso   1.000  H
  H53      1.0000 0.29158  0.62727  0.83582  Biso   1.000  H
  H54      1.0000 0.24973  0.66032  0.73053  Biso   1.000  H
  N27      1.0000 0.17291  0.66654  0.84457  Biso   1.000  N
  H55      1.0000 0.29164  0.62727  0.83582  Biso   1.000  H
  N28      1.0000 0.17292  0.66654  0.84465  Biso   1.000  N
  H56      1.0000 0.09510  0.79320  0.07342  Biso   1.000  H
  H57      1.0000 0.15772  0.73290  0.12138  Biso   1.000  H
  N29      1.0000 0.10896  0.71273  0.97516  Biso   1.000  N
  N30      1.0000 0.10896  0.71273  0.97524  Biso   1.000  N
  C42      1.0000 0.89703  0.74170  0.92119  Biso   1.000  C
  H58      1.0000 0.97771  0.62808  0.60213  Biso   1.000  H
  H59      1.0000 0.07052  0.66198  0.59869  Biso   1.000  H
  N31      1.0000 0.03126  0.66091  0.74061  Biso   1.000  N
  C43      1.0000 0.09992  0.70495  0.79232  Biso   1.000  C
  C44      1.0000 0.17981  0.67464  0.95072  Biso   1.000  C
  C45      1.0000 0.05612  0.73934  0.88401  Biso   1.000  C
  H60      1.0000 0.90490  0.79320  0.92658  Biso   1.000  H
  H61      1.0000 0.84228  0.73290  0.87862  Biso   1.000  H
  N32      1.0000 0.96793  0.71150  0.86870  Biso   1.000  N
  C46      1.0000 0.95369  0.66955  0.78208  Biso   1.000  C
  H62      1.0000 0.11922  0.74159  0.74506  Biso   1.000  H
  H63      1.0000 0.11923  0.74159  0.74514  Biso   1.000  H
  O12      1.0000 0.23949  0.65356  0.01133  Biso   1.000  O
  O13      1.0000 0.23956  0.65356  0.01133  Biso   1.000  O
  H64      1.0000 0.05701  0.79191  0.88073  Biso   1.000  H
  O14      1.0000 0.88365  0.64465  0.74748  Biso   1.000  O
  O15      1.0000 0.11635  0.35535  0.25252  Biso   1.000  O
  C47      1.0000 0.04631  0.33045  0.21792  Biso   1.000  C
  N33      1.0000 0.03207  0.28850  0.13130  Biso   1.000  N
  N34      1.0000 0.03214  0.28850  0.13130  Biso   1.000  N
  N35      1.0000 0.96874  0.33909  0.25939  Biso   1.000  N
  C48      1.0000 0.10297  0.25830  0.07881  Biso   1.000  C
  C49      1.0000 0.10303  0.25830  0.07881  Biso   1.000  C
  C50      1.0000 0.94388  0.26066  0.11599  Biso   1.000  C
  C51      1.0000 0.96388  0.36951  0.36171  Biso   1.000  C
  C52      1.0000 0.90008  0.29505  0.20768  Biso   1.000  C
  C53      1.0000 0.96394  0.36951  0.36171  Biso   1.000  C
  H65      1.0000 0.09510  0.20680  0.07342  Biso   1.000  H
  H66      1.0000 0.15772  0.26710  0.12138  Biso   1.000  H
  N36      1.0000 0.10896  0.28727  0.97516  Biso   1.000  N
  N37      1.0000 0.10896  0.28727  0.97524  Biso   1.000  N
  H67      1.0000 0.94299  0.20809  0.11927  Biso   1.000  H
  N38      1.0000 0.89104  0.28727  0.02484  Biso   1.000  N
  H68      1.0000 0.94300  0.20809  0.11935  Biso   1.000  H
  H69      1.0000 0.02229  0.37192  0.39787  Biso   1.000  H
  H70      1.0000 0.92948  0.33802  0.40131  Biso   1.000  H
  N39      1.0000 0.92534  0.44112  0.35866  Biso   1.000  N
  N40      1.0000 0.92535  0.44112  0.35874  Biso   1.000  N
  H71      1.0000 0.88078  0.25841  0.25494  Biso   1.000  H
  N41      1.0000 0.82709  0.33346  0.15543  Biso   1.000  N
  H72      1.0000 0.88084  0.25841  0.25494  Biso   1.000  H
  C54      1.0000 0.05612  0.26066  0.88401  Biso   1.000  C
  C55      1.0000 0.17981  0.32536  0.95072  Biso   1.000  C
  C56      1.0000 0.89703  0.25830  0.92119  Biso   1.000  C
  C57      1.0000 0.82019  0.32536  0.04928  Biso   1.000  C
  C58      1.0000 0.97652  0.50003  0.36663  Biso   1.000  C
  C59      1.0000 0.83193  0.45727  0.35062  Biso   1.000  C
  C60      1.0000 0.76212  0.36919  0.21042  Biso   1.000  C
  N42      1.0000 0.96793  0.28850  0.86870  Biso   1.000  N
  C61      1.0000 0.09992  0.29505  0.79232  Biso   1.000  C
  H73      1.0000 0.05701  0.20809  0.88073  Biso   1.000  H
  O16      1.0000 0.23949  0.34644  0.01133  Biso   1.000  O
  O17      1.0000 0.23956  0.34644  0.01133  Biso   1.000  O
  N43      1.0000 0.17291  0.33346  0.84457  Biso   1.000  N
  N44      1.0000 0.17292  0.33346  0.84465  Biso   1.000  N
  H74      1.0000 0.90490  0.20680  0.92658  Biso   1.000  H
  H75      1.0000 0.84228  0.26710  0.87862  Biso   1.000  H
  O18      1.0000 0.76051  0.34644  0.98867  Biso   1.000  O
  O19      1.0000 0.05642  0.50003  0.37920  Biso   1.000  O
  N45      1.0000 0.92534  0.55888  0.35866  Biso   1.000  N
  N46      1.0000 0.92535  0.55888  0.35874  Biso   1.000  N
  C62      1.0000 0.83193  0.54273  0.35062  Biso   1.000  C
  C63      1.0000 0.78899  0.42219  0.43942  Biso   1.000  C
  N47      1.0000 0.78652  0.44075  0.24838  Biso   1.000  N
  H76      1.0000 0.70842  0.37273  0.16418  Biso   1.000  H
  H77      1.0000 0.75027  0.33968  0.26947  Biso   1.000  H
  H78      1.0000 0.75034  0.33968  0.26954  Biso   1.000  H
  C64      1.0000 0.95369  0.33045  0.78208  Biso   1.000  C
  H79      1.0000 0.11922  0.25841  0.74506  Biso   1.000  H
  N48      1.0000 0.03126  0.33909  0.74061  Biso   1.000  N
  H80      1.0000 0.11923  0.25841  0.74514  Biso   1.000  H
  C65      1.0000 0.23788  0.36919  0.78958  Biso   1.000  C
  C66      1.0000 0.96388  0.63049  0.36171  Biso   1.000  C
  C67      1.0000 0.96394  0.63049  0.36171  Biso   1.000  C
  C68      1.0000 0.78899  0.57781  0.43942  Biso   1.000  C
  N49      1.0000 0.78652  0.55925  0.24838  Biso   1.000  N
  H81      1.0000 0.82078  0.43469  0.50503  Biso   1.000  H
  H82      1.0000 0.72977  0.43892  0.43833  Biso   1.000  H
  H83      1.0000 0.78923  0.37112  0.43091  Biso   1.000  H
  H84      1.0000 0.82084  0.43469  0.50503  Biso   1.000  H
  H85      1.0000 0.72984  0.43892  0.43833  Biso   1.000  H
  C69      1.0000 0.75721  0.50003  0.19417  Biso   1.000  C
  O20      1.0000 0.88365  0.35535  0.74748  Biso   1.000  O
  C70      1.0000 0.03612  0.36951  0.63829  Biso   1.000  C
  H86      1.0000 0.29158  0.37273  0.83582  Biso   1.000  H
  H87      1.0000 0.24973  0.33968  0.73053  Biso   1.000  H
  N50      1.0000 0.21348  0.44075  0.75162  Biso   1.000  N
  H88      1.0000 0.29164  0.37273  0.83582  Biso   1.000  H
  H89      1.0000 0.02229  0.62808  0.39787  Biso   1.000  H
  H90      1.0000 0.92948  0.66198  0.40131  Biso   1.000  H
  N51      1.0000 0.96874  0.66091  0.25939  Biso   1.000  N
  H91      1.0000 0.82078  0.56531  0.50503  Biso   1.000  H
  H92      1.0000 0.72977  0.56108  0.43833  Biso   1.000  H
  H93      1.0000 0.78923  0.62888  0.43091  Biso   1.000  H
  H94      1.0000 0.82084  0.56531  0.50503  Biso   1.000  H
  H95      1.0000 0.72984  0.56108  0.43833  Biso   1.000  H
  C71      1.0000 0.76212  0.63081  0.21042  Biso   1.000  C
  O21      1.0000 0.71342  0.50003  0.10997  Biso   1.000  O
  H96      1.0000 0.97771  0.37192  0.60213  Biso   1.000  H
  H97      1.0000 0.07052  0.33802  0.59869  Biso   1.000  H
  N52      1.0000 0.07466  0.44112  0.64134  Biso   1.000  N
  C72      1.0000 0.16807  0.45727  0.64938  Biso   1.000  C
  C73      1.0000 0.24279  0.50003  0.80583  Biso   1.000  C
  C74      1.0000 0.16813  0.45727  0.64938  Biso   1.000  C
  C75      1.0000 0.04631  0.66955  0.21792  Biso   1.000  C
  C76      1.0000 0.90008  0.70495  0.20768  Biso   1.000  C
  H98      1.0000 0.70842  0.62727  0.16418  Biso   1.000  H
  H99      1.0000 0.75027  0.66032  0.26947  Biso   1.000  H
  N53      1.0000 0.82709  0.66654  0.15543  Biso   1.000  N
  H100     1.0000 0.75034  0.66032  0.26954  Biso   1.000  H
  C77      1.0000 0.02348  0.50003  0.63337  Biso   1.000  C
  C78      1.0000 0.16807  0.54273  0.64938  Biso   1.000  C
  C79      1.0000 0.21101  0.42219  0.56058  Biso   1.000  C
  C80      1.0000 0.16813  0.54273  0.64938  Biso   1.000  C
  N54      1.0000 0.21348  0.55925  0.75162  Biso   1.000  N
  O22      1.0000 0.28658  0.50003  0.89003  Biso   1.000  O
  O23      1.0000 0.11635  0.64465  0.25252  Biso   1.000  O
  N55      1.0000 0.03207  0.71150  0.13130  Biso   1.000  N
  N56      1.0000 0.03214  0.71150  0.13130  Biso   1.000  N
  H101     1.0000 0.88078  0.74159  0.25494  Biso   1.000  H
  C81      1.0000 0.94388  0.73934  0.11599  Biso   1.000  C
  H102     1.0000 0.88084  0.74159  0.25494  Biso   1.000  H
  C82      1.0000 0.82019  0.67464  0.04928  Biso   1.000  C
  O24      1.0000 0.94358  0.50003  0.62080  Biso   1.000  O
  N57      1.0000 0.07466  0.55888  0.64134  Biso   1.000  N
  C83      1.0000 0.21101  0.57781  0.56058  Biso   1.000  C
  H103     1.0000 0.17922  0.43469  0.49497  Biso   1.000  H
  H104     1.0000 0.27023  0.43892  0.56167  Biso   1.000  H
  H105     1.0000 0.21077  0.37112  0.56909  Biso   1.000  H
  H106     1.0000 0.17923  0.43469  0.49504  Biso   1.000  H
  H107     1.0000 0.27024  0.43892  0.56175  Biso   1.000  H
  H108     1.0000 0.21083  0.37112  0.56909  Biso   1.000  H
  C84      1.0000 0.23788  0.63081  0.78958  Biso   1.000  C
  C85      1.0000 0.10297  0.74170  0.07881  Biso   1.000  C
  C86      1.0000 0.10303  0.74170  0.07881  Biso   1.000  C
  H109     1.0000 0.94299  0.79191  0.11927  Biso   1.000  H
  N58      1.0000 0.89104  0.71273  0.02484  Biso   1.000  N
  H110     1.0000 0.94300  0.79191  0.11935  Biso   1.000  H
  O25      1.0000 0.76051  0.65356  0.98867  Biso   1.000  O
  C87      1.0000 0.03612  0.63049  0.63829  Biso   1.000  C
  H111     1.0000 0.17922  0.56531  0.49497  Biso   1.000  H
  H112     1.0000 0.27023  0.56108  0.56167  Biso   1.000  H
  H113     1.0000 0.21077  0.62888  0.56909  Biso   1.000  H
  H114     1.0000 0.17923  0.56531  0.49504  Biso   1.000  H
  H115     1.0000 0.27024  0.56108  0.56175  Biso   1.000  H
  H116     1.0000 0.21083  0.62888  0.56909  Biso   1.000  H
  H117     1.0000 0.29158  0.62727  0.83582  Biso   1.000  H
  H118     1.0000 0.24973  0.66032  0.73053  Biso   1.000  H
  N59      1.0000 0.17291  0.66654  0.84457  Biso   1.000  N
  H119     1.0000 0.29164  0.62727  0.83582  Biso   1.000  H
  N60      1.0000 0.17292  0.66654  0.84465  Biso   1.000  N
  H120     1.0000 0.09510  0.79320  0.07342  Biso   1.000  H
  H121     1.0000 0.15772  0.73290  0.12138  Biso   1.000  H
  N61      1.0000 0.10896  0.71273  0.97516  Biso   1.000  N
  N62      1.0000 0.10896  0.71273  0.97524  Biso   1.000  N
  C88      1.0000 0.89703  0.74170  0.92119  Biso   1.000  C
  H122     1.0000 0.97771  0.62808  0.60213  Biso   1.000  H
  H123     1.0000 0.07052  0.66198  0.59869  Biso   1.000  H
  N63      1.0000 0.03126  0.66091  0.74061  Biso   1.000  N
  C89      1.0000 0.09992  0.70495  0.79232  Biso   1.000  C
  C90      1.0000 0.17981  0.67464  0.95072  Biso   1.000  C
  C91      1.0000 0.05612  0.73934  0.88401  Biso   1.000  C
  H124     1.0000 0.90490  0.79320  0.92658  Biso   1.000  H
  H125     1.0000 0.84228  0.73290  0.87862  Biso   1.000  H
  N64      1.0000 0.96793  0.71150  0.86870  Biso   1.000  N
  C92      1.0000 0.95369  0.66955  0.78208  Biso   1.000  C
  H126     1.0000 0.11922  0.74159  0.74506  Biso   1.000  H
  H127     1.0000 0.11923  0.74159  0.74514  Biso   1.000  H
  O26      1.0000 0.23949  0.65356  0.01133  Biso   1.000  O
  O27      1.0000 0.23956  0.65356  0.01133  Biso   1.000  O
  H128     1.0000 0.05701  0.79191  0.88073  Biso   1.000  H
  O28      1.0000 0.88365  0.64465  0.74748  Biso   1.000  O
  O29      1.0000 0.11635  0.35535  0.25252  Biso   1.000  O
  C93      1.0000 0.04631  0.33045  0.21792  Biso   1.000  C
  N65      1.0000 0.96874  0.33909  0.25939  Biso   1.000  N
  N66      1.0000 0.03207  0.28850  0.13130  Biso   1.000  N
  N67      1.0000 0.03214  0.28850  0.13130  Biso   1.000  N
  C94      1.0000 0.96388  0.36951  0.36171  Biso   1.000  C
  C95      1.0000 0.90008  0.29505  0.20768  Biso   1.000  C
  C96      1.0000 0.96394  0.36951  0.36171  Biso   1.000  C
  C97      1.0000 0.94388  0.26066  0.11599  Biso   1.000  C
  C98      1.0000 0.10297  0.25830  0.07881  Biso   1.000  C
  C99      1.0000 0.10303  0.25830  0.07881  Biso   1.000  C
  H129     1.0000 0.02229  0.37192  0.39787  Biso   1.000  H
  H130     1.0000 0.92948  0.33802  0.40131  Biso   1.000  H
  N68      1.0000 0.92534  0.44112  0.35866  Biso   1.000  N
  N69      1.0000 0.92535  0.44112  0.35874  Biso   1.000  N
  H131     1.0000 0.88078  0.25841  0.25494  Biso   1.000  H
  N70      1.0000 0.82709  0.33346  0.15543  Biso   1.000  N
  H132     1.0000 0.88084  0.25841  0.25494  Biso   1.000  H
  H133     1.0000 0.94299  0.20809  0.11927  Biso   1.000  H
  N71      1.0000 0.89104  0.28727  0.02484  Biso   1.000  N
  H134     1.0000 0.94300  0.20809  0.11935  Biso   1.000  H
  H135     1.0000 0.09510  0.20680  0.07342  Biso   1.000  H
  H136     1.0000 0.15772  0.26710  0.12138  Biso   1.000  H
  N72      1.0000 0.10896  0.28727  0.97516  Biso   1.000  N
  N73      1.0000 0.10896  0.28727  0.97524  Biso   1.000  N
  C100     1.0000 0.97652  0.50003  0.36663  Biso   1.000  C
  C101     1.0000 0.83193  0.45727  0.35062  Biso   1.000  C
  C102     1.0000 0.76212  0.36919  0.21042  Biso   1.000  C
  C103     1.0000 0.82019  0.32536  0.04928  Biso   1.000  C
  C104     1.0000 0.89703  0.25830  0.92119  Biso   1.000  C
  C105     1.0000 0.05612  0.26066  0.88401  Biso   1.000  C
  C106     1.0000 0.17981  0.32536  0.95072  Biso   1.000  C
  O30      1.0000 0.05642  0.50003  0.37920  Biso   1.000  O
  N74      1.0000 0.92534  0.55888  0.35866  Biso   1.000  N
  N75      1.0000 0.92535  0.55888  0.35874  Biso   1.000  N
  C107     1.0000 0.83193  0.54273  0.35062  Biso   1.000  C
  C108     1.0000 0.78899  0.42219  0.43942  Biso   1.000  C
  N76      1.0000 0.78652  0.44075  0.24838  Biso   1.000  N
  H137     1.0000 0.70842  0.37273  0.16418  Biso   1.000  H
  H138     1.0000 0.75027  0.33968  0.26947  Biso   1.000  H
  H139     1.0000 0.75034  0.33968  0.26954  Biso   1.000  H
  O31      1.0000 0.76051  0.34644  0.98867  Biso   1.000  O
  H140     1.0000 0.90490  0.20680  0.92658  Biso   1.000  H
  H141     1.0000 0.84228  0.26710  0.87862  Biso   1.000  H
  N77      1.0000 0.96793  0.28850  0.86870  Biso   1.000  N
  C109     1.0000 0.09992  0.29505  0.79232  Biso   1.000  C
  H142     1.0000 0.05701  0.20809  0.88073  Biso   1.000  H
  N78      1.0000 0.17291  0.33346  0.84457  Biso   1.000  N
  N79      1.0000 0.17292  0.33346  0.84465  Biso   1.000  N
  O32      1.0000 0.23949  0.34644  0.01133  Biso   1.000  O
  O33      1.0000 0.23956  0.34644  0.01133  Biso   1.000  O
  C110     1.0000 0.96388  0.63049  0.36171  Biso   1.000  C
  C111     1.0000 0.96394  0.63049  0.36171  Biso   1.000  C
  C112     1.0000 0.78899  0.57781  0.43942  Biso   1.000  C
  N80      1.0000 0.78652  0.55925  0.24838  Biso   1.000  N
  H143     1.0000 0.82078  0.43469  0.50503  Biso   1.000  H
  H144     1.0000 0.72977  0.43892  0.43833  Biso   1.000  H
  H145     1.0000 0.78923  0.37112  0.43091  Biso   1.000  H
  H146     1.0000 0.82084  0.43469  0.50503  Biso   1.000  H
  H147     1.0000 0.72984  0.43892  0.43833  Biso   1.000  H
  C113     1.0000 0.75721  0.50003  0.19417  Biso   1.000  C
  C114     1.0000 0.95369  0.33045  0.78208  Biso   1.000  C
  H148     1.0000 0.11922  0.25841  0.74506  Biso   1.000  H
  N81      1.0000 0.03126  0.33909  0.74061  Biso   1.000  N
  H149     1.0000 0.11923  0.25841  0.74514  Biso   1.000  H
  C115     1.0000 0.23788  0.36919  0.78958  Biso   1.000  C
  H150     1.0000 0.02229  0.62808  0.39787  Biso   1.000  H
  H151     1.0000 0.92948  0.66198  0.40131  Biso   1.000  H
  N82      1.0000 0.96874  0.66091  0.25939  Biso   1.000  N
  H152     1.0000 0.82078  0.56531  0.50503  Biso   1.000  H
  H153     1.0000 0.72977  0.56108  0.43833  Biso   1.000  H
  H154     1.0000 0.78923  0.62888  0.43091  Biso   1.000  H
  H155     1.0000 0.82084  0.56531  0.50503  Biso   1.000  H
  H156     1.0000 0.72984  0.56108  0.43833  Biso   1.000  H
  C116     1.0000 0.76212  0.63081  0.21042  Biso   1.000  C
  O34      1.0000 0.71342  0.50003  0.10997  Biso   1.000  O
  O35      1.0000 0.88365  0.35535  0.74748  Biso   1.000  O
  C117     1.0000 0.03612  0.36951  0.63829  Biso   1.000  C
  H157     1.0000 0.29158  0.37273  0.83582  Biso   1.000  H
  H158     1.0000 0.24973  0.33968  0.73053  Biso   1.000  H
  N83      1.0000 0.21348  0.44075  0.75162  Biso   1.000  N
  H159     1.0000 0.29164  0.37273  0.83582  Biso   1.000  H
  C118     1.0000 0.04631  0.66955  0.21792  Biso   1.000  C
  C119     1.0000 0.90008  0.70495  0.20768  Biso   1.000  C
  H160     1.0000 0.70842  0.62727  0.16418  Biso   1.000  H
  H161     1.0000 0.75027  0.66032  0.26947  Biso   1.000  H
  N84      1.0000 0.82709  0.66654  0.15543  Biso   1.000  N
  H162     1.0000 0.75034  0.66032  0.26954  Biso   1.000  H
  H163     1.0000 0.97771  0.37192  0.60213  Biso   1.000  H
  H164     1.0000 0.07052  0.33802  0.59869  Biso   1.000  H
  N85      1.0000 0.07466  0.44112  0.64134  Biso   1.000  N
  C120     1.0000 0.16807  0.45727  0.64938  Biso   1.000  C
  C121     1.0000 0.24279  0.50003  0.80583  Biso   1.000  C
  C122     1.0000 0.16813  0.45727  0.64938  Biso   1.000  C
  O36      1.0000 0.11635  0.64465  0.25252  Biso   1.000  O
  N86      1.0000 0.03207  0.71150  0.13130  Biso   1.000  N
  N87      1.0000 0.03214  0.71150  0.13130  Biso   1.000  N
  H165     1.0000 0.88078  0.74159  0.25494  Biso   1.000  H
  C123     1.0000 0.94388  0.73934  0.11599  Biso   1.000  C
  H166     1.0000 0.88084  0.74159  0.25494  Biso   1.000  H
  C124     1.0000 0.82019  0.67464  0.04928  Biso   1.000  C
  C125     1.0000 0.02348  0.50003  0.63337  Biso   1.000  C
  C126     1.0000 0.16807  0.54273  0.64938  Biso   1.000  C
  C127     1.0000 0.21101  0.42219  0.56058  Biso   1.000  C
  C128     1.0000 0.16813  0.54273  0.64938  Biso   1.000  C
  N88      1.0000 0.21348  0.55925  0.75162  Biso   1.000  N
  O37      1.0000 0.28658  0.50003  0.89003  Biso   1.000  O
  C129     1.0000 0.10297  0.74170  0.07881  Biso   1.000  C
  C130     1.0000 0.10303  0.74170  0.07881  Biso   1.000  C
  H167     1.0000 0.94299  0.79191  0.11927  Biso   1.000  H
  N89      1.0000 0.89104  0.71273  0.02484  Biso   1.000  N
  H168     1.0000 0.94300  0.79191  0.11935  Biso   1.000  H
  O38      1.0000 0.76051  0.65356  0.98867  Biso   1.000  O
  O39      1.0000 0.94358  0.50003  0.62080  Biso   1.000  O
  N90      1.0000 0.07466  0.55888  0.64134  Biso   1.000  N
  C131     1.0000 0.21101  0.57781  0.56058  Biso   1.000  C
  H169     1.0000 0.17922  0.43469  0.49497  Biso   1.000  H
  H170     1.0000 0.27023  0.43892  0.56167  Biso   1.000  H
  H171     1.0000 0.21077  0.37112  0.56909  Biso   1.000  H
  H172     1.0000 0.17923  0.43469  0.49504  Biso   1.000  H
  H173     1.0000 0.27024  0.43892  0.56175  Biso   1.000  H
  H174     1.0000 0.21083  0.37112  0.56909  Biso   1.000  H
  C132     1.0000 0.23788  0.63081  0.78958  Biso   1.000  C
  H175     1.0000 0.09510  0.79320  0.07342  Biso   1.000  H
  H176     1.0000 0.15772  0.73290  0.12138  Biso   1.000  H
  N91      1.0000 0.10896  0.71273  0.97516  Biso   1.000  N
  N92      1.0000 0.10896  0.71273  0.97524  Biso   1.000  N
  C133     1.0000 0.89703  0.74170  0.92119  Biso   1.000  C
  C134     1.0000 0.03612  0.63049  0.63829  Biso   1.000  C
  H177     1.0000 0.17922  0.56531  0.49497  Biso   1.000  H
  H178     1.0000 0.27023  0.56108  0.56167  Biso   1.000  H
  H179     1.0000 0.21077  0.62888  0.56909  Biso   1.000  H
  H180     1.0000 0.17923  0.56531  0.49504  Biso   1.000  H
  H181     1.0000 0.27024  0.56108  0.56175  Biso   1.000  H
  H182     1.0000 0.21083  0.62888  0.56909  Biso   1.000  H
  H183     1.0000 0.29158  0.62727  0.83582  Biso   1.000  H
  H184     1.0000 0.24973  0.66032  0.73053  Biso   1.000  H
  N93      1.0000 0.17291  0.66654  0.84457  Biso   1.000  N
  H185     1.0000 0.29164  0.62727  0.83582  Biso   1.000  H
  N94      1.0000 0.17292  0.66654  0.84465  Biso   1.000  N
  C135     1.0000 0.05612  0.73934  0.88401  Biso   1.000  C
  C136     1.0000 0.17981  0.67464  0.95072  Biso   1.000  C
  H186     1.0000 0.90490  0.79320  0.92658  Biso   1.000  H
  H187     1.0000 0.84228  0.73290  0.87862  Biso   1.000  H
  N95      1.0000 0.96793  0.71150  0.86870  Biso   1.000  N
  H188     1.0000 0.97771  0.62808  0.60213  Biso   1.000  H
  H189     1.0000 0.07052  0.66198  0.59869  Biso   1.000  H
  N96      1.0000 0.03126  0.66091  0.74061  Biso   1.000  N
  C137     1.0000 0.09992  0.70495  0.79232  Biso   1.000  C
  H190     1.0000 0.05701  0.79191  0.88073  Biso   1.000  H
  O40      1.0000 0.23949  0.65356  0.01133  Biso   1.000  O
  O41      1.0000 0.23956  0.65356  0.01133  Biso   1.000  O
  C138     1.0000 0.95369  0.66955  0.78208  Biso   1.000  C
  H191     1.0000 0.11922  0.74159  0.74506  Biso   1.000  H
  H192     1.0000 0.11923  0.74159  0.74514  Biso   1.000  H
  O42      1.0000 0.88365  0.64465  0.74748  Biso   1.000  O
  O43      1.0000 0.11635  0.35535  0.25252  Biso   1.000  O
  C139     1.0000 0.04631  0.33045  0.21792  Biso   1.000  C
  N97      1.0000 0.96874  0.33909  0.25939  Biso   1.000  N
  N98      1.0000 0.03207  0.28850  0.13130  Biso   1.000  N
  N99      1.0000 0.03214  0.28850  0.13130  Biso   1.000  N
  C140     1.0000 0.96388  0.36951  0.36171  Biso   1.000  C
  C141     1.0000 0.90008  0.29505  0.20768  Biso   1.000  C
  C142     1.0000 0.96394  0.36951  0.36171  Biso   1.000  C
  C143     1.0000 0.94388  0.26066  0.11599  Biso   1.000  C
  C144     1.0000 0.10297  0.25830  0.07881  Biso   1.000  C
  C145     1.0000 0.10303  0.25830  0.07881  Biso   1.000  C
  H193     1.0000 0.02229  0.37192  0.39787  Biso   1.000  H
  H194     1.0000 0.92948  0.33802  0.40131  Biso   1.000  H
  N100     1.0000 0.92534  0.44112  0.35866  Biso   1.000  N
  N101     1.0000 0.92535  0.44112  0.35874  Biso   1.000  N
  H195     1.0000 0.88078  0.25841  0.25494  Biso   1.000  H
  N102     1.0000 0.82709  0.33346  0.15543  Biso   1.000  N
  H196     1.0000 0.88084  0.25841  0.25494  Biso   1.000  H
  H197     1.0000 0.94299  0.20809  0.11927  Biso   1.000  H
  N103     1.0000 0.89104  0.28727  0.02484  Biso   1.000  N
  H198     1.0000 0.94300  0.20809  0.11935  Biso   1.000  H
  H199     1.0000 0.09510  0.20680  0.07342  Biso   1.000  H
  H200     1.0000 0.15772  0.26710  0.12138  Biso   1.000  H
  N104     1.0000 0.10896  0.28727  0.97516  Biso   1.000  N
  N105     1.0000 0.10896  0.28727  0.97524  Biso   1.000  N
  C146     1.0000 0.97652  0.50003  0.36663  Biso   1.000  C
  C147     1.0000 0.83193  0.45727  0.35062  Biso   1.000  C
  C148     1.0000 0.76212  0.36919  0.21042  Biso   1.000  C
  C149     1.0000 0.82019  0.32536  0.04928  Biso   1.000  C
  C150     1.0000 0.89703  0.25830  0.92119  Biso   1.000  C
  C151     1.0000 0.05612  0.26066  0.88401  Biso   1.000  C
  C152     1.0000 0.17981  0.32536  0.95072  Biso   1.000  C
  O44      1.0000 0.05642  0.50003  0.37920  Biso   1.000  O
  N106     1.0000 0.92534  0.55888  0.35866  Biso   1.000  N
  N107     1.0000 0.92535  0.55888  0.35874  Biso   1.000  N
  C153     1.0000 0.83193  0.54273  0.35062  Biso   1.000  C
  C154     1.0000 0.78899  0.42219  0.43942  Biso   1.000  C
  N108     1.0000 0.78652  0.44075  0.24838  Biso   1.000  N
  H201     1.0000 0.70842  0.37273  0.16418  Biso   1.000  H
  H202     1.0000 0.75027  0.33968  0.26947  Biso   1.000  H
  H203     1.0000 0.75034  0.33968  0.26954  Biso   1.000  H
  O45      1.0000 0.76051  0.34644  0.98867  Biso   1.000  O
  H204     1.0000 0.90490  0.20680  0.92658  Biso   1.000  H
  H205     1.0000 0.84228  0.26710  0.87862  Biso   1.000  H
  N109     1.0000 0.96793  0.28850  0.86870  Biso   1.000  N
  C155     1.0000 0.09992  0.29505  0.79232  Biso   1.000  C
  H206     1.0000 0.05701  0.20809  0.88073  Biso   1.000  H
  N110     1.0000 0.17291  0.33346  0.84457  Biso   1.000  N
  N111     1.0000 0.17292  0.33346  0.84465  Biso   1.000  N
  O46      1.0000 0.23949  0.34644  0.01133  Biso   1.000  O
  O47      1.0000 0.23956  0.34644  0.01133  Biso   1.000  O
  C156     1.0000 0.96388  0.63049  0.36171  Biso   1.000  C
  C157     1.0000 0.96394  0.63049  0.36171  Biso   1.000  C
  C158     1.0000 0.78899  0.57781  0.43942  Biso   1.000  C
  N112     1.0000 0.78652  0.55925  0.24838  Biso   1.000  N
  H207     1.0000 0.82078  0.43469  0.50503  Biso   1.000  H
  H208     1.0000 0.72977  0.43892  0.43833  Biso   1.000  H
  H209     1.0000 0.78923  0.37112  0.43091  Biso   1.000  H
  H210     1.0000 0.82084  0.43469  0.50503  Biso   1.000  H
  H211     1.0000 0.72984  0.43892  0.43833  Biso   1.000  H
  C159     1.0000 0.75721  0.50003  0.19417  Biso   1.000  C
  C160     1.0000 0.95369  0.33045  0.78208  Biso   1.000  C
  H212     1.0000 0.11922  0.25841  0.74506  Biso   1.000  H
  N113     1.0000 0.03126  0.33909  0.74061  Biso   1.000  N
  H213     1.0000 0.11923  0.25841  0.74514  Biso   1.000  H
  C161     1.0000 0.23788  0.36919  0.78958  Biso   1.000  C
  H214     1.0000 0.02229  0.62808  0.39787  Biso   1.000  H
  H215     1.0000 0.92948  0.66198  0.40131  Biso   1.000  H
  N114     1.0000 0.96874  0.66091  0.25939  Biso   1.000  N
  H216     1.0000 0.82078  0.56531  0.50503  Biso   1.000  H
  H217     1.0000 0.72977  0.56108  0.43833  Biso   1.000  H
  H218     1.0000 0.78923  0.62888  0.43091  Biso   1.000  H
  H219     1.0000 0.82084  0.56531  0.50503  Biso   1.000  H
  H220     1.0000 0.72984  0.56108  0.43833  Biso   1.000  H
  C162     1.0000 0.76212  0.63081  0.21042  Biso   1.000  C
  O48      1.0000 0.71342  0.50003  0.10997  Biso   1.000  O
  O49      1.0000 0.88365  0.35535  0.74748  Biso   1.000  O
  C163     1.0000 0.03612  0.36951  0.63829  Biso   1.000  C
  H221     1.0000 0.29158  0.37273  0.83582  Biso   1.000  H
  H222     1.0000 0.24973  0.33968  0.73053  Biso   1.000  H
  N115     1.0000 0.21348  0.44075  0.75162  Biso   1.000  N
  H223     1.0000 0.29164  0.37273  0.83582  Biso   1.000  H
  C164     1.0000 0.04631  0.66955  0.21792  Biso   1.000  C
  C165     1.0000 0.90008  0.70495  0.20768  Biso   1.000  C
  H224     1.0000 0.70842  0.62727  0.16418  Biso   1.000  H
  H225     1.0000 0.75027  0.66032  0.26947  Biso   1.000  H
  N116     1.0000 0.82709  0.66654  0.15543  Biso   1.000  N
  H226     1.0000 0.75034  0.66032  0.26954  Biso   1.000  H
  H227     1.0000 0.97771  0.37192  0.60213  Biso   1.000  H
  H228     1.0000 0.07052  0.33802  0.59869  Biso   1.000  H
  N117     1.0000 0.07466  0.44112  0.64134  Biso   1.000  N
  C166     1.0000 0.16807  0.45727  0.64938  Biso   1.000  C
  C167     1.0000 0.24279  0.50003  0.80583  Biso   1.000  C
  C168     1.0000 0.16813  0.45727  0.64938  Biso   1.000  C
  O50      1.0000 0.11635  0.64465  0.25252  Biso   1.000  O
  N118     1.0000 0.03207  0.71150  0.13130  Biso   1.000  N
  N119     1.0000 0.03214  0.71150  0.13130  Biso   1.000  N
  H229     1.0000 0.88078  0.74159  0.25494  Biso   1.000  H
  C169     1.0000 0.94388  0.73934  0.11599  Biso   1.000  C
  H230     1.0000 0.88084  0.74159  0.25494  Biso   1.000  H
  C170     1.0000 0.82019  0.67464  0.04928  Biso   1.000  C
  C171     1.0000 0.02348  0.50003  0.63337  Biso   1.000  C
  C172     1.0000 0.16807  0.54273  0.64938  Biso   1.000  C
  C173     1.0000 0.21101  0.42219  0.56058  Biso   1.000  C
  C174     1.0000 0.16813  0.54273  0.64938  Biso   1.000  C
  N120     1.0000 0.21348  0.55925  0.75162  Biso   1.000  N
  O51      1.0000 0.28658  0.50003  0.89003  Biso   1.000  O
  C175     1.0000 0.10297  0.74170  0.07881  Biso   1.000  C
  C176     1.0000 0.10303  0.74170  0.07881  Biso   1.000  C
  H231     1.0000 0.94299  0.79191  0.11927  Biso   1.000  H
  N121     1.0000 0.89104  0.71273  0.02484  Biso   1.000  N
  H232     1.0000 0.94300  0.79191  0.11935  Biso   1.000  H
  O52      1.0000 0.76051  0.65356  0.98867  Biso   1.000  O
  O53      1.0000 0.94358  0.50003  0.62080  Biso   1.000  O
  N122     1.0000 0.07466  0.55888  0.64134  Biso   1.000  N
  C177     1.0000 0.21101  0.57781  0.56058  Biso   1.000  C
  H233     1.0000 0.17922  0.43469  0.49497  Biso   1.000  H
  H234     1.0000 0.27023  0.43892  0.56167  Biso   1.000  H
  H235     1.0000 0.21077  0.37112  0.56909  Biso   1.000  H
  H236     1.0000 0.17923  0.43469  0.49504  Biso   1.000  H
  H237     1.0000 0.27024  0.43892  0.56175  Biso   1.000  H
  H238     1.0000 0.21083  0.37112  0.56909  Biso   1.000  H
  C178     1.0000 0.23788  0.63081  0.78958  Biso   1.000  C
  H239     1.0000 0.09510  0.79320  0.07342  Biso   1.000  H
  H240     1.0000 0.15772  0.73290  0.12138  Biso   1.000  H
  N123     1.0000 0.10896  0.71273  0.97516  Biso   1.000  N
  N124     1.0000 0.10896  0.71273  0.97524  Biso   1.000  N
  C179     1.0000 0.89703  0.74170  0.92119  Biso   1.000  C
  C180     1.0000 0.03612  0.63049  0.63829  Biso   1.000  C
  H241     1.0000 0.17922  0.56531  0.49497  Biso   1.000  H
  H242     1.0000 0.27023  0.56108  0.56167  Biso   1.000  H
  H243     1.0000 0.21077  0.62888  0.56909  Biso   1.000  H
  H244     1.0000 0.17923  0.56531  0.49504  Biso   1.000  H
  H245     1.0000 0.27024  0.56108  0.56175  Biso   1.000  H
  H246     1.0000 0.21083  0.62888  0.56909  Biso   1.000  H
  H247     1.0000 0.29158  0.62727  0.83582  Biso   1.000  H
  H248     1.0000 0.24973  0.66032  0.73053  Biso   1.000  H
  N125     1.0000 0.17291  0.66654  0.84457  Biso   1.000  N
  H249     1.0000 0.29164  0.62727  0.83582  Biso   1.000  H
  N126     1.0000 0.17292  0.66654  0.84465  Biso   1.000  N
  C181     1.0000 0.05612  0.73934  0.88401  Biso   1.000  C
  C182     1.0000 0.17981  0.67464  0.95072  Biso   1.000  C
  H250     1.0000 0.90490  0.79320  0.92658  Biso   1.000  H
  H251     1.0000 0.84228  0.73290  0.87862  Biso   1.000  H
  N127     1.0000 0.96793  0.71150  0.86870  Biso   1.000  N
  H252     1.0000 0.97771  0.62808  0.60213  Biso   1.000  H
  H253     1.0000 0.07052  0.66198  0.59869  Biso   1.000  H
  N128     1.0000 0.03126  0.66091  0.74061  Biso   1.000  N
  C183     1.0000 0.09992  0.70495  0.79232  Biso   1.000  C
  H254     1.0000 0.05701  0.79191  0.88073  Biso   1.000  H
  O54      1.0000 0.23949  0.65356  0.01133  Biso   1.000  O
  O55      1.0000 0.23956  0.65356  0.01133  Biso   1.000  O
  C184     1.0000 0.95369  0.66955  0.78208  Biso   1.000  C
  H255     1.0000 0.11922  0.74159  0.74506  Biso   1.000  H
  H256     1.0000 0.11923  0.74159  0.74514  Biso   1.000  H
  O56      1.0000 0.88365  0.64465  0.74748  Biso   1.000  O
  O57      1.0000 0.38367  0.14463  0.74747  Biso   1.000  O
  C185     1.0000 0.45371  0.16957  0.78207  Biso   1.000  C
  N129     1.0000 0.53121  0.16094  0.74060  Biso   1.000  N
  N130     1.0000 0.53128  0.16094  0.74060  Biso   1.000  N
  N131     1.0000 0.46789  0.21152  0.86869  Biso   1.000  N
  C186     1.0000 0.53608  0.13052  0.63828  Biso   1.000  C
  C187     1.0000 0.59987  0.20498  0.79231  Biso   1.000  C
  C188     1.0000 0.55608  0.23936  0.88400  Biso   1.000  C
  C189     1.0000 0.39699  0.24173  0.92118  Biso   1.000  C
  H257     1.0000 0.57047  0.16201  0.59868  Biso   1.000  H
  H258     1.0000 0.47766  0.12810  0.60212  Biso   1.000  H
  N132     1.0000 0.57461  0.05885  0.64133  Biso   1.000  N
  H259     1.0000 0.47773  0.12810  0.60212  Biso   1.000  H
  N133     1.0000 0.57468  0.05885  0.64133  Biso   1.000  N
  H260     1.0000 0.61918  0.24162  0.74505  Biso   1.000  H
  N134     1.0000 0.67293  0.16651  0.84456  Biso   1.000  N
  H261     1.0000 0.61919  0.24162  0.74513  Biso   1.000  H
  N135     1.0000 0.67294  0.16651  0.84464  Biso   1.000  N
  H262     1.0000 0.55696  0.29188  0.88072  Biso   1.000  H
  N136     1.0000 0.60891  0.21270  0.97515  Biso   1.000  N
  H263     1.0000 0.55703  0.29188  0.88072  Biso   1.000  H
  N137     1.0000 0.60899  0.21270  0.97523  Biso   1.000  N
  H264     1.0000 0.40486  0.29322  0.92657  Biso   1.000  H
  H265     1.0000 0.34231  0.23287  0.87861  Biso   1.000  H
  H266     1.0000 0.40492  0.29322  0.92657  Biso   1.000  H
  N138     1.0000 0.39106  0.21270  0.02483  Biso   1.000  N
  C190     1.0000 0.52351  0.00000  0.63336  Biso   1.000  C
  C191     1.0000 0.66809  0.04276  0.64937  Biso   1.000  C
  C192     1.0000 0.73790  0.13079  0.78957  Biso   1.000  C
  C193     1.0000 0.67977  0.17462  0.95071  Biso   1.000  C
  C194     1.0000 0.67983  0.17462  0.95071  Biso   1.000  C
  C195     1.0000 0.60299  0.24173  0.07880  Biso   1.000  C
  C196     1.0000 0.44390  0.23936  0.11598  Biso   1.000  C
  C197     1.0000 0.32021  0.17462  0.04928  Biso   1.000  C
  O58      1.0000 0.44361  0.00000  0.62079  Biso   1.000  O
  N139     1.0000 0.57461  0.94115  0.64133  Biso   1.000  N
  N140     1.0000 0.57468  0.94115  0.64133  Biso   1.000  N
  C198     1.0000 0.71097  0.07779  0.56057  Biso   1.000  C
  N141     1.0000 0.71344  0.05928  0.75161  Biso   1.000  N
  C199     1.0000 0.66809  0.95724  0.64937  Biso   1.000  C
  H267     1.0000 0.79160  0.12730  0.83581  Biso   1.000  H
  H268     1.0000 0.74969  0.16029  0.73053  Biso   1.000  H
  O59      1.0000 0.73952  0.15353  0.01132  Biso   1.000  O
  H269     1.0000 0.59512  0.29322  0.07341  Biso   1.000  H
  H270     1.0000 0.65767  0.23287  0.12137  Biso   1.000  H
  N142     1.0000 0.53209  0.21152  0.13129  Biso   1.000  N
  C200     1.0000 0.40011  0.20498  0.20767  Biso   1.000  C
  H271     1.0000 0.44302  0.29188  0.11926  Biso   1.000  H
  H272     1.0000 0.44302  0.29188  0.11934  Biso   1.000  H
  O60      1.0000 0.26046  0.15353  0.98867  Biso   1.000  O
  N143     1.0000 0.32704  0.16651  0.15542  Biso   1.000  N
  N144     1.0000 0.32711  0.16651  0.15542  Biso   1.000  N
  C201     1.0000 0.53608  0.86948  0.63828  Biso   1.000  C
  H273     1.0000 0.67918  0.06529  0.49496  Biso   1.000  H
  H274     1.0000 0.77019  0.06110  0.56166  Biso   1.000  H
  H275     1.0000 0.71079  0.12891  0.56908  Biso   1.000  H
  H276     1.0000 0.67918  0.06529  0.49504  Biso   1.000  H
  H277     1.0000 0.77019  0.06110  0.56174  Biso   1.000  H
  C202     1.0000 0.74281  0.00000  0.80582  Biso   1.000  C
  C203     1.0000 0.71097  0.92221  0.56057  Biso   1.000  C
  N145     1.0000 0.71344  0.94072  0.75161  Biso   1.000  N
  C204     1.0000 0.54627  0.16957  0.21791  Biso   1.000  C
  H278     1.0000 0.38080  0.24162  0.25493  Biso   1.000  H
  N146     1.0000 0.46877  0.16094  0.25938  Biso   1.000  N
  C205     1.0000 0.26208  0.13079  0.21041  Biso   1.000  C
  H279     1.0000 0.57047  0.83799  0.59868  Biso   1.000  H
  H280     1.0000 0.47766  0.87190  0.60212  Biso   1.000  H
  N147     1.0000 0.53121  0.83906  0.74060  Biso   1.000  N
  H281     1.0000 0.47773  0.87190  0.60212  Biso   1.000  H
  N148     1.0000 0.53128  0.83906  0.74060  Biso   1.000  N
  O61      1.0000 0.78660  0.00000  0.89002  Biso   1.000  O
  H282     1.0000 0.67918  0.93471  0.49496  Biso   1.000  H
  H283     1.0000 0.77019  0.93890  0.56166  Biso   1.000  H
  H284     1.0000 0.71079  0.87109  0.56908  Biso   1.000  H
  H285     1.0000 0.67918  0.93471  0.49504  Biso   1.000  H
  H286     1.0000 0.77019  0.93890  0.56174  Biso   1.000  H
  C206     1.0000 0.73790  0.86921  0.78957  Biso   1.000  C
  O62      1.0000 0.61631  0.14463  0.25251  Biso   1.000  O
  O63      1.0000 0.61638  0.14463  0.25251  Biso   1.000  O
  C207     1.0000 0.46390  0.13052  0.36170  Biso   1.000  C
  H287     1.0000 0.20838  0.12730  0.16417  Biso   1.000  H
  H288     1.0000 0.25029  0.16029  0.26946  Biso   1.000  H
  N149     1.0000 0.28654  0.05928  0.24837  Biso   1.000  N
  H289     1.0000 0.25029  0.16029  0.26953  Biso   1.000  H
  C208     1.0000 0.45371  0.83043  0.78207  Biso   1.000  C
  C209     1.0000 0.59987  0.79502  0.79231  Biso   1.000  C
  H290     1.0000 0.79160  0.87270  0.83581  Biso   1.000  H
  H291     1.0000 0.74969  0.83971  0.73053  Biso   1.000  H
  N150     1.0000 0.67293  0.83349  0.84456  Biso   1.000  N
  N151     1.0000 0.67294  0.83349  0.84464  Biso   1.000  N
  H292     1.0000 0.42951  0.16201  0.40130  Biso   1.000  H
  H293     1.0000 0.52231  0.12810  0.39786  Biso   1.000  H
  N152     1.0000 0.42537  0.05885  0.35865  Biso   1.000  N
  N153     1.0000 0.42537  0.05885  0.35873  Biso   1.000  N
  C210     1.0000 0.33189  0.04276  0.35061  Biso   1.000  C
  C211     1.0000 0.25717  0.00000  0.19416  Biso   1.000  C
  N154     1.0000 0.46789  0.78848  0.86869  Biso   1.000  N
  O64      1.0000 0.38367  0.85537  0.74747  Biso   1.000  O
  H294     1.0000 0.61918  0.75838  0.74505  Biso   1.000  H
  C212     1.0000 0.55608  0.76064  0.88400  Biso   1.000  C
  H295     1.0000 0.61919  0.75838  0.74513  Biso   1.000  H
  C213     1.0000 0.67977  0.82538  0.95071  Biso   1.000  C
  C214     1.0000 0.67983  0.82538  0.95071  Biso   1.000  C
  C215     1.0000 0.47647  0.00000  0.36662  Biso   1.000  C
  C216     1.0000 0.33189  0.95724  0.35061  Biso   1.000  C
  C217     1.0000 0.28901  0.07779  0.43941  Biso   1.000  C
  N155     1.0000 0.28654  0.94072  0.24837  Biso   1.000  N
  O65      1.0000 0.21338  0.00000  0.10996  Biso   1.000  O
  C218     1.0000 0.39699  0.75827  0.92118  Biso   1.000  C
  H296     1.0000 0.55696  0.70812  0.88072  Biso   1.000  H
  N156     1.0000 0.60891  0.78730  0.97515  Biso   1.000  N
  H297     1.0000 0.55703  0.70812  0.88072  Biso   1.000  H
  N157     1.0000 0.60899  0.78730  0.97523  Biso   1.000  N
  O66      1.0000 0.73952  0.84647  0.01132  Biso   1.000  O
  N158     1.0000 0.42537  0.94115  0.35865  Biso   1.000  N
  N159     1.0000 0.42537  0.94115  0.35873  Biso   1.000  N
  O67      1.0000 0.55637  0.00000  0.37920  Biso   1.000  O
  C219     1.0000 0.28901  0.92221  0.43941  Biso   1.000  C
  H298     1.0000 0.32080  0.06529  0.50502  Biso   1.000  H
  H299     1.0000 0.22979  0.06110  0.43832  Biso   1.000  H
  H300     1.0000 0.28919  0.12891  0.43090  Biso   1.000  H
  C220     1.0000 0.26208  0.86921  0.21041  Biso   1.000  C
  H301     1.0000 0.40486  0.70678  0.92657  Biso   1.000  H
  H302     1.0000 0.34231  0.76713  0.87861  Biso   1.000  H
  H303     1.0000 0.40492  0.70678  0.92657  Biso   1.000  H
  N160     1.0000 0.39106  0.78730  0.02483  Biso   1.000  N
  C221     1.0000 0.60299  0.75827  0.07880  Biso   1.000  C
  C222     1.0000 0.46390  0.86948  0.36170  Biso   1.000  C
  H304     1.0000 0.32080  0.93471  0.50502  Biso   1.000  H
  H305     1.0000 0.22979  0.93890  0.43832  Biso   1.000  H
  H306     1.0000 0.28919  0.87109  0.43090  Biso   1.000  H
  N161     1.0000 0.32704  0.83349  0.15542  Biso   1.000  N
  N162     1.0000 0.32711  0.83349  0.15542  Biso   1.000  N
  H307     1.0000 0.20838  0.87270  0.16417  Biso   1.000  H
  H308     1.0000 0.25029  0.83971  0.26946  Biso   1.000  H
  H309     1.0000 0.25029  0.83971  0.26953  Biso   1.000  H
  C223     1.0000 0.44390  0.76064  0.11598  Biso   1.000  C
  C224     1.0000 0.32021  0.82538  0.04928  Biso   1.000  C
  H310     1.0000 0.59512  0.70678  0.07341  Biso   1.000  H
  H311     1.0000 0.65767  0.76713  0.12137  Biso   1.000  H
  N163     1.0000 0.53209  0.78848  0.13129  Biso   1.000  N
  N164     1.0000 0.46877  0.83906  0.25938  Biso   1.000  N
  H312     1.0000 0.42951  0.83799  0.40130  Biso   1.000  H
  H313     1.0000 0.52231  0.87190  0.39786  Biso   1.000  H
  C225     1.0000 0.40011  0.79502  0.20767  Biso   1.000  C
  H314     1.0000 0.44302  0.70812  0.11926  Biso   1.000  H
  H315     1.0000 0.44302  0.70812  0.11934  Biso   1.000  H
  O68      1.0000 0.26046  0.84647  0.98867  Biso   1.000  O
  C226     1.0000 0.54627  0.83043  0.21791  Biso   1.000  C
  H316     1.0000 0.38080  0.75838  0.25493  Biso   1.000  H
  O69      1.0000 0.61631  0.85537  0.25251  Biso   1.000  O
  O70      1.0000 0.61638  0.85537  0.25251  Biso   1.000  O
  O71      1.0000 0.38367  0.14463  0.74747  Biso   1.000  O
  C227     1.0000 0.45371  0.16957  0.78207  Biso   1.000  C
  N165     1.0000 0.53121  0.16094  0.74060  Biso   1.000  N
  N166     1.0000 0.53128  0.16094  0.74060  Biso   1.000  N
  N167     1.0000 0.46789  0.21152  0.86869  Biso   1.000  N
  C228     1.0000 0.53608  0.13052  0.63828  Biso   1.000  C
  C229     1.0000 0.59987  0.20498  0.79231  Biso   1.000  C
  C230     1.0000 0.55608  0.23936  0.88400  Biso   1.000  C
  C231     1.0000 0.39699  0.24173  0.92118  Biso   1.000  C
  H317     1.0000 0.57047  0.16201  0.59868  Biso   1.000  H
  H318     1.0000 0.47766  0.12810  0.60212  Biso   1.000  H
  N168     1.0000 0.57461  0.05885  0.64133  Biso   1.000  N
  H319     1.0000 0.47773  0.12810  0.60212  Biso   1.000  H
  N169     1.0000 0.57468  0.05885  0.64133  Biso   1.000  N
  H320     1.0000 0.61918  0.24162  0.74505  Biso   1.000  H
  N170     1.0000 0.67293  0.16651  0.84456  Biso   1.000  N
  H321     1.0000 0.61919  0.24162  0.74513  Biso   1.000  H
  N171     1.0000 0.67294  0.16651  0.84464  Biso   1.000  N
  H322     1.0000 0.55696  0.29188  0.88072  Biso   1.000  H
  N172     1.0000 0.60891  0.21270  0.97515  Biso   1.000  N
  H323     1.0000 0.55703  0.29188  0.88072  Biso   1.000  H
  N173     1.0000 0.60899  0.21270  0.97523  Biso   1.000  N
  H324     1.0000 0.34231  0.23287  0.87861  Biso   1.000  H
  H325     1.0000 0.40486  0.29322  0.92657  Biso   1.000  H
  H326     1.0000 0.40492  0.29322  0.92657  Biso   1.000  H
  N174     1.0000 0.39106  0.21270  0.02483  Biso   1.000  N
  C232     1.0000 0.52351  0.00000  0.63336  Biso   1.000  C
  C233     1.0000 0.66809  0.04276  0.64937  Biso   1.000  C
  C234     1.0000 0.73790  0.13079  0.78957  Biso   1.000  C
  C235     1.0000 0.67977  0.17462  0.95071  Biso   1.000  C
  C236     1.0000 0.67983  0.17462  0.95071  Biso   1.000  C
  C237     1.0000 0.60299  0.24173  0.07880  Biso   1.000  C
  C238     1.0000 0.44390  0.23936  0.11598  Biso   1.000  C
  C239     1.0000 0.32021  0.17462  0.04928  Biso   1.000  C
  O72      1.0000 0.44361  0.00000  0.62079  Biso   1.000  O
  N175     1.0000 0.57461  0.94115  0.64133  Biso   1.000  N
  N176     1.0000 0.57468  0.94115  0.64133  Biso   1.000  N
  C240     1.0000 0.71097  0.07779  0.56057  Biso   1.000  C
  N177     1.0000 0.71344  0.05928  0.75161  Biso   1.000  N
  C241     1.0000 0.66809  0.95724  0.64937  Biso   1.000  C
  H327     1.0000 0.79160  0.12730  0.83581  Biso   1.000  H
  H328     1.0000 0.74969  0.16029  0.73053  Biso   1.000  H
  O73      1.0000 0.73952  0.15353  0.01132  Biso   1.000  O
  H329     1.0000 0.59512  0.29322  0.07341  Biso   1.000  H
  H330     1.0000 0.65767  0.23287  0.12137  Biso   1.000  H
  N178     1.0000 0.53209  0.21152  0.13129  Biso   1.000  N
  C242     1.0000 0.40011  0.20498  0.20767  Biso   1.000  C
  H331     1.0000 0.44302  0.29188  0.11926  Biso   1.000  H
  H332     1.0000 0.44302  0.29188  0.11934  Biso   1.000  H
  O74      1.0000 0.26046  0.15353  0.98867  Biso   1.000  O
  N179     1.0000 0.32704  0.16651  0.15542  Biso   1.000  N
  N180     1.0000 0.32711  0.16651  0.15542  Biso   1.000  N
  C243     1.0000 0.53608  0.86948  0.63828  Biso   1.000  C
  H333     1.0000 0.71079  0.12891  0.56908  Biso   1.000  H
  H334     1.0000 0.67918  0.06529  0.49496  Biso   1.000  H
  H335     1.0000 0.77019  0.06110  0.56166  Biso   1.000  H
  H336     1.0000 0.67918  0.06529  0.49504  Biso   1.000  H
  H337     1.0000 0.77019  0.06110  0.56174  Biso   1.000  H
  C244     1.0000 0.74281  0.00000  0.80582  Biso   1.000  C
  C245     1.0000 0.71097  0.92221  0.56057  Biso   1.000  C
  N181     1.0000 0.71344  0.94072  0.75161  Biso   1.000  N
  C246     1.0000 0.54627  0.16957  0.21791  Biso   1.000  C
  H338     1.0000 0.38080  0.24162  0.25493  Biso   1.000  H
  N182     1.0000 0.46877  0.16094  0.25938  Biso   1.000  N
  C247     1.0000 0.26208  0.13079  0.21041  Biso   1.000  C
  H339     1.0000 0.57047  0.83799  0.59868  Biso   1.000  H
  H340     1.0000 0.47766  0.87190  0.60212  Biso   1.000  H
  N183     1.0000 0.53121  0.83906  0.74060  Biso   1.000  N
  H341     1.0000 0.47773  0.87190  0.60212  Biso   1.000  H
  N184     1.0000 0.53128  0.83906  0.74060  Biso   1.000  N
  O75      1.0000 0.78660  0.00000  0.89002  Biso   1.000  O
  H342     1.0000 0.67918  0.93471  0.49496  Biso   1.000  H
  H343     1.0000 0.77019  0.93890  0.56166  Biso   1.000  H
  H344     1.0000 0.71079  0.87109  0.56908  Biso   1.000  H
  H345     1.0000 0.67918  0.93471  0.49504  Biso   1.000  H
  H346     1.0000 0.77019  0.93890  0.56174  Biso   1.000  H
  C248     1.0000 0.73790  0.86921  0.78957  Biso   1.000  C
  O76      1.0000 0.61631  0.14463  0.25251  Biso   1.000  O
  O77      1.0000 0.61638  0.14463  0.25251  Biso   1.000  O
  C249     1.0000 0.46390  0.13052  0.36170  Biso   1.000  C
  H347     1.0000 0.20838  0.12730  0.16417  Biso   1.000  H
  H348     1.0000 0.25029  0.16029  0.26946  Biso   1.000  H
  N185     1.0000 0.28654  0.05928  0.24837  Biso   1.000  N
  H349     1.0000 0.25029  0.16029  0.26953  Biso   1.000  H
  C250     1.0000 0.45371  0.83043  0.78207  Biso   1.000  C
  C251     1.0000 0.59987  0.79502  0.79231  Biso   1.000  C
  H350     1.0000 0.79160  0.87270  0.83581  Biso   1.000  H
  H351     1.0000 0.74969  0.83971  0.73053  Biso   1.000  H
  N186     1.0000 0.67293  0.83349  0.84456  Biso   1.000  N
  N187     1.0000 0.67294  0.83349  0.84464  Biso   1.000  N
  H352     1.0000 0.42951  0.16201  0.40130  Biso   1.000  H
  H353     1.0000 0.52231  0.12810  0.39786  Biso   1.000  H
  N188     1.0000 0.42537  0.05885  0.35865  Biso   1.000  N
  N189     1.0000 0.42537  0.05885  0.35873  Biso   1.000  N
  C252     1.0000 0.33189  0.04276  0.35061  Biso   1.000  C
  C253     1.0000 0.25717  0.00000  0.19416  Biso   1.000  C
  N190     1.0000 0.46789  0.78848  0.86869  Biso   1.000  N
  O78      1.0000 0.38367  0.85537  0.74747  Biso   1.000  O
  H354     1.0000 0.61918  0.75838  0.74505  Biso   1.000  H
  C254     1.0000 0.55608  0.76064  0.88400  Biso   1.000  C
  H355     1.0000 0.61919  0.75838  0.74513  Biso   1.000  H
  C255     1.0000 0.67977  0.82538  0.95071  Biso   1.000  C
  C256     1.0000 0.67983  0.82538  0.95071  Biso   1.000  C
  C257     1.0000 0.47647  0.00000  0.36662  Biso   1.000  C
  C258     1.0000 0.33189  0.95724  0.35061  Biso   1.000  C
  C259     1.0000 0.28901  0.07779  0.43941  Biso   1.000  C
  N191     1.0000 0.28654  0.94072  0.24837  Biso   1.000  N
  O79      1.0000 0.21338  0.00000  0.10996  Biso   1.000  O
  C260     1.0000 0.39699  0.75827  0.92118  Biso   1.000  C
  H356     1.0000 0.55696  0.70812  0.88072  Biso   1.000  H
  N192     1.0000 0.60891  0.78730  0.97515  Biso   1.000  N
  H357     1.0000 0.55703  0.70812  0.88072  Biso   1.000  H
  N193     1.0000 0.60899  0.78730  0.97523  Biso   1.000  N
  O80      1.0000 0.73952  0.84647  0.01132  Biso   1.000  O
  N194     1.0000 0.42537  0.94115  0.35865  Biso   1.000  N
  N195     1.0000 0.42537  0.94115  0.35873  Biso   1.000  N
  O81      1.0000 0.55637  0.00000  0.37920  Biso   1.000  O
  C261     1.0000 0.28901  0.92221  0.43941  Biso   1.000  C
  H358     1.0000 0.32080  0.06529  0.50502  Biso   1.000  H
  H359     1.0000 0.22979  0.06110  0.43832  Biso   1.000  H
  H360     1.0000 0.28919  0.12891  0.43090  Biso   1.000  H
  C262     1.0000 0.26208  0.86921  0.21041  Biso   1.000  C
  H361     1.0000 0.40486  0.70678  0.92657  Biso   1.000  H
  H362     1.0000 0.34231  0.76713  0.87861  Biso   1.000  H
  H363     1.0000 0.40492  0.70678  0.92657  Biso   1.000  H
  N196     1.0000 0.39106  0.78730  0.02483  Biso   1.000  N
  C263     1.0000 0.60299  0.75827  0.07880  Biso   1.000  C
  C264     1.0000 0.46390  0.86948  0.36170  Biso   1.000  C
  H364     1.0000 0.32080  0.93471  0.50502  Biso   1.000  H
  H365     1.0000 0.22979  0.93890  0.43832  Biso   1.000  H
  H366     1.0000 0.28919  0.87109  0.43090  Biso   1.000  H
  N197     1.0000 0.32704  0.83349  0.15542  Biso   1.000  N
  N198     1.0000 0.32711  0.83349  0.15542  Biso   1.000  N
  H367     1.0000 0.20838  0.87270  0.16417  Biso   1.000  H
  H368     1.0000 0.25029  0.83971  0.26946  Biso   1.000  H
  H369     1.0000 0.25029  0.83971  0.26953  Biso   1.000  H
  C265     1.0000 0.44390  0.76064  0.11598  Biso   1.000  C
  C266     1.0000 0.32021  0.82538  0.04928  Biso   1.000  C
  H370     1.0000 0.59512  0.70678  0.07341  Biso   1.000  H
  H371     1.0000 0.65767  0.76713  0.12137  Biso   1.000  H
  N199     1.0000 0.53209  0.78848  0.13129  Biso   1.000  N
  N200     1.0000 0.46877  0.83906  0.25938  Biso   1.000  N
  H372     1.0000 0.42951  0.83799  0.40130  Biso   1.000  H
  H373     1.0000 0.52231  0.87190  0.39786  Biso   1.000  H
  C267     1.0000 0.40011  0.79502  0.20767  Biso   1.000  C
  H374     1.0000 0.44302  0.70812  0.11926  Biso   1.000  H
  H375     1.0000 0.44302  0.70812  0.11934  Biso   1.000  H
  O82      1.0000 0.26046  0.84647  0.98867  Biso   1.000  O
  C268     1.0000 0.54627  0.83043  0.21791  Biso   1.000  C
  H376     1.0000 0.38080  0.75838  0.25493  Biso   1.000  H
  O83      1.0000 0.61631  0.85537  0.25251  Biso   1.000  O
  O84      1.0000 0.61638  0.85537  0.25251  Biso   1.000  O
  O85      1.0000 0.38367  0.14463  0.74747  Biso   1.000  O
  C269     1.0000 0.45371  0.16957  0.78207  Biso   1.000  C
  N201     1.0000 0.53121  0.16094  0.74060  Biso   1.000  N
  N202     1.0000 0.53128  0.16094  0.74060  Biso   1.000  N
  N203     1.0000 0.46789  0.21152  0.86869  Biso   1.000  N
  C270     1.0000 0.53608  0.13052  0.63828  Biso   1.000  C
  C271     1.0000 0.59987  0.20498  0.79231  Biso   1.000  C
  C272     1.0000 0.55608  0.23936  0.88400  Biso   1.000  C
  C273     1.0000 0.39699  0.24173  0.92118  Biso   1.000  C
  H377     1.0000 0.57047  0.16201  0.59868  Biso   1.000  H
  H378     1.0000 0.47766  0.12810  0.60212  Biso   1.000  H
  N204     1.0000 0.57461  0.05885  0.64133  Biso   1.000  N
  H379     1.0000 0.47773  0.12810  0.60212  Biso   1.000  H
  N205     1.0000 0.57468  0.05885  0.64133  Biso   1.000  N
  H380     1.0000 0.61918  0.24162  0.74505  Biso   1.000  H
  N206     1.0000 0.67293  0.16651  0.84456  Biso   1.000  N
  H381     1.0000 0.61919  0.24162  0.74513  Biso   1.000  H
  N207     1.0000 0.67294  0.16651  0.84464  Biso   1.000  N
  H382     1.0000 0.55696  0.29188  0.88072  Biso   1.000  H
  N208     1.0000 0.60891  0.21270  0.97515  Biso   1.000  N
  H383     1.0000 0.55703  0.29188  0.88072  Biso   1.000  H
  N209     1.0000 0.60899  0.21270  0.97523  Biso   1.000  N
  H384     1.0000 0.34231  0.23287  0.87861  Biso   1.000  H
  H385     1.0000 0.40486  0.29322  0.92657  Biso   1.000  H
  H386     1.0000 0.40492  0.29322  0.92657  Biso   1.000  H
  N210     1.0000 0.39106  0.21270  0.02483  Biso   1.000  N
  C274     1.0000 0.52351  0.00000  0.63336  Biso   1.000  C
  C275     1.0000 0.66809  0.04276  0.64937  Biso   1.000  C
  C276     1.0000 0.73790  0.13079  0.78957  Biso   1.000  C
  C277     1.0000 0.67977  0.17462  0.95071  Biso   1.000  C
  C278     1.0000 0.67983  0.17462  0.95071  Biso   1.000  C
  C279     1.0000 0.60299  0.24173  0.07880  Biso   1.000  C
  C280     1.0000 0.44390  0.23936  0.11598  Biso   1.000  C
  C281     1.0000 0.32021  0.17462  0.04928  Biso   1.000  C
  O86      1.0000 0.44361  0.00000  0.62079  Biso   1.000  O
  N211     1.0000 0.57461  0.94115  0.64133  Biso   1.000  N
  N212     1.0000 0.57468  0.94115  0.64133  Biso   1.000  N
  C282     1.0000 0.71097  0.07779  0.56057  Biso   1.000  C
  N213     1.0000 0.71344  0.05928  0.75161  Biso   1.000  N
  C283     1.0000 0.66809  0.95724  0.64937  Biso   1.000  C
  H387     1.0000 0.79160  0.12730  0.83581  Biso   1.000  H
  H388     1.0000 0.74969  0.16029  0.73053  Biso   1.000  H
  O87      1.0000 0.73952  0.15353  0.01132  Biso   1.000  O
  H389     1.0000 0.59512  0.29322  0.07341  Biso   1.000  H
  H390     1.0000 0.65767  0.23287  0.12137  Biso   1.000  H
  N214     1.0000 0.53209  0.21152  0.13129  Biso   1.000  N
  C284     1.0000 0.40011  0.20498  0.20767  Biso   1.000  C
  H391     1.0000 0.44302  0.29188  0.11926  Biso   1.000  H
  H392     1.0000 0.44302  0.29188  0.11934  Biso   1.000  H
  O88      1.0000 0.26046  0.15353  0.98867  Biso   1.000  O
  N215     1.0000 0.32704  0.16651  0.15542  Biso   1.000  N
  N216     1.0000 0.32711  0.16651  0.15542  Biso   1.000  N
  C285     1.0000 0.53608  0.86948  0.63828  Biso   1.000  C
  H393     1.0000 0.71079  0.12891  0.56908  Biso   1.000  H
  H394     1.0000 0.67918  0.06529  0.49496  Biso   1.000  H
  H395     1.0000 0.77019  0.06110  0.56166  Biso   1.000  H
  H396     1.0000 0.67918  0.06529  0.49504  Biso   1.000  H
  H397     1.0000 0.77019  0.06110  0.56174  Biso   1.000  H
  C286     1.0000 0.74281  0.00000  0.80582  Biso   1.000  C
  C287     1.0000 0.71097  0.92221  0.56057  Biso   1.000  C
  N217     1.0000 0.71344  0.94072  0.75161  Biso   1.000  N
  C288     1.0000 0.54627  0.16957  0.21791  Biso   1.000  C
  H398     1.0000 0.38080  0.24162  0.25493  Biso   1.000  H
  N218     1.0000 0.46877  0.16094  0.25938  Biso   1.000  N
  C289     1.0000 0.26208  0.13079  0.21041  Biso   1.000  C
  H399     1.0000 0.57047  0.83799  0.59868  Biso   1.000  H
  H400     1.0000 0.47766  0.87190  0.60212  Biso   1.000  H
  N219     1.0000 0.53121  0.83906  0.74060  Biso   1.000  N
  H401     1.0000 0.47773  0.87190  0.60212  Biso   1.000  H
  N220     1.0000 0.53128  0.83906  0.74060  Biso   1.000  N
  O89      1.0000 0.78660  0.00000  0.89002  Biso   1.000  O
  H402     1.0000 0.67918  0.93471  0.49496  Biso   1.000  H
  H403     1.0000 0.77019  0.93890  0.56166  Biso   1.000  H
  H404     1.0000 0.71079  0.87109  0.56908  Biso   1.000  H
  H405     1.0000 0.67918  0.93471  0.49504  Biso   1.000  H
  H406     1.0000 0.77019  0.93890  0.56174  Biso   1.000  H
  C290     1.0000 0.73790  0.86921  0.78957  Biso   1.000  C
  O90      1.0000 0.61631  0.14463  0.25251  Biso   1.000  O
  O91      1.0000 0.61638  0.14463  0.25251  Biso   1.000  O
  C291     1.0000 0.46390  0.13052  0.36170  Biso   1.000  C
  H407     1.0000 0.20838  0.12730  0.16417  Biso   1.000  H
  H408     1.0000 0.25029  0.16029  0.26946  Biso   1.000  H
  N221     1.0000 0.28654  0.05928  0.24837  Biso   1.000  N
  H409     1.0000 0.25029  0.16029  0.26953  Biso   1.000  H
  C292     1.0000 0.45371  0.83043  0.78207  Biso   1.000  C
  C293     1.0000 0.59987  0.79502  0.79231  Biso   1.000  C
  H410     1.0000 0.79160  0.87270  0.83581  Biso   1.000  H
  H411     1.0000 0.74969  0.83971  0.73053  Biso   1.000  H
  N222     1.0000 0.67293  0.83349  0.84456  Biso   1.000  N
  N223     1.0000 0.67294  0.83349  0.84464  Biso   1.000  N
  H412     1.0000 0.42951  0.16201  0.40130  Biso   1.000  H
  H413     1.0000 0.52231  0.12810  0.39786  Biso   1.000  H
  N224     1.0000 0.42537  0.05885  0.35865  Biso   1.000  N
  N225     1.0000 0.42537  0.05885  0.35873  Biso   1.000  N
  C294     1.0000 0.33189  0.04276  0.35061  Biso   1.000  C
  C295     1.0000 0.25717  0.00000  0.19416  Biso   1.000  C
  N226     1.0000 0.46789  0.78848  0.86869  Biso   1.000  N
  O92      1.0000 0.38367  0.85537  0.74747  Biso   1.000  O
  H414     1.0000 0.61918  0.75838  0.74505  Biso   1.000  H
  C296     1.0000 0.55608  0.76064  0.88400  Biso   1.000  C
  H415     1.0000 0.61919  0.75838  0.74513  Biso   1.000  H
  C297     1.0000 0.67977  0.82538  0.95071  Biso   1.000  C
  C298     1.0000 0.67983  0.82538  0.95071  Biso   1.000  C
  C299     1.0000 0.47647  0.00000  0.36662  Biso   1.000  C
  C300     1.0000 0.33189  0.95724  0.35061  Biso   1.000  C
  C301     1.0000 0.28901  0.07779  0.43941  Biso   1.000  C
  N227     1.0000 0.28654  0.94072  0.24837  Biso   1.000  N
  O93      1.0000 0.21338  0.00000  0.10996  Biso   1.000  O
  C302     1.0000 0.39699  0.75827  0.92118  Biso   1.000  C
  H416     1.0000 0.55696  0.70812  0.88072  Biso   1.000  H
  N228     1.0000 0.60891  0.78730  0.97515  Biso   1.000  N
  H417     1.0000 0.55703  0.70812  0.88072  Biso   1.000  H
  N229     1.0000 0.60899  0.78730  0.97523  Biso   1.000  N
  O94      1.0000 0.73952  0.84647  0.01132  Biso   1.000  O
  N230     1.0000 0.42537  0.94115  0.35865  Biso   1.000  N
  N231     1.0000 0.42537  0.94115  0.35873  Biso   1.000  N
  O95      1.0000 0.55637  0.00000  0.37920  Biso   1.000  O
  C303     1.0000 0.28901  0.92221  0.43941  Biso   1.000  C
  H418     1.0000 0.32080  0.06529  0.50502  Biso   1.000  H
  H419     1.0000 0.22979  0.06110  0.43832  Biso   1.000  H
  H420     1.0000 0.28919  0.12891  0.43090  Biso   1.000  H
  C304     1.0000 0.26208  0.86921  0.21041  Biso   1.000  C
  H421     1.0000 0.40486  0.70678  0.92657  Biso   1.000  H
  H422     1.0000 0.34231  0.76713  0.87861  Biso   1.000  H
  H423     1.0000 0.40492  0.70678  0.92657  Biso   1.000  H
  N232     1.0000 0.39106  0.78730  0.02483  Biso   1.000  N
  C305     1.0000 0.60299  0.75827  0.07880  Biso   1.000  C
  C306     1.0000 0.46390  0.86948  0.36170  Biso   1.000  C
  H424     1.0000 0.32080  0.93471  0.50502  Biso   1.000  H
  H425     1.0000 0.22979  0.93890  0.43832  Biso   1.000  H
  H426     1.0000 0.28919  0.87109  0.43090  Biso   1.000  H
  N233     1.0000 0.32704  0.83349  0.15542  Biso   1.000  N
  N234     1.0000 0.32711  0.83349  0.15542  Biso   1.000  N
  H427     1.0000 0.20838  0.87270  0.16417  Biso   1.000  H
  H428     1.0000 0.25029  0.83971  0.26946  Biso   1.000  H
  H429     1.0000 0.25029  0.83971  0.26953  Biso   1.000  H
  C307     1.0000 0.44390  0.76064  0.11598  Biso   1.000  C
  C308     1.0000 0.32021  0.82538  0.04928  Biso   1.000  C
  H430     1.0000 0.59512  0.70678  0.07341  Biso   1.000  H
  H431     1.0000 0.65767  0.76713  0.12137  Biso   1.000  H
  N235     1.0000 0.53209  0.78848  0.13129  Biso   1.000  N
  N236     1.0000 0.46877  0.83906  0.25938  Biso   1.000  N
  H432     1.0000 0.42951  0.83799  0.40130  Biso   1.000  H
  H433     1.0000 0.52231  0.87190  0.39786  Biso   1.000  H
  C309     1.0000 0.40011  0.79502  0.20767  Biso   1.000  C
  H434     1.0000 0.44302  0.70812  0.11926  Biso   1.000  H
  H435     1.0000 0.44302  0.70812  0.11934  Biso   1.000  H
  O96      1.0000 0.26046  0.84647  0.98867  Biso   1.000  O
  C310     1.0000 0.54627  0.83043  0.21791  Biso   1.000  C
  H436     1.0000 0.38080  0.75838  0.25493  Biso   1.000  H
  O97      1.0000 0.61631  0.85537  0.25251  Biso   1.000  O
  O98      1.0000 0.61638  0.85537  0.25251  Biso   1.000  O
  O99      1.0000 0.38367  0.14463  0.74747  Biso   1.000  O
  C311     1.0000 0.45371  0.16957  0.78207  Biso   1.000  C
  N237     1.0000 0.53121  0.16094  0.74060  Biso   1.000  N
  N238     1.0000 0.53128  0.16094  0.74060  Biso   1.000  N
  N239     1.0000 0.46789  0.21152  0.86869  Biso   1.000  N
  C312     1.0000 0.53608  0.13052  0.63828  Biso   1.000  C
  C313     1.0000 0.59987  0.20498  0.79231  Biso   1.000  C
  C314     1.0000 0.55608  0.23936  0.88400  Biso   1.000  C
  C315     1.0000 0.39699  0.24173  0.92118  Biso   1.000  C
  H437     1.0000 0.57047  0.16201  0.59868  Biso   1.000  H
  H438     1.0000 0.47766  0.12810  0.60212  Biso   1.000  H
  N240     1.0000 0.57461  0.05885  0.64133  Biso   1.000  N
  H439     1.0000 0.47773  0.12810  0.60212  Biso   1.000  H
  N241     1.0000 0.57468  0.05885  0.64133  Biso   1.000  N
  H440     1.0000 0.61918  0.24162  0.74505  Biso   1.000  H
  N242     1.0000 0.67293  0.16651  0.84456  Biso   1.000  N
  H441     1.0000 0.61919  0.24162  0.74513  Biso   1.000  H
  N243     1.0000 0.67294  0.16651  0.84464  Biso   1.000  N
  H442     1.0000 0.55696  0.29188  0.88072  Biso   1.000  H
  N244     1.0000 0.60891  0.21270  0.97515  Biso   1.000  N
  H443     1.0000 0.55703  0.29188  0.88072  Biso   1.000  H
  N245     1.0000 0.60899  0.21270  0.97523  Biso   1.000  N
  H444     1.0000 0.34231  0.23287  0.87861  Biso   1.000  H
  H445     1.0000 0.40486  0.29322  0.92657  Biso   1.000  H
  H446     1.0000 0.40492  0.29322  0.92657  Biso   1.000  H
  N246     1.0000 0.39106  0.21270  0.02483  Biso   1.000  N
  C316     1.0000 0.52351  0.00000  0.63336  Biso   1.000  C
  C317     1.0000 0.66809  0.04276  0.64937  Biso   1.000  C
  C318     1.0000 0.73790  0.13079  0.78957  Biso   1.000  C
  C319     1.0000 0.67977  0.17462  0.95071  Biso   1.000  C
  C320     1.0000 0.67983  0.17462  0.95071  Biso   1.000  C
  C321     1.0000 0.60299  0.24173  0.07880  Biso   1.000  C
  C322     1.0000 0.44390  0.23936  0.11598  Biso   1.000  C
  C323     1.0000 0.32021  0.17462  0.04928  Biso   1.000  C
  O100     1.0000 0.44361  0.00000  0.62079  Biso   1.000  O
  N247     1.0000 0.57461  0.94115  0.64133  Biso   1.000  N
  N248     1.0000 0.57468  0.94115  0.64133  Biso   1.000  N
  C324     1.0000 0.71097  0.07779  0.56057  Biso   1.000  C
  N249     1.0000 0.71344  0.05928  0.75161  Biso   1.000  N
  C325     1.0000 0.66809  0.95724  0.64937  Biso   1.000  C
  H447     1.0000 0.79160  0.12730  0.83581  Biso   1.000  H
  H448     1.0000 0.74969  0.16029  0.73053  Biso   1.000  H
  O101     1.0000 0.73952  0.15353  0.01132  Biso   1.000  O
  H449     1.0000 0.59512  0.29322  0.07341  Biso   1.000  H
  H450     1.0000 0.65767  0.23287  0.12137  Biso   1.000  H
  N250     1.0000 0.53209  0.21152  0.13129  Biso   1.000  N
  C326     1.0000 0.40011  0.20498  0.20767  Biso   1.000  C
  H451     1.0000 0.44302  0.29188  0.11926  Biso   1.000  H
  H452     1.0000 0.44302  0.29188  0.11934  Biso   1.000  H
  O102     1.0000 0.26046  0.15353  0.98867  Biso   1.000  O
  N251     1.0000 0.32704  0.16651  0.15542  Biso   1.000  N
  N252     1.0000 0.32711  0.16651  0.15542  Biso   1.000  N
  C327     1.0000 0.53608  0.86948  0.63828  Biso   1.000  C
  H453     1.0000 0.71079  0.12891  0.56908  Biso   1.000  H
  H454     1.0000 0.67918  0.06529  0.49496  Biso   1.000  H
  H455     1.0000 0.77019  0.06110  0.56166  Biso   1.000  H
  H456     1.0000 0.67918  0.06529  0.49504  Biso   1.000  H
  H457     1.0000 0.77019  0.06110  0.56174  Biso   1.000  H
  C328     1.0000 0.74281  0.00000  0.80582  Biso   1.000  C
  C329     1.0000 0.71097  0.92221  0.56057  Biso   1.000  C
  N253     1.0000 0.71344  0.94072  0.75161  Biso   1.000  N
  C330     1.0000 0.54627  0.16957  0.21791  Biso   1.000  C
  H458     1.0000 0.38080  0.24162  0.25493  Biso   1.000  H
  N254     1.0000 0.46877  0.16094  0.25938  Biso   1.000  N
  C331     1.0000 0.26208  0.13079  0.21041  Biso   1.000  C
  H459     1.0000 0.57047  0.83799  0.59868  Biso   1.000  H
  H460     1.0000 0.47766  0.87190  0.60212  Biso   1.000  H
  N255     1.0000 0.53121  0.83906  0.74060  Biso   1.000  N
  H461     1.0000 0.47773  0.87190  0.60212  Biso   1.000  H
  N256     1.0000 0.53128  0.83906  0.74060  Biso   1.000  N
  O103     1.0000 0.78660  0.00000  0.89002  Biso   1.000  O
  H462     1.0000 0.67918  0.93471  0.49496  Biso   1.000  H
  H463     1.0000 0.77019  0.93890  0.56166  Biso   1.000  H
  H464     1.0000 0.71079  0.87109  0.56908  Biso   1.000  H
  H465     1.0000 0.67918  0.93471  0.49504  Biso   1.000  H
  H466     1.0000 0.77019  0.93890  0.56174  Biso   1.000  H
  C332     1.0000 0.73790  0.86921  0.78957  Biso   1.000  C
  O104     1.0000 0.61631  0.14463  0.25251  Biso   1.000  O
  O105     1.0000 0.61638  0.14463  0.25251  Biso   1.000  O
  C333     1.0000 0.46390  0.13052  0.36170  Biso   1.000  C
  H467     1.0000 0.20838  0.12730  0.16417  Biso   1.000  H
  H468     1.0000 0.25029  0.16029  0.26946  Biso   1.000  H
  N257     1.0000 0.28654  0.05928  0.24837  Biso   1.000  N
  H469     1.0000 0.25029  0.16029  0.26953  Biso   1.000  H
  C334     1.0000 0.45371  0.83043  0.78207  Biso   1.000  C
  C335     1.0000 0.59987  0.79502  0.79231  Biso   1.000  C
  H470     1.0000 0.79160  0.87270  0.83581  Biso   1.000  H
  H471     1.0000 0.74969  0.83971  0.73053  Biso   1.000  H
  N258     1.0000 0.67293  0.83349  0.84456  Biso   1.000  N
  N259     1.0000 0.67294  0.83349  0.84464  Biso   1.000  N
  H472     1.0000 0.42951  0.16201  0.40130  Biso   1.000  H
  H473     1.0000 0.52231  0.12810  0.39786  Biso   1.000  H
  N260     1.0000 0.42537  0.05885  0.35865  Biso   1.000  N
  N261     1.0000 0.42537  0.05885  0.35873  Biso   1.000  N
  C336     1.0000 0.33189  0.04276  0.35061  Biso   1.000  C
  C337     1.0000 0.25717  0.00000  0.19416  Biso   1.000  C
  N262     1.0000 0.46789  0.78848  0.86869  Biso   1.000  N
  O106     1.0000 0.38367  0.85537  0.74747  Biso   1.000  O
  H474     1.0000 0.61918  0.75838  0.74505  Biso   1.000  H
  C338     1.0000 0.55608  0.76064  0.88400  Biso   1.000  C
  H475     1.0000 0.61919  0.75838  0.74513  Biso   1.000  H
  C339     1.0000 0.67977  0.82538  0.95071  Biso   1.000  C
  C340     1.0000 0.67983  0.82538  0.95071  Biso   1.000  C
  C341     1.0000 0.47647  0.00000  0.36662  Biso   1.000  C
  C342     1.0000 0.33189  0.95724  0.35061  Biso   1.000  C
  C343     1.0000 0.28901  0.07779  0.43941  Biso   1.000  C
  N263     1.0000 0.28654  0.94072  0.24837  Biso   1.000  N
  O107     1.0000 0.21338  0.00000  0.10996  Biso   1.000  O
  C344     1.0000 0.39699  0.75827  0.92118  Biso   1.000  C
  H476     1.0000 0.55696  0.70812  0.88072  Biso   1.000  H
  N264     1.0000 0.60891  0.78730  0.97515  Biso   1.000  N
  H477     1.0000 0.55703  0.70812  0.88072  Biso   1.000  H
  N265     1.0000 0.60899  0.78730  0.97523  Biso   1.000  N
  O108     1.0000 0.73952  0.84647  0.01132  Biso   1.000  O
  N266     1.0000 0.42537  0.94115  0.35865  Biso   1.000  N
  N267     1.0000 0.42537  0.94115  0.35873  Biso   1.000  N
  O109     1.0000 0.55637  0.00000  0.37920  Biso   1.000  O
  C345     1.0000 0.28901  0.92221  0.43941  Biso   1.000  C
  H478     1.0000 0.32080  0.06529  0.50502  Biso   1.000  H
  H479     1.0000 0.22979  0.06110  0.43832  Biso   1.000  H
  H480     1.0000 0.28919  0.12891  0.43090  Biso   1.000  H
  C346     1.0000 0.26208  0.86921  0.21041  Biso   1.000  C
  H481     1.0000 0.40486  0.70678  0.92657  Biso   1.000  H
  H482     1.0000 0.34231  0.76713  0.87861  Biso   1.000  H
  H483     1.0000 0.40492  0.70678  0.92657  Biso   1.000  H
  N268     1.0000 0.39106  0.78730  0.02483  Biso   1.000  N
  C347     1.0000 0.60299  0.75827  0.07880  Biso   1.000  C
  C348     1.0000 0.46390  0.86948  0.36170  Biso   1.000  C
  H484     1.0000 0.32080  0.93471  0.50502  Biso   1.000  H
  H485     1.0000 0.22979  0.93890  0.43832  Biso   1.000  H
  H486     1.0000 0.28919  0.87109  0.43090  Biso   1.000  H
  N269     1.0000 0.32704  0.83349  0.15542  Biso   1.000  N
  N270     1.0000 0.32711  0.83349  0.15542  Biso   1.000  N
  H487     1.0000 0.20838  0.87270  0.16417  Biso   1.000  H
  H488     1.0000 0.25029  0.83971  0.26946  Biso   1.000  H
  H489     1.0000 0.25029  0.83971  0.26953  Biso   1.000  H
  C349     1.0000 0.44390  0.76064  0.11598  Biso   1.000  C
  C350     1.0000 0.32021  0.82538  0.04928  Biso   1.000  C
  H490     1.0000 0.59512  0.70678  0.07341  Biso   1.000  H
  H491     1.0000 0.65767  0.76713  0.12137  Biso   1.000  H
  N271     1.0000 0.53209  0.78848  0.13129  Biso   1.000  N
  N272     1.0000 0.46877  0.83906  0.25938  Biso   1.000  N
  H492     1.0000 0.42951  0.83799  0.40130  Biso   1.000  H
  H493     1.0000 0.52231  0.87190  0.39786  Biso   1.000  H
  C351     1.0000 0.40011  0.79502  0.20767  Biso   1.000  C
  H494     1.0000 0.44302  0.70812  0.11926  Biso   1.000  H
  H495     1.0000 0.44302  0.70812  0.11934  Biso   1.000  H
  O110     1.0000 0.26046  0.84647  0.98867  Biso   1.000  O
  C352     1.0000 0.54627  0.83043  0.21791  Biso   1.000  C
  H496     1.0000 0.38080  0.75838  0.25493  Biso   1.000  H
  O111     1.0000 0.61631  0.85537  0.25251  Biso   1.000  O
  O112     1.0000 0.61638  0.85537  0.25251  Biso   1.000  O
