data_image0
_cell_length_a       22.281
_cell_length_b       22.308
_cell_length_c       23.407
_cell_angle_alpha    89.9
_cell_angle_beta     74.78
_cell_angle_gamma    88.91

_symmetry_space_group_name_H-M    "P 1"
_symmetry_int_tables_number       1

loop_
  _symmetry_equiv_pos_as_xyz
  'x, y, z'

loop_
  _atom_site_label
  _atom_site_occupancy
  _atom_site_fract_x
  _atom_site_fract_y
  _atom_site_fract_z
  _atom_site_thermal_displace_type
  _atom_site_B_iso_or_equiv
  _atom_site_type_symbol
  C1       1.0000 0.56727  0.54962  0.56101  Biso   1.000  C
  H1       1.0000 0.55979  0.52172  0.53263  Biso   1.000  H
  H2       1.0000 0.54231  0.58522  0.56150  Biso   1.000  H
  H3       1.0000 0.55678  0.53173  0.59962  Biso   1.000  H
  O1       1.0000 0.63028  0.56463  0.54552  Biso   1.000  O
  C2       1.0000 0.64938  0.60524  0.58151  Biso   1.000  C
  C3       1.0000 0.71098  0.62356  0.56274  Biso   1.000  C
  C4       1.0000 0.61049  0.62604  0.63482  Biso   1.000  C
  C5       1.0000 0.73150  0.66434  0.59732  Biso   1.000  C
  C6       1.0000 0.75420  0.59982  0.50580  Biso   1.000  C
  C7       1.0000 0.63170  0.66683  0.66984  Biso   1.000  C
  H4       1.0000 0.56990  0.61246  0.64722  Biso   1.000  H
  C8       1.0000 0.69239  0.68595  0.65041  Biso   1.000  C
  H5       1.0000 0.77221  0.67775  0.58501  Biso   1.000  H
  H6       1.0000 0.78531  0.62972  0.49022  Biso   1.000  H
  H7       1.0000 0.73038  0.59435  0.47702  Biso   1.000  H
  C9       1.0000 0.78708  0.54093  0.51253  Biso   1.000  C
  C10      1.0000 0.58867  0.68456  0.72975  Biso   1.000  C
  O2       1.0000 0.70990  0.72795  0.68654  Biso   1.000  O
  C11      1.0000 0.84699  0.53904  0.52263  Biso   1.000  C
  C12      1.0000 0.75900  0.48622  0.50811  Biso   1.000  C
  C13      1.0000 0.59728  0.64034  0.77695  Biso   1.000  C
  H8       1.0000 0.59807  0.72477  0.74024  Biso   1.000  H
  H9       1.0000 0.54577  0.68456  0.72762  Biso   1.000  H
  C14      1.0000 0.77237  0.74525  0.67024  Biso   1.000  C
  C15      1.0000 0.87701  0.48485  0.52590  Biso   1.000  C
  O3       1.0000 0.87040  0.59355  0.53210  Biso   1.000  O
  H10      1.0000 0.71969  0.48624  0.50142  Biso   1.000  H
  C16      1.0000 0.78869  0.43194  0.51342  Biso   1.000  C
  C17      1.0000 0.64677  0.64446  0.80143  Biso   1.000  C
  C18      1.0000 0.55574  0.59287  0.79412  Biso   1.000  C
  H11      1.0000 0.77917  0.77377  0.69845  Biso   1.000  H
  H12      1.0000 0.78178  0.76305  0.63163  Biso   1.000  H
  H13      1.0000 0.79890  0.71063  0.66953  Biso   1.000  H
  H14      1.0000 0.91690  0.48455  0.53131  Biso   1.000  H
  C19      1.0000 0.84869  0.43134  0.52130  Biso   1.000  C
  C20      1.0000 0.93340  0.59374  0.53671  Biso   1.000  C
  O4       1.0000 0.76268  0.37701  0.51160  Biso   1.000  O
  C21      1.0000 0.65777  0.60303  0.84203  Biso   1.000  C
  H15      1.0000 0.67375  0.67616  0.79045  Biso   1.000  H
  C22      1.0000 0.56724  0.55015  0.83464  Biso   1.000  C
  O5       1.0000 0.50654  0.58875  0.76955  Biso   1.000  O
  C23      1.0000 0.88108  0.37201  0.53082  Biso   1.000  C
  H16      1.0000 0.94459  0.63394  0.54330  Biso   1.000  H
  H17      1.0000 0.96072  0.57842  0.50071  Biso   1.000  H
  H18      1.0000 0.93689  0.56884  0.56921  Biso   1.000  H
  C24      1.0000 0.69858  0.37732  0.50983  Biso   1.000  C
  C25      1.0000 0.61805  0.55386  0.85846  Biso   1.000  C
  O6       1.0000 0.70604  0.60554  0.86669  Biso   1.000  O
  H19      1.0000 0.54018  0.51858  0.84562  Biso   1.000  H
  C26      1.0000 0.45135  0.56376  0.80395  Biso   1.000  C
  C27      1.0000 0.86519  0.35704  0.59612  Biso   1.000  C
  H20      1.0000 0.86767  0.34015  0.50921  Biso   1.000  H
  H21      1.0000 0.92579  0.37564  0.51572  Biso   1.000  H
  H22      1.0000 0.68518  0.33683  0.50881  Biso   1.000  H
  H23      1.0000 0.69447  0.39823  0.47512  Biso   1.000  H
  H24      1.0000 0.67349  0.39726  0.54441  Biso   1.000  H
  C28      1.0000 0.62945  0.50747  0.90185  Biso   1.000  C
  C29      1.0000 0.74865  0.65175  0.84894  Biso   1.000  C
  H25      1.0000 0.44957  0.54887  0.84154  Biso   1.000  H
  C30      1.0000 0.40185  0.56145  0.78244  Biso   1.000  C
  C31      1.0000 0.81246  0.32453  0.62163  Biso   1.000  C
  C32      1.0000 0.89989  0.37765  0.63261  Biso   1.000  C
  C33      1.0000 0.67554  0.45846  0.87271  Biso   1.000  C
  H26      1.0000 0.59025  0.48938  0.92155  Biso   1.000  H
  H27      1.0000 0.64493  0.52734  0.93173  Biso   1.000  H
  H28      1.0000 0.78039  0.64837  0.86984  Biso   1.000  H
  H29      1.0000 0.72746  0.68984  0.85775  Biso   1.000  H
  H30      1.0000 0.76746  0.64874  0.80714  Biso   1.000  H
  H31      1.0000 0.40328  0.57674  0.74511  Biso   1.000  H
  C34      1.0000 0.34456  0.53427  0.81892  Biso   1.000  C
  H32      1.0000 0.78858  0.30952  0.59794  Biso   1.000  H
  C35      1.0000 0.79496  0.31384  0.68224  Biso   1.000  C
  C36      1.0000 0.88368  0.36606  0.69282  Biso   1.000  C
  O7       1.0000 0.95208  0.41033  0.60480  Biso   1.000  O
  C37      1.0000 0.73885  0.46846  0.86134  Biso   1.000  C
  C38      1.0000 0.65676  0.40384  0.85704  Biso   1.000  C
  H33      1.0000 0.33864  0.53185  0.85974  Biso   1.000  H
  C39      1.0000 0.29816  0.51176  0.79342  Biso   1.000  C
  C40      1.0000 0.83037  0.33333  0.71881  Biso   1.000  C
  O8       1.0000 0.74104  0.28417  0.71022  Biso   1.000  O
  H34      1.0000 0.90828  0.38013  0.71624  Biso   1.000  H
  C41      1.0000 0.98407  0.43942  0.64191  Biso   1.000  C
  C42      1.0000 0.78284  0.42537  0.83402  Biso   1.000  C
  H35      1.0000 0.75214  0.50495  0.87214  Biso   1.000  H
  C43      1.0000 0.70034  0.35914  0.83065  Biso   1.000  C
  O9       1.0000 0.59305  0.39514  0.86944  Biso   1.000  O
  H36      1.0000 0.30354  0.51333  0.75264  Biso   1.000  H
  C44      1.0000 0.24186  0.48584  0.83171  Biso   1.000  C
  C45      1.0000 0.81154  0.32406  0.78514  Biso   1.000  C
  C46      1.0000 0.69846  0.27186  0.67671  Biso   1.000  C
  H37      1.0000 0.99839  0.41013  0.66573  Biso   1.000  H
  H38      1.0000 0.95648  0.46766  0.66723  Biso   1.000  H
  H39      1.0000 0.01908  0.46023  0.61782  Biso   1.000  H
  C47      1.0000 0.76385  0.36954  0.81755  Biso   1.000  C
  O10      1.0000 0.84644  0.43277  0.82162  Biso   1.000  O
  H40      1.0000 0.68666  0.32207  0.82162  Biso   1.000  H
  C48      1.0000 0.57414  0.33744  0.85801  Biso   1.000  C
  H41      1.0000 0.23224  0.49087  0.87263  Biso   1.000  H
  C49      1.0000 0.20255  0.45325  0.80533  Biso   1.000  C
  H42      1.0000 0.79485  0.28427  0.79355  Biso   1.000  H
  H43      1.0000 0.84835  0.32626  0.79992  Biso   1.000  H
  H44      1.0000 0.66365  0.25105  0.70101  Biso   1.000  H
  H45      1.0000 0.71848  0.24744  0.64323  Biso   1.000  H
  H46      1.0000 0.68416  0.30884  0.66334  Biso   1.000  H
  C50      1.0000 0.86728  0.48887  0.83672  Biso   1.000  C
  H47      1.0000 0.52953  0.33644  0.86815  Biso   1.000  H
  H48      1.0000 0.58943  0.30856  0.88152  Biso   1.000  H
  H49      1.0000 0.59057  0.32797  0.81684  Biso   1.000  H
  H50      1.0000 0.21105  0.44997  0.76433  Biso   1.000  H
  O11      1.0000 0.14973  0.42576  0.84252  Biso   1.000  O
  H51      1.0000 0.91198  0.48887  0.82583  Biso   1.000  H
  H52      1.0000 0.85194  0.49546  0.87856  Biso   1.000  H
  H53      1.0000 0.85207  0.52036  0.81582  Biso   1.000  H
  C51      1.0000 0.43270  0.45043  0.43904  Biso   1.000  C
  O12      1.0000 0.36971  0.43542  0.45449  Biso   1.000  O
  H54      1.0000 0.44019  0.47833  0.46742  Biso   1.000  H
  H55      1.0000 0.45767  0.41483  0.43850  Biso   1.000  H
  H56      1.0000 0.44319  0.46832  0.40043  Biso   1.000  H
  C52      1.0000 0.35059  0.39481  0.41854  Biso   1.000  C
  C53      1.0000 0.38948  0.37400  0.36523  Biso   1.000  C
  C54      1.0000 0.28899  0.37654  0.43731  Biso   1.000  C
  C55      1.0000 0.36827  0.33322  0.33021  Biso   1.000  C
  H57      1.0000 0.43007  0.38764  0.35283  Biso   1.000  H
  C56      1.0000 0.26847  0.33571  0.40273  Biso   1.000  C
  C57      1.0000 0.24578  0.40022  0.49420  Biso   1.000  C
  C58      1.0000 0.30759  0.31414  0.34960  Biso   1.000  C
  C59      1.0000 0.41130  0.31553  0.27030  Biso   1.000  C
  H58      1.0000 0.22776  0.32234  0.41504  Biso   1.000  H
  H59      1.0000 0.21467  0.37033  0.50983  Biso   1.000  H
  H60      1.0000 0.26960  0.40575  0.52303  Biso   1.000  H
  C60      1.0000 0.21289  0.45911  0.48752  Biso   1.000  C
  O13      1.0000 0.29007  0.27214  0.31351  Biso   1.000  O
  C61      1.0000 0.40269  0.35971  0.22310  Biso   1.000  C
  H61      1.0000 0.40190  0.27532  0.25981  Biso   1.000  H
  H62      1.0000 0.45420  0.31554  0.27243  Biso   1.000  H
  C62      1.0000 0.15298  0.46105  0.47742  Biso   1.000  C
  C63      1.0000 0.24098  0.51383  0.49190  Biso   1.000  C
  C64      1.0000 0.22760  0.25480  0.32981  Biso   1.000  C
  C65      1.0000 0.35320  0.35564  0.19862  Biso   1.000  C
  C66      1.0000 0.44423  0.40722  0.20593  Biso   1.000  C
  C67      1.0000 0.12298  0.51525  0.47410  Biso   1.000  C
  O14      1.0000 0.12958  0.40655  0.46790  Biso   1.000  O
  H63      1.0000 0.28028  0.51385  0.49863  Biso   1.000  H
  C68      1.0000 0.21128  0.56815  0.48663  Biso   1.000  C
  H64      1.0000 0.22080  0.22632  0.30160  Biso   1.000  H
  H65      1.0000 0.21819  0.23704  0.36842  Biso   1.000  H
  H66      1.0000 0.20108  0.28942  0.33052  Biso   1.000  H
  C69      1.0000 0.34220  0.39702  0.15802  Biso   1.000  C
  H67      1.0000 0.32622  0.32393  0.20960  Biso   1.000  H
  C70      1.0000 0.43273  0.44990  0.16541  Biso   1.000  C
  O15      1.0000 0.49343  0.41130  0.23050  Biso   1.000  O
  H68      1.0000 0.08308  0.51554  0.46870  Biso   1.000  H
  C71      1.0000 0.15130  0.56875  0.47871  Biso   1.000  C
  C72      1.0000 0.06659  0.40635  0.46330  Biso   1.000  C
  O16      1.0000 0.23731  0.62303  0.48840  Biso   1.000  O
  C73      1.0000 0.38192  0.44623  0.14159  Biso   1.000  C
  O17      1.0000 0.29393  0.39451  0.13336  Biso   1.000  O
  H69      1.0000 0.45981  0.48152  0.15439  Biso   1.000  H
  C74      1.0000 0.54862  0.43633  0.19610  Biso   1.000  C
  C75      1.0000 0.11889  0.62804  0.46923  Biso   1.000  C
  H70      1.0000 0.05539  0.36611  0.45670  Biso   1.000  H
  H71      1.0000 0.03926  0.42163  0.49934  Biso   1.000  H
  H72      1.0000 0.06309  0.43121  0.43080  Biso   1.000  H
  C76      1.0000 0.30139  0.62273  0.49022  Biso   1.000  C
  C77      1.0000 0.37052  0.49262  0.09820  Biso   1.000  C
  C78      1.0000 0.25132  0.34830  0.15111  Biso   1.000  C
  H73      1.0000 0.55040  0.45122  0.15851  Biso   1.000  H
  C79      1.0000 0.59812  0.43860  0.21761  Biso   1.000  C
  C80      1.0000 0.13478  0.64301  0.40393  Biso   1.000  C
  H74      1.0000 0.13230  0.65994  0.49084  Biso   1.000  H
  H75      1.0000 0.07418  0.62446  0.48433  Biso   1.000  H
  H76      1.0000 0.31479  0.66322  0.49124  Biso   1.000  H
  H77      1.0000 0.30550  0.60182  0.52493  Biso   1.000  H
  H78      1.0000 0.32648  0.60284  0.45564  Biso   1.000  H
  C81      1.0000 0.32445  0.54159  0.12729  Biso   1.000  C
  H79      1.0000 0.40972  0.51072  0.07850  Biso   1.000  H
  H80      1.0000 0.35504  0.47271  0.06832  Biso   1.000  H
  H81      1.0000 0.21959  0.35173  0.13021  Biso   1.000  H
  H82      1.0000 0.27252  0.31021  0.14230  Biso   1.000  H
  H83      1.0000 0.23251  0.35131  0.19291  Biso   1.000  H
  H84      1.0000 0.59670  0.42331  0.25489  Biso   1.000  H
  C82      1.0000 0.65543  0.46583  0.18109  Biso   1.000  C
  C83      1.0000 0.18751  0.67552  0.37842  Biso   1.000  C
  C84      1.0000 0.10010  0.62244  0.36740  Biso   1.000  C
  C85      1.0000 0.26112  0.53163  0.13872  Biso   1.000  C
  C86      1.0000 0.34322  0.59621  0.14301  Biso   1.000  C
  H85      1.0000 0.66133  0.46820  0.14031  Biso   1.000  H
  C87      1.0000 0.70182  0.48833  0.20659  Biso   1.000  C
  H86      1.0000 0.21139  0.69053  0.40211  Biso   1.000  H
  C88      1.0000 0.20501  0.68621  0.31781  Biso   1.000  C
  C89      1.0000 0.11629  0.63403  0.30723  Biso   1.000  C
  O18      1.0000 0.04790  0.58972  0.39520  Biso   1.000  O
  C90      1.0000 0.21714  0.57472  0.16599  Biso   1.000  C
  H87      1.0000 0.24783  0.49510  0.12791  Biso   1.000  H
  C91      1.0000 0.29963  0.64091  0.16940  Biso   1.000  C
  O19      1.0000 0.40692  0.60491  0.13061  Biso   1.000  O
  H88      1.0000 0.69643  0.48672  0.24741  Biso   1.000  H
  C92      1.0000 0.75812  0.51420  0.16829  Biso   1.000  C
  C93      1.0000 0.16961  0.66671  0.28119  Biso   1.000  C
  O20      1.0000 0.25893  0.71593  0.28983  Biso   1.000  O
  H89      1.0000 0.09169  0.61992  0.28381  Biso   1.000  H
  C94      1.0000 0.01591  0.56063  0.35810  Biso   1.000  C
  C95      1.0000 0.23612  0.63051  0.18250  Biso   1.000  C
  O21      1.0000 0.15354  0.56732  0.17839  Biso   1.000  O
  H90      1.0000 0.31332  0.67802  0.17839  Biso   1.000  H
  C96      1.0000 0.42585  0.66261  0.14199  Biso   1.000  C
  H91      1.0000 0.76773  0.50922  0.12742  Biso   1.000  H
  C97      1.0000 0.79742  0.54680  0.19472  Biso   1.000  C
  C98      1.0000 0.18843  0.67604  0.21491  Biso   1.000  C
  C99      1.0000 0.30153  0.72824  0.32330  Biso   1.000  C
  H92      1.0000 0.00158  0.58991  0.33432  Biso   1.000  H
  H93      1.0000 0.04349  0.53243  0.33282  Biso   1.000  H
  H94      1.0000 0.98089  0.53982  0.38223  Biso   1.000  H
  C100     1.0000 0.13270  0.51123  0.16329  Biso   1.000  C
  H95      1.0000 0.47044  0.66361  0.13190  Biso   1.000  H
  H96      1.0000 0.41054  0.69149  0.11853  Biso   1.000  H
  H97      1.0000 0.40940  0.67212  0.18321  Biso   1.000  H
  H98      1.0000 0.78893  0.55012  0.23572  Biso   1.000  H
  O22      1.0000 0.85025  0.57434  0.15749  Biso   1.000  O
  H99      1.0000 0.20512  0.71582  0.20650  Biso   1.000  H
  H100     1.0000 0.15162  0.67384  0.20013  Biso   1.000  H
  H101     1.0000 0.33633  0.74900  0.29899  Biso   1.000  H
  H102     1.0000 0.28150  0.75261  0.35682  Biso   1.000  H
  H103     1.0000 0.31581  0.69120  0.33671  Biso   1.000  H
  H104     1.0000 0.08799  0.51122  0.17422  Biso   1.000  H
  H105     1.0000 0.14803  0.50463  0.12149  Biso   1.000  H
  H106     1.0000 0.14791  0.47974  0.18419  Biso   1.000  H
  C101     1.0000 0.63579  0.50994  0.40432  Biso   1.000  C
  C102     1.0000 0.62222  0.55634  0.36213  Biso   1.000  C
  C103     1.0000 0.68209  0.46222  0.37333  Biso   1.000  C
  H107     1.0000 0.65199  0.52973  0.43390  Biso   1.000  H
  H108     1.0000 0.59731  0.49091  0.42473  Biso   1.000  H
  C104     1.0000 0.57162  0.55101  0.33800  Biso   1.000  C
  C105     1.0000 0.66080  0.60614  0.34539  Biso   1.000  C
  C106     1.0000 0.66379  0.40813  0.35474  Biso   1.000  C
  C107     1.0000 0.74492  0.47361  0.36120  Biso   1.000  C
  C108     1.0000 0.55953  0.59270  0.29740  Biso   1.000  C
  H109     1.0000 0.54520  0.51881  0.34911  Biso   1.000  H
  C109     1.0000 0.64870  0.64693  0.30493  Biso   1.000  C
  O23      1.0000 0.70881  0.61089  0.37116  Biso   1.000  O
  C110     1.0000 0.70848  0.36633  0.32432  Biso   1.000  C
  O24      1.0000 0.60030  0.39912  0.36815  Biso   1.000  O
  H110     1.0000 0.75770  0.50935  0.37422  Biso   1.000  H
  C111     1.0000 0.78951  0.43284  0.32990  Biso   1.000  C
  O25      1.0000 0.51032  0.58773  0.27309  Biso   1.000  O
  C112     1.0000 0.59923  0.64093  0.27982  Biso   1.000  C
  H111     1.0000 0.67471  0.67954  0.29412  Biso   1.000  H
  C113     1.0000 0.75092  0.65835  0.35172  Biso   1.000  C
  C114     1.0000 0.77162  0.37821  0.31050  Biso   1.000  C
  H112     1.0000 0.69559  0.32971  0.31320  Biso   1.000  H
  C115     1.0000 0.58142  0.34093  0.35620  Biso   1.000  C
  O26      1.0000 0.85312  0.44082  0.31710  Biso   1.000  O
  C116     1.0000 0.45769  0.55521  0.30652  Biso   1.000  C
  C117     1.0000 0.58871  0.68503  0.23391  Biso   1.000  C
  H113     1.0000 0.78241  0.65703  0.37302  Biso   1.000  H
  H114     1.0000 0.77011  0.65395  0.31011  Biso   1.000  H
  H115     1.0000 0.72880  0.69603  0.35903  Biso   1.000  H
  C118     1.0000 0.82018  0.33424  0.27433  Biso   1.000  C
  H116     1.0000 0.53677  0.33944  0.36731  Biso   1.000  H
  H117     1.0000 0.59679  0.33231  0.31471  Biso   1.000  H
  H118     1.0000 0.59790  0.31173  0.37851  Biso   1.000  H
  C119     1.0000 0.87351  0.49680  0.33791  Biso   1.000  C
  C120     1.0000 0.40363  0.56571  0.28310  Biso   1.000  C
  H119     1.0000 0.46800  0.51274  0.30479  Biso   1.000  H
  H120     1.0000 0.44769  0.56772  0.34761  Biso   1.000  H
  H121     1.0000 0.54514  0.68552  0.23400  Biso   1.000  H
  H122     1.0000 0.59930  0.72492  0.24383  Biso   1.000  H
  C121     1.0000 0.62864  0.66742  0.17250  Biso   1.000  C
  C122     1.0000 0.83632  0.34993  0.20902  Biso   1.000  C
  H123     1.0000 0.80422  0.29391  0.27982  Biso   1.000  H
  H124     1.0000 0.85750  0.33523  0.28832  Biso   1.000  H
  H125     1.0000 0.91812  0.49802  0.32613  Biso   1.000  H
  H126     1.0000 0.85650  0.53024  0.32113  Biso   1.000  H
  H127     1.0000 0.85922  0.49883  0.38033  Biso   1.000  H
  C123     1.0000 0.34933  0.52824  0.31480  Biso   1.000  C
  H128     1.0000 0.39153  0.60782  0.28761  Biso   1.000  H
  H129     1.0000 0.41460  0.55611  0.24121  Biso   1.000  H
  C124     1.0000 0.60573  0.62941  0.13681  Biso   1.000  C
  C125     1.0000 0.68991  0.68712  0.15191  Biso   1.000  C
  C126     1.0000 0.80172  0.32820  0.17210  Biso   1.000  C
  C127     1.0000 0.88652  0.38809  0.18419  Biso   1.000  C
  C128     1.0000 0.29341  0.53270  0.29350  Biso   1.000  C
  H130     1.0000 0.35141  0.50342  0.34623  Biso   1.000  H
  H131     1.0000 0.56532  0.61560  0.14970  Biso   1.000  H
  C129     1.0000 0.64313  0.61169  0.08151  Biso   1.000  C
  C130     1.0000 0.72553  0.67003  0.09701  Biso   1.000  C
  O27      1.0000 0.71005  0.72523  0.18968  Biso   1.000  O
  C131     1.0000 0.81843  0.34180  0.11171  Biso   1.000  C
  O28      1.0000 0.75230  0.29313  0.19800  Biso   1.000  O
  C132     1.0000 0.90123  0.40349  0.12472  Biso   1.000  C
  H132     1.0000 0.91012  0.40310  0.20823  Biso   1.000  H
  C133     1.0000 0.23811  0.49882  0.32529  Biso   1.000  C
  H133     1.0000 0.29243  0.55631  0.26092  Biso   1.000  H
  C134     1.0000 0.70243  0.63171  0.06070  Biso   1.000  C
  O29      1.0000 0.62162  0.57319  0.04450  Biso   1.000  O
  H134     1.0000 0.76586  0.68402  0.08359  Biso   1.000  H
  C135     1.0000 0.77423  0.73822  0.17480  Biso   1.000  C
  C136     1.0000 0.86851  0.38001  0.08762  Biso   1.000  C
  H135     1.0000 0.79623  0.32540  0.08709  Biso   1.000  H
  C137     1.0000 0.71803  0.26871  0.16072  Biso   1.000  C
  O30      1.0000 0.94942  0.44102  0.09922  Biso   1.000  O
  C138     1.0000 0.20808  0.46234  0.30262  Biso   1.000  C
  H136     1.0000 0.22407  0.50493  0.36603  Biso   1.000  H
  C139     1.0000 0.74286  0.61258  0.00071  Biso   1.000  C
  C140     1.0000 0.56215  0.54999  0.06451  Biso   1.000  C
  H137     1.0000 0.78254  0.76464  0.20402  Biso   1.000  H
  H138     1.0000 0.79794  0.70163  0.17352  Biso   1.000  H
  H139     1.0000 0.78563  0.75710  0.13672  Biso   1.000  H
  C141     1.0000 0.88424  0.39592  0.02152  Biso   1.000  C
  H140     1.0000 0.68488  0.24502  0.18392  Biso   1.000  H
  H141     1.0000 0.70082  0.30070  0.14212  Biso   1.000  H
  H142     1.0000 0.74491  0.24390  0.13101  Biso   1.000  H
  C142     1.0000 0.98173  0.46742  0.13553  Biso   1.000  C
  O31      1.0000 0.16940  0.41933  0.32640  Biso   1.000  O
  H143     1.0000 0.21430  0.46651  0.26189  Biso   1.000  H
  C143     1.0000 0.78016  0.55659  0.00279  Biso   1.000  C
  H144     1.0000 0.71653  0.60644  0.97423  Biso   1.000  H
  H145     1.0000 0.77096  0.64486  0.98464  Biso   1.000  H
  H146     1.0000 0.55383  0.52469  0.03440  Biso   1.000  H
  H147     1.0000 0.55952  0.52693  0.09971  Biso   1.000  H
  H148     1.0000 0.53205  0.58230  0.07310  Biso   1.000  H
  C144     1.0000 0.84904  0.45100  0.01288  Biso   1.000  C
  H149     1.0000 0.92852  0.40251  0.00682  Biso   1.000  H
  H150     1.0000 0.87335  0.36298  0.99934  Biso   1.000  H
  H151     1.0000 0.95344  0.49119  0.16532  Biso   1.000  H
  H152     1.0000 0.01340  0.49249  0.11219  Biso   1.000  H
  H153     1.0000 0.00059  0.43673  0.15421  Biso   1.000  H
  C145     1.0000 0.84143  0.55953  0.00890  Biso   1.000  C
  C146     1.0000 0.75463  0.49938  0.00279  Biso   1.000  C
  C147     1.0000 0.87426  0.50802  0.01222  Biso   1.000  C
  C148     1.0000 0.78803  0.44761  0.00731  Biso   1.000  C
  O32      1.0000 0.86323  0.61742  0.01129  Biso   1.000  O
  H154     1.0000 0.71395  0.49646  0.99965  Biso   1.000  H
  H155     1.0000 0.91526  0.51090  0.01421  Biso   1.000  H
  O33      1.0000 0.76535  0.39090  0.00788  Biso   1.000  O
  C149     1.0000 0.92386  0.62440  0.00691  Biso   1.000  C
  C150     1.0000 0.70124  0.38521  0.00801  Biso   1.000  C
  H156     1.0000 0.93204  0.66633  0.00952  Biso   1.000  H
  H157     1.0000 0.93494  0.60321  0.03852  Biso   1.000  H
  H158     1.0000 0.94786  0.60885  0.96963  Biso   1.000  H
  H159     1.0000 0.69131  0.34351  0.00801  Biso   1.000  H
  H160     1.0000 0.67535  0.40420  0.04281  Biso   1.000  H
  H161     1.0000 0.69412  0.40414  0.97343  Biso   1.000  H
  C151     1.0000 0.36418  0.49015  0.59573  Biso   1.000  C
  C152     1.0000 0.37775  0.44376  0.63792  Biso   1.000  C
  C153     1.0000 0.31788  0.53783  0.62672  Biso   1.000  C
  H162     1.0000 0.34800  0.47032  0.56611  Biso   1.000  H
  H163     1.0000 0.40266  0.50914  0.57532  Biso   1.000  H
  C154     1.0000 0.33918  0.39396  0.65461  Biso   1.000  C
  C155     1.0000 0.42837  0.44904  0.66201  Biso   1.000  C
  C156     1.0000 0.33618  0.59196  0.64531  Biso   1.000  C
  C157     1.0000 0.25507  0.52643  0.63881  Biso   1.000  C
  O34      1.0000 0.29116  0.38916  0.62889  Biso   1.000  O
  C158     1.0000 0.35127  0.35316  0.69512  Biso   1.000  C
  C159     1.0000 0.44045  0.40735  0.70261  Biso   1.000  C
  H164     1.0000 0.45477  0.48124  0.65094  Biso   1.000  H
  C160     1.0000 0.29149  0.63376  0.67573  Biso   1.000  C
  O35      1.0000 0.39967  0.60093  0.63190  Biso   1.000  O
  H165     1.0000 0.24227  0.49075  0.62583  Biso   1.000  H
  C161     1.0000 0.21047  0.56725  0.67011  Biso   1.000  C
  C162     1.0000 0.24905  0.34175  0.64833  Biso   1.000  C
  C163     1.0000 0.40074  0.35916  0.72023  Biso   1.000  C
  H166     1.0000 0.32526  0.32056  0.70593  Biso   1.000  H
  O36      1.0000 0.48965  0.41236  0.72696  Biso   1.000  O
  C164     1.0000 0.22835  0.62184  0.68955  Biso   1.000  C
  H167     1.0000 0.30438  0.67034  0.68685  Biso   1.000  H
  C165     1.0000 0.41857  0.65916  0.64381  Biso   1.000  C
  O37      1.0000 0.14685  0.55923  0.68295  Biso   1.000  O
  H168     1.0000 0.21756  0.34302  0.62703  Biso   1.000  H
  H169     1.0000 0.22986  0.34615  0.68994  Biso   1.000  H
  H170     1.0000 0.27117  0.30406  0.64102  Biso   1.000  H
  C166     1.0000 0.41126  0.31507  0.76614  Biso   1.000  C
  C167     1.0000 0.54228  0.44484  0.69353  Biso   1.000  C
  C168     1.0000 0.17979  0.66585  0.72572  Biso   1.000  C
  H171     1.0000 0.46320  0.66065  0.63274  Biso   1.000  H
  H172     1.0000 0.40318  0.66773  0.68534  Biso   1.000  H
  H173     1.0000 0.40207  0.68837  0.62154  Biso   1.000  H
  C169     1.0000 0.12646  0.50325  0.66214  Biso   1.000  C
  H174     1.0000 0.45485  0.31453  0.76601  Biso   1.000  H
  H175     1.0000 0.40067  0.27513  0.75623  Biso   1.000  H
  C170     1.0000 0.37133  0.33267  0.82755  Biso   1.000  C
  H176     1.0000 0.53198  0.48735  0.69521  Biso   1.000  H
  C171     1.0000 0.59635  0.43434  0.71691  Biso   1.000  C
  H177     1.0000 0.55228  0.43233  0.65244  Biso   1.000  H
  C172     1.0000 0.16365  0.65016  0.79103  Biso   1.000  C
  H178     1.0000 0.19575  0.70614  0.72023  Biso   1.000  H
  H179     1.0000 0.14247  0.66487  0.71173  Biso   1.000  H
  H180     1.0000 0.08185  0.50203  0.67392  Biso   1.000  H
  H181     1.0000 0.14347  0.46986  0.67892  Biso   1.000  H
  H182     1.0000 0.14075  0.50126  0.61972  Biso   1.000  H
  C173     1.0000 0.39424  0.37064  0.86324  Biso   1.000  C
  C174     1.0000 0.31006  0.31297  0.84814  Biso   1.000  C
  H183     1.0000 0.60844  0.39223  0.71244  Biso   1.000  H
  C175     1.0000 0.65070  0.47185  0.68521  Biso   1.000  C
  H184     1.0000 0.58537  0.44394  0.75884  Biso   1.000  H
  C176     1.0000 0.19825  0.67185  0.82795  Biso   1.000  C
  C177     1.0000 0.11347  0.61196  0.81582  Biso   1.000  C
  H185     1.0000 0.43465  0.38445  0.85035  Biso   1.000  H
  C178     1.0000 0.35684  0.38836  0.91854  Biso   1.000  C
  C179     1.0000 0.27444  0.33006  0.90304  Biso   1.000  C
  O38      1.0000 0.28992  0.27487  0.81037  Biso   1.000  O
  H186     1.0000 0.64856  0.49663  0.65382  Biso   1.000  H
  C180     1.0000 0.70656  0.46735  0.70655  Biso   1.000  C
  C181     1.0000 0.18154  0.65825  0.88834  Biso   1.000  C
  O39      1.0000 0.24767  0.70696  0.80205  Biso   1.000  O
  C182     1.0000 0.09874  0.59656  0.87533  Biso   1.000  C
  H187     1.0000 0.08985  0.59694  0.79182  Biso   1.000  H
  C183     1.0000 0.29754  0.36834  0.93935  Biso   1.000  C
  O40      1.0000 0.37835  0.42686  0.95555  Biso   1.000  O
  H188     1.0000 0.23411  0.31607  0.91646  Biso   1.000  H
  C184     1.0000 0.22574  0.26187  0.82525  Biso   1.000  C
  H189     1.0000 0.70754  0.44374  0.73913  Biso   1.000  H
  C185     1.0000 0.76187  0.50123  0.67471  Biso   1.000  C
  C186     1.0000 0.13146  0.62004  0.91243  Biso   1.000  C
  H190     1.0000 0.20376  0.67465  0.91292  Biso   1.000  H
  C187     1.0000 0.28194  0.73134  0.83933  Biso   1.000  C
  O41      1.0000 0.05055  0.55907  0.90083  Biso   1.000  O
  C188     1.0000 0.25711  0.38747  0.99934  Biso   1.000  C
  C189     1.0000 0.43782  0.45006  0.93554  Biso   1.000  C
  H191     1.0000 0.21743  0.23545  0.79603  Biso   1.000  H
  H192     1.0000 0.20203  0.29846  0.82653  Biso   1.000  H
  H193     1.0000 0.21434  0.24295  0.86333  Biso   1.000  H
  H194     1.0000 0.77590  0.49512  0.63402  Biso   1.000  H
  C190     1.0000 0.79189  0.53775  0.69743  Biso   1.000  C
  C191     1.0000 0.11573  0.60417  0.97853  Biso   1.000  C
  H195     1.0000 0.31509  0.75507  0.81613  Biso   1.000  H
  H196     1.0000 0.29915  0.69935  0.85793  Biso   1.000  H
  H197     1.0000 0.25506  0.75615  0.86904  Biso   1.000  H
  C192     1.0000 0.01824  0.53267  0.86452  Biso   1.000  C
  C193     1.0000 0.21982  0.44346  0.99726  Biso   1.000  C
  H198     1.0000 0.28344  0.39361  0.02582  Biso   1.000  H
  H199     1.0000 0.22901  0.35519  0.01541  Biso   1.000  H
  H200     1.0000 0.44614  0.47536  0.96565  Biso   1.000  H
  H201     1.0000 0.44045  0.47317  0.90034  Biso   1.000  H
  H202     1.0000 0.46792  0.41775  0.92695  Biso   1.000  H
  H203     1.0000 0.78569  0.53354  0.73812  Biso   1.000  H
  O42      1.0000 0.83059  0.58076  0.67361  Biso   1.000  O
  C194     1.0000 0.15094  0.54905  0.98712  Biso   1.000  C
  H204     1.0000 0.07145  0.59759  0.99323  Biso   1.000  H
  H205     1.0000 0.12662  0.63711  0.00071  Biso   1.000  H
  H206     1.0000 0.04653  0.50886  0.83473  Biso   1.000  H
  H207     1.0000 0.98657  0.50756  0.88786  Biso   1.000  H
  H208     1.0000 0.99938  0.56337  0.84584  Biso   1.000  H
  C195     1.0000 0.15854  0.44057  0.99115  Biso   1.000  C
  C196     1.0000 0.24534  0.50067  0.99726  Biso   1.000  C
  C197     1.0000 0.12571  0.49207  0.98783  Biso   1.000  C
  C198     1.0000 0.21194  0.55248  0.99274  Biso   1.000  C
  O43      1.0000 0.13674  0.38268  0.98876  Biso   1.000  O
  H209     1.0000 0.28602  0.50359  0.00040  Biso   1.000  H
  H210     1.0000 0.08471  0.48915  0.98584  Biso   1.000  H
  O44      1.0000 0.23464  0.60915  0.99212  Biso   1.000  O
  C199     1.0000 0.07611  0.37565  0.99314  Biso   1.000  C
  C200     1.0000 0.29873  0.61484  0.99204  Biso   1.000  C
  H211     1.0000 0.06793  0.33377  0.99053  Biso   1.000  H
  H212     1.0000 0.06503  0.39684  0.96153  Biso   1.000  H
  H213     1.0000 0.05211  0.39120  0.03042  Biso   1.000  H
  H214     1.0000 0.30866  0.65659  0.99204  Biso   1.000  H
  H215     1.0000 0.32463  0.59585  0.95724  Biso   1.000  H
  H216     1.0000 0.30585  0.59591  0.02662  Biso   1.000  H
  C201     1.0000 0.58539  0.18584  0.47291  Biso   1.000  C
  C202     1.0000 0.59658  0.14244  0.42150  Biso   1.000  C
  C203     1.0000 0.62609  0.16921  0.51430  Biso   1.000  C
  H217     1.0000 0.59478  0.22614  0.45790  Biso   1.000  H
  H218     1.0000 0.54186  0.18524  0.49473  Biso   1.000  H
  C204     1.0000 0.55749  0.09291  0.42442  Biso   1.000  C
  C205     1.0000 0.64608  0.14810  0.37183  Biso   1.000  C
  C206     1.0000 0.68610  0.18922  0.50412  Biso   1.000  C
  C207     1.0000 0.60309  0.13005  0.56150  Biso   1.000  C
  O45      1.0000 0.50814  0.08712  0.47406  Biso   1.000  O
  C208     1.0000 0.57039  0.05142  0.37842  Biso   1.000  C
  H219     1.0000 0.67189  0.18091  0.36921  Biso   1.000  H
  C209     1.0000 0.65859  0.10674  0.32573  Biso   1.000  C
  C210     1.0000 0.72307  0.17074  0.54140  Biso   1.000  C
  O46      1.0000 0.70646  0.22654  0.45701  Biso   1.000  O
  H220     1.0000 0.56288  0.11573  0.56801  Biso   1.000  H
  C211     1.0000 0.63915  0.11256  0.59843  Biso   1.000  C
  C212     1.0000 0.45439  0.05934  0.46600  Biso   1.000  C
  C213     1.0000 0.62057  0.05712  0.32852  Biso   1.000  C
  H221     1.0000 0.54466  0.01861  0.38090  Biso   1.000  H
  O47      1.0000 0.70649  0.11218  0.27584  Biso   1.000  O
  C214     1.0000 0.69958  0.13266  0.58851  Biso   1.000  C
  H222     1.0000 0.76357  0.18421  0.53454  Biso   1.000  H
  C215     1.0000 0.76968  0.24025  0.44032  Biso   1.000  C
  O48      1.0000 0.61847  0.07416  0.64562  Biso   1.000  O
  C216     1.0000 0.40228  0.06345  0.51470  Biso   1.000  C
  H223     1.0000 0.45377  0.03994  0.43102  Biso   1.000  H
  C217     1.0000 0.63447  0.01024  0.27991  Biso   1.000  C
  C218     1.0000 0.74779  0.16041  0.27331  Biso   1.000  C
  C219     1.0000 0.73935  0.11293  0.62924  Biso   1.000  C
  H224     1.0000 0.77778  0.26681  0.40702  Biso   1.000  H
  H225     1.0000 0.78069  0.25932  0.47282  Biso   1.000  H
  H226     1.0000 0.79409  0.20403  0.42983  Biso   1.000  H
  C220     1.0000 0.55935  0.05012  0.65532  Biso   1.000  C
  C221     1.0000 0.34715  0.03181  0.50753  Biso   1.000  C
  H227     1.0000 0.40236  0.08455  0.54893  Biso   1.000  H
  H228     1.0000 0.64971  0.02992  0.24201  Biso   1.000  H
  H229     1.0000 0.59627  0.99042  0.27951  Biso   1.000  H
  C222     1.0000 0.68206  0.96372  0.28730  Biso   1.000  C
  H230     1.0000 0.77931  0.15889  0.23643  Biso   1.000  H
  H231     1.0000 0.72499  0.19781  0.27641  Biso   1.000  H
  H232     1.0000 0.76689  0.15711  0.30550  Biso   1.000  H
  C223     1.0000 0.77756  0.05695  0.60702  Biso   1.000  C
  H233     1.0000 0.71266  0.10544  0.66843  Biso   1.000  H
  H234     1.0000 0.76705  0.14505  0.63252  Biso   1.000  H
  H235     1.0000 0.55126  0.02486  0.68963  Biso   1.000  H
  H236     1.0000 0.52877  0.08215  0.66161  Biso   1.000  H
  H237     1.0000 0.55716  0.02705  0.62141  Biso   1.000  H
  H238     1.0000 0.34315  0.02563  0.46941  Biso   1.000  H
  C224     1.0000 0.30067  0.01082  0.55513  Biso   1.000  C
  C225     1.0000 0.66462  0.90844  0.31382  Biso   1.000  C
  C226     1.0000 0.74425  0.97531  0.26831  Biso   1.000  C
  C227     1.0000 0.83805  0.06055  0.57213  Biso   1.000  C
  C228     1.0000 0.75147  0.00032  0.61893  Biso   1.000  C
  H239     1.0000 0.30626  0.01323  0.59311  Biso   1.000  H
  C229     1.0000 0.24323  0.98505  0.54711  Biso   1.000  C
  C230     1.0000 0.70974  0.86641  0.32140  Biso   1.000  C
  O49      1.0000 0.60211  0.89801  0.33193  Biso   1.000  O
  H240     1.0000 0.75638  0.01152  0.24949  Biso   1.000  H
  C231     1.0000 0.79036  0.93494  0.27610  Biso   1.000  C
  C232     1.0000 0.87238  0.00762  0.55141  Biso   1.000  C
  O50      1.0000 0.86117  0.11803  0.55854  Biso   1.000  O
  H241     1.0000 0.71052  0.99752  0.64133  Biso   1.000  H
  C233     1.0000 0.78490  0.94806  0.59834  Biso   1.000  C
  H242     1.0000 0.23324  0.99044  0.51120  Biso   1.000  H
  C234     1.0000 0.20282  0.95234  0.59241  Biso   1.000  C
  H243     1.0000 0.69725  0.82944  0.33831  Biso   1.000  H
  C235     1.0000 0.77263  0.87962  0.30400  Biso   1.000  C
  C236     1.0000 0.58385  0.83912  0.35190  Biso   1.000  C
  O51      1.0000 0.85324  0.94533  0.25861  Biso   1.000  O
  H244     1.0000 0.91347  0.01064  0.52914  Biso   1.000  H
  C237     1.0000 0.84691  0.95144  0.56332  Biso   1.000  C
  C238     1.0000 0.92416  0.12233  0.53051  Biso   1.000  C
  O52      1.0000 0.76152  0.89133  0.60843  Biso   1.000  O
  H245     1.0000 0.21149  0.94803  0.62893  Biso   1.000  H
  O53      1.0000 0.15089  0.92693  0.58293  Biso   1.000  O
  C239     1.0000 0.82165  0.83630  0.31462  Biso   1.000  C
  H246     1.0000 0.53933  0.83723  0.36310  Biso   1.000  H
  H247     1.0000 0.60062  0.81081  0.32073  Biso   1.000  H
  H248     1.0000 0.59945  0.82964  0.38551  Biso   1.000  H
  C240     1.0000 0.87240  0.00060  0.22762  Biso   1.000  C
  C241     1.0000 0.88254  0.89526  0.53711  Biso   1.000  C
  H249     1.0000 0.93446  0.16373  0.52334  Biso   1.000  H
  H250     1.0000 0.94808  0.10533  0.55544  Biso   1.000  H
  H251     1.0000 0.93348  0.10095  0.49363  Biso   1.000  H
  C242     1.0000 0.69844  0.88552  0.64031  Biso   1.000  C
  H252     1.0000 0.80645  0.79573  0.31639  Biso   1.000  H
  H253     1.0000 0.85886  0.83834  0.28190  Biso   1.000  H
  C243     1.0000 0.83784  0.85134  0.37253  Biso   1.000  C
  H254     1.0000 0.91690  0.00281  0.21779  Biso   1.000  H
  H255     1.0000 0.85877  0.00173  0.19202  Biso   1.000  H
  H256     1.0000 0.85429  0.03390  0.25241  Biso   1.000  H
  C244     1.0000 0.86723  0.87932  0.47933  Biso   1.000  C
  H257     1.0000 0.92685  0.90165  0.52980  Biso   1.000  H
  H258     1.0000 0.87144  0.86244  0.56482  Biso   1.000  H
  H259     1.0000 0.68833  0.84384  0.64452  Biso   1.000  H
  H260     1.0000 0.69192  0.90336  0.67883  Biso   1.000  H
  H261     1.0000 0.67220  0.90554  0.61933  Biso   1.000  H
  C245     1.0000 0.88684  0.88932  0.37320  Biso   1.000  C
  C246     1.0000 0.80312  0.82763  0.42651  Biso   1.000  C
  C247     1.0000 0.90133  0.90434  0.42571  Biso   1.000  C
  C248     1.0000 0.81884  0.84233  0.47884  Biso   1.000  C
  H262     1.0000 0.91032  0.90503  0.33773  Biso   1.000  H
  O54      1.0000 0.75401  0.79211  0.42442  Biso   1.000  O
  O55      1.0000 0.94803  0.94201  0.42890  Biso   1.000  O
  H263     1.0000 0.79560  0.82663  0.51453  Biso   1.000  H
  C249     1.0000 0.71931  0.76795  0.47871  Biso   1.000  C
  C250     1.0000 0.98034  0.97233  0.37833  Biso   1.000  C
  H264     1.0000 0.68671  0.74372  0.47180  Biso   1.000  H
  H265     1.0000 0.74634  0.74375  0.49562  Biso   1.000  H
  H266     1.0000 0.70151  0.79992  0.50554  Biso   1.000  H
  H267     1.0000 0.95185  0.99712  0.36390  Biso   1.000  H
  H268     1.0000 0.01125  0.99702  0.38790  Biso   1.000  H
  H269     1.0000 0.00022  0.94384  0.34840  Biso   1.000  H
  C251     1.0000 0.41458  0.81425  0.52714  Biso   1.000  C
  C252     1.0000 0.37390  0.83084  0.48570  Biso   1.000  C
  C253     1.0000 0.40340  0.85765  0.57850  Biso   1.000  C
  H270     1.0000 0.40520  0.77395  0.54211  Biso   1.000  H
  H271     1.0000 0.45811  0.81485  0.50532  Biso   1.000  H
  C254     1.0000 0.31392  0.81083  0.49593  Biso   1.000  C
  C255     1.0000 0.39689  0.87004  0.43850  Biso   1.000  C
  C256     1.0000 0.35389  0.85195  0.62822  Biso   1.000  C
  C257     1.0000 0.44248  0.90714  0.57563  Biso   1.000  C
  O56      1.0000 0.29351  0.77355  0.54304  Biso   1.000  O
  C258     1.0000 0.27692  0.82935  0.45861  Biso   1.000  C
  C259     1.0000 0.36082  0.88753  0.40162  Biso   1.000  C
  H272     1.0000 0.43710  0.88432  0.43200  Biso   1.000  H
  H273     1.0000 0.32808  0.81914  0.63084  Biso   1.000  H
  C260     1.0000 0.34138  0.89335  0.67432  Biso   1.000  C
  C261     1.0000 0.42958  0.94863  0.62163  Biso   1.000  C
  O57      1.0000 0.49183  0.91293  0.52599  Biso   1.000  O
  C262     1.0000 0.23029  0.75985  0.55973  Biso   1.000  C
  C263     1.0000 0.30040  0.86744  0.41150  Biso   1.000  C
  H274     1.0000 0.23640  0.81584  0.46551  Biso   1.000  H
  O58      1.0000 0.38150  0.92593  0.35443  Biso   1.000  O
  C264     1.0000 0.37940  0.94293  0.67153  Biso   1.000  C
  O59      1.0000 0.29349  0.88787  0.72417  Biso   1.000  O
  H275     1.0000 0.45533  0.98144  0.61910  Biso   1.000  H
  C265     1.0000 0.54559  0.94076  0.53401  Biso   1.000  C
  H276     1.0000 0.22220  0.73324  0.59303  Biso   1.000  H
  H277     1.0000 0.21928  0.74072  0.52723  Biso   1.000  H
  H278     1.0000 0.20588  0.79602  0.57022  Biso   1.000  H
  C266     1.0000 0.26062  0.88712  0.37081  Biso   1.000  C
  C267     1.0000 0.44062  0.94993  0.34473  Biso   1.000  C
  C268     1.0000 0.36550  0.98986  0.72014  Biso   1.000  C
  C269     1.0000 0.25218  0.83964  0.72674  Biso   1.000  C
  H279     1.0000 0.54620  0.96016  0.56903  Biso   1.000  H
  C270     1.0000 0.59770  0.93665  0.48530  Biso   1.000  C
  C271     1.0000 0.22241  0.94315  0.39303  Biso   1.000  C
  H280     1.0000 0.28731  0.89465  0.33162  Biso   1.000  H
  H281     1.0000 0.23292  0.85505  0.36753  Biso   1.000  H
  H282     1.0000 0.44871  0.97524  0.31042  Biso   1.000  H
  H283     1.0000 0.47121  0.91794  0.33840  Biso   1.000  H
  H284     1.0000 0.44283  0.97305  0.37860  Biso   1.000  H
  H285     1.0000 0.35026  0.97017  0.75804  Biso   1.000  H
  H286     1.0000 0.40370  0.00963  0.72054  Biso   1.000  H
  C272     1.0000 0.31791  0.03633  0.71275  Biso   1.000  C
  H287     1.0000 0.22067  0.84115  0.76362  Biso   1.000  H
  H288     1.0000 0.27498  0.80224  0.72364  Biso   1.000  H
  H289     1.0000 0.23308  0.84294  0.69455  Biso   1.000  H
  H290     1.0000 0.59761  0.91555  0.45112  Biso   1.000  H
  C273     1.0000 0.65283  0.96823  0.49252  Biso   1.000  C
  C274     1.0000 0.16192  0.93954  0.42792  Biso   1.000  C
  C275     1.0000 0.24850  0.99973  0.38112  Biso   1.000  C
  C276     1.0000 0.33535  0.09165  0.68623  Biso   1.000  C
  C277     1.0000 0.25572  0.02474  0.73174  Biso   1.000  C
  H291     1.0000 0.65682  0.97446  0.53064  Biso   1.000  H
  C278     1.0000 0.69930  0.98923  0.44492  Biso   1.000  C
  C279     1.0000 0.12761  0.99243  0.44860  Biso   1.000  C
  O60      1.0000 0.13880  0.88202  0.44151  Biso   1.000  O
  H292     1.0000 0.28945  0.00253  0.35872  Biso   1.000  H
  C280     1.0000 0.21507  0.05204  0.40171  Biso   1.000  C
  C281     1.0000 0.29024  0.13364  0.67861  Biso   1.000  C
  O61      1.0000 0.39786  0.10208  0.66812  Biso   1.000  O
  H293     1.0000 0.24360  0.98857  0.75051  Biso   1.000  H
  C282     1.0000 0.20961  0.06515  0.72395  Biso   1.000  C
  H294     1.0000 0.69371  0.98682  0.40694  Biso   1.000  H
  C283     1.0000 0.75674  0.01504  0.45294  Biso   1.000  C
  H295     1.0000 0.08650  0.98946  0.47091  Biso   1.000  H
  C284     1.0000 0.15306  0.04861  0.43673  Biso   1.000  C
  C285     1.0000 0.07581  0.87772  0.46954  Biso   1.000  C
  O62      1.0000 0.23846  0.10872  0.39162  Biso   1.000  O
  H296     1.0000 0.30272  0.17066  0.66174  Biso   1.000  H
  C286     1.0000 0.22735  0.12043  0.69601  Biso   1.000  C
  C287     1.0000 0.41612  0.16093  0.64815  Biso   1.000  C
  O63      1.0000 0.14673  0.05476  0.74144  Biso   1.000  O
  H297     1.0000 0.76675  0.00965  0.48880  Biso   1.000  H
  C288     1.0000 0.79717  0.04771  0.40760  Biso   1.000  C
  C289     1.0000 0.11744  0.10484  0.46290  Biso   1.000  C
  H298     1.0000 0.06551  0.83632  0.47671  Biso   1.000  H
  H299     1.0000 0.05189  0.89472  0.44461  Biso   1.000  H
  H300     1.0000 0.06649  0.89915  0.50642  Biso   1.000  H
  C290     1.0000 0.30155  0.11453  0.35969  Biso   1.000  C
  C291     1.0000 0.17832  0.16375  0.68543  Biso   1.000  C
  H301     1.0000 0.46064  0.16286  0.63695  Biso   1.000  H
  H302     1.0000 0.39935  0.18924  0.67932  Biso   1.000  H
  H303     1.0000 0.40052  0.17045  0.61454  Biso   1.000  H
  C292     1.0000 0.12757  0.99945  0.77243  Biso   1.000  C
  H304     1.0000 0.78848  0.05202  0.37112  Biso   1.000  H
  O64      1.0000 0.84908  0.07312  0.41712  Biso   1.000  O
  C293     1.0000 0.13274  0.12072  0.52072  Biso   1.000  C
  H305     1.0000 0.07313  0.09845  0.47021  Biso   1.000  H
  H306     1.0000 0.12853  0.13765  0.43523  Biso   1.000  H
  H307     1.0000 0.31164  0.15621  0.35553  Biso   1.000  H
  H308     1.0000 0.30805  0.09673  0.32122  Biso   1.000  H
  H309     1.0000 0.32777  0.09451  0.38072  Biso   1.000  H
  C294     1.0000 0.16213  0.14875  0.62752  Biso   1.000  C
  H310     1.0000 0.19353  0.20436  0.68361  Biso   1.000  H
  H311     1.0000 0.14111  0.16175  0.71815  Biso   1.000  H
  H312     1.0000 0.08308  0.99724  0.78221  Biso   1.000  H
  H313     1.0000 0.14120  0.99836  0.80803  Biso   1.000  H
  H314     1.0000 0.14568  0.96614  0.74764  Biso   1.000  H
  C295     1.0000 0.09864  0.09576  0.57434  Biso   1.000  C
  C296     1.0000 0.18114  0.15772  0.52121  Biso   1.000  C
  C297     1.0000 0.11314  0.11073  0.62681  Biso   1.000  C
  C298     1.0000 0.19685  0.17242  0.57354  Biso   1.000  C
  O65      1.0000 0.05195  0.05804  0.57111  Biso   1.000  O
  H315     1.0000 0.20437  0.17342  0.48552  Biso   1.000  H
  H316     1.0000 0.08965  0.09502  0.66232  Biso   1.000  H
  O66      1.0000 0.24596  0.20794  0.57563  Biso   1.000  O
  C299     1.0000 0.01963  0.02772  0.62172  Biso   1.000  C
  C300     1.0000 0.28068  0.23214  0.52130  Biso   1.000  C
  H317     1.0000 0.98873  0.00303  0.61211  Biso   1.000  H
  H318     1.0000 0.99975  0.05625  0.65165  Biso   1.000  H
  H319     1.0000 0.04814  0.00293  0.63611  Biso   1.000  H
  H320     1.0000 0.31327  0.25633  0.52821  Biso   1.000  H
  H321     1.0000 0.25363  0.25634  0.50443  Biso   1.000  H
  H322     1.0000 0.29846  0.20013  0.49451  Biso   1.000  H
  C301     1.0000 0.56956  0.84125  0.85624  Biso   1.000  C
  H323     1.0000 0.52488  0.84267  0.86762  Biso   1.000  H
  H324     1.0000 0.58399  0.81097  0.82653  Biso   1.000  H
  H325     1.0000 0.58446  0.83195  0.89025  Biso   1.000  H
  O67      1.0000 0.59189  0.89717  0.83357  Biso   1.000  O
  C302     1.0000 0.65567  0.90428  0.81454  Biso   1.000  C
  C303     1.0000 0.67618  0.95835  0.78801  Biso   1.000  C
  C304     1.0000 0.69797  0.85946  0.82082  Biso   1.000  C
  C305     1.0000 0.73931  0.96684  0.76783  Biso   1.000  C
  C306     1.0000 0.63103  0.00845  0.78164  Biso   1.000  C
  H326     1.0000 0.68316  0.82334  0.83844  Biso   1.000  H
  C307     1.0000 0.76157  0.86774  0.80134  Biso   1.000  C
  C308     1.0000 0.78288  0.92315  0.77363  Biso   1.000  C
  H327     1.0000 0.75331  0.00296  0.74985  Biso   1.000  H
  H328     1.0000 0.59159  0.99114  0.78133  Biso   1.000  H
  C309     1.0000 0.62010  0.05475  0.83074  Biso   1.000  C
  H329     1.0000 0.64711  0.02823  0.74392  Biso   1.000  H
  C310     1.0000 0.80796  0.82145  0.81064  Biso   1.000  C
  O68      1.0000 0.84550  0.92886  0.75414  Biso   1.000  O
  C311     1.0000 0.57000  0.05133  0.87953  Biso   1.000  C
  C312     1.0000 0.66143  0.10267  0.82795  Biso   1.000  C
  C313     1.0000 0.82827  0.83227  0.86722  Biso   1.000  C
  H330     1.0000 0.78989  0.78214  0.81245  Biso   1.000  H
  H331     1.0000 0.84437  0.82183  0.77703  Biso   1.000  H
  C314     1.0000 0.86799  0.98235  0.72603  Biso   1.000  C
  C315     1.0000 0.55881  0.09337  0.92633  Biso   1.000  C
  H332     1.0000 0.54243  0.02014  0.88175  Biso   1.000  H
  C316     1.0000 0.65121  0.14394  0.87404  Biso   1.000  C
  O69      1.0000 0.71002  0.10425  0.77907  Biso   1.000  O
  C317     1.0000 0.88066  0.86298  0.86505  Biso   1.000  C
  C318     1.0000 0.79196  0.81318  0.92244  Biso   1.000  C
  H333     1.0000 0.91260  0.98087  0.71474  Biso   1.000  H
  H334     1.0000 0.85310  0.98743  0.69132  Biso   1.000  H
  H335     1.0000 0.85363  0.01535  0.75255  Biso   1.000  H
  C319     1.0000 0.60079  0.13967  0.92354  Biso   1.000  C
  O70      1.0000 0.50882  0.09076  0.97512  Biso   1.000  O
  H336     1.0000 0.67883  0.17528  0.87165  Biso   1.000  H
  C320     1.0000 0.75351  0.15025  0.77624  Biso   1.000  C
  H337     1.0000 0.90487  0.87594  0.82862  Biso   1.000  H
  C321     1.0000 0.89948  0.87557  0.91672  Biso   1.000  C
  C322     1.0000 0.81187  0.82425  0.97264  Biso   1.000  C
  O71      1.0000 0.73787  0.78417  0.92235  Biso   1.000  O
  C323     1.0000 0.59371  0.18405  0.97415  Biso   1.000  C
  C324     1.0000 0.45751  0.05795  0.96702  Biso   1.000  C
  H338     1.0000 0.78565  0.14685  0.73984  Biso   1.000  H
  H339     1.0000 0.73275  0.18863  0.77774  Biso   1.000  H
  H340     1.0000 0.77155  0.14677  0.80905  Biso   1.000  H
  C325     1.0000 0.86437  0.85504  0.97123  Biso   1.000  C
  O72      1.0000 0.95149  0.90637  0.91703  Biso   1.000  O
  H341     1.0000 0.78834  0.81011  0.00882  Biso   1.000  H
  C326     1.0000 0.69704  0.77086  0.97676  Biso   1.000  C
  H342     1.0000 0.60463  0.22377  0.95834  Biso   1.000  H
  H343     1.0000 0.55072  0.18557  0.99744  Biso   1.000  H
  C327     1.0000 0.63572  0.16540  0.01351  Biso   1.000  C
  H344     1.0000 0.44752  0.07128  0.93102  Biso   1.000  H
  H345     1.0000 0.46868  0.01566  0.96264  Biso   1.000  H
  C328     1.0000 0.40312  0.06642  0.01718  Biso   1.000  C
  C329     1.0000 0.88167  0.87003  0.02772  Biso   1.000  C
  C330     1.0000 0.98329  0.93507  0.86373  Biso   1.000  C
  H346     1.0000 0.66174  0.75058  0.97043  Biso   1.000  H
  H347     1.0000 0.71797  0.74556  0.99894  Biso   1.000  H
  H348     1.0000 0.68346  0.80739  0.99823  Biso   1.000  H
  C331     1.0000 0.69612  0.18482  0.00293  Biso   1.000  C
  C332     1.0000 0.61377  0.12480  0.05911  Biso   1.000  C
  H349     1.0000 0.41389  0.05462  0.05331  Biso   1.000  H
  C333     1.0000 0.34919  0.03089  0.01112  Biso   1.000  C
  H350     1.0000 0.39128  0.10862  0.02059  Biso   1.000  H
  H351     1.0000 0.86896  0.83780  0.05601  Biso   1.000  H
  H352     1.0000 0.92638  0.87350  0.01949  Biso   1.000  H
  C334     1.0000 0.85014  0.92881  0.05451  Biso   1.000  C
  H353     1.0000 0.99707  0.90564  0.83304  Biso   1.000  H
  H354     1.0000 0.95568  0.96345  0.85235  Biso   1.000  H
  H355     1.0000 0.01857  0.95567  0.86992  Biso   1.000  H
  O73      1.0000 0.71522  0.22587  0.95786  Biso   1.000  O
  C335     1.0000 0.73510  0.16292  0.03609  Biso   1.000  C
  H356     1.0000 0.57310  0.11169  0.06691  Biso   1.000  H
  C336     1.0000 0.65260  0.10371  0.09343  Biso   1.000  C
  H357     1.0000 0.35079  0.01046  0.97614  Biso   1.000  H
  C337     1.0000 0.29400  0.02859  0.06071  Biso   1.000  C
  C338     1.0000 0.79074  0.93042  0.09321  Biso   1.000  C
  C339     1.0000 0.87858  0.98210  0.03591  Biso   1.000  C
  C340     1.0000 0.77612  0.24358  0.94316  Biso   1.000  C
  C341     1.0000 0.71350  0.12192  0.08209  Biso   1.000  C
  H358     1.0000 0.77599  0.17563  0.02772  Biso   1.000  H
  O74      1.0000 0.63290  0.06311  0.13868  Biso   1.000  O
  C342     1.0000 0.24104  0.99319  0.05371  Biso   1.000  C
  H359     1.0000 0.29210  0.04880  0.09582  Biso   1.000  H
  C343     1.0000 0.76184  0.98443  0.11340  Biso   1.000  C
  O75      1.0000 0.76434  0.87511  0.10861  Biso   1.000  O
  H360     1.0000 0.91859  0.98170  0.01081  Biso   1.000  H
  C344     1.0000 0.84818  0.03749  0.05411  Biso   1.000  C
  H361     1.0000 0.78251  0.27194  0.91132  Biso   1.000  H
  H362     1.0000 0.78521  0.26185  0.97694  Biso   1.000  H
  H363     1.0000 0.80310  0.20924  0.93085  Biso   1.000  H
  C345     1.0000 0.75680  0.09761  0.11782  Biso   1.000  C
  C346     1.0000 0.56937  0.04810  0.15510  Biso   1.000  C
  H364     1.0000 0.23734  0.98773  0.01541  Biso   1.000  H
  C347     1.0000 0.19833  0.96850  0.09701  Biso   1.000  C
  H365     1.0000 0.72275  0.98452  0.14023  Biso   1.000  H
  C348     1.0000 0.79019  0.03862  0.09440  Biso   1.000  C
  C349     1.0000 0.70095  0.87513  0.14271  Biso   1.000  C
  O76      1.0000 0.87311  0.09109  0.03290  Biso   1.000  O
  H366     1.0000 0.78781  0.12743  0.11822  Biso   1.000  H
  H367     1.0000 0.73278  0.09169  0.15829  Biso   1.000  H
  H368     1.0000 0.56207  0.02001  0.18711  Biso   1.000  H
  H369     1.0000 0.54439  0.08361  0.16741  Biso   1.000  H
  H370     1.0000 0.55858  0.03041  0.12190  Biso   1.000  H
  H371     1.0000 0.19416  0.98240  0.13540  Biso   1.000  H
  O77      1.0000 0.16113  0.92543  0.08953  Biso   1.000  O
  H372     1.0000 0.68795  0.83454  0.15112  Biso   1.000  H
  H373     1.0000 0.69713  0.89624  0.17932  Biso   1.000  H
  H374     1.0000 0.67525  0.89452  0.12079  Biso   1.000  H
  C350     1.0000 0.93452  0.09065  0.99823  Biso   1.000  C
  H375     1.0000 0.94640  0.13074  0.98593  Biso   1.000  H
  H376     1.0000 0.93813  0.06588  0.96392  Biso   1.000  H
  H377     1.0000 0.96151  0.07491  0.02090  Biso   1.000  H
  C351     1.0000 0.43041  0.15880  0.14381  Biso   1.000  C
  O78      1.0000 0.40808  0.10293  0.16648  Biso   1.000  O
  H378     1.0000 0.47510  0.15742  0.13238  Biso   1.000  H
  H379     1.0000 0.41598  0.18912  0.17352  Biso   1.000  H
  H380     1.0000 0.41551  0.16810  0.10980  Biso   1.000  H
  C352     1.0000 0.34430  0.09582  0.18551  Biso   1.000  C
  C353     1.0000 0.30201  0.14063  0.17923  Biso   1.000  C
  C354     1.0000 0.32380  0.04170  0.21199  Biso   1.000  C
  C355     1.0000 0.23840  0.13231  0.19871  Biso   1.000  C
  H381     1.0000 0.31681  0.17671  0.16161  Biso   1.000  H
  C356     1.0000 0.26067  0.03321  0.23222  Biso   1.000  C
  C357     1.0000 0.36894  0.99160  0.21841  Biso   1.000  C
  C358     1.0000 0.19202  0.17860  0.18941  Biso   1.000  C
  C359     1.0000 0.21709  0.07690  0.22642  Biso   1.000  C
  H382     1.0000 0.24666  0.99713  0.25020  Biso   1.000  H
  H383     1.0000 0.40838  0.00891  0.21872  Biso   1.000  H
  C360     1.0000 0.37987  0.94530  0.16931  Biso   1.000  C
  H384     1.0000 0.35287  0.97182  0.25609  Biso   1.000  H
  C361     1.0000 0.17170  0.16782  0.13283  Biso   1.000  C
  H385     1.0000 0.21008  0.21791  0.18760  Biso   1.000  H
  H386     1.0000 0.15560  0.17822  0.22302  Biso   1.000  H
  O79      1.0000 0.15447  0.07123  0.24591  Biso   1.000  O
  C362     1.0000 0.42997  0.94872  0.12052  Biso   1.000  C
  C363     1.0000 0.33854  0.89742  0.17210  Biso   1.000  C
  C364     1.0000 0.11931  0.13712  0.13500  Biso   1.000  C
  C365     1.0000 0.20801  0.18691  0.07761  Biso   1.000  C
  C366     1.0000 0.13198  0.01770  0.27402  Biso   1.000  C
  C367     1.0000 0.44116  0.90673  0.07372  Biso   1.000  C
  H387     1.0000 0.45754  0.97991  0.11830  Biso   1.000  H
  C368     1.0000 0.34876  0.85611  0.12601  Biso   1.000  C
  O80      1.0000 0.28995  0.89584  0.22098  Biso   1.000  O
  H388     1.0000 0.09511  0.12411  0.17139  Biso   1.000  H
  C369     1.0000 0.10051  0.12452  0.08328  Biso   1.000  C
  C370     1.0000 0.18810  0.17580  0.02741  Biso   1.000  C
  O81      1.0000 0.26210  0.21592  0.07770  Biso   1.000  O
  H389     1.0000 0.08737  0.01922  0.28531  Biso   1.000  H
  H390     1.0000 0.14687  0.01262  0.30873  Biso   1.000  H
  H391     1.0000 0.14634  0.98470  0.24750  Biso   1.000  H
  C371     1.0000 0.39918  0.86042  0.07651  Biso   1.000  C
  O82      1.0000 0.49116  0.90929  0.02488  Biso   1.000  O
  H392     1.0000 0.32114  0.82482  0.12840  Biso   1.000  H
  C372     1.0000 0.24646  0.84980  0.22381  Biso   1.000  C
  C373     1.0000 0.13561  0.14501  0.02878  Biso   1.000  C
  O83      1.0000 0.04848  0.09372  0.08302  Biso   1.000  O
  H393     1.0000 0.21163  0.18998  0.99123  Biso   1.000  H
  C374     1.0000 0.30293  0.22919  0.02329  Biso   1.000  C
  C375     1.0000 0.40626  0.81600  0.02590  Biso   1.000  C
  C376     1.0000 0.54247  0.94210  0.03299  Biso   1.000  C
  H394     1.0000 0.21432  0.85320  0.26021  Biso   1.000  H
  H395     1.0000 0.26722  0.81142  0.22231  Biso   1.000  H
  H396     1.0000 0.22847  0.85332  0.19100  Biso   1.000  H
  C377     1.0000 0.11830  0.13006  0.97233  Biso   1.000  C
  C378     1.0000 0.01668  0.06503  0.13632  Biso   1.000  C
  H397     1.0000 0.33823  0.24952  0.02962  Biso   1.000  H
  H398     1.0000 0.28200  0.25449  0.00111  Biso   1.000  H
  H399     1.0000 0.31651  0.19271  0.00182  Biso   1.000  H
  C379     1.0000 0.36425  0.83465  0.98654  Biso   1.000  C
  H400     1.0000 0.39534  0.77633  0.04171  Biso   1.000  H
  H401     1.0000 0.44925  0.81453  0.00261  Biso   1.000  H
  C380     1.0000 0.59686  0.93368  0.98282  Biso   1.000  C
  H402     1.0000 0.55246  0.92881  0.06898  Biso   1.000  H
  H403     1.0000 0.53129  0.98439  0.03741  Biso   1.000  H
  H404     1.0000 0.13101  0.16225  0.94404  Biso   1.000  H
  H405     1.0000 0.07361  0.12655  0.98052  Biso   1.000  H
  C381     1.0000 0.14983  0.07124  0.94554  Biso   1.000  C
  H406     1.0000 0.00290  0.09441  0.16701  Biso   1.000  H
  H407     1.0000 0.04429  0.03660  0.14770  Biso   1.000  H
  H408     1.0000 0.98140  0.04443  0.13013  Biso   1.000  H
  C382     1.0000 0.30385  0.81527  0.99712  Biso   1.000  C
  C383     1.0000 0.38620  0.87525  0.94094  Biso   1.000  C
  H409     1.0000 0.58608  0.94548  0.94674  Biso   1.000  H
  C384     1.0000 0.65078  0.96916  0.98893  Biso   1.000  C
  H410     1.0000 0.60869  0.89147  0.97946  Biso   1.000  H
  C385     1.0000 0.20923  0.06967  0.90684  Biso   1.000  C
  C386     1.0000 0.12139  0.01795  0.96414  Biso   1.000  C
  C387     1.0000 0.26488  0.83717  0.96392  Biso   1.000  C
  O84      1.0000 0.28475  0.77422  0.04219  Biso   1.000  O
  C388     1.0000 0.34737  0.89634  0.90662  Biso   1.000  C
  H411     1.0000 0.42688  0.88836  0.93314  Biso   1.000  H
  C389     1.0000 0.70598  0.97146  0.93934  Biso   1.000  C
  H412     1.0000 0.64919  0.98959  0.02391  Biso   1.000  H
  C390     1.0000 0.23815  0.01566  0.88661  Biso   1.000  C
  O85      1.0000 0.23563  0.12494  0.89144  Biso   1.000  O
  C391     1.0000 0.15179  0.96256  0.94594  Biso   1.000  C
  H413     1.0000 0.08138  0.01835  0.98924  Biso   1.000  H
  C392     1.0000 0.28648  0.87817  0.91791  Biso   1.000  C
  H414     1.0000 0.22398  0.82447  0.97233  Biso   1.000  H
  C393     1.0000 0.22386  0.75652  0.05689  Biso   1.000  C
  O86      1.0000 0.36707  0.93694  0.86137  Biso   1.000  O
  H415     1.0000 0.70788  0.95125  0.90423  Biso   1.000  H
  C394     1.0000 0.75894  0.00686  0.94634  Biso   1.000  C
  C395     1.0000 0.20978  0.96148  0.90565  Biso   1.000  C
  H416     1.0000 0.27722  0.01553  0.85982  Biso   1.000  H
  C396     1.0000 0.29903  0.12496  0.85734  Biso   1.000  C
  O87      1.0000 0.12686  0.90896  0.96715  Biso   1.000  O
  C397     1.0000 0.24317  0.90244  0.88223  Biso   1.000  C
  H417     1.0000 0.21747  0.72811  0.08868  Biso   1.000  H
  H418     1.0000 0.21476  0.73820  0.02311  Biso   1.000  H
  H419     1.0000 0.19687  0.79081  0.06920  Biso   1.000  H
  C398     1.0000 0.43060  0.95195  0.84495  Biso   1.000  C
  H420     1.0000 0.76263  0.01237  0.98464  Biso   1.000  H
  C399     1.0000 0.80164  0.03155  0.90304  Biso   1.000  C
  H421     1.0000 0.31202  0.16555  0.84893  Biso   1.000  H
  H422     1.0000 0.30284  0.10385  0.82073  Biso   1.000  H
  H423     1.0000 0.32474  0.10553  0.87922  Biso   1.000  H
  C400     1.0000 0.06545  0.90939  0.00182  Biso   1.000  C
  H424     1.0000 0.21216  0.87267  0.88183  Biso   1.000  H
  H425     1.0000 0.26720  0.90836  0.84172  Biso   1.000  H
  H426     1.0000 0.43791  0.98004  0.81294  Biso   1.000  H
  H427     1.0000 0.45558  0.91644  0.83264  Biso   1.000  H
  H428     1.0000 0.44140  0.96963  0.87811  Biso   1.000  H
  H429     1.0000 0.80581  0.01765  0.86465  Biso   1.000  H
  O88      1.0000 0.83884  0.07466  0.91052  Biso   1.000  O
  H430     1.0000 0.03846  0.92514  0.97915  Biso   1.000  H
  H431     1.0000 0.05359  0.86931  0.01408  Biso   1.000  H
  H432     1.0000 0.06185  0.93422  0.03608  Biso   1.000  H
