data_image0
_cell_length_a       30.102
_cell_length_b       30.102
_cell_length_c       41.35
_cell_angle_alpha    90
_cell_angle_beta     90
_cell_angle_gamma    120

_symmetry_space_group_name_H-M    "P 1"
_symmetry_int_tables_number       1

loop_
  _symmetry_equiv_pos_as_xyz
  'x, y, z'

loop_
  _atom_site_label
  _atom_site_occupancy
  _atom_site_fract_x
  _atom_site_fract_y
  _atom_site_fract_z
  _atom_site_thermal_displace_type
  _atom_site_B_iso_or_equiv
  _atom_site_type_symbol
  C1       1.0000 0.45450  0.51041  0.52955  Biso   1.000  C
  C2       1.0000 0.48851  0.54962  0.50953  Biso   1.000  C
  C3       1.0000 0.45952  0.51521  0.56312  Biso   1.000  C
  H1       1.0000 0.42742  0.47992  0.52031  Biso   1.000  H
  C4       1.0000 0.48020  0.54682  0.47330  Biso   1.000  C
  C5       1.0000 0.53051  0.59400  0.52293  Biso   1.000  C
  C6       1.0000 0.49951  0.56051  0.57640  Biso   1.000  C
  H2       1.0000 0.43631  0.48820  0.57681  Biso   1.000  H
  N1       1.0000 0.44872  0.57148  0.46576  Biso   1.000  N
  H3       1.0000 0.51360  0.56511  0.46201  Biso   1.000  H
  H4       1.0000 0.46200  0.51060  0.46609  Biso   1.000  H
  H5       1.0000 0.55511  0.61981  0.50909  Biso   1.000  H
  C7       1.0000 0.53572  0.59971  0.55671  Biso   1.000  C
  C8       1.0000 0.50151  0.57022  0.61291  Biso   1.000  C
  C9       1.0000 0.39660  0.54171  0.46539  Biso   1.000  C
  C10      1.0000 0.47231  0.62212  0.46186  Biso   1.000  C
  H6       1.0000 0.56331  0.62971  0.56600  Biso   1.000  H
  N2       1.0000 0.46596  0.59081  0.61983  Biso   1.000  N
  H7       1.0000 0.49021  0.53780  0.62491  Biso   1.000  H
  H8       1.0000 0.53680  0.59530  0.61961  Biso   1.000  H
  C11      1.0000 0.36701  0.56500  0.46135  Biso   1.000  C
  H9       1.0000 0.38079  0.50558  0.46791  Biso   1.000  H
  H10      1.0000 0.50870  0.64168  0.46150  Biso   1.000  H
  C12      1.0000 0.44380  0.64609  0.45836  Biso   1.000  C
  C13      1.0000 0.48581  0.64222  0.62075  Biso   1.000  C
  C14      1.0000 0.41661  0.55901  0.62283  Biso   1.000  C
  C15      1.0000 0.39129  0.61820  0.45857  Biso   1.000  C
  H11      1.0000 0.33049  0.54478  0.46051  Biso   1.000  H
  H12      1.0000 0.46071  0.68230  0.45582  Biso   1.000  H
  H13      1.0000 0.52188  0.66439  0.61952  Biso   1.000  H
  C16      1.0000 0.45410  0.66251  0.62341  Biso   1.000  C
  C17      1.0000 0.38221  0.57620  0.62527  Biso   1.000  C
  H14      1.0000 0.40420  0.52311  0.62331  Biso   1.000  H
  C18      1.0000 0.36094  0.64341  0.45712  Biso   1.000  C
  H15      1.0000 0.46771  0.69849  0.62380  Biso   1.000  H
  C19      1.0000 0.40100  0.62879  0.62547  Biso   1.000  C
  H16      1.0000 0.34650  0.55280  0.62680  Biso   1.000  H
  N3       1.0000 0.30914  0.61410  0.45710  Biso   1.000  N
  N4       1.0000 0.38589  0.69504  0.45710  Biso   1.000  N
  C20      1.0000 0.36489  0.64858  0.62646  Biso   1.000  C
  C21      1.0000 0.28244  0.63903  0.45712  Biso   1.000  C
  C22      1.0000 0.35658  0.71755  0.45712  Biso   1.000  C
  N5       1.0000 0.31488  0.61475  0.62653  Biso   1.000  N
  N6       1.0000 0.38523  0.70010  0.62653  Biso   1.000  N
  N7       1.0000 0.30493  0.69086  0.45710  Biso   1.000  N
  C23      1.0000 0.22691  0.60869  0.45857  Biso   1.000  C
  C24      1.0000 0.38180  0.77310  0.45857  Biso   1.000  C
  C25      1.0000 0.28369  0.63508  0.62646  Biso   1.000  C
  C26      1.0000 0.35140  0.71629  0.62646  Biso   1.000  C
  C27      1.0000 0.20230  0.55621  0.45836  Biso   1.000  C
  C28      1.0000 0.19801  0.63301  0.46135  Biso   1.000  C
  C29      1.0000 0.35390  0.79769  0.45836  Biso   1.000  C
  C30      1.0000 0.43498  0.80198  0.46135  Biso   1.000  C
  N8       1.0000 0.29990  0.68510  0.62653  Biso   1.000  N
  C31      1.0000 0.22780  0.59899  0.62547  Biso   1.000  C
  C32      1.0000 0.37117  0.77218  0.62547  Biso   1.000  C
  C33      1.0000 0.14981  0.52771  0.46186  Biso   1.000  C
  H17      1.0000 0.22161  0.53930  0.45582  Biso   1.000  H
  H18      1.0000 0.21429  0.66949  0.46051  Biso   1.000  H
  C34      1.0000 0.14510  0.60340  0.46539  Biso   1.000  C
  C35      1.0000 0.37789  0.85020  0.46186  Biso   1.000  C
  H19      1.0000 0.31771  0.77839  0.45582  Biso   1.000  H
  H20      1.0000 0.45520  0.78568  0.46051  Biso   1.000  H
  C36      1.0000 0.45830  0.85488  0.46539  Biso   1.000  C
  C37      1.0000 0.20840  0.54590  0.62341  Biso   1.000  C
  C38      1.0000 0.19398  0.61778  0.62527  Biso   1.000  C
  C39      1.0000 0.33749  0.79159  0.62341  Biso   1.000  C
  C40      1.0000 0.42380  0.80601  0.62527  Biso   1.000  C
  N9       1.0000 0.12275  0.55127  0.46576  Biso   1.000  N
  H21      1.0000 0.13300  0.49131  0.46150  Biso   1.000  H
  H22      1.0000 0.12480  0.61920  0.46791  Biso   1.000  H
  N10      1.0000 0.42852  0.87725  0.46576  Biso   1.000  N
  H23      1.0000 0.35829  0.86700  0.46150  Biso   1.000  H
  H24      1.0000 0.49441  0.87521  0.46791  Biso   1.000  H
  C41      1.0000 0.15641  0.51421  0.62075  Biso   1.000  C
  H25      1.0000 0.23081  0.53232  0.62380  Biso   1.000  H
  H26      1.0000 0.20629  0.65349  0.62680  Biso   1.000  H
  C42      1.0000 0.14241  0.58341  0.62283  Biso   1.000  C
  C43      1.0000 0.35779  0.84360  0.62075  Biso   1.000  C
  H27      1.0000 0.30151  0.76919  0.62380  Biso   1.000  H
  H28      1.0000 0.44721  0.79370  0.62680  Biso   1.000  H
  C44      1.0000 0.44099  0.85761  0.62283  Biso   1.000  C
  C45      1.0000 0.06660  0.51981  0.47330  Biso   1.000  C
  C46      1.0000 0.45321  0.93340  0.47330  Biso   1.000  C
  N11      1.0000 0.12484  0.53404  0.61983  Biso   1.000  N
  H29      1.0000 0.14252  0.47811  0.61952  Biso   1.000  H
  H30      1.0000 0.11891  0.59580  0.62331  Biso   1.000  H
  N12      1.0000 0.40920  0.87514  0.61983  Biso   1.000  N
  H31      1.0000 0.33560  0.85749  0.61952  Biso   1.000  H
  H32      1.0000 0.47688  0.88108  0.62331  Biso   1.000  H
  H33      1.0000 0.05148  0.48640  0.46201  Biso   1.000  H
  H34      1.0000 0.04861  0.53799  0.46609  Biso   1.000  H
  C47      1.0000 0.06111  0.51149  0.50953  Biso   1.000  C
  H35      1.0000 0.43487  0.94848  0.46201  Biso   1.000  H
  H36      1.0000 0.48938  0.95139  0.46609  Biso   1.000  H
  C48      1.0000 0.45041  0.93889  0.50953  Biso   1.000  C
  C49      1.0000 0.06869  0.49848  0.61291  Biso   1.000  C
  C50      1.0000 0.42980  0.93129  0.61291  Biso   1.000  C
  C51      1.0000 0.06349  0.46948  0.52293  Biso   1.000  C
  C52      1.0000 0.05589  0.54551  0.52955  Biso   1.000  C
  C53      1.0000 0.40600  0.93651  0.52293  Biso   1.000  C
  C54      1.0000 0.48959  0.94411  0.52955  Biso   1.000  C
  C55      1.0000 0.06100  0.50052  0.57640  Biso   1.000  C
  H37      1.0000 0.04760  0.50980  0.62491  Biso   1.000  H
  H38      1.0000 0.05848  0.46319  0.61961  Biso   1.000  H
  C56      1.0000 0.43950  0.93900  0.57640  Biso   1.000  C
  H39      1.0000 0.46221  0.95239  0.62491  Biso   1.000  H
  H40      1.0000 0.40471  0.94150  0.61961  Biso   1.000  H
  H41      1.0000 0.06468  0.44489  0.50909  Biso   1.000  H
  C57      1.0000 0.06399  0.46430  0.55671  Biso   1.000  C
  C58      1.0000 0.05571  0.54049  0.56312  Biso   1.000  C
  H42      1.0000 0.05249  0.57259  0.52031  Biso   1.000  H
  H43      1.0000 0.38021  0.93528  0.50909  Biso   1.000  H
  C59      1.0000 0.40030  0.93601  0.55671  Biso   1.000  C
  C60      1.0000 0.48481  0.94430  0.56312  Biso   1.000  C
  H44      1.0000 0.52008  0.94748  0.52031  Biso   1.000  H
  H45      1.0000 0.06639  0.43669  0.56600  Biso   1.000  H
  H46      1.0000 0.05190  0.56369  0.57681  Biso   1.000  H
  H47      1.0000 0.37029  0.93360  0.56600  Biso   1.000  H
  H48      1.0000 0.51179  0.94810  0.57681  Biso   1.000  H
  C61      1.0000 0.46949  0.40600  0.47707  Biso   1.000  C
  C62      1.0000 0.46428  0.40028  0.44331  Biso   1.000  C
  C63      1.0000 0.51148  0.45038  0.49047  Biso   1.000  C
  H49      1.0000 0.44489  0.38018  0.49091  Biso   1.000  H
  C64      1.0000 0.50049  0.43949  0.42363  Biso   1.000  C
  H50      1.0000 0.43669  0.37029  0.43400  Biso   1.000  H
  C65      1.0000 0.54550  0.48958  0.47047  Biso   1.000  C
  C66      1.0000 0.51979  0.45318  0.52670  Biso   1.000  C
  C67      1.0000 0.49849  0.42978  0.38711  Biso   1.000  C
  C68      1.0000 0.54048  0.48479  0.43688  Biso   1.000  C
  H51      1.0000 0.57258  0.52008  0.47971  Biso   1.000  H
  N13      1.0000 0.55128  0.42852  0.53424  Biso   1.000  N
  H52      1.0000 0.48639  0.43488  0.53802  Biso   1.000  H
  H53      1.0000 0.53800  0.48939  0.53391  Biso   1.000  H
  N14      1.0000 0.53404  0.40918  0.38017  Biso   1.000  N
  H54      1.0000 0.50978  0.46219  0.37511  Biso   1.000  H
  H55      1.0000 0.46319  0.40469  0.38041  Biso   1.000  H
  H56      1.0000 0.56368  0.51179  0.42319  Biso   1.000  H
  C69      1.0000 0.52769  0.37788  0.53814  Biso   1.000  C
  C70      1.0000 0.60340  0.45828  0.53461  Biso   1.000  C
  C71      1.0000 0.51418  0.35778  0.37925  Biso   1.000  C
  C72      1.0000 0.58339  0.44098  0.37719  Biso   1.000  C
  H57      1.0000 0.49130  0.35832  0.53850  Biso   1.000  H
  C73      1.0000 0.55620  0.35391  0.54164  Biso   1.000  C
  C74      1.0000 0.63299  0.43500  0.53865  Biso   1.000  C
  H58      1.0000 0.61921  0.49442  0.53212  Biso   1.000  H
  H59      1.0000 0.47812  0.33561  0.38051  Biso   1.000  H
  C75      1.0000 0.54589  0.33749  0.37661  Biso   1.000  C
  C76      1.0000 0.61779  0.42380  0.37475  Biso   1.000  C
  H60      1.0000 0.59579  0.47689  0.37671  Biso   1.000  H
  H61      1.0000 0.53929  0.31769  0.54421  Biso   1.000  H
  C77      1.0000 0.60871  0.38179  0.54143  Biso   1.000  C
  H62      1.0000 0.66950  0.45521  0.53952  Biso   1.000  H
  H63      1.0000 0.53229  0.30151  0.37620  Biso   1.000  H
  C78      1.0000 0.59900  0.37121  0.37453  Biso   1.000  C
  H64      1.0000 0.65350  0.44720  0.37320  Biso   1.000  H
  C79      1.0000 0.63903  0.35659  0.54290  Biso   1.000  C
  C80      1.0000 0.63511  0.35141  0.37354  Biso   1.000  C
  N15      1.0000 0.69086  0.38590  0.54293  Biso   1.000  N
  N16      1.0000 0.61408  0.30496  0.54293  Biso   1.000  N
  N17      1.0000 0.68511  0.38525  0.37349  Biso   1.000  N
  N18      1.0000 0.61477  0.29990  0.37349  Biso   1.000  N
  C81      1.0000 0.71756  0.36096  0.54290  Biso   1.000  C
  C82      1.0000 0.64341  0.28244  0.54290  Biso   1.000  C
  C83      1.0000 0.71631  0.36491  0.37354  Biso   1.000  C
  C84      1.0000 0.64860  0.28371  0.37354  Biso   1.000  C
  N19      1.0000 0.69503  0.30914  0.54293  Biso   1.000  N
  C85      1.0000 0.77309  0.39131  0.54143  Biso   1.000  C
  C86      1.0000 0.61820  0.22690  0.54143  Biso   1.000  C
  N20      1.0000 0.70010  0.31489  0.37349  Biso   1.000  N
  C87      1.0000 0.77220  0.40101  0.37453  Biso   1.000  C
  C88      1.0000 0.62879  0.22782  0.37453  Biso   1.000  C
  C89      1.0000 0.79770  0.44378  0.54164  Biso   1.000  C
  C90      1.0000 0.80199  0.36699  0.53865  Biso   1.000  C
  C91      1.0000 0.64610  0.20231  0.54164  Biso   1.000  C
  C92      1.0000 0.56499  0.19801  0.53865  Biso   1.000  C
  C93      1.0000 0.79160  0.45410  0.37661  Biso   1.000  C
  C94      1.0000 0.80602  0.38222  0.37475  Biso   1.000  C
  C95      1.0000 0.66251  0.20841  0.37661  Biso   1.000  C
  C96      1.0000 0.57620  0.19398  0.37475  Biso   1.000  C
  C97      1.0000 0.85019  0.47228  0.53814  Biso   1.000  C
  H65      1.0000 0.77839  0.46070  0.54421  Biso   1.000  H
  H66      1.0000 0.78571  0.33051  0.53952  Biso   1.000  H
  C98      1.0000 0.85490  0.39660  0.53461  Biso   1.000  C
  C99      1.0000 0.62210  0.14979  0.53814  Biso   1.000  C
  H67      1.0000 0.68229  0.22160  0.54421  Biso   1.000  H
  H68      1.0000 0.54480  0.21432  0.53952  Biso   1.000  H
  C100     1.0000 0.54170  0.14511  0.53461  Biso   1.000  C
  C101     1.0000 0.84358  0.48579  0.37925  Biso   1.000  C
  H69      1.0000 0.76919  0.46768  0.37620  Biso   1.000  H
  H70      1.0000 0.79371  0.34650  0.37320  Biso   1.000  H
  C102     1.0000 0.85759  0.41659  0.37719  Biso   1.000  C
  C103     1.0000 0.64218  0.15639  0.37925  Biso   1.000  C
  H71      1.0000 0.69849  0.23081  0.37620  Biso   1.000  H
  H72      1.0000 0.55279  0.20630  0.37320  Biso   1.000  H
  C104     1.0000 0.55900  0.14239  0.37719  Biso   1.000  C
  N21      1.0000 0.87721  0.44873  0.53424  Biso   1.000  N
  H73      1.0000 0.86699  0.50869  0.53850  Biso   1.000  H
  H74      1.0000 0.87520  0.38080  0.53212  Biso   1.000  H
  N22      1.0000 0.57147  0.12275  0.53424  Biso   1.000  N
  H75      1.0000 0.64171  0.13299  0.53850  Biso   1.000  H
  H76      1.0000 0.50559  0.12478  0.53212  Biso   1.000  H
  N23      1.0000 0.87516  0.46595  0.38017  Biso   1.000  N
  H77      1.0000 0.85748  0.52188  0.38051  Biso   1.000  H
  H78      1.0000 0.88109  0.40420  0.37671  Biso   1.000  H
  N24      1.0000 0.59080  0.12486  0.38017  Biso   1.000  N
  H79      1.0000 0.66440  0.14251  0.38051  Biso   1.000  H
  H80      1.0000 0.52311  0.11891  0.37671  Biso   1.000  H
  C105     1.0000 0.93340  0.48019  0.52670  Biso   1.000  C
  C106     1.0000 0.54678  0.06659  0.52670  Biso   1.000  C
  C107     1.0000 0.93131  0.50151  0.38711  Biso   1.000  C
  C108     1.0000 0.57020  0.06870  0.38711  Biso   1.000  C
  C109     1.0000 0.93889  0.48851  0.49047  Biso   1.000  C
  H81      1.0000 0.94848  0.51360  0.53802  Biso   1.000  H
  H82      1.0000 0.95139  0.46200  0.53391  Biso   1.000  H
  C110     1.0000 0.54959  0.06111  0.49047  Biso   1.000  C
  H83      1.0000 0.56509  0.05152  0.53802  Biso   1.000  H
  H84      1.0000 0.51061  0.04860  0.53391  Biso   1.000  H
  C111     1.0000 0.93900  0.49948  0.42363  Biso   1.000  C
  H85      1.0000 0.95239  0.49020  0.37511  Biso   1.000  H
  H86      1.0000 0.94151  0.53680  0.38041  Biso   1.000  H
  C112     1.0000 0.56049  0.06099  0.42363  Biso   1.000  C
  H87      1.0000 0.53779  0.04760  0.37511  Biso   1.000  H
  H88      1.0000 0.59529  0.05850  0.38041  Biso   1.000  H
  C113     1.0000 0.93651  0.53051  0.47707  Biso   1.000  C
  C114     1.0000 0.94410  0.45448  0.47047  Biso   1.000  C
  C115     1.0000 0.59400  0.06349  0.47707  Biso   1.000  C
  C116     1.0000 0.51040  0.05589  0.47047  Biso   1.000  C
  C117     1.0000 0.93601  0.53569  0.44331  Biso   1.000  C
  C118     1.0000 0.94429  0.45951  0.43688  Biso   1.000  C
  C119     1.0000 0.59970  0.06398  0.44331  Biso   1.000  C
  C120     1.0000 0.51519  0.05570  0.43688  Biso   1.000  C
  H89      1.0000 0.93531  0.55510  0.49091  Biso   1.000  H
  H90      1.0000 0.94751  0.42740  0.47971  Biso   1.000  H
  H91      1.0000 0.61979  0.06471  0.49091  Biso   1.000  H
  H92      1.0000 0.47991  0.05251  0.47971  Biso   1.000  H
  H93      1.0000 0.93361  0.56331  0.43400  Biso   1.000  H
  H94      1.0000 0.94810  0.43630  0.42319  Biso   1.000  H
  H95      1.0000 0.62971  0.06640  0.43400  Biso   1.000  H
  H96      1.0000 0.48821  0.05190  0.42319  Biso   1.000  H
  C121     1.0000 0.16817  0.26464  0.44624  Biso   1.000  C
  C122     1.0000 0.16616  0.27231  0.40972  Biso   1.000  C
  N25      1.0000 0.13261  0.20848  0.45316  Biso   1.000  N
  H97      1.0000 0.15686  0.28574  0.45823  Biso   1.000  H
  H98      1.0000 0.20347  0.27485  0.45294  Biso   1.000  H
  C123     1.0000 0.20236  0.26932  0.39004  Biso   1.000  C
  C124     1.0000 0.12617  0.27765  0.39647  Biso   1.000  C
  C125     1.0000 0.15247  0.17691  0.45410  Biso   1.000  C
  C126     1.0000 0.08327  0.19092  0.45615  Biso   1.000  C
  C127     1.0000 0.15244  0.17691  0.45410  Biso   1.000  C
  C128     1.0000 0.19717  0.26982  0.35625  Biso   1.000  C
  H99      1.0000 0.22998  0.26694  0.39935  Biso   1.000  H
  C129     1.0000 0.12117  0.27742  0.36288  Biso   1.000  C
  H100     1.0000 0.10298  0.28144  0.41013  Biso   1.000  H
  H101     1.0000 0.18857  0.19084  0.45284  Biso   1.000  H
  C130     1.0000 0.12077  0.12494  0.45674  Biso   1.000  C
  C131     1.0000 0.04887  0.13932  0.45860  Biso   1.000  C
  H102     1.0000 0.07087  0.21443  0.45664  Biso   1.000  H
  C132     1.0000 0.15515  0.27224  0.34288  Biso   1.000  C
  H103     1.0000 0.22175  0.26863  0.34244  Biso   1.000  H
  H104     1.0000 0.09407  0.28083  0.35364  Biso   1.000  H
  H105     1.0000 0.13435  0.10254  0.45715  Biso   1.000  H
  C133     1.0000 0.06768  0.10553  0.45879  Biso   1.000  C
  H106     1.0000 0.13438  0.10254  0.45715  Biso   1.000  H
  C134     1.0000 0.06765  0.10553  0.45879  Biso   1.000  C
  H107     1.0000 0.01316  0.12705  0.46015  Biso   1.000  H
  C135     1.0000 0.14684  0.26671  0.30663  Biso   1.000  C
  C136     1.0000 0.03156  0.04964  0.45978  Biso   1.000  C
  N26      1.0000 0.11538  0.21056  0.29911  Biso   1.000  N
  N27      1.0000 0.11541  0.21056  0.29911  Biso   1.000  N
  H108     1.0000 0.18028  0.28183  0.29533  Biso   1.000  H
  H109     1.0000 0.12868  0.28474  0.29944  Biso   1.000  H
  H110     1.0000 0.18025  0.28183  0.29533  Biso   1.000  H
  N28      1.0000 0.05188  0.01845  0.45985  Biso   1.000  N
  N29      1.0000 0.98154  0.03345  0.45985  Biso   1.000  N
  C137     1.0000 0.13898  0.18355  0.29519  Biso   1.000  C
  C138     1.0000 0.06325  0.18823  0.29874  Biso   1.000  C
  C139     1.0000 0.01807  0.96843  0.45978  Biso   1.000  C
  C140     1.0000 0.95037  0.98193  0.45978  Biso   1.000  C
  H111     1.0000 0.17537  0.20031  0.29482  Biso   1.000  H
  C141     1.0000 0.11047  0.13104  0.29168  Biso   1.000  C
  H112     1.0000 0.17539  0.20035  0.29482  Biso   1.000  H
  C142     1.0000 0.03368  0.13533  0.29470  Biso   1.000  C
  H113     1.0000 0.04745  0.20852  0.30123  Biso   1.000  H
  C143     1.0000 0.03365  0.13533  0.29470  Biso   1.000  C
  N30      1.0000 0.96654  0.94810  0.45985  Biso   1.000  N
  C144     1.0000 0.03786  0.93233  0.45879  Biso   1.000  C
  C145     1.0000 0.89446  0.96214  0.45879  Biso   1.000  C
  H114     1.0000 0.12736  0.11174  0.28914  Biso   1.000  H
  C146     1.0000 0.05797  0.10645  0.29190  Biso   1.000  C
  H115     1.0000 0.99716  0.11903  0.29383  Biso   1.000  H
  C147     1.0000 0.00417  0.87924  0.45674  Biso   1.000  C
  C148     1.0000 0.09047  0.95113  0.45860  Biso   1.000  C
  C149     1.0000 0.87506  0.99582  0.45674  Biso   1.000  C
  C150     1.0000 0.86066  0.90955  0.45860  Biso   1.000  C
  C151     1.0000 0.02762  0.05086  0.29045  Biso   1.000  C
  H116     1.0000 0.96816  0.86563  0.45715  Biso   1.000  H
  C152     1.0000 0.02445  0.84752  0.45410  Biso   1.000  C
  H117     1.0000 0.11388  0.98684  0.46015  Biso   1.000  H
  C153     1.0000 0.10765  0.91672  0.45615  Biso   1.000  C
  C154     1.0000 0.82306  0.97553  0.45410  Biso   1.000  C
  H118     1.0000 0.89746  0.03184  0.45715  Biso   1.000  H
  H119     1.0000 0.87298  0.88615  0.46015  Biso   1.000  H
  C155     1.0000 0.80906  0.89232  0.45615  Biso   1.000  C
  N31      1.0000 0.05260  0.02420  0.29042  Biso   1.000  N
  N32      1.0000 0.05256  0.02420  0.29042  Biso   1.000  N
  N33      1.0000 0.97582  0.02839  0.29042  Biso   1.000  N
  N34      1.0000 0.97579  0.02839  0.29042  Biso   1.000  N
  N35      1.0000 0.07588  0.86739  0.45316  Biso   1.000  N
  N36      1.0000 0.07585  0.86739  0.45316  Biso   1.000  N
  H120     1.0000 0.00225  0.81142  0.45284  Biso   1.000  H
  H121     1.0000 0.14357  0.92915  0.45664  Biso   1.000  H
  N37      1.0000 0.79151  0.92412  0.45316  Biso   1.000  N
  H122     1.0000 0.80918  0.99774  0.45284  Biso   1.000  H
  H123     1.0000 0.78556  0.85642  0.45664  Biso   1.000  H
  C156     1.0000 0.02326  0.97238  0.29045  Biso   1.000  C
  C157     1.0000 0.02323  0.97238  0.29045  Biso   1.000  C
  C158     1.0000 0.94914  0.97675  0.29045  Biso   1.000  C
  C159     1.0000 0.94911  0.97675  0.29045  Biso   1.000  C
  C160     1.0000 0.09647  0.83183  0.44624  Biso   1.000  C
  C161     1.0000 0.73537  0.90353  0.44624  Biso   1.000  C
  N38      1.0000 0.97161  0.94741  0.29042  Biso   1.000  N
  C162     1.0000 0.04846  0.94204  0.29190  Biso   1.000  C
  C163     1.0000 0.89359  0.95155  0.29190  Biso   1.000  C
  C164     1.0000 0.10617  0.83383  0.40972  Biso   1.000  C
  H124     1.0000 0.12887  0.84315  0.45823  Biso   1.000  H
  H125     1.0000 0.07138  0.79654  0.45294  Biso   1.000  H
  C165     1.0000 0.72766  0.89382  0.40972  Biso   1.000  C
  H126     1.0000 0.71426  0.87115  0.45823  Biso   1.000  H
  H127     1.0000 0.72517  0.92865  0.45294  Biso   1.000  H
  C166     1.0000 0.02057  0.88952  0.29168  Biso   1.000  C
  C167     1.0000 0.10166  0.96632  0.29470  Biso   1.000  C
  C168     1.0000 0.86896  0.97944  0.29168  Biso   1.000  C
  C169     1.0000 0.86466  0.89835  0.29470  Biso   1.000  C
  C170     1.0000 0.06699  0.79765  0.39004  Biso   1.000  C
  C171     1.0000 0.15145  0.87384  0.39647  Biso   1.000  C
  C172     1.0000 0.73065  0.93302  0.39004  Biso   1.000  C
  C173     1.0000 0.73068  0.93302  0.39004  Biso   1.000  C
  C174     1.0000 0.72235  0.84852  0.39647  Biso   1.000  C
  H128     1.0000 0.98436  0.87265  0.28914  Biso   1.000  H
  C175     1.0000 0.04456  0.86102  0.29519  Biso   1.000  C
  H129     1.0000 0.12188  0.00284  0.29383  Biso   1.000  H
  C176     1.0000 0.12497  0.93675  0.29874  Biso   1.000  C
  C177     1.0000 0.81646  0.95543  0.29519  Biso   1.000  C
  H130     1.0000 0.88827  0.01565  0.28914  Biso   1.000  H
  H131     1.0000 0.88096  0.87813  0.29383  Biso   1.000  H
  C178     1.0000 0.81177  0.87502  0.29874  Biso   1.000  C
  C179     1.0000 0.07267  0.80283  0.35625  Biso   1.000  C
  H132     1.0000 0.03697  0.77003  0.39935  Biso   1.000  H
  C180     1.0000 0.15627  0.87882  0.36288  Biso   1.000  C
  C181     1.0000 0.15624  0.87882  0.36288  Biso   1.000  C
  H133     1.0000 0.17847  0.89704  0.41013  Biso   1.000  H
  C182     1.0000 0.73017  0.92735  0.35625  Biso   1.000  C
  H134     1.0000 0.73306  0.96302  0.39935  Biso   1.000  H
  C183     1.0000 0.72257  0.84372  0.36288  Biso   1.000  C
  H135     1.0000 0.71856  0.82155  0.41013  Biso   1.000  H
  N39      1.0000 0.09519  0.88461  0.29911  Biso   1.000  N
  H136     1.0000 0.02496  0.82462  0.29482  Biso   1.000  H
  N40      1.0000 0.09515  0.88461  0.29911  Biso   1.000  N
  H137     1.0000 0.16108  0.95255  0.30123  Biso   1.000  H
  N41      1.0000 0.78944  0.90483  0.29911  Biso   1.000  N
  H138     1.0000 0.79965  0.97503  0.29482  Biso   1.000  H
  H139     1.0000 0.79147  0.83893  0.30123  Biso   1.000  H
  C184     1.0000 0.11706  0.84484  0.34288  Biso   1.000  C
  H140     1.0000 0.04689  0.77824  0.34244  Biso   1.000  H
  H141     1.0000 0.04685  0.77824  0.34244  Biso   1.000  H
  H142     1.0000 0.18678  0.90594  0.35364  Biso   1.000  H
  C185     1.0000 0.72776  0.88293  0.34288  Biso   1.000  C
  H143     1.0000 0.73136  0.95312  0.34244  Biso   1.000  H
  H144     1.0000 0.71915  0.81323  0.35364  Biso   1.000  H
  C186     1.0000 0.11987  0.85312  0.30663  Biso   1.000  C
  C187     1.0000 0.73327  0.88013  0.30663  Biso   1.000  C
  H145     1.0000 0.10159  0.81975  0.29533  Biso   1.000  H
  H146     1.0000 0.15605  0.87134  0.29944  Biso   1.000  H
  H147     1.0000 0.15609  0.87134  0.29944  Biso   1.000  H
  H148     1.0000 0.10156  0.81975  0.29533  Biso   1.000  H
  H149     1.0000 0.71816  0.89842  0.29533  Biso   1.000  H
  H150     1.0000 0.71526  0.84391  0.29944  Biso   1.000  H
  H151     1.0000 0.71528  0.84395  0.29944  Biso   1.000  H
  C188     1.0000 0.16817  0.26464  0.44624  Biso   1.000  C
  C189     1.0000 0.16616  0.27231  0.40972  Biso   1.000  C
  N42      1.0000 0.13261  0.20848  0.45316  Biso   1.000  N
  H152     1.0000 0.15686  0.28574  0.45823  Biso   1.000  H
  H153     1.0000 0.20347  0.27485  0.45294  Biso   1.000  H
  C190     1.0000 0.20236  0.26932  0.39004  Biso   1.000  C
  C191     1.0000 0.12617  0.27765  0.39647  Biso   1.000  C
  C192     1.0000 0.15247  0.17691  0.45410  Biso   1.000  C
  C193     1.0000 0.08327  0.19092  0.45615  Biso   1.000  C
  C194     1.0000 0.15244  0.17691  0.45410  Biso   1.000  C
  C195     1.0000 0.19717  0.26982  0.35625  Biso   1.000  C
  H154     1.0000 0.22998  0.26694  0.39935  Biso   1.000  H
  C196     1.0000 0.12117  0.27742  0.36288  Biso   1.000  C
  H155     1.0000 0.10298  0.28144  0.41013  Biso   1.000  H
  H156     1.0000 0.18857  0.19084  0.45284  Biso   1.000  H
  C197     1.0000 0.12077  0.12494  0.45674  Biso   1.000  C
  C198     1.0000 0.04887  0.13932  0.45860  Biso   1.000  C
  H157     1.0000 0.07087  0.21443  0.45664  Biso   1.000  H
  C199     1.0000 0.15515  0.27224  0.34288  Biso   1.000  C
  H158     1.0000 0.22175  0.26863  0.34244  Biso   1.000  H
  H159     1.0000 0.09407  0.28083  0.35364  Biso   1.000  H
  C200     1.0000 0.06768  0.10553  0.45879  Biso   1.000  C
  H160     1.0000 0.13435  0.10254  0.45715  Biso   1.000  H
  C201     1.0000 0.06765  0.10553  0.45879  Biso   1.000  C
  H161     1.0000 0.13438  0.10254  0.45715  Biso   1.000  H
  H162     1.0000 0.01316  0.12705  0.46015  Biso   1.000  H
  C202     1.0000 0.14684  0.26671  0.30663  Biso   1.000  C
  C203     1.0000 0.03156  0.04964  0.45978  Biso   1.000  C
  N43      1.0000 0.11538  0.21056  0.29911  Biso   1.000  N
  N44      1.0000 0.11541  0.21056  0.29911  Biso   1.000  N
  H163     1.0000 0.18028  0.28183  0.29533  Biso   1.000  H
  H164     1.0000 0.12868  0.28474  0.29944  Biso   1.000  H
  H165     1.0000 0.18025  0.28183  0.29533  Biso   1.000  H
  N45      1.0000 0.05188  0.01845  0.45985  Biso   1.000  N
  N46      1.0000 0.98154  0.03345  0.45985  Biso   1.000  N
  C204     1.0000 0.13898  0.18355  0.29519  Biso   1.000  C
  C205     1.0000 0.06325  0.18823  0.29874  Biso   1.000  C
  C206     1.0000 0.01807  0.96843  0.45978  Biso   1.000  C
  C207     1.0000 0.95037  0.98193  0.45978  Biso   1.000  C
  C208     1.0000 0.11047  0.13104  0.29168  Biso   1.000  C
  H166     1.0000 0.17537  0.20031  0.29482  Biso   1.000  H
  H167     1.0000 0.17539  0.20035  0.29482  Biso   1.000  H
  C209     1.0000 0.03368  0.13533  0.29470  Biso   1.000  C
  C210     1.0000 0.03365  0.13533  0.29470  Biso   1.000  C
  H168     1.0000 0.04745  0.20852  0.30123  Biso   1.000  H
  N47      1.0000 0.96654  0.94810  0.45985  Biso   1.000  N
  C211     1.0000 0.03786  0.93233  0.45879  Biso   1.000  C
  C212     1.0000 0.89446  0.96214  0.45879  Biso   1.000  C
  H169     1.0000 0.12736  0.11174  0.28914  Biso   1.000  H
  C213     1.0000 0.05797  0.10645  0.29190  Biso   1.000  C
  H170     1.0000 0.99716  0.11903  0.29383  Biso   1.000  H
  C214     1.0000 0.00417  0.87924  0.45674  Biso   1.000  C
  C215     1.0000 0.09047  0.95113  0.45860  Biso   1.000  C
  C216     1.0000 0.87506  0.99582  0.45674  Biso   1.000  C
  C217     1.0000 0.86066  0.90955  0.45860  Biso   1.000  C
  C218     1.0000 0.02762  0.05086  0.29045  Biso   1.000  C
  C219     1.0000 0.02445  0.84752  0.45410  Biso   1.000  C
  H171     1.0000 0.96816  0.86563  0.45715  Biso   1.000  H
  C220     1.0000 0.10765  0.91672  0.45615  Biso   1.000  C
  H172     1.0000 0.11388  0.98684  0.46015  Biso   1.000  H
  C221     1.0000 0.82306  0.97553  0.45410  Biso   1.000  C
  H173     1.0000 0.89746  0.03184  0.45715  Biso   1.000  H
  C222     1.0000 0.80906  0.89232  0.45615  Biso   1.000  C
  H174     1.0000 0.87298  0.88615  0.46015  Biso   1.000  H
  N48      1.0000 0.05260  0.02420  0.29042  Biso   1.000  N
  N49      1.0000 0.05256  0.02420  0.29042  Biso   1.000  N
  N50      1.0000 0.97582  0.02839  0.29042  Biso   1.000  N
  N51      1.0000 0.97579  0.02839  0.29042  Biso   1.000  N
  N52      1.0000 0.07588  0.86739  0.45316  Biso   1.000  N
  N53      1.0000 0.07585  0.86739  0.45316  Biso   1.000  N
  H175     1.0000 0.00225  0.81142  0.45284  Biso   1.000  H
  H176     1.0000 0.14357  0.92915  0.45664  Biso   1.000  H
  N54      1.0000 0.79151  0.92412  0.45316  Biso   1.000  N
  H177     1.0000 0.80918  0.99774  0.45284  Biso   1.000  H
  H178     1.0000 0.78556  0.85642  0.45664  Biso   1.000  H
  C223     1.0000 0.02326  0.97238  0.29045  Biso   1.000  C
  C224     1.0000 0.02323  0.97238  0.29045  Biso   1.000  C
  C225     1.0000 0.94914  0.97675  0.29045  Biso   1.000  C
  C226     1.0000 0.94911  0.97675  0.29045  Biso   1.000  C
  C227     1.0000 0.09647  0.83183  0.44624  Biso   1.000  C
  C228     1.0000 0.73537  0.90353  0.44624  Biso   1.000  C
  N55      1.0000 0.97161  0.94741  0.29042  Biso   1.000  N
  C229     1.0000 0.04846  0.94204  0.29190  Biso   1.000  C
  C230     1.0000 0.89359  0.95155  0.29190  Biso   1.000  C
  C231     1.0000 0.10617  0.83383  0.40972  Biso   1.000  C
  H179     1.0000 0.12887  0.84315  0.45823  Biso   1.000  H
  H180     1.0000 0.07138  0.79654  0.45294  Biso   1.000  H
  C232     1.0000 0.72766  0.89382  0.40972  Biso   1.000  C
  H181     1.0000 0.71426  0.87115  0.45823  Biso   1.000  H
  H182     1.0000 0.72517  0.92865  0.45294  Biso   1.000  H
  C233     1.0000 0.02057  0.88952  0.29168  Biso   1.000  C
  C234     1.0000 0.10166  0.96632  0.29470  Biso   1.000  C
  C235     1.0000 0.86896  0.97944  0.29168  Biso   1.000  C
  C236     1.0000 0.86466  0.89835  0.29470  Biso   1.000  C
  C237     1.0000 0.06699  0.79765  0.39004  Biso   1.000  C
  C238     1.0000 0.15145  0.87384  0.39647  Biso   1.000  C
  C239     1.0000 0.73065  0.93302  0.39004  Biso   1.000  C
  C240     1.0000 0.73068  0.93302  0.39004  Biso   1.000  C
  C241     1.0000 0.72235  0.84852  0.39647  Biso   1.000  C
  H183     1.0000 0.98436  0.87265  0.28914  Biso   1.000  H
  C242     1.0000 0.04456  0.86102  0.29519  Biso   1.000  C
  H184     1.0000 0.12188  0.00284  0.29383  Biso   1.000  H
  C243     1.0000 0.12497  0.93675  0.29874  Biso   1.000  C
  C244     1.0000 0.81646  0.95543  0.29519  Biso   1.000  C
  H185     1.0000 0.88827  0.01565  0.28914  Biso   1.000  H
  H186     1.0000 0.88096  0.87813  0.29383  Biso   1.000  H
  C245     1.0000 0.81177  0.87502  0.29874  Biso   1.000  C
  C246     1.0000 0.07267  0.80283  0.35625  Biso   1.000  C
  H187     1.0000 0.03697  0.77003  0.39935  Biso   1.000  H
  C247     1.0000 0.15627  0.87882  0.36288  Biso   1.000  C
  C248     1.0000 0.15624  0.87882  0.36288  Biso   1.000  C
  H188     1.0000 0.17847  0.89704  0.41013  Biso   1.000  H
  C249     1.0000 0.73017  0.92735  0.35625  Biso   1.000  C
  H189     1.0000 0.73306  0.96302  0.39935  Biso   1.000  H
  C250     1.0000 0.72257  0.84372  0.36288  Biso   1.000  C
  H190     1.0000 0.71856  0.82155  0.41013  Biso   1.000  H
  N56      1.0000 0.09519  0.88461  0.29911  Biso   1.000  N
  H191     1.0000 0.02496  0.82462  0.29482  Biso   1.000  H
  N57      1.0000 0.09515  0.88461  0.29911  Biso   1.000  N
  H192     1.0000 0.16108  0.95255  0.30123  Biso   1.000  H
  N58      1.0000 0.78944  0.90483  0.29911  Biso   1.000  N
  H193     1.0000 0.79965  0.97503  0.29482  Biso   1.000  H
  H194     1.0000 0.79147  0.83893  0.30123  Biso   1.000  H
  C251     1.0000 0.11706  0.84484  0.34288  Biso   1.000  C
  H195     1.0000 0.04689  0.77824  0.34244  Biso   1.000  H
  H196     1.0000 0.04685  0.77824  0.34244  Biso   1.000  H
  H197     1.0000 0.18678  0.90594  0.35364  Biso   1.000  H
  C252     1.0000 0.72776  0.88293  0.34288  Biso   1.000  C
  H198     1.0000 0.73136  0.95312  0.34244  Biso   1.000  H
  H199     1.0000 0.71915  0.81323  0.35364  Biso   1.000  H
  C253     1.0000 0.11987  0.85312  0.30663  Biso   1.000  C
  C254     1.0000 0.73327  0.88013  0.30663  Biso   1.000  C
  H200     1.0000 0.10159  0.81975  0.29533  Biso   1.000  H
  H201     1.0000 0.15605  0.87134  0.29944  Biso   1.000  H
  H202     1.0000 0.15609  0.87134  0.29944  Biso   1.000  H
  H203     1.0000 0.10156  0.81975  0.29533  Biso   1.000  H
  H204     1.0000 0.71816  0.89842  0.29533  Biso   1.000  H
  H205     1.0000 0.71526  0.84391  0.29944  Biso   1.000  H
  H206     1.0000 0.71528  0.84395  0.29944  Biso   1.000  H
  C255     1.0000 0.16817  0.26464  0.44624  Biso   1.000  C
  C256     1.0000 0.16616  0.27231  0.40972  Biso   1.000  C
  N59      1.0000 0.13261  0.20848  0.45316  Biso   1.000  N
  H207     1.0000 0.15686  0.28574  0.45823  Biso   1.000  H
  H208     1.0000 0.20347  0.27485  0.45294  Biso   1.000  H
  C257     1.0000 0.20236  0.26932  0.39004  Biso   1.000  C
  C258     1.0000 0.12617  0.27765  0.39647  Biso   1.000  C
  C259     1.0000 0.08327  0.19092  0.45615  Biso   1.000  C
  C260     1.0000 0.15247  0.17691  0.45410  Biso   1.000  C
  C261     1.0000 0.15244  0.17691  0.45410  Biso   1.000  C
  C262     1.0000 0.19717  0.26982  0.35625  Biso   1.000  C
  H209     1.0000 0.22998  0.26694  0.39935  Biso   1.000  H
  C263     1.0000 0.12117  0.27742  0.36288  Biso   1.000  C
  H210     1.0000 0.10298  0.28144  0.41013  Biso   1.000  H
  C264     1.0000 0.04887  0.13932  0.45860  Biso   1.000  C
  H211     1.0000 0.07087  0.21443  0.45664  Biso   1.000  H
  H212     1.0000 0.18857  0.19084  0.45284  Biso   1.000  H
  C265     1.0000 0.12077  0.12494  0.45674  Biso   1.000  C
  C266     1.0000 0.15515  0.27224  0.34288  Biso   1.000  C
  H213     1.0000 0.22175  0.26863  0.34244  Biso   1.000  H
  H214     1.0000 0.09407  0.28083  0.35364  Biso   1.000  H
  H215     1.0000 0.01316  0.12705  0.46015  Biso   1.000  H
  C267     1.0000 0.06768  0.10553  0.45879  Biso   1.000  C
  C268     1.0000 0.06765  0.10553  0.45879  Biso   1.000  C
  H216     1.0000 0.13435  0.10254  0.45715  Biso   1.000  H
  H217     1.0000 0.13438  0.10254  0.45715  Biso   1.000  H
  C269     1.0000 0.14684  0.26671  0.30663  Biso   1.000  C
  C270     1.0000 0.03156  0.04964  0.45978  Biso   1.000  C
  N60      1.0000 0.11538  0.21056  0.29911  Biso   1.000  N
  N61      1.0000 0.11541  0.21056  0.29911  Biso   1.000  N
  H218     1.0000 0.12868  0.28474  0.29944  Biso   1.000  H
  H219     1.0000 0.18028  0.28183  0.29533  Biso   1.000  H
  H220     1.0000 0.18025  0.28183  0.29533  Biso   1.000  H
  N62      1.0000 0.05188  0.01845  0.45985  Biso   1.000  N
  N63      1.0000 0.98154  0.03345  0.45985  Biso   1.000  N
  C271     1.0000 0.13898  0.18355  0.29519  Biso   1.000  C
  C272     1.0000 0.06325  0.18823  0.29874  Biso   1.000  C
  C273     1.0000 0.01807  0.96843  0.45978  Biso   1.000  C
  C274     1.0000 0.95037  0.98193  0.45978  Biso   1.000  C
  C275     1.0000 0.11047  0.13104  0.29168  Biso   1.000  C
  H221     1.0000 0.17537  0.20031  0.29482  Biso   1.000  H
  H222     1.0000 0.17539  0.20035  0.29482  Biso   1.000  H
  C276     1.0000 0.03368  0.13533  0.29470  Biso   1.000  C
  C277     1.0000 0.03365  0.13533  0.29470  Biso   1.000  C
  H223     1.0000 0.04745  0.20852  0.30123  Biso   1.000  H
  N64      1.0000 0.96654  0.94810  0.45985  Biso   1.000  N
  C278     1.0000 0.03786  0.93233  0.45879  Biso   1.000  C
  C279     1.0000 0.89446  0.96214  0.45879  Biso   1.000  C
  H224     1.0000 0.12736  0.11174  0.28914  Biso   1.000  H
  C280     1.0000 0.05797  0.10645  0.29190  Biso   1.000  C
  H225     1.0000 0.99716  0.11903  0.29383  Biso   1.000  H
  C281     1.0000 0.00417  0.87924  0.45674  Biso   1.000  C
  C282     1.0000 0.09047  0.95113  0.45860  Biso   1.000  C
  C283     1.0000 0.87506  0.99582  0.45674  Biso   1.000  C
  C284     1.0000 0.86066  0.90955  0.45860  Biso   1.000  C
  C285     1.0000 0.02762  0.05086  0.29045  Biso   1.000  C
  C286     1.0000 0.02445  0.84752  0.45410  Biso   1.000  C
  H226     1.0000 0.96816  0.86563  0.45715  Biso   1.000  H
  C287     1.0000 0.10765  0.91672  0.45615  Biso   1.000  C
  H227     1.0000 0.11388  0.98684  0.46015  Biso   1.000  H
  C288     1.0000 0.82306  0.97553  0.45410  Biso   1.000  C
  H228     1.0000 0.89746  0.03184  0.45715  Biso   1.000  H
  C289     1.0000 0.80906  0.89232  0.45615  Biso   1.000  C
  H229     1.0000 0.87298  0.88615  0.46015  Biso   1.000  H
  N65      1.0000 0.97582  0.02839  0.29042  Biso   1.000  N
  N66      1.0000 0.97579  0.02839  0.29042  Biso   1.000  N
  N67      1.0000 0.05260  0.02420  0.29042  Biso   1.000  N
  N68      1.0000 0.05256  0.02420  0.29042  Biso   1.000  N
  N69      1.0000 0.07588  0.86739  0.45316  Biso   1.000  N
  N70      1.0000 0.07585  0.86739  0.45316  Biso   1.000  N
  H230     1.0000 0.00225  0.81142  0.45284  Biso   1.000  H
  H231     1.0000 0.14357  0.92915  0.45664  Biso   1.000  H
  N71      1.0000 0.79151  0.92412  0.45316  Biso   1.000  N
  H232     1.0000 0.80918  0.99774  0.45284  Biso   1.000  H
  H233     1.0000 0.78556  0.85642  0.45664  Biso   1.000  H
  C290     1.0000 0.94914  0.97675  0.29045  Biso   1.000  C
  C291     1.0000 0.94911  0.97675  0.29045  Biso   1.000  C
  C292     1.0000 0.02326  0.97238  0.29045  Biso   1.000  C
  C293     1.0000 0.02323  0.97238  0.29045  Biso   1.000  C
  C294     1.0000 0.09647  0.83183  0.44624  Biso   1.000  C
  C295     1.0000 0.73537  0.90353  0.44624  Biso   1.000  C
  N72      1.0000 0.97161  0.94741  0.29042  Biso   1.000  N
  C296     1.0000 0.89359  0.95155  0.29190  Biso   1.000  C
  C297     1.0000 0.04846  0.94204  0.29190  Biso   1.000  C
  C298     1.0000 0.10617  0.83383  0.40972  Biso   1.000  C
  H234     1.0000 0.12887  0.84315  0.45823  Biso   1.000  H
  H235     1.0000 0.07138  0.79654  0.45294  Biso   1.000  H
  C299     1.0000 0.72766  0.89382  0.40972  Biso   1.000  C
  H236     1.0000 0.71426  0.87115  0.45823  Biso   1.000  H
  H237     1.0000 0.72517  0.92865  0.45294  Biso   1.000  H
  C300     1.0000 0.86896  0.97944  0.29168  Biso   1.000  C
  C301     1.0000 0.86466  0.89835  0.29470  Biso   1.000  C
  C302     1.0000 0.02057  0.88952  0.29168  Biso   1.000  C
  C303     1.0000 0.10166  0.96632  0.29470  Biso   1.000  C
  C304     1.0000 0.06699  0.79765  0.39004  Biso   1.000  C
  C305     1.0000 0.15145  0.87384  0.39647  Biso   1.000  C
  C306     1.0000 0.73065  0.93302  0.39004  Biso   1.000  C
  C307     1.0000 0.73068  0.93302  0.39004  Biso   1.000  C
  C308     1.0000 0.72235  0.84852  0.39647  Biso   1.000  C
  C309     1.0000 0.81646  0.95543  0.29519  Biso   1.000  C
  H238     1.0000 0.88827  0.01565  0.28914  Biso   1.000  H
  H239     1.0000 0.88096  0.87813  0.29383  Biso   1.000  H
  C310     1.0000 0.81177  0.87502  0.29874  Biso   1.000  C
  H240     1.0000 0.98436  0.87265  0.28914  Biso   1.000  H
  C311     1.0000 0.04456  0.86102  0.29519  Biso   1.000  C
  H241     1.0000 0.12188  0.00284  0.29383  Biso   1.000  H
  C312     1.0000 0.12497  0.93675  0.29874  Biso   1.000  C
  C313     1.0000 0.07267  0.80283  0.35625  Biso   1.000  C
  H242     1.0000 0.03697  0.77003  0.39935  Biso   1.000  H
  C314     1.0000 0.15627  0.87882  0.36288  Biso   1.000  C
  C315     1.0000 0.15624  0.87882  0.36288  Biso   1.000  C
  H243     1.0000 0.17847  0.89704  0.41013  Biso   1.000  H
  C316     1.0000 0.73017  0.92735  0.35625  Biso   1.000  C
  H244     1.0000 0.73306  0.96302  0.39935  Biso   1.000  H
  C317     1.0000 0.72257  0.84372  0.36288  Biso   1.000  C
  H245     1.0000 0.71856  0.82155  0.41013  Biso   1.000  H
  N73      1.0000 0.78944  0.90483  0.29911  Biso   1.000  N
  H246     1.0000 0.79965  0.97503  0.29482  Biso   1.000  H
  H247     1.0000 0.79147  0.83893  0.30123  Biso   1.000  H
  N74      1.0000 0.09519  0.88461  0.29911  Biso   1.000  N
  H248     1.0000 0.02496  0.82462  0.29482  Biso   1.000  H
  N75      1.0000 0.09515  0.88461  0.29911  Biso   1.000  N
  H249     1.0000 0.16108  0.95255  0.30123  Biso   1.000  H
  C318     1.0000 0.11706  0.84484  0.34288  Biso   1.000  C
  H250     1.0000 0.04689  0.77824  0.34244  Biso   1.000  H
  H251     1.0000 0.04685  0.77824  0.34244  Biso   1.000  H
  H252     1.0000 0.18678  0.90594  0.35364  Biso   1.000  H
  C319     1.0000 0.72776  0.88293  0.34288  Biso   1.000  C
  H253     1.0000 0.73136  0.95312  0.34244  Biso   1.000  H
  H254     1.0000 0.71915  0.81323  0.35364  Biso   1.000  H
  C320     1.0000 0.73327  0.88013  0.30663  Biso   1.000  C
  C321     1.0000 0.11987  0.85312  0.30663  Biso   1.000  C
  H255     1.0000 0.71816  0.89842  0.29533  Biso   1.000  H
  H256     1.0000 0.71526  0.84391  0.29944  Biso   1.000  H
  H257     1.0000 0.71528  0.84395  0.29944  Biso   1.000  H
  H258     1.0000 0.10159  0.81975  0.29533  Biso   1.000  H
  H259     1.0000 0.15605  0.87134  0.29944  Biso   1.000  H
  H260     1.0000 0.15609  0.87134  0.29944  Biso   1.000  H
  H261     1.0000 0.10156  0.81975  0.29533  Biso   1.000  H
  C322     1.0000 0.16817  0.26464  0.44624  Biso   1.000  C
  C323     1.0000 0.16616  0.27231  0.40972  Biso   1.000  C
  N76      1.0000 0.13261  0.20848  0.45316  Biso   1.000  N
  H262     1.0000 0.15686  0.28574  0.45823  Biso   1.000  H
  H263     1.0000 0.20347  0.27485  0.45294  Biso   1.000  H
  C324     1.0000 0.20236  0.26932  0.39004  Biso   1.000  C
  C325     1.0000 0.12617  0.27765  0.39647  Biso   1.000  C
  C326     1.0000 0.08327  0.19092  0.45615  Biso   1.000  C
  C327     1.0000 0.15247  0.17691  0.45410  Biso   1.000  C
  C328     1.0000 0.15244  0.17691  0.45410  Biso   1.000  C
  C329     1.0000 0.19717  0.26982  0.35625  Biso   1.000  C
  H264     1.0000 0.22998  0.26694  0.39935  Biso   1.000  H
  C330     1.0000 0.12117  0.27742  0.36288  Biso   1.000  C
  H265     1.0000 0.10298  0.28144  0.41013  Biso   1.000  H
  C331     1.0000 0.04887  0.13932  0.45860  Biso   1.000  C
  H266     1.0000 0.07087  0.21443  0.45664  Biso   1.000  H
  H267     1.0000 0.18857  0.19084  0.45284  Biso   1.000  H
  C332     1.0000 0.12077  0.12494  0.45674  Biso   1.000  C
  C333     1.0000 0.15515  0.27224  0.34288  Biso   1.000  C
  H268     1.0000 0.22175  0.26863  0.34244  Biso   1.000  H
  H269     1.0000 0.09407  0.28083  0.35364  Biso   1.000  H
  H270     1.0000 0.01316  0.12705  0.46015  Biso   1.000  H
  C334     1.0000 0.06768  0.10553  0.45879  Biso   1.000  C
  C335     1.0000 0.06765  0.10553  0.45879  Biso   1.000  C
  H271     1.0000 0.13435  0.10254  0.45715  Biso   1.000  H
  H272     1.0000 0.13438  0.10254  0.45715  Biso   1.000  H
  C336     1.0000 0.14684  0.26671  0.30663  Biso   1.000  C
  C337     1.0000 0.03156  0.04964  0.45978  Biso   1.000  C
  N77      1.0000 0.11538  0.21056  0.29911  Biso   1.000  N
  N78      1.0000 0.11541  0.21056  0.29911  Biso   1.000  N
  H273     1.0000 0.12868  0.28474  0.29944  Biso   1.000  H
  H274     1.0000 0.18028  0.28183  0.29533  Biso   1.000  H
  H275     1.0000 0.18025  0.28183  0.29533  Biso   1.000  H
  N79      1.0000 0.05188  0.01845  0.45985  Biso   1.000  N
  N80      1.0000 0.98154  0.03345  0.45985  Biso   1.000  N
  C338     1.0000 0.13898  0.18355  0.29519  Biso   1.000  C
  C339     1.0000 0.06325  0.18823  0.29874  Biso   1.000  C
  C340     1.0000 0.01807  0.96843  0.45978  Biso   1.000  C
  C341     1.0000 0.95037  0.98193  0.45978  Biso   1.000  C
  C342     1.0000 0.11047  0.13104  0.29168  Biso   1.000  C
  H276     1.0000 0.17537  0.20031  0.29482  Biso   1.000  H
  H277     1.0000 0.17539  0.20035  0.29482  Biso   1.000  H
  C343     1.0000 0.03368  0.13533  0.29470  Biso   1.000  C
  C344     1.0000 0.03365  0.13533  0.29470  Biso   1.000  C
  H278     1.0000 0.04745  0.20852  0.30123  Biso   1.000  H
  N81      1.0000 0.96654  0.94810  0.45985  Biso   1.000  N
  C345     1.0000 0.03786  0.93233  0.45879  Biso   1.000  C
  C346     1.0000 0.89446  0.96214  0.45879  Biso   1.000  C
  H279     1.0000 0.12736  0.11174  0.28914  Biso   1.000  H
  C347     1.0000 0.05797  0.10645  0.29190  Biso   1.000  C
  H280     1.0000 0.99716  0.11903  0.29383  Biso   1.000  H
  C348     1.0000 0.00417  0.87924  0.45674  Biso   1.000  C
  C349     1.0000 0.09047  0.95113  0.45860  Biso   1.000  C
  C350     1.0000 0.87506  0.99582  0.45674  Biso   1.000  C
  C351     1.0000 0.86066  0.90955  0.45860  Biso   1.000  C
  C352     1.0000 0.02762  0.05086  0.29045  Biso   1.000  C
  C353     1.0000 0.02445  0.84752  0.45410  Biso   1.000  C
  H281     1.0000 0.96816  0.86563  0.45715  Biso   1.000  H
  C354     1.0000 0.10765  0.91672  0.45615  Biso   1.000  C
  H282     1.0000 0.11388  0.98684  0.46015  Biso   1.000  H
  C355     1.0000 0.82306  0.97553  0.45410  Biso   1.000  C
  H283     1.0000 0.89746  0.03184  0.45715  Biso   1.000  H
  C356     1.0000 0.80906  0.89232  0.45615  Biso   1.000  C
  H284     1.0000 0.87298  0.88615  0.46015  Biso   1.000  H
  N82      1.0000 0.97582  0.02839  0.29042  Biso   1.000  N
  N83      1.0000 0.97579  0.02839  0.29042  Biso   1.000  N
  N84      1.0000 0.05260  0.02420  0.29042  Biso   1.000  N
  N85      1.0000 0.05256  0.02420  0.29042  Biso   1.000  N
  N86      1.0000 0.07588  0.86739  0.45316  Biso   1.000  N
  N87      1.0000 0.07585  0.86739  0.45316  Biso   1.000  N
  H285     1.0000 0.00225  0.81142  0.45284  Biso   1.000  H
  H286     1.0000 0.14357  0.92915  0.45664  Biso   1.000  H
  N88      1.0000 0.79151  0.92412  0.45316  Biso   1.000  N
  H287     1.0000 0.80918  0.99774  0.45284  Biso   1.000  H
  H288     1.0000 0.78556  0.85642  0.45664  Biso   1.000  H
  C357     1.0000 0.94914  0.97675  0.29045  Biso   1.000  C
  C358     1.0000 0.94911  0.97675  0.29045  Biso   1.000  C
  C359     1.0000 0.02326  0.97238  0.29045  Biso   1.000  C
  C360     1.0000 0.02323  0.97238  0.29045  Biso   1.000  C
  C361     1.0000 0.09647  0.83183  0.44624  Biso   1.000  C
  C362     1.0000 0.73537  0.90353  0.44624  Biso   1.000  C
  N89      1.0000 0.97161  0.94741  0.29042  Biso   1.000  N
  C363     1.0000 0.89359  0.95155  0.29190  Biso   1.000  C
  C364     1.0000 0.04846  0.94204  0.29190  Biso   1.000  C
  C365     1.0000 0.10617  0.83383  0.40972  Biso   1.000  C
  H289     1.0000 0.12887  0.84315  0.45823  Biso   1.000  H
  H290     1.0000 0.07138  0.79654  0.45294  Biso   1.000  H
  C366     1.0000 0.72766  0.89382  0.40972  Biso   1.000  C
  H291     1.0000 0.71426  0.87115  0.45823  Biso   1.000  H
  H292     1.0000 0.72517  0.92865  0.45294  Biso   1.000  H
  C367     1.0000 0.86896  0.97944  0.29168  Biso   1.000  C
  C368     1.0000 0.86466  0.89835  0.29470  Biso   1.000  C
  C369     1.0000 0.02057  0.88952  0.29168  Biso   1.000  C
  C370     1.0000 0.10166  0.96632  0.29470  Biso   1.000  C
  C371     1.0000 0.06699  0.79765  0.39004  Biso   1.000  C
  C372     1.0000 0.15145  0.87384  0.39647  Biso   1.000  C
  C373     1.0000 0.73065  0.93302  0.39004  Biso   1.000  C
  C374     1.0000 0.73068  0.93302  0.39004  Biso   1.000  C
  C375     1.0000 0.72235  0.84852  0.39647  Biso   1.000  C
  C376     1.0000 0.81646  0.95543  0.29519  Biso   1.000  C
  H293     1.0000 0.88827  0.01565  0.28914  Biso   1.000  H
  H294     1.0000 0.88096  0.87813  0.29383  Biso   1.000  H
  C377     1.0000 0.81177  0.87502  0.29874  Biso   1.000  C
  H295     1.0000 0.98436  0.87265  0.28914  Biso   1.000  H
  C378     1.0000 0.04456  0.86102  0.29519  Biso   1.000  C
  H296     1.0000 0.12188  0.00284  0.29383  Biso   1.000  H
  C379     1.0000 0.12497  0.93675  0.29874  Biso   1.000  C
  C380     1.0000 0.07267  0.80283  0.35625  Biso   1.000  C
  H297     1.0000 0.03697  0.77003  0.39935  Biso   1.000  H
  C381     1.0000 0.15627  0.87882  0.36288  Biso   1.000  C
  C382     1.0000 0.15624  0.87882  0.36288  Biso   1.000  C
  H298     1.0000 0.17847  0.89704  0.41013  Biso   1.000  H
  C383     1.0000 0.73017  0.92735  0.35625  Biso   1.000  C
  H299     1.0000 0.73306  0.96302  0.39935  Biso   1.000  H
  C384     1.0000 0.72257  0.84372  0.36288  Biso   1.000  C
  H300     1.0000 0.71856  0.82155  0.41013  Biso   1.000  H
  N90      1.0000 0.78944  0.90483  0.29911  Biso   1.000  N
  H301     1.0000 0.79965  0.97503  0.29482  Biso   1.000  H
  H302     1.0000 0.79147  0.83893  0.30123  Biso   1.000  H
  N91      1.0000 0.09519  0.88461  0.29911  Biso   1.000  N
  H303     1.0000 0.02496  0.82462  0.29482  Biso   1.000  H
  N92      1.0000 0.09515  0.88461  0.29911  Biso   1.000  N
  H304     1.0000 0.16108  0.95255  0.30123  Biso   1.000  H
  C385     1.0000 0.11706  0.84484  0.34288  Biso   1.000  C
  H305     1.0000 0.04689  0.77824  0.34244  Biso   1.000  H
  H306     1.0000 0.04685  0.77824  0.34244  Biso   1.000  H
  H307     1.0000 0.18678  0.90594  0.35364  Biso   1.000  H
  C386     1.0000 0.72776  0.88293  0.34288  Biso   1.000  C
  H308     1.0000 0.73136  0.95312  0.34244  Biso   1.000  H
  H309     1.0000 0.71915  0.81323  0.35364  Biso   1.000  H
  C387     1.0000 0.73327  0.88013  0.30663  Biso   1.000  C
  C388     1.0000 0.11987  0.85312  0.30663  Biso   1.000  C
  H310     1.0000 0.71816  0.89842  0.29533  Biso   1.000  H
  H311     1.0000 0.71526  0.84391  0.29944  Biso   1.000  H
  H312     1.0000 0.71528  0.84395  0.29944  Biso   1.000  H
  H313     1.0000 0.10159  0.81975  0.29533  Biso   1.000  H
  H314     1.0000 0.15605  0.87134  0.29944  Biso   1.000  H
  H315     1.0000 0.15609  0.87134  0.29944  Biso   1.000  H
  H316     1.0000 0.10156  0.81975  0.29533  Biso   1.000  H
  C389     1.0000 0.27007  0.47842  0.36793  Biso   1.000  C
  N93      1.0000 0.21795  0.45610  0.36757  Biso   1.000  N
  C390     1.0000 0.29964  0.53132  0.37197  Biso   1.000  C
  H317     1.0000 0.28587  0.45813  0.36544  Biso   1.000  H
  C391     1.0000 0.18648  0.39994  0.36005  Biso   1.000  C
  C392     1.0000 0.19436  0.48314  0.37149  Biso   1.000  C
  C393     1.0000 0.27537  0.56024  0.37478  Biso   1.000  C
  H318     1.0000 0.33617  0.54762  0.37284  Biso   1.000  H
  C394     1.0000 0.17817  0.39441  0.32380  Biso   1.000  C
  H319     1.0000 0.15305  0.38482  0.37134  Biso   1.000  H
  H320     1.0000 0.20466  0.38195  0.36723  Biso   1.000  H
  H321     1.0000 0.15796  0.46634  0.37183  Biso   1.000  H
  C395     1.0000 0.22286  0.53562  0.37499  Biso   1.000  C
  C396     1.0000 0.30570  0.61579  0.37623  Biso   1.000  C
  C397     1.0000 0.21216  0.38923  0.30380  Biso   1.000  C
  C398     1.0000 0.13616  0.39683  0.31042  Biso   1.000  C
  H322     1.0000 0.20598  0.55495  0.37753  Biso   1.000  H
  N94      1.0000 0.28075  0.64248  0.37625  Biso   1.000  N
  N95      1.0000 0.35750  0.63827  0.37625  Biso   1.000  N
  C399     1.0000 0.20718  0.38904  0.27021  Biso   1.000  C
  H323     1.0000 0.23925  0.38582  0.31304  Biso   1.000  H
  C400     1.0000 0.13096  0.39733  0.27664  Biso   1.000  C
  H324     1.0000 0.11157  0.39802  0.32423  Biso   1.000  H
  C401     1.0000 0.31008  0.69431  0.37623  Biso   1.000  C
  C402     1.0000 0.38418  0.68990  0.37623  Biso   1.000  C
  C403     1.0000 0.16717  0.39434  0.25695  Biso   1.000  C
  H325     1.0000 0.23036  0.38525  0.25654  Biso   1.000  H
  H326     1.0000 0.10337  0.39975  0.26733  Biso   1.000  H
  N96      1.0000 0.36171  0.71924  0.37625  Biso   1.000  N
  C404     1.0000 0.28487  0.72461  0.37478  Biso   1.000  C
  C405     1.0000 0.43976  0.71514  0.37478  Biso   1.000  C
  C406     1.0000 0.16518  0.40205  0.22044  Biso   1.000  C
  C407     1.0000 0.31275  0.77713  0.37499  Biso   1.000  C
  C408     1.0000 0.23167  0.70033  0.37197  Biso   1.000  C
  C409     1.0000 0.46436  0.68721  0.37499  Biso   1.000  C
  C410     1.0000 0.46868  0.76834  0.37197  Biso   1.000  C
  N97      1.0000 0.20073  0.45821  0.21349  Biso   1.000  N
  H327     1.0000 0.17649  0.38095  0.20844  Biso   1.000  H
  H328     1.0000 0.12988  0.39184  0.21374  Biso   1.000  H
  C411     1.0000 0.28877  0.80563  0.37149  Biso   1.000  C
  H329     1.0000 0.34899  0.79404  0.37753  Biso   1.000  H
  H330     1.0000 0.21145  0.66381  0.37284  Biso   1.000  H
  C412     1.0000 0.20837  0.72994  0.36793  Biso   1.000  C
  C413     1.0000 0.51686  0.71123  0.37149  Biso   1.000  C
  H331     1.0000 0.44508  0.65104  0.37753  Biso   1.000  H
  H332     1.0000 0.45236  0.78852  0.37284  Biso   1.000  H
  C414     1.0000 0.52155  0.79163  0.36793  Biso   1.000  C
  C415     1.0000 0.18085  0.48974  0.21258  Biso   1.000  C
  C416     1.0000 0.25006  0.47574  0.21052  Biso   1.000  C
  N98      1.0000 0.23816  0.78208  0.36757  Biso   1.000  N
  H333     1.0000 0.30837  0.84203  0.37183  Biso   1.000  H
  H334     1.0000 0.17227  0.71414  0.36544  Biso   1.000  H
  N99      1.0000 0.54389  0.76182  0.36757  Biso   1.000  N
  H335     1.0000 0.53367  0.69162  0.37183  Biso   1.000  H
  H336     1.0000 0.54186  0.82772  0.36544  Biso   1.000  H
  H337     1.0000 0.14478  0.47585  0.21383  Biso   1.000  H
  C417     1.0000 0.21256  0.54171  0.20994  Biso   1.000  C
  C418     1.0000 0.28446  0.52733  0.20808  Biso   1.000  C
  H338     1.0000 0.26245  0.45222  0.21004  Biso   1.000  H
  C419     1.0000 0.21346  0.81353  0.36005  Biso   1.000  C
  C420     1.0000 0.60006  0.78653  0.36005  Biso   1.000  C
  H339     1.0000 0.19897  0.56412  0.20953  Biso   1.000  H
  C421     1.0000 0.26565  0.56112  0.20788  Biso   1.000  C
  H340     1.0000 0.32018  0.53964  0.20653  Biso   1.000  H
  H341     1.0000 0.23176  0.84694  0.37134  Biso   1.000  H
  H342     1.0000 0.17729  0.79535  0.36723  Biso   1.000  H
  C422     1.0000 0.21627  0.82182  0.32380  Biso   1.000  C
  H343     1.0000 0.61516  0.76823  0.37134  Biso   1.000  H
  H344     1.0000 0.61807  0.82274  0.36723  Biso   1.000  H
  C423     1.0000 0.60557  0.78372  0.32380  Biso   1.000  C
  C424     1.0000 0.30176  0.61701  0.20689  Biso   1.000  C
  C425     1.0000 0.26066  0.86382  0.31042  Biso   1.000  C
  C426     1.0000 0.17705  0.78783  0.30380  Biso   1.000  C
  C427     1.0000 0.60318  0.73934  0.31042  Biso   1.000  C
  C428     1.0000 0.61075  0.82293  0.30380  Biso   1.000  C
  N100     1.0000 0.28145  0.64820  0.20682  Biso   1.000  N
  N101     1.0000 0.35180  0.63324  0.20682  Biso   1.000  N
  C429     1.0000 0.26636  0.86904  0.27664  Biso   1.000  C
  H345     1.0000 0.28646  0.88845  0.32423  Biso   1.000  H
  C430     1.0000 0.18187  0.79282  0.27021  Biso   1.000  C
  H346     1.0000 0.14657  0.76075  0.31304  Biso   1.000  H
  C431     1.0000 0.60268  0.73363  0.27664  Biso   1.000  C
  H347     1.0000 0.60196  0.71353  0.32423  Biso   1.000  H
  C432     1.0000 0.61098  0.81813  0.27021  Biso   1.000  C
  H348     1.0000 0.61417  0.85342  0.31304  Biso   1.000  H
  C433     1.0000 0.31526  0.69822  0.20689  Biso   1.000  C
  C434     1.0000 0.38295  0.68472  0.20689  Biso   1.000  C
  C435     1.0000 0.22716  0.83283  0.25695  Biso   1.000  C
  H349     1.0000 0.29636  0.89662  0.26733  Biso   1.000  H
  H350     1.0000 0.15487  0.76965  0.25654  Biso   1.000  H
  C436     1.0000 0.60567  0.77283  0.25695  Biso   1.000  C
  H351     1.0000 0.60027  0.70363  0.26733  Biso   1.000  H
  H352     1.0000 0.61478  0.84514  0.25654  Biso   1.000  H
  N102     1.0000 0.36678  0.71855  0.20682  Biso   1.000  N
  C437     1.0000 0.29547  0.73432  0.20788  Biso   1.000  C
  C438     1.0000 0.43886  0.70451  0.20788  Biso   1.000  C
  C439     1.0000 0.23686  0.83482  0.22044  Biso   1.000  C
  C440     1.0000 0.59796  0.76313  0.22044  Biso   1.000  C
  C441     1.0000 0.32918  0.78745  0.20994  Biso   1.000  C
  C442     1.0000 0.24285  0.71552  0.20808  Biso   1.000  C
  C443     1.0000 0.45827  0.67083  0.20994  Biso   1.000  C
  C444     1.0000 0.47268  0.75714  0.20808  Biso   1.000  C
  N103     1.0000 0.25745  0.79926  0.21349  Biso   1.000  N
  H353     1.0000 0.20448  0.82354  0.20844  Biso   1.000  H
  H354     1.0000 0.26196  0.87015  0.21374  Biso   1.000  H
  N104     1.0000 0.54182  0.74253  0.21349  Biso   1.000  N
  H355     1.0000 0.61908  0.79554  0.20844  Biso   1.000  H
  H356     1.0000 0.60817  0.73804  0.21374  Biso   1.000  H
  C445     1.0000 0.30887  0.81913  0.21258  Biso   1.000  C
  H357     1.0000 0.36517  0.80103  0.20953  Biso   1.000  H
  H358     1.0000 0.21947  0.67985  0.20653  Biso   1.000  H
  C446     1.0000 0.22567  0.74993  0.21052  Biso   1.000  C
  C447     1.0000 0.51027  0.69112  0.21258  Biso   1.000  C
  H359     1.0000 0.43587  0.63481  0.20953  Biso   1.000  H
  H360     1.0000 0.46037  0.78054  0.20653  Biso   1.000  H
  C448     1.0000 0.52426  0.77433  0.21052  Biso   1.000  C
  H361     1.0000 0.33108  0.85523  0.21383  Biso   1.000  H
  H362     1.0000 0.18978  0.73754  0.21004  Biso   1.000  H
  H363     1.0000 0.52415  0.66891  0.21383  Biso   1.000  H
  H364     1.0000 0.54776  0.81023  0.21004  Biso   1.000  H
  C449     1.0000 0.48313  0.28877  0.62854  Biso   1.000  C
  N105     1.0000 0.45611  0.23817  0.63243  Biso   1.000  N
  H365     1.0000 0.46633  0.30837  0.62817  Biso   1.000  H
  C450     1.0000 0.53564  0.31278  0.62503  Biso   1.000  C
  C451     1.0000 0.39994  0.21347  0.63998  Biso   1.000  C
  C452     1.0000 0.47845  0.20837  0.63207  Biso   1.000  C
  H366     1.0000 0.55492  0.34896  0.62247  Biso   1.000  H
  C453     1.0000 0.56024  0.28486  0.62525  Biso   1.000  C
  H367     1.0000 0.38484  0.23177  0.62868  Biso   1.000  H
  H368     1.0000 0.38193  0.17726  0.63277  Biso   1.000  H
  C454     1.0000 0.39443  0.21627  0.67620  Biso   1.000  C
  C455     1.0000 0.53131  0.23165  0.62803  Biso   1.000  C
  H369     1.0000 0.45814  0.17227  0.63458  Biso   1.000  H
  C456     1.0000 0.61578  0.31010  0.62377  Biso   1.000  C
  C457     1.0000 0.39682  0.26065  0.68960  Biso   1.000  C
  C458     1.0000 0.38924  0.17707  0.69620  Biso   1.000  C
  H370     1.0000 0.54764  0.21148  0.62718  Biso   1.000  H
  N106     1.0000 0.63828  0.28075  0.62377  Biso   1.000  N
  N107     1.0000 0.64246  0.36173  0.62377  Biso   1.000  N
  H371     1.0000 0.39804  0.28647  0.67577  Biso   1.000  H
  C459     1.0000 0.39732  0.26637  0.72339  Biso   1.000  C
  C460     1.0000 0.38902  0.18186  0.72979  Biso   1.000  C
  H372     1.0000 0.38582  0.14657  0.68696  Biso   1.000  H
  C461     1.0000 0.68992  0.30569  0.62377  Biso   1.000  C
  C462     1.0000 0.69430  0.38421  0.62377  Biso   1.000  C
  H373     1.0000 0.39973  0.29637  0.73267  Biso   1.000  H
  C463     1.0000 0.39433  0.22717  0.74305  Biso   1.000  C
  H374     1.0000 0.38522  0.15486  0.74348  Biso   1.000  H
  N108     1.0000 0.71922  0.35751  0.62377  Biso   1.000  N
  C464     1.0000 0.71513  0.27538  0.62525  Biso   1.000  C
  C465     1.0000 0.72463  0.43975  0.62525  Biso   1.000  C
  C466     1.0000 0.40204  0.23687  0.77956  Biso   1.000  C
  C467     1.0000 0.68724  0.22287  0.62503  Biso   1.000  C
  C468     1.0000 0.76833  0.29967  0.62803  Biso   1.000  C
  C469     1.0000 0.77714  0.46438  0.62503  Biso   1.000  C
  C470     1.0000 0.70032  0.46868  0.62803  Biso   1.000  C
  N109     1.0000 0.45818  0.25747  0.78651  Biso   1.000  N
  H375     1.0000 0.38091  0.20446  0.79158  Biso   1.000  H
  H376     1.0000 0.39183  0.26196  0.78626  Biso   1.000  H
  C471     1.0000 0.71123  0.19437  0.62854  Biso   1.000  C
  H377     1.0000 0.65101  0.20595  0.62247  Biso   1.000  H
  H378     1.0000 0.78855  0.33618  0.62718  Biso   1.000  H
  C472     1.0000 0.79163  0.27005  0.63207  Biso   1.000  C
  C473     1.0000 0.80563  0.51686  0.62854  Biso   1.000  C
  H379     1.0000 0.79401  0.44505  0.62247  Biso   1.000  H
  H380     1.0000 0.66383  0.45237  0.62718  Biso   1.000  H
  C474     1.0000 0.72993  0.52158  0.63207  Biso   1.000  C
  C475     1.0000 0.48973  0.30887  0.78742  Biso   1.000  C
  C476     1.0000 0.47573  0.22567  0.78950  Biso   1.000  C
  N110     1.0000 0.76181  0.21792  0.63243  Biso   1.000  N
  H381     1.0000 0.69163  0.15796  0.62817  Biso   1.000  H
  H382     1.0000 0.82773  0.28586  0.63458  Biso   1.000  H
  N111     1.0000 0.78205  0.54390  0.63243  Biso   1.000  N
  H383     1.0000 0.84204  0.53366  0.62817  Biso   1.000  H
  H384     1.0000 0.71413  0.54187  0.63458  Biso   1.000  H
  H385     1.0000 0.47585  0.33108  0.78617  Biso   1.000  H
  C477     1.0000 0.54173  0.32916  0.79008  Biso   1.000  C
  C478     1.0000 0.52731  0.24285  0.79192  Biso   1.000  C
  H386     1.0000 0.45223  0.18976  0.78996  Biso   1.000  H
  C479     1.0000 0.78654  0.18647  0.63998  Biso   1.000  C
  C480     1.0000 0.81352  0.60006  0.63998  Biso   1.000  C
  H387     1.0000 0.56413  0.36518  0.79047  Biso   1.000  H
  C481     1.0000 0.56114  0.29548  0.79214  Biso   1.000  C
  H388     1.0000 0.53963  0.21946  0.79347  Biso   1.000  H
  H389     1.0000 0.76821  0.15305  0.62868  Biso   1.000  H
  H390     1.0000 0.82271  0.20465  0.63277  Biso   1.000  H
  C482     1.0000 0.78373  0.17818  0.67620  Biso   1.000  C
  H391     1.0000 0.84692  0.61517  0.62868  Biso   1.000  H
  H392     1.0000 0.79534  0.61805  0.63277  Biso   1.000  H
  C483     1.0000 0.82183  0.60558  0.67620  Biso   1.000  C
  C484     1.0000 0.61704  0.31528  0.79313  Biso   1.000  C
  C485     1.0000 0.73934  0.13618  0.68960  Biso   1.000  C
  C486     1.0000 0.82295  0.21217  0.69620  Biso   1.000  C
  C487     1.0000 0.86384  0.60317  0.68960  Biso   1.000  C
  C488     1.0000 0.78784  0.61076  0.69620  Biso   1.000  C
  N112     1.0000 0.63321  0.28144  0.79320  Biso   1.000  N
  N113     1.0000 0.64822  0.36679  0.79320  Biso   1.000  N
  H393     1.0000 0.71354  0.11155  0.67577  Biso   1.000  H
  C489     1.0000 0.73364  0.13096  0.72339  Biso   1.000  C
  C490     1.0000 0.81813  0.20718  0.72979  Biso   1.000  C
  H394     1.0000 0.85343  0.23925  0.68696  Biso   1.000  H
  H395     1.0000 0.88842  0.60198  0.67577  Biso   1.000  H
  C491     1.0000 0.86904  0.60267  0.72339  Biso   1.000  C
  C492     1.0000 0.79282  0.61095  0.72979  Biso   1.000  C
  H396     1.0000 0.76075  0.61418  0.68696  Biso   1.000  H
  C493     1.0000 0.68474  0.30177  0.79313  Biso   1.000  C
  C494     1.0000 0.69823  0.38298  0.79313  Biso   1.000  C
  H397     1.0000 0.70364  0.10338  0.73267  Biso   1.000  H
  C495     1.0000 0.77284  0.16717  0.74305  Biso   1.000  C
  H398     1.0000 0.84513  0.23035  0.74348  Biso   1.000  H
  H399     1.0000 0.89663  0.60025  0.73267  Biso   1.000  H
  C496     1.0000 0.83283  0.60566  0.74305  Biso   1.000  C
  H400     1.0000 0.76964  0.61475  0.74348  Biso   1.000  H
  N114     1.0000 0.71855  0.35180  0.79320  Biso   1.000  N
  C497     1.0000 0.70453  0.26568  0.79214  Biso   1.000  C
  C498     1.0000 0.73432  0.43887  0.79214  Biso   1.000  C
  C499     1.0000 0.76314  0.16518  0.77956  Biso   1.000  C
  C500     1.0000 0.83482  0.59795  0.77956  Biso   1.000  C
  C501     1.0000 0.67082  0.21255  0.79008  Biso   1.000  C
  C502     1.0000 0.75715  0.28447  0.79192  Biso   1.000  C
  C503     1.0000 0.78744  0.45828  0.79008  Biso   1.000  C
  C504     1.0000 0.71554  0.47267  0.79192  Biso   1.000  C
  N115     1.0000 0.74255  0.20074  0.78651  Biso   1.000  N
  H401     1.0000 0.79552  0.17645  0.79158  Biso   1.000  H
  H402     1.0000 0.73804  0.12985  0.78626  Biso   1.000  H
  N116     1.0000 0.79927  0.54179  0.78651  Biso   1.000  N
  H403     1.0000 0.82351  0.61905  0.79158  Biso   1.000  H
  H404     1.0000 0.87012  0.60815  0.78626  Biso   1.000  H
  C505     1.0000 0.69112  0.18087  0.78742  Biso   1.000  C
  H405     1.0000 0.63483  0.19897  0.79047  Biso   1.000  H
  H406     1.0000 0.78053  0.32015  0.79347  Biso   1.000  H
  C506     1.0000 0.77433  0.25007  0.78950  Biso   1.000  C
  C507     1.0000 0.81911  0.51026  0.78742  Biso   1.000  C
  H407     1.0000 0.80102  0.43588  0.79047  Biso   1.000  H
  H408     1.0000 0.67981  0.46035  0.79347  Biso   1.000  H
  C508     1.0000 0.74994  0.52426  0.78950  Biso   1.000  C
  H409     1.0000 0.66892  0.14477  0.78617  Biso   1.000  H
  H410     1.0000 0.81022  0.26246  0.78996  Biso   1.000  H
  H411     1.0000 0.85524  0.52418  0.78617  Biso   1.000  H
  H412     1.0000 0.73754  0.54778  0.78996  Biso   1.000  H
  C509     1.0000 0.30888  0.48974  0.71260  Biso   1.000  C
  N117     1.0000 0.25747  0.45821  0.71352  Biso   1.000  N
  H413     1.0000 0.33108  0.47585  0.71383  Biso   1.000  H
  C510     1.0000 0.32916  0.54171  0.70994  Biso   1.000  C
  C511     1.0000 0.23687  0.40205  0.72044  Biso   1.000  C
  C512     1.0000 0.22568  0.47574  0.71052  Biso   1.000  C
  H414     1.0000 0.36514  0.56412  0.70953  Biso   1.000  H
  C513     1.0000 0.29548  0.56112  0.70788  Biso   1.000  C
  C514     1.0000 0.22717  0.39434  0.75695  Biso   1.000  C
  H415     1.0000 0.20446  0.38095  0.70844  Biso   1.000  H
  H416     1.0000 0.26196  0.39184  0.71374  Biso   1.000  H
  C515     1.0000 0.24287  0.52733  0.70808  Biso   1.000  C
  H417     1.0000 0.18977  0.45222  0.71004  Biso   1.000  H
  C516     1.0000 0.31525  0.61701  0.70689  Biso   1.000  C
  C517     1.0000 0.26637  0.39733  0.77664  Biso   1.000  C
  C518     1.0000 0.18186  0.38904  0.77023  Biso   1.000  C
  H418     1.0000 0.21946  0.53964  0.70653  Biso   1.000  H
  N118     1.0000 0.36676  0.64820  0.70682  Biso   1.000  N
  N119     1.0000 0.28144  0.63324  0.70682  Biso   1.000  N
  C519     1.0000 0.26067  0.39683  0.81042  Biso   1.000  C
  H419     1.0000 0.29638  0.39975  0.76735  Biso   1.000  H
  H420     1.0000 0.15488  0.38525  0.75654  Biso   1.000  H
  C520     1.0000 0.17708  0.38923  0.80380  Biso   1.000  C
  C521     1.0000 0.38296  0.69822  0.70689  Biso   1.000  C
  C522     1.0000 0.30176  0.68472  0.70689  Biso   1.000  C
  C523     1.0000 0.21624  0.39441  0.82382  Biso   1.000  C
  H421     1.0000 0.28645  0.39802  0.82423  Biso   1.000  H
  H422     1.0000 0.14657  0.38582  0.81304  Biso   1.000  H
  N120     1.0000 0.35177  0.71855  0.70682  Biso   1.000  N
  C524     1.0000 0.43885  0.73432  0.70788  Biso   1.000  C
  C525     1.0000 0.26565  0.70451  0.70788  Biso   1.000  C
  C526     1.0000 0.21346  0.39994  0.86005  Biso   1.000  C
  C527     1.0000 0.45827  0.78745  0.70994  Biso   1.000  C
  C528     1.0000 0.47267  0.71552  0.70808  Biso   1.000  C
  C529     1.0000 0.21257  0.67083  0.70994  Biso   1.000  C
  C530     1.0000 0.28446  0.75714  0.70808  Biso   1.000  C
  N121     1.0000 0.23815  0.45610  0.86759  Biso   1.000  N
  H423     1.0000 0.23178  0.38482  0.87134  Biso   1.000  H
  H424     1.0000 0.17729  0.38195  0.86723  Biso   1.000  H
  C531     1.0000 0.51026  0.81913  0.71260  Biso   1.000  C
  H425     1.0000 0.43586  0.80103  0.70953  Biso   1.000  H
  H426     1.0000 0.46038  0.67985  0.70653  Biso   1.000  H
  C532     1.0000 0.52426  0.74993  0.71052  Biso   1.000  C
  C533     1.0000 0.18086  0.69112  0.71260  Biso   1.000  C
  H427     1.0000 0.19894  0.63481  0.70953  Biso   1.000  H
  H428     1.0000 0.32018  0.78054  0.70653  Biso   1.000  H
  C534     1.0000 0.25006  0.77433  0.71052  Biso   1.000  C
  C535     1.0000 0.28878  0.48314  0.87149  Biso   1.000  C
  C536     1.0000 0.20835  0.47842  0.86793  Biso   1.000  C
  N122     1.0000 0.54181  0.79926  0.71352  Biso   1.000  N
  H429     1.0000 0.52415  0.85523  0.71383  Biso   1.000  H
  H430     1.0000 0.54776  0.73754  0.71004  Biso   1.000  H
  N123     1.0000 0.20071  0.74253  0.71352  Biso   1.000  N
  H431     1.0000 0.14477  0.66891  0.71383  Biso   1.000  H
  H432     1.0000 0.26247  0.81023  0.71004  Biso   1.000  H
  H433     1.0000 0.30838  0.46634  0.87185  Biso   1.000  H
  C537     1.0000 0.31275  0.53562  0.87499  Biso   1.000  C
  C538     1.0000 0.23167  0.53132  0.87197  Biso   1.000  C
  H434     1.0000 0.17226  0.45813  0.86544  Biso   1.000  H
  C539     1.0000 0.59796  0.83482  0.72044  Biso   1.000  C
  C540     1.0000 0.16517  0.76313  0.72044  Biso   1.000  C
  H435     1.0000 0.34896  0.55495  0.87753  Biso   1.000  H
  C541     1.0000 0.28487  0.56024  0.87478  Biso   1.000  C
  H436     1.0000 0.21146  0.54762  0.87284  Biso   1.000  H
  C542     1.0000 0.60567  0.83283  0.75695  Biso   1.000  C
  H437     1.0000 0.61907  0.82354  0.70844  Biso   1.000  H
  H438     1.0000 0.60819  0.87015  0.71374  Biso   1.000  H
  C543     1.0000 0.16716  0.77283  0.75695  Biso   1.000  C
  H439     1.0000 0.17646  0.79554  0.70844  Biso   1.000  H
  H440     1.0000 0.12987  0.73804  0.71374  Biso   1.000  H
  C544     1.0000 0.31009  0.61579  0.87623  Biso   1.000  C
  C545     1.0000 0.60268  0.86904  0.77664  Biso   1.000  C
  C546     1.0000 0.61095  0.79282  0.77023  Biso   1.000  C
  C547     1.0000 0.13095  0.73363  0.77664  Biso   1.000  C
  C548     1.0000 0.20715  0.81813  0.77023  Biso   1.000  C
  N124     1.0000 0.36174  0.64248  0.87625  Biso   1.000  N
  N125     1.0000 0.28076  0.63827  0.87625  Biso   1.000  N
  C549     1.0000 0.60316  0.86382  0.81042  Biso   1.000  C
  H441     1.0000 0.60026  0.89662  0.76735  Biso   1.000  H
  H442     1.0000 0.61477  0.76965  0.75654  Biso   1.000  H
  C550     1.0000 0.61078  0.78783  0.80380  Biso   1.000  C
  C551     1.0000 0.13617  0.73934  0.81042  Biso   1.000  C
  H443     1.0000 0.10336  0.70363  0.76735  Biso   1.000  H
  H444     1.0000 0.23036  0.84514  0.75654  Biso   1.000  H
  C552     1.0000 0.21218  0.82293  0.80380  Biso   1.000  C
  C553     1.0000 0.38423  0.69431  0.87623  Biso   1.000  C
  C554     1.0000 0.30572  0.68990  0.87623  Biso   1.000  C
  C555     1.0000 0.60555  0.82182  0.82382  Biso   1.000  C
  H445     1.0000 0.60199  0.88845  0.82423  Biso   1.000  H
  H446     1.0000 0.61418  0.76075  0.81304  Biso   1.000  H
  C556     1.0000 0.17816  0.78372  0.82382  Biso   1.000  C
  H447     1.0000 0.11156  0.71353  0.82423  Biso   1.000  H
  H448     1.0000 0.23925  0.85342  0.81304  Biso   1.000  H
  N126     1.0000 0.35753  0.71924  0.87625  Biso   1.000  N
  C557     1.0000 0.43974  0.72461  0.87478  Biso   1.000  C
  C558     1.0000 0.27538  0.71514  0.87478  Biso   1.000  C
  C559     1.0000 0.60007  0.81353  0.86005  Biso   1.000  C
  C560     1.0000 0.18647  0.78653  0.86005  Biso   1.000  C
  C561     1.0000 0.46437  0.77713  0.87499  Biso   1.000  C
  C562     1.0000 0.46866  0.70033  0.87197  Biso   1.000  C
  C563     1.0000 0.22285  0.68721  0.87499  Biso   1.000  C
  C564     1.0000 0.29966  0.76834  0.87197  Biso   1.000  C
  N127     1.0000 0.54392  0.78208  0.86759  Biso   1.000  N
  H449     1.0000 0.61519  0.84694  0.87134  Biso   1.000  H
  H450     1.0000 0.61806  0.79535  0.86723  Biso   1.000  H
  N128     1.0000 0.21793  0.76182  0.86759  Biso   1.000  N
  H451     1.0000 0.15307  0.76823  0.87134  Biso   1.000  H
  H452     1.0000 0.20467  0.82274  0.86723  Biso   1.000  H
  C565     1.0000 0.51686  0.80563  0.87149  Biso   1.000  C
  H453     1.0000 0.44506  0.79404  0.87753  Biso   1.000  H
  H454     1.0000 0.45236  0.66381  0.87284  Biso   1.000  H
  C566     1.0000 0.52157  0.72994  0.86793  Biso   1.000  C
  C567     1.0000 0.19436  0.71123  0.87149  Biso   1.000  C
  H455     1.0000 0.20596  0.65104  0.87753  Biso   1.000  H
  H456     1.0000 0.33616  0.78852  0.87284  Biso   1.000  H
  C568     1.0000 0.27007  0.79163  0.86793  Biso   1.000  C
  H457     1.0000 0.53367  0.84203  0.87185  Biso   1.000  H
  H458     1.0000 0.54188  0.71414  0.86544  Biso   1.000  H
  H459     1.0000 0.15795  0.69162  0.87185  Biso   1.000  H
  H460     1.0000 0.28586  0.82772  0.86544  Biso   1.000  H
  C569     1.0000 0.47574  0.25007  0.28948  Biso   1.000  C
  N129     1.0000 0.45818  0.20074  0.28651  Biso   1.000  N
  C570     1.0000 0.52733  0.28447  0.29192  Biso   1.000  C
  H461     1.0000 0.45224  0.26246  0.28996  Biso   1.000  H
  C571     1.0000 0.40204  0.16518  0.27956  Biso   1.000  C
  C572     1.0000 0.48974  0.18087  0.28742  Biso   1.000  C
  C573     1.0000 0.56115  0.26568  0.29214  Biso   1.000  C
  H462     1.0000 0.53962  0.32015  0.29347  Biso   1.000  H
  C574     1.0000 0.39433  0.16717  0.24305  Biso   1.000  C
  H463     1.0000 0.38093  0.17645  0.29156  Biso   1.000  H
  H464     1.0000 0.39181  0.12985  0.28626  Biso   1.000  H
  H465     1.0000 0.47585  0.14477  0.28617  Biso   1.000  H
  C575     1.0000 0.54173  0.21255  0.29006  Biso   1.000  C
  C576     1.0000 0.61704  0.30177  0.29311  Biso   1.000  C
  C577     1.0000 0.38905  0.20718  0.22979  Biso   1.000  C
  C578     1.0000 0.39732  0.13096  0.22336  Biso   1.000  C
  H466     1.0000 0.56414  0.19897  0.29047  Biso   1.000  H
  N130     1.0000 0.64823  0.28144  0.29318  Biso   1.000  N
  N131     1.0000 0.63324  0.35180  0.29318  Biso   1.000  N
  H467     1.0000 0.38522  0.23035  0.24346  Biso   1.000  H
  C579     1.0000 0.38922  0.21217  0.19620  Biso   1.000  C
  C580     1.0000 0.39684  0.13618  0.18958  Biso   1.000  C
  H468     1.0000 0.39974  0.10338  0.23267  Biso   1.000  H
  C581     1.0000 0.69823  0.31528  0.29311  Biso   1.000  C
  C582     1.0000 0.68475  0.38298  0.29311  Biso   1.000  C
  C583     1.0000 0.39445  0.17818  0.17620  Biso   1.000  C
  H469     1.0000 0.38582  0.23925  0.18696  Biso   1.000  H
  H470     1.0000 0.39801  0.11155  0.17577  Biso   1.000  H
  C584     1.0000 0.73435  0.29548  0.29214  Biso   1.000  C
  N132     1.0000 0.71858  0.36679  0.29318  Biso   1.000  N
  C585     1.0000 0.70452  0.43887  0.29214  Biso   1.000  C
  C586     1.0000 0.39992  0.18647  0.13998  Biso   1.000  C
  C587     1.0000 0.78743  0.32916  0.29006  Biso   1.000  C
  C588     1.0000 0.71554  0.24285  0.29192  Biso   1.000  C
  C589     1.0000 0.67084  0.45828  0.29006  Biso   1.000  C
  C590     1.0000 0.75713  0.47267  0.29192  Biso   1.000  C
  N133     1.0000 0.45608  0.21792  0.13243  Biso   1.000  N
  H471     1.0000 0.38481  0.15305  0.12866  Biso   1.000  H
  H472     1.0000 0.38191  0.20465  0.13277  Biso   1.000  H
  C591     1.0000 0.81914  0.30887  0.28742  Biso   1.000  C
  H473     1.0000 0.80106  0.36518  0.29047  Biso   1.000  H
  H474     1.0000 0.67982  0.21946  0.29347  Biso   1.000  H
  C592     1.0000 0.74994  0.22567  0.28948  Biso   1.000  C
  C593     1.0000 0.69111  0.51026  0.28742  Biso   1.000  C
  H475     1.0000 0.63482  0.43588  0.29047  Biso   1.000  H
  H476     1.0000 0.78054  0.46035  0.29347  Biso   1.000  H
  C594     1.0000 0.77432  0.52426  0.28948  Biso   1.000  C
  C595     1.0000 0.48314  0.19437  0.12854  Biso   1.000  C
  C596     1.0000 0.47842  0.27005  0.13207  Biso   1.000  C
  N134     1.0000 0.79929  0.25747  0.28651  Biso   1.000  N
  H477     1.0000 0.85523  0.33108  0.28617  Biso   1.000  H
  H478     1.0000 0.73753  0.18976  0.28996  Biso   1.000  H
  N135     1.0000 0.74253  0.54179  0.28651  Biso   1.000  N
  H479     1.0000 0.66894  0.52418  0.28617  Biso   1.000  H
  H480     1.0000 0.81023  0.54778  0.28996  Biso   1.000  H
  H481     1.0000 0.46633  0.15796  0.12817  Biso   1.000  H
  C597     1.0000 0.53563  0.22287  0.12501  Biso   1.000  C
  C598     1.0000 0.53134  0.29967  0.12803  Biso   1.000  C
  H482     1.0000 0.45812  0.28586  0.13456  Biso   1.000  H
  C599     1.0000 0.83483  0.23687  0.27956  Biso   1.000  C
  C600     1.0000 0.76313  0.59795  0.27956  Biso   1.000  C
  H483     1.0000 0.55494  0.20595  0.12247  Biso   1.000  H
  C601     1.0000 0.56026  0.27538  0.12525  Biso   1.000  C
  H484     1.0000 0.54763  0.33618  0.12716  Biso   1.000  H
  C602     1.0000 0.83284  0.22717  0.24305  Biso   1.000  C
  H485     1.0000 0.82354  0.20446  0.29156  Biso   1.000  H
  H486     1.0000 0.87013  0.26196  0.28626  Biso   1.000  H
  C603     1.0000 0.77283  0.60566  0.24305  Biso   1.000  C
  H487     1.0000 0.79554  0.61905  0.29156  Biso   1.000  H
  H488     1.0000 0.73803  0.60815  0.28626  Biso   1.000  H
  C604     1.0000 0.61577  0.30569  0.12377  Biso   1.000  C
  C605     1.0000 0.86902  0.26637  0.22336  Biso   1.000  C
  C606     1.0000 0.79284  0.18186  0.22979  Biso   1.000  C
  C607     1.0000 0.73363  0.60267  0.22336  Biso   1.000  C
  C608     1.0000 0.81813  0.61095  0.22979  Biso   1.000  C
  N136     1.0000 0.64247  0.28075  0.12375  Biso   1.000  N
  N137     1.0000 0.63826  0.35751  0.12375  Biso   1.000  N
  C609     1.0000 0.86383  0.26065  0.18958  Biso   1.000  C
  H489     1.0000 0.89664  0.29637  0.23267  Biso   1.000  H
  H490     1.0000 0.76964  0.15486  0.24346  Biso   1.000  H
  C610     1.0000 0.78782  0.17707  0.19620  Biso   1.000  C
  C611     1.0000 0.73933  0.60317  0.18958  Biso   1.000  C
  H491     1.0000 0.70362  0.60025  0.23267  Biso   1.000  H
  H492     1.0000 0.84511  0.61475  0.24346  Biso   1.000  H
  C612     1.0000 0.82292  0.61076  0.19620  Biso   1.000  C
  C613     1.0000 0.69428  0.31010  0.12377  Biso   1.000  C
  C614     1.0000 0.68991  0.38421  0.12377  Biso   1.000  C
  C615     1.0000 0.82184  0.21627  0.17620  Biso   1.000  C
  H493     1.0000 0.88843  0.28647  0.17577  Biso   1.000  H
  H494     1.0000 0.76075  0.14657  0.18696  Biso   1.000  H
  C616     1.0000 0.78376  0.60558  0.17620  Biso   1.000  C
  H495     1.0000 0.71355  0.60198  0.17577  Biso   1.000  H
  H496     1.0000 0.85343  0.61418  0.18696  Biso   1.000  H
  C617     1.0000 0.72462  0.28486  0.12525  Biso   1.000  C
  N138     1.0000 0.71924  0.36173  0.12375  Biso   1.000  N
  C618     1.0000 0.71513  0.43975  0.12525  Biso   1.000  C
  C619     1.0000 0.81353  0.21347  0.13998  Biso   1.000  C
  C620     1.0000 0.78654  0.60006  0.13998  Biso   1.000  C
  C621     1.0000 0.77715  0.31278  0.12501  Biso   1.000  C
  C622     1.0000 0.70034  0.23165  0.12803  Biso   1.000  C
  C623     1.0000 0.68724  0.46438  0.12501  Biso   1.000  C
  C624     1.0000 0.76832  0.46868  0.12803  Biso   1.000  C
  N139     1.0000 0.78207  0.23817  0.13243  Biso   1.000  N
  H497     1.0000 0.84693  0.23177  0.12866  Biso   1.000  H
  H498     1.0000 0.79533  0.17726  0.13277  Biso   1.000  H
  N140     1.0000 0.76182  0.54390  0.13243  Biso   1.000  N
  H499     1.0000 0.76822  0.61517  0.12866  Biso   1.000  H
  H500     1.0000 0.82271  0.61805  0.13277  Biso   1.000  H
  C625     1.0000 0.80564  0.28877  0.12854  Biso   1.000  C
  H501     1.0000 0.79404  0.34896  0.12247  Biso   1.000  H
  H502     1.0000 0.66384  0.21148  0.12716  Biso   1.000  H
  C626     1.0000 0.72992  0.20837  0.13207  Biso   1.000  C
  C627     1.0000 0.71122  0.51686  0.12854  Biso   1.000  C
  H503     1.0000 0.65103  0.44505  0.12247  Biso   1.000  H
  H504     1.0000 0.78854  0.45237  0.12716  Biso   1.000  H
  C628     1.0000 0.79165  0.52158  0.13207  Biso   1.000  C
  H505     1.0000 0.84205  0.30837  0.12817  Biso   1.000  H
  H506     1.0000 0.71413  0.17227  0.13456  Biso   1.000  H
  H507     1.0000 0.69162  0.53366  0.12817  Biso   1.000  H
  H508     1.0000 0.82774  0.54187  0.13456  Biso   1.000  H
  C629     1.0000 0.12498  0.18823  0.79874  Biso   1.000  C
  C630     1.0000 0.10168  0.13533  0.79470  Biso   1.000  C
  C631     1.0000 0.10165  0.13533  0.79470  Biso   1.000  C
  N141     1.0000 0.09518  0.21056  0.79911  Biso   1.000  N
  H509     1.0000 0.16107  0.20852  0.80123  Biso   1.000  H
  N142     1.0000 0.09515  0.21056  0.79911  Biso   1.000  N
  C632     1.0000 0.04847  0.10645  0.79192  Biso   1.000  C
  H510     1.0000 0.12187  0.11903  0.79383  Biso   1.000  H
  C633     1.0000 0.04457  0.18355  0.79521  Biso   1.000  C
  C634     1.0000 0.11987  0.26671  0.80665  Biso   1.000  C
  C635     1.0000 0.02057  0.13104  0.79168  Biso   1.000  C
  C636     1.0000 0.02324  0.05086  0.79045  Biso   1.000  C
  H511     1.0000 0.02495  0.20031  0.79485  Biso   1.000  H
  H512     1.0000 0.02497  0.20035  0.79485  Biso   1.000  H
  H513     1.0000 0.10155  0.28183  0.79533  Biso   1.000  H
  H514     1.0000 0.15606  0.28474  0.79944  Biso   1.000  H
  C637     1.0000 0.11708  0.27224  0.84288  Biso   1.000  C
  H515     1.0000 0.10158  0.28183  0.79533  Biso   1.000  H
  C638     1.0000 0.11705  0.27224  0.84288  Biso   1.000  C
  H516     1.0000 0.98438  0.11174  0.78914  Biso   1.000  H
  N143     1.0000 0.05256  0.02839  0.79042  Biso   1.000  N
  N144     1.0000 0.05260  0.02839  0.79042  Biso   1.000  N
  N145     1.0000 0.97161  0.02420  0.79042  Biso   1.000  N
  N146     1.0000 0.97164  0.02420  0.79042  Biso   1.000  N
  C639     1.0000 0.07266  0.26982  0.85625  Biso   1.000  C
  C640     1.0000 0.15625  0.27742  0.86288  Biso   1.000  C
  C641     1.0000 0.02761  0.97675  0.79045  Biso   1.000  C
  C642     1.0000 0.02764  0.97675  0.79045  Biso   1.000  C
  C643     1.0000 0.94912  0.97238  0.79045  Biso   1.000  C
  H517     1.0000 0.04688  0.26863  0.84244  Biso   1.000  H
  C644     1.0000 0.06696  0.26932  0.89004  Biso   1.000  C
  H518     1.0000 0.04685  0.26863  0.84244  Biso   1.000  H
  C645     1.0000 0.15148  0.27765  0.89647  Biso   1.000  C
  H519     1.0000 0.18676  0.28083  0.85364  Biso   1.000  H
  N147     1.0000 0.97580  0.94741  0.79042  Biso   1.000  N
  C646     1.0000 0.05796  0.95155  0.79192  Biso   1.000  C
  C647     1.0000 0.89358  0.94204  0.79192  Biso   1.000  C
  H520     1.0000 0.03697  0.26694  0.89935  Biso   1.000  H
  C648     1.0000 0.10616  0.27231  0.90972  Biso   1.000  C
  H521     1.0000 0.17846  0.28144  0.91013  Biso   1.000  H
  C649     1.0000 0.11048  0.97944  0.79168  Biso   1.000  C
  C650     1.0000 0.03369  0.89835  0.79470  Biso   1.000  C
  C651     1.0000 0.86895  0.88952  0.79168  Biso   1.000  C
  C652     1.0000 0.86466  0.96632  0.79470  Biso   1.000  C
  C653     1.0000 0.09648  0.26464  0.94624  Biso   1.000  C
  H522     1.0000 0.12739  0.01565  0.78914  Biso   1.000  H
  C654     1.0000 0.13896  0.95543  0.79521  Biso   1.000  C
  H523     1.0000 0.99717  0.87813  0.79383  Biso   1.000  H
  C655     1.0000 0.06325  0.87502  0.79874  Biso   1.000  C
  C656     1.0000 0.81647  0.86102  0.79521  Biso   1.000  C
  H524     1.0000 0.88829  0.87265  0.78914  Biso   1.000  H
  C657     1.0000 0.81177  0.93675  0.79874  Biso   1.000  C
  H525     1.0000 0.88096  0.00284  0.79383  Biso   1.000  H
  N148     1.0000 0.07587  0.20848  0.95318  Biso   1.000  N
  H526     1.0000 0.12888  0.28574  0.95823  Biso   1.000  H
  H527     1.0000 0.07138  0.27485  0.95294  Biso   1.000  H
  H528     1.0000 0.12885  0.28574  0.95823  Biso   1.000  H
  N149     1.0000 0.11539  0.90483  0.79911  Biso   1.000  N
  H529     1.0000 0.17538  0.97503  0.79485  Biso   1.000  H
  H530     1.0000 0.04746  0.83893  0.80123  Biso   1.000  H
  N150     1.0000 0.78943  0.88461  0.79911  Biso   1.000  N
  H531     1.0000 0.79966  0.82462  0.79485  Biso   1.000  H
  N151     1.0000 0.78946  0.88461  0.79911  Biso   1.000  N
  H532     1.0000 0.79147  0.95255  0.80123  Biso   1.000  H
  C658     1.0000 0.02444  0.17691  0.95410  Biso   1.000  C
  C659     1.0000 0.10765  0.19092  0.95615  Biso   1.000  C
  C660     1.0000 0.02447  0.17691  0.95410  Biso   1.000  C
  C661     1.0000 0.14686  0.88013  0.80665  Biso   1.000  C
  C662     1.0000 0.73325  0.85312  0.80665  Biso   1.000  C
  H533     1.0000 0.00227  0.19084  0.95284  Biso   1.000  H
  C663     1.0000 0.00417  0.12494  0.95674  Biso   1.000  C
  C664     1.0000 0.09046  0.13932  0.95860  Biso   1.000  C
  H534     1.0000 0.14356  0.21443  0.95664  Biso   1.000  H
  H535     1.0000 0.18026  0.89842  0.79533  Biso   1.000  H
  H536     1.0000 0.12865  0.84391  0.79944  Biso   1.000  H
  C665     1.0000 0.15517  0.88293  0.84288  Biso   1.000  C
  H537     1.0000 0.12867  0.84395  0.79944  Biso   1.000  H
  H538     1.0000 0.71816  0.81975  0.79533  Biso   1.000  H
  H539     1.0000 0.71529  0.87134  0.79944  Biso   1.000  H
  C666     1.0000 0.72778  0.84484  0.84288  Biso   1.000  C
  H540     1.0000 0.71819  0.81975  0.79533  Biso   1.000  H
  H541     1.0000 0.71525  0.87134  0.79944  Biso   1.000  H
  C667     1.0000 0.03785  0.10553  0.95879  Biso   1.000  C
  C668     1.0000 0.03788  0.10553  0.95879  Biso   1.000  C
  H542     1.0000 0.96818  0.10254  0.95715  Biso   1.000  H
  H543     1.0000 0.96815  0.10254  0.95715  Biso   1.000  H
  H544     1.0000 0.11389  0.12705  0.96015  Biso   1.000  H
  C669     1.0000 0.19718  0.92735  0.85625  Biso   1.000  C
  C670     1.0000 0.12115  0.84372  0.86288  Biso   1.000  C
  C671     1.0000 0.73016  0.80283  0.85625  Biso   1.000  C
  C672     1.0000 0.72255  0.87882  0.86288  Biso   1.000  C
  C673     1.0000 0.01807  0.04964  0.95978  Biso   1.000  C
  H545     1.0000 0.22176  0.95312  0.84244  Biso   1.000  H
  C674     1.0000 0.20238  0.93302  0.89004  Biso   1.000  C
  C675     1.0000 0.20234  0.93302  0.89004  Biso   1.000  C
  C676     1.0000 0.12617  0.84852  0.89647  Biso   1.000  C
  H546     1.0000 0.09408  0.81323  0.85364  Biso   1.000  H
  C677     1.0000 0.12614  0.84852  0.89647  Biso   1.000  C
  H547     1.0000 0.73136  0.77824  0.84244  Biso   1.000  H
  C678     1.0000 0.73066  0.79765  0.89004  Biso   1.000  C
  C679     1.0000 0.72238  0.87384  0.89647  Biso   1.000  C
  H548     1.0000 0.71917  0.90594  0.85364  Biso   1.000  H
  N152     1.0000 0.05191  0.03345  0.95985  Biso   1.000  N
  N153     1.0000 0.96657  0.01845  0.95985  Biso   1.000  N
  N154     1.0000 0.96654  0.01845  0.95985  Biso   1.000  N
  H549     1.0000 0.22997  0.96302  0.89935  Biso   1.000  H
  C680     1.0000 0.16616  0.89382  0.90972  Biso   1.000  C
  H550     1.0000 0.10299  0.82155  0.91013  Biso   1.000  H
  H551     1.0000 0.10296  0.82155  0.91013  Biso   1.000  H
  H552     1.0000 0.73307  0.77003  0.89935  Biso   1.000  H
  C681     1.0000 0.72766  0.83383  0.90972  Biso   1.000  C
  H553     1.0000 0.71857  0.89704  0.91013  Biso   1.000  H
  C682     1.0000 0.03156  0.98193  0.95978  Biso   1.000  C
  C683     1.0000 0.95036  0.96843  0.95978  Biso   1.000  C
  C684     1.0000 0.16816  0.90353  0.94624  Biso   1.000  C
  C685     1.0000 0.73536  0.83183  0.94624  Biso   1.000  C
  N155     1.0000 0.98156  0.94810  0.95985  Biso   1.000  N
  C686     1.0000 0.06768  0.96214  0.95879  Biso   1.000  C
  C687     1.0000 0.89448  0.93233  0.95879  Biso   1.000  C
  N156     1.0000 0.13262  0.92412  0.95318  Biso   1.000  N
  H554     1.0000 0.15689  0.87115  0.95823  Biso   1.000  H
  H555     1.0000 0.20348  0.92865  0.95294  Biso   1.000  H
  N157     1.0000 0.13258  0.92412  0.95318  Biso   1.000  N
  H556     1.0000 0.15686  0.87115  0.95823  Biso   1.000  H
  N158     1.0000 0.79151  0.86739  0.95318  Biso   1.000  N
  H557     1.0000 0.71428  0.84315  0.95823  Biso   1.000  H
  H558     1.0000 0.72516  0.79654  0.95294  Biso   1.000  H
  C688     1.0000 0.12076  0.99582  0.95674  Biso   1.000  C
  C689     1.0000 0.04889  0.90955  0.95860  Biso   1.000  C
  C690     1.0000 0.04885  0.90955  0.95860  Biso   1.000  C
  C691     1.0000 0.87507  0.87924  0.95674  Biso   1.000  C
  C692     1.0000 0.86066  0.95113  0.95860  Biso   1.000  C
  C693     1.0000 0.15247  0.97553  0.95410  Biso   1.000  C
  C694     1.0000 0.08326  0.89232  0.95615  Biso   1.000  C
  C695     1.0000 0.82307  0.84752  0.95410  Biso   1.000  C
  C696     1.0000 0.80907  0.91672  0.95615  Biso   1.000  C
  H559     1.0000 0.13438  0.03184  0.95715  Biso   1.000  H
  H560     1.0000 0.13435  0.03184  0.95715  Biso   1.000  H
  H561     1.0000 0.01317  0.88615  0.96015  Biso   1.000  H
  H562     1.0000 0.89747  0.86563  0.95715  Biso   1.000  H
  H563     1.0000 0.87296  0.98684  0.96015  Biso   1.000  H
  H564     1.0000 0.18856  0.99774  0.95284  Biso   1.000  H
  H565     1.0000 0.07086  0.85642  0.95664  Biso   1.000  H
  H566     1.0000 0.80917  0.81142  0.95284  Biso   1.000  H
  H567     1.0000 0.78558  0.92915  0.95664  Biso   1.000  H
  C697     1.0000 0.12498  0.18823  0.79874  Biso   1.000  C
  C698     1.0000 0.10165  0.13533  0.79470  Biso   1.000  C
  C699     1.0000 0.10168  0.13533  0.79470  Biso   1.000  C
  N159     1.0000 0.09518  0.21056  0.79911  Biso   1.000  N
  H568     1.0000 0.16107  0.20852  0.80123  Biso   1.000  H
  N160     1.0000 0.09515  0.21056  0.79911  Biso   1.000  N
  C700     1.0000 0.04847  0.10645  0.79192  Biso   1.000  C
  H569     1.0000 0.12187  0.11903  0.79383  Biso   1.000  H
  C701     1.0000 0.04457  0.18355  0.79521  Biso   1.000  C
  C702     1.0000 0.11987  0.26671  0.80665  Biso   1.000  C
  C703     1.0000 0.02057  0.13104  0.79168  Biso   1.000  C
  C704     1.0000 0.02324  0.05086  0.79045  Biso   1.000  C
  H570     1.0000 0.02495  0.20031  0.79485  Biso   1.000  H
  H571     1.0000 0.02497  0.20035  0.79485  Biso   1.000  H
  H572     1.0000 0.15606  0.28474  0.79944  Biso   1.000  H
  C705     1.0000 0.11708  0.27224  0.84288  Biso   1.000  C
  H573     1.0000 0.10155  0.28183  0.79533  Biso   1.000  H
  H574     1.0000 0.10158  0.28183  0.79533  Biso   1.000  H
  C706     1.0000 0.11705  0.27224  0.84288  Biso   1.000  C
  H575     1.0000 0.98438  0.11174  0.78914  Biso   1.000  H
  N161     1.0000 0.05256  0.02839  0.79042  Biso   1.000  N
  N162     1.0000 0.97161  0.02420  0.79042  Biso   1.000  N
  N163     1.0000 0.97164  0.02420  0.79042  Biso   1.000  N
  N164     1.0000 0.05260  0.02839  0.79042  Biso   1.000  N
  C707     1.0000 0.07266  0.26982  0.85625  Biso   1.000  C
  C708     1.0000 0.15625  0.27742  0.86288  Biso   1.000  C
  C709     1.0000 0.02761  0.97675  0.79045  Biso   1.000  C
  C710     1.0000 0.02764  0.97675  0.79045  Biso   1.000  C
  C711     1.0000 0.94912  0.97238  0.79045  Biso   1.000  C
  H576     1.0000 0.04688  0.26863  0.84244  Biso   1.000  H
  C712     1.0000 0.06696  0.26932  0.89004  Biso   1.000  C
  H577     1.0000 0.04685  0.26863  0.84244  Biso   1.000  H
  C713     1.0000 0.15148  0.27765  0.89647  Biso   1.000  C
  H578     1.0000 0.18676  0.28083  0.85364  Biso   1.000  H
  N165     1.0000 0.97580  0.94741  0.79042  Biso   1.000  N
  C714     1.0000 0.05796  0.95155  0.79192  Biso   1.000  C
  C715     1.0000 0.89358  0.94204  0.79192  Biso   1.000  C
  H579     1.0000 0.03697  0.26694  0.89935  Biso   1.000  H
  C716     1.0000 0.10616  0.27231  0.90972  Biso   1.000  C
  H580     1.0000 0.17846  0.28144  0.91013  Biso   1.000  H
  C717     1.0000 0.11048  0.97944  0.79168  Biso   1.000  C
  C718     1.0000 0.03369  0.89835  0.79470  Biso   1.000  C
  C719     1.0000 0.86895  0.88952  0.79168  Biso   1.000  C
  C720     1.0000 0.86466  0.96632  0.79470  Biso   1.000  C
  C721     1.0000 0.09648  0.26464  0.94624  Biso   1.000  C
  H581     1.0000 0.12739  0.01565  0.78914  Biso   1.000  H
  C722     1.0000 0.13896  0.95543  0.79521  Biso   1.000  C
  H582     1.0000 0.99717  0.87813  0.79383  Biso   1.000  H
  C723     1.0000 0.06325  0.87502  0.79874  Biso   1.000  C
  C724     1.0000 0.81647  0.86102  0.79521  Biso   1.000  C
  H583     1.0000 0.88829  0.87265  0.78914  Biso   1.000  H
  C725     1.0000 0.81177  0.93675  0.79874  Biso   1.000  C
  H584     1.0000 0.88096  0.00284  0.79383  Biso   1.000  H
  N166     1.0000 0.07587  0.20848  0.95318  Biso   1.000  N
  H585     1.0000 0.12888  0.28574  0.95823  Biso   1.000  H
  H586     1.0000 0.07138  0.27485  0.95294  Biso   1.000  H
  H587     1.0000 0.12885  0.28574  0.95823  Biso   1.000  H
  N167     1.0000 0.11539  0.90483  0.79911  Biso   1.000  N
  H588     1.0000 0.17538  0.97503  0.79485  Biso   1.000  H
  H589     1.0000 0.04746  0.83893  0.80123  Biso   1.000  H
  N168     1.0000 0.78943  0.88461  0.79911  Biso   1.000  N
  H590     1.0000 0.79966  0.82462  0.79485  Biso   1.000  H
  N169     1.0000 0.78946  0.88461  0.79911  Biso   1.000  N
  H591     1.0000 0.79147  0.95255  0.80123  Biso   1.000  H
  C726     1.0000 0.10765  0.19092  0.95615  Biso   1.000  C
  C727     1.0000 0.02444  0.17691  0.95410  Biso   1.000  C
  C728     1.0000 0.02447  0.17691  0.95410  Biso   1.000  C
  C729     1.0000 0.14686  0.88013  0.80665  Biso   1.000  C
  C730     1.0000 0.73325  0.85312  0.80665  Biso   1.000  C
  C731     1.0000 0.09046  0.13932  0.95860  Biso   1.000  C
  H592     1.0000 0.14356  0.21443  0.95664  Biso   1.000  H
  H593     1.0000 0.00227  0.19084  0.95284  Biso   1.000  H
  C732     1.0000 0.00417  0.12494  0.95674  Biso   1.000  C
  H594     1.0000 0.18026  0.89842  0.79533  Biso   1.000  H
  H595     1.0000 0.12865  0.84391  0.79944  Biso   1.000  H
  C733     1.0000 0.15517  0.88293  0.84288  Biso   1.000  C
  H596     1.0000 0.12867  0.84395  0.79944  Biso   1.000  H
  H597     1.0000 0.71816  0.81975  0.79533  Biso   1.000  H
  H598     1.0000 0.71529  0.87134  0.79944  Biso   1.000  H
  C734     1.0000 0.72778  0.84484  0.84288  Biso   1.000  C
  H599     1.0000 0.71819  0.81975  0.79533  Biso   1.000  H
  H600     1.0000 0.71525  0.87134  0.79944  Biso   1.000  H
  H601     1.0000 0.11389  0.12705  0.96015  Biso   1.000  H
  C735     1.0000 0.03785  0.10553  0.95879  Biso   1.000  C
  C736     1.0000 0.03788  0.10553  0.95879  Biso   1.000  C
  H602     1.0000 0.96818  0.10254  0.95715  Biso   1.000  H
  H603     1.0000 0.96815  0.10254  0.95715  Biso   1.000  H
  C737     1.0000 0.19718  0.92735  0.85625  Biso   1.000  C
  C738     1.0000 0.12115  0.84372  0.86288  Biso   1.000  C
  C739     1.0000 0.73016  0.80283  0.85625  Biso   1.000  C
  C740     1.0000 0.72255  0.87882  0.86288  Biso   1.000  C
  C741     1.0000 0.01807  0.04964  0.95978  Biso   1.000  C
  H604     1.0000 0.22176  0.95312  0.84244  Biso   1.000  H
  C742     1.0000 0.20238  0.93302  0.89004  Biso   1.000  C
  C743     1.0000 0.20234  0.93302  0.89004  Biso   1.000  C
  C744     1.0000 0.12617  0.84852  0.89647  Biso   1.000  C
  H605     1.0000 0.09408  0.81323  0.85364  Biso   1.000  H
  C745     1.0000 0.12614  0.84852  0.89647  Biso   1.000  C
  H606     1.0000 0.73136  0.77824  0.84244  Biso   1.000  H
  C746     1.0000 0.73066  0.79765  0.89004  Biso   1.000  C
  C747     1.0000 0.72238  0.87384  0.89647  Biso   1.000  C
  H607     1.0000 0.71917  0.90594  0.85364  Biso   1.000  H
  N170     1.0000 0.05191  0.03345  0.95985  Biso   1.000  N
  N171     1.0000 0.96657  0.01845  0.95985  Biso   1.000  N
  N172     1.0000 0.96654  0.01845  0.95985  Biso   1.000  N
  H608     1.0000 0.22997  0.96302  0.89935  Biso   1.000  H
  C748     1.0000 0.16616  0.89382  0.90972  Biso   1.000  C
  H609     1.0000 0.10299  0.82155  0.91013  Biso   1.000  H
  H610     1.0000 0.10296  0.82155  0.91013  Biso   1.000  H
  H611     1.0000 0.73307  0.77003  0.89935  Biso   1.000  H
  C749     1.0000 0.72766  0.83383  0.90972  Biso   1.000  C
  H612     1.0000 0.71857  0.89704  0.91013  Biso   1.000  H
  C750     1.0000 0.03156  0.98193  0.95978  Biso   1.000  C
  C751     1.0000 0.95036  0.96843  0.95978  Biso   1.000  C
  C752     1.0000 0.16816  0.90353  0.94624  Biso   1.000  C
  C753     1.0000 0.73536  0.83183  0.94624  Biso   1.000  C
  N173     1.0000 0.98156  0.94810  0.95985  Biso   1.000  N
  C754     1.0000 0.06768  0.96214  0.95879  Biso   1.000  C
  C755     1.0000 0.89448  0.93233  0.95879  Biso   1.000  C
  N174     1.0000 0.13262  0.92412  0.95318  Biso   1.000  N
  H613     1.0000 0.15689  0.87115  0.95823  Biso   1.000  H
  H614     1.0000 0.20348  0.92865  0.95294  Biso   1.000  H
  N175     1.0000 0.13258  0.92412  0.95318  Biso   1.000  N
  H615     1.0000 0.15686  0.87115  0.95823  Biso   1.000  H
  N176     1.0000 0.79151  0.86739  0.95318  Biso   1.000  N
  H616     1.0000 0.71428  0.84315  0.95823  Biso   1.000  H
  H617     1.0000 0.72516  0.79654  0.95294  Biso   1.000  H
  C756     1.0000 0.12076  0.99582  0.95674  Biso   1.000  C
  C757     1.0000 0.04889  0.90955  0.95860  Biso   1.000  C
  C758     1.0000 0.04885  0.90955  0.95860  Biso   1.000  C
  C759     1.0000 0.87507  0.87924  0.95674  Biso   1.000  C
  C760     1.0000 0.86066  0.95113  0.95860  Biso   1.000  C
  C761     1.0000 0.15247  0.97553  0.95410  Biso   1.000  C
  C762     1.0000 0.08326  0.89232  0.95615  Biso   1.000  C
  C763     1.0000 0.82307  0.84752  0.95410  Biso   1.000  C
  C764     1.0000 0.80907  0.91672  0.95615  Biso   1.000  C
  H618     1.0000 0.13438  0.03184  0.95715  Biso   1.000  H
  H619     1.0000 0.13435  0.03184  0.95715  Biso   1.000  H
  H620     1.0000 0.01317  0.88615  0.96015  Biso   1.000  H
  H621     1.0000 0.89747  0.86563  0.95715  Biso   1.000  H
  H622     1.0000 0.87296  0.98684  0.96015  Biso   1.000  H
  H623     1.0000 0.18856  0.99774  0.95284  Biso   1.000  H
  H624     1.0000 0.07086  0.85642  0.95664  Biso   1.000  H
  H625     1.0000 0.80917  0.81142  0.95284  Biso   1.000  H
  H626     1.0000 0.78558  0.92915  0.95664  Biso   1.000  H
  C765     1.0000 0.12498  0.18823  0.79874  Biso   1.000  C
  C766     1.0000 0.10165  0.13533  0.79470  Biso   1.000  C
  C767     1.0000 0.10168  0.13533  0.79470  Biso   1.000  C
  H627     1.0000 0.16107  0.20852  0.80123  Biso   1.000  H
  N177     1.0000 0.09518  0.21056  0.79911  Biso   1.000  N
  N178     1.0000 0.09515  0.21056  0.79911  Biso   1.000  N
  C768     1.0000 0.04847  0.10645  0.79192  Biso   1.000  C
  H628     1.0000 0.12187  0.11903  0.79383  Biso   1.000  H
  C769     1.0000 0.04457  0.18355  0.79521  Biso   1.000  C
  C770     1.0000 0.11987  0.26671  0.80665  Biso   1.000  C
  C771     1.0000 0.02057  0.13104  0.79168  Biso   1.000  C
  C772     1.0000 0.02324  0.05086  0.79045  Biso   1.000  C
  H629     1.0000 0.02495  0.20031  0.79485  Biso   1.000  H
  H630     1.0000 0.02497  0.20035  0.79485  Biso   1.000  H
  H631     1.0000 0.15606  0.28474  0.79944  Biso   1.000  H
  H632     1.0000 0.10155  0.28183  0.79533  Biso   1.000  H
  C773     1.0000 0.11708  0.27224  0.84288  Biso   1.000  C
  H633     1.0000 0.10158  0.28183  0.79533  Biso   1.000  H
  C774     1.0000 0.11705  0.27224  0.84288  Biso   1.000  C
  H634     1.0000 0.98438  0.11174  0.78914  Biso   1.000  H
  N179     1.0000 0.05256  0.02839  0.79042  Biso   1.000  N
  N180     1.0000 0.97161  0.02420  0.79042  Biso   1.000  N
  N181     1.0000 0.97164  0.02420  0.79042  Biso   1.000  N
  N182     1.0000 0.05260  0.02839  0.79042  Biso   1.000  N
  C775     1.0000 0.07266  0.26982  0.85625  Biso   1.000  C
  C776     1.0000 0.15625  0.27742  0.86288  Biso   1.000  C
  C777     1.0000 0.02761  0.97675  0.79045  Biso   1.000  C
  C778     1.0000 0.02764  0.97675  0.79045  Biso   1.000  C
  C779     1.0000 0.94912  0.97238  0.79045  Biso   1.000  C
  C780     1.0000 0.06696  0.26932  0.89004  Biso   1.000  C
  H635     1.0000 0.04688  0.26863  0.84244  Biso   1.000  H
  H636     1.0000 0.04685  0.26863  0.84244  Biso   1.000  H
  C781     1.0000 0.15148  0.27765  0.89647  Biso   1.000  C
  H637     1.0000 0.18676  0.28083  0.85364  Biso   1.000  H
  N183     1.0000 0.97580  0.94741  0.79042  Biso   1.000  N
  C782     1.0000 0.05796  0.95155  0.79192  Biso   1.000  C
  C783     1.0000 0.89358  0.94204  0.79192  Biso   1.000  C
  H638     1.0000 0.03697  0.26694  0.89935  Biso   1.000  H
  C784     1.0000 0.10616  0.27231  0.90972  Biso   1.000  C
  H639     1.0000 0.17846  0.28144  0.91013  Biso   1.000  H
  C785     1.0000 0.11048  0.97944  0.79168  Biso   1.000  C
  C786     1.0000 0.03369  0.89835  0.79470  Biso   1.000  C
  C787     1.0000 0.86895  0.88952  0.79168  Biso   1.000  C
  C788     1.0000 0.86466  0.96632  0.79470  Biso   1.000  C
  C789     1.0000 0.09648  0.26464  0.94624  Biso   1.000  C
  H640     1.0000 0.12739  0.01565  0.78914  Biso   1.000  H
  C790     1.0000 0.13896  0.95543  0.79521  Biso   1.000  C
  H641     1.0000 0.99717  0.87813  0.79383  Biso   1.000  H
  C791     1.0000 0.06325  0.87502  0.79874  Biso   1.000  C
  C792     1.0000 0.81647  0.86102  0.79521  Biso   1.000  C
  H642     1.0000 0.88829  0.87265  0.78914  Biso   1.000  H
  C793     1.0000 0.81177  0.93675  0.79874  Biso   1.000  C
  H643     1.0000 0.88096  0.00284  0.79383  Biso   1.000  H
  N184     1.0000 0.07587  0.20848  0.95318  Biso   1.000  N
  H644     1.0000 0.07138  0.27485  0.95294  Biso   1.000  H
  H645     1.0000 0.12888  0.28574  0.95823  Biso   1.000  H
  H646     1.0000 0.12885  0.28574  0.95823  Biso   1.000  H
  N185     1.0000 0.11539  0.90483  0.79911  Biso   1.000  N
  H647     1.0000 0.17538  0.97503  0.79485  Biso   1.000  H
  H648     1.0000 0.04746  0.83893  0.80123  Biso   1.000  H
  N186     1.0000 0.78943  0.88461  0.79911  Biso   1.000  N
  H649     1.0000 0.79966  0.82462  0.79485  Biso   1.000  H
  N187     1.0000 0.78946  0.88461  0.79911  Biso   1.000  N
  H650     1.0000 0.79147  0.95255  0.80123  Biso   1.000  H
  C794     1.0000 0.10765  0.19092  0.95615  Biso   1.000  C
  C795     1.0000 0.02444  0.17691  0.95410  Biso   1.000  C
  C796     1.0000 0.02447  0.17691  0.95410  Biso   1.000  C
  C797     1.0000 0.14686  0.88013  0.80665  Biso   1.000  C
  C798     1.0000 0.73325  0.85312  0.80665  Biso   1.000  C
  C799     1.0000 0.09046  0.13932  0.95860  Biso   1.000  C
  H651     1.0000 0.14356  0.21443  0.95664  Biso   1.000  H
  H652     1.0000 0.00227  0.19084  0.95284  Biso   1.000  H
  C800     1.0000 0.00417  0.12494  0.95674  Biso   1.000  C
  H653     1.0000 0.18026  0.89842  0.79533  Biso   1.000  H
  H654     1.0000 0.12865  0.84391  0.79944  Biso   1.000  H
  C801     1.0000 0.15517  0.88293  0.84288  Biso   1.000  C
  H655     1.0000 0.12867  0.84395  0.79944  Biso   1.000  H
  H656     1.0000 0.71816  0.81975  0.79533  Biso   1.000  H
  H657     1.0000 0.71529  0.87134  0.79944  Biso   1.000  H
  C802     1.0000 0.72778  0.84484  0.84288  Biso   1.000  C
  H658     1.0000 0.71819  0.81975  0.79533  Biso   1.000  H
  H659     1.0000 0.71525  0.87134  0.79944  Biso   1.000  H
  H660     1.0000 0.11389  0.12705  0.96015  Biso   1.000  H
  C803     1.0000 0.03785  0.10553  0.95879  Biso   1.000  C
  C804     1.0000 0.03788  0.10553  0.95879  Biso   1.000  C
  H661     1.0000 0.96818  0.10254  0.95715  Biso   1.000  H
  H662     1.0000 0.96815  0.10254  0.95715  Biso   1.000  H
  C805     1.0000 0.19718  0.92735  0.85625  Biso   1.000  C
  C806     1.0000 0.12115  0.84372  0.86288  Biso   1.000  C
  C807     1.0000 0.73016  0.80283  0.85625  Biso   1.000  C
  C808     1.0000 0.72255  0.87882  0.86288  Biso   1.000  C
  C809     1.0000 0.01807  0.04964  0.95978  Biso   1.000  C
  H663     1.0000 0.22176  0.95312  0.84244  Biso   1.000  H
  C810     1.0000 0.20238  0.93302  0.89004  Biso   1.000  C
  C811     1.0000 0.20234  0.93302  0.89004  Biso   1.000  C
  C812     1.0000 0.12617  0.84852  0.89647  Biso   1.000  C
  H664     1.0000 0.09408  0.81323  0.85364  Biso   1.000  H
  C813     1.0000 0.12614  0.84852  0.89647  Biso   1.000  C
  H665     1.0000 0.73136  0.77824  0.84244  Biso   1.000  H
  C814     1.0000 0.73066  0.79765  0.89004  Biso   1.000  C
  C815     1.0000 0.72238  0.87384  0.89647  Biso   1.000  C
  H666     1.0000 0.71917  0.90594  0.85364  Biso   1.000  H
  N188     1.0000 0.05191  0.03345  0.95985  Biso   1.000  N
  N189     1.0000 0.96657  0.01845  0.95985  Biso   1.000  N
  N190     1.0000 0.96654  0.01845  0.95985  Biso   1.000  N
  H667     1.0000 0.22997  0.96302  0.89935  Biso   1.000  H
  C816     1.0000 0.16616  0.89382  0.90972  Biso   1.000  C
  H668     1.0000 0.10299  0.82155  0.91013  Biso   1.000  H
  H669     1.0000 0.10296  0.82155  0.91013  Biso   1.000  H
  H670     1.0000 0.73307  0.77003  0.89935  Biso   1.000  H
  C817     1.0000 0.72766  0.83383  0.90972  Biso   1.000  C
  H671     1.0000 0.71857  0.89704  0.91013  Biso   1.000  H
  C818     1.0000 0.03156  0.98193  0.95978  Biso   1.000  C
  C819     1.0000 0.95036  0.96843  0.95978  Biso   1.000  C
  C820     1.0000 0.16816  0.90353  0.94624  Biso   1.000  C
  C821     1.0000 0.73536  0.83183  0.94624  Biso   1.000  C
  N191     1.0000 0.98156  0.94810  0.95985  Biso   1.000  N
  C822     1.0000 0.06768  0.96214  0.95879  Biso   1.000  C
  C823     1.0000 0.89448  0.93233  0.95879  Biso   1.000  C
  N192     1.0000 0.13262  0.92412  0.95318  Biso   1.000  N
  H672     1.0000 0.15689  0.87115  0.95823  Biso   1.000  H
  H673     1.0000 0.20348  0.92865  0.95294  Biso   1.000  H
  N193     1.0000 0.13258  0.92412  0.95318  Biso   1.000  N
  H674     1.0000 0.15686  0.87115  0.95823  Biso   1.000  H
  N194     1.0000 0.79151  0.86739  0.95318  Biso   1.000  N
  H675     1.0000 0.71428  0.84315  0.95823  Biso   1.000  H
  H676     1.0000 0.72516  0.79654  0.95294  Biso   1.000  H
  C824     1.0000 0.12076  0.99582  0.95674  Biso   1.000  C
  C825     1.0000 0.04889  0.90955  0.95860  Biso   1.000  C
  C826     1.0000 0.04885  0.90955  0.95860  Biso   1.000  C
  C827     1.0000 0.87507  0.87924  0.95674  Biso   1.000  C
  C828     1.0000 0.86066  0.95113  0.95860  Biso   1.000  C
  C829     1.0000 0.15247  0.97553  0.95410  Biso   1.000  C
  C830     1.0000 0.08326  0.89232  0.95615  Biso   1.000  C
  C831     1.0000 0.82307  0.84752  0.95410  Biso   1.000  C
  C832     1.0000 0.80907  0.91672  0.95615  Biso   1.000  C
  H677     1.0000 0.13438  0.03184  0.95715  Biso   1.000  H
  H678     1.0000 0.13435  0.03184  0.95715  Biso   1.000  H
  H679     1.0000 0.01317  0.88615  0.96015  Biso   1.000  H
  H680     1.0000 0.89747  0.86563  0.95715  Biso   1.000  H
  H681     1.0000 0.87296  0.98684  0.96015  Biso   1.000  H
  H682     1.0000 0.18856  0.99774  0.95284  Biso   1.000  H
  H683     1.0000 0.07086  0.85642  0.95664  Biso   1.000  H
  H684     1.0000 0.80917  0.81142  0.95284  Biso   1.000  H
  H685     1.0000 0.78558  0.92915  0.95664  Biso   1.000  H
  C833     1.0000 0.12498  0.18823  0.79874  Biso   1.000  C
  H686     1.0000 0.16107  0.20852  0.80123  Biso   1.000  H
  N195     1.0000 0.09518  0.21056  0.79911  Biso   1.000  N
  C834     1.0000 0.10165  0.13533  0.79470  Biso   1.000  C
  C835     1.0000 0.10168  0.13533  0.79470  Biso   1.000  C
  N196     1.0000 0.09515  0.21056  0.79911  Biso   1.000  N
  C836     1.0000 0.04457  0.18355  0.79521  Biso   1.000  C
  C837     1.0000 0.11987  0.26671  0.80665  Biso   1.000  C
  C838     1.0000 0.04847  0.10645  0.79192  Biso   1.000  C
  H687     1.0000 0.12187  0.11903  0.79383  Biso   1.000  H
  C839     1.0000 0.02057  0.13104  0.79168  Biso   1.000  C
  H688     1.0000 0.02495  0.20031  0.79485  Biso   1.000  H
  H689     1.0000 0.02497  0.20035  0.79485  Biso   1.000  H
  H690     1.0000 0.15606  0.28474  0.79944  Biso   1.000  H
  H691     1.0000 0.10155  0.28183  0.79533  Biso   1.000  H
  C840     1.0000 0.11708  0.27224  0.84288  Biso   1.000  C
  H692     1.0000 0.10158  0.28183  0.79533  Biso   1.000  H
  C841     1.0000 0.11705  0.27224  0.84288  Biso   1.000  C
  C842     1.0000 0.02324  0.05086  0.79045  Biso   1.000  C
  H693     1.0000 0.98438  0.11174  0.78914  Biso   1.000  H
  C843     1.0000 0.07266  0.26982  0.85625  Biso   1.000  C
  C844     1.0000 0.15625  0.27742  0.86288  Biso   1.000  C
  N197     1.0000 0.97161  0.02420  0.79042  Biso   1.000  N
  N198     1.0000 0.97164  0.02420  0.79042  Biso   1.000  N
  N199     1.0000 0.05256  0.02839  0.79042  Biso   1.000  N
  N200     1.0000 0.05260  0.02839  0.79042  Biso   1.000  N
  C845     1.0000 0.06696  0.26932  0.89004  Biso   1.000  C
  H694     1.0000 0.04688  0.26863  0.84244  Biso   1.000  H
  H695     1.0000 0.04685  0.26863  0.84244  Biso   1.000  H
  C846     1.0000 0.15148  0.27765  0.89647  Biso   1.000  C
  H696     1.0000 0.18676  0.28083  0.85364  Biso   1.000  H
  C847     1.0000 0.94912  0.97238  0.79045  Biso   1.000  C
  C848     1.0000 0.02761  0.97675  0.79045  Biso   1.000  C
  C849     1.0000 0.02764  0.97675  0.79045  Biso   1.000  C
  H697     1.0000 0.03697  0.26694  0.89935  Biso   1.000  H
  C850     1.0000 0.10616  0.27231  0.90972  Biso   1.000  C
  H698     1.0000 0.17846  0.28144  0.91013  Biso   1.000  H
  N201     1.0000 0.97580  0.94741  0.79042  Biso   1.000  N
  C851     1.0000 0.89358  0.94204  0.79192  Biso   1.000  C
  C852     1.0000 0.05796  0.95155  0.79192  Biso   1.000  C
  C853     1.0000 0.09648  0.26464  0.94624  Biso   1.000  C
  C854     1.0000 0.86895  0.88952  0.79168  Biso   1.000  C
  C855     1.0000 0.86466  0.96632  0.79470  Biso   1.000  C
  C856     1.0000 0.11048  0.97944  0.79168  Biso   1.000  C
  C857     1.0000 0.03369  0.89835  0.79470  Biso   1.000  C
  N202     1.0000 0.07587  0.20848  0.95318  Biso   1.000  N
  H699     1.0000 0.07138  0.27485  0.95294  Biso   1.000  H
  H700     1.0000 0.12888  0.28574  0.95823  Biso   1.000  H
  H701     1.0000 0.12885  0.28574  0.95823  Biso   1.000  H
  C858     1.0000 0.81647  0.86102  0.79521  Biso   1.000  C
  H702     1.0000 0.88829  0.87265  0.78914  Biso   1.000  H
  C859     1.0000 0.81177  0.93675  0.79874  Biso   1.000  C
  H703     1.0000 0.88096  0.00284  0.79383  Biso   1.000  H
  H704     1.0000 0.12739  0.01565  0.78914  Biso   1.000  H
  C860     1.0000 0.13896  0.95543  0.79521  Biso   1.000  C
  H705     1.0000 0.99717  0.87813  0.79383  Biso   1.000  H
  C861     1.0000 0.06325  0.87502  0.79874  Biso   1.000  C
  C862     1.0000 0.10765  0.19092  0.95615  Biso   1.000  C
  C863     1.0000 0.02444  0.17691  0.95410  Biso   1.000  C
  C864     1.0000 0.02447  0.17691  0.95410  Biso   1.000  C
  N203     1.0000 0.78943  0.88461  0.79911  Biso   1.000  N
  H706     1.0000 0.79966  0.82462  0.79485  Biso   1.000  H
  N204     1.0000 0.78946  0.88461  0.79911  Biso   1.000  N
  H707     1.0000 0.79147  0.95255  0.80123  Biso   1.000  H
  N205     1.0000 0.11539  0.90483  0.79911  Biso   1.000  N
  H708     1.0000 0.17538  0.97503  0.79485  Biso   1.000  H
  H709     1.0000 0.04746  0.83893  0.80123  Biso   1.000  H
  C865     1.0000 0.09046  0.13932  0.95860  Biso   1.000  C
  H710     1.0000 0.14356  0.21443  0.95664  Biso   1.000  H
  H711     1.0000 0.00227  0.19084  0.95284  Biso   1.000  H
  C866     1.0000 0.00417  0.12494  0.95674  Biso   1.000  C
  C867     1.0000 0.73325  0.85312  0.80665  Biso   1.000  C
  C868     1.0000 0.14686  0.88013  0.80665  Biso   1.000  C
  H712     1.0000 0.11389  0.12705  0.96015  Biso   1.000  H
  C869     1.0000 0.03785  0.10553  0.95879  Biso   1.000  C
  C870     1.0000 0.03788  0.10553  0.95879  Biso   1.000  C
  H713     1.0000 0.96818  0.10254  0.95715  Biso   1.000  H
  H714     1.0000 0.96815  0.10254  0.95715  Biso   1.000  H
  H715     1.0000 0.71816  0.81975  0.79533  Biso   1.000  H
  H716     1.0000 0.71529  0.87134  0.79944  Biso   1.000  H
  C871     1.0000 0.72778  0.84484  0.84288  Biso   1.000  C
  H717     1.0000 0.71819  0.81975  0.79533  Biso   1.000  H
  H718     1.0000 0.71525  0.87134  0.79944  Biso   1.000  H
  H719     1.0000 0.18026  0.89842  0.79533  Biso   1.000  H
  H720     1.0000 0.12865  0.84391  0.79944  Biso   1.000  H
  C872     1.0000 0.15517  0.88293  0.84288  Biso   1.000  C
  H721     1.0000 0.12867  0.84395  0.79944  Biso   1.000  H
  C873     1.0000 0.01807  0.04964  0.95978  Biso   1.000  C
  C874     1.0000 0.73016  0.80283  0.85625  Biso   1.000  C
  C875     1.0000 0.72255  0.87882  0.86288  Biso   1.000  C
  C876     1.0000 0.19718  0.92735  0.85625  Biso   1.000  C
  C877     1.0000 0.12115  0.84372  0.86288  Biso   1.000  C
  N206     1.0000 0.05191  0.03345  0.95985  Biso   1.000  N
  N207     1.0000 0.96657  0.01845  0.95985  Biso   1.000  N
  N208     1.0000 0.96654  0.01845  0.95985  Biso   1.000  N
  H722     1.0000 0.73136  0.77824  0.84244  Biso   1.000  H
  C878     1.0000 0.73066  0.79765  0.89004  Biso   1.000  C
  C879     1.0000 0.72238  0.87384  0.89647  Biso   1.000  C
  H723     1.0000 0.71917  0.90594  0.85364  Biso   1.000  H
  H724     1.0000 0.22176  0.95312  0.84244  Biso   1.000  H
  C880     1.0000 0.20238  0.93302  0.89004  Biso   1.000  C
  C881     1.0000 0.20234  0.93302  0.89004  Biso   1.000  C
  C882     1.0000 0.12617  0.84852  0.89647  Biso   1.000  C
  H725     1.0000 0.09408  0.81323  0.85364  Biso   1.000  H
  C883     1.0000 0.12614  0.84852  0.89647  Biso   1.000  C
  C884     1.0000 0.03156  0.98193  0.95978  Biso   1.000  C
  C885     1.0000 0.95036  0.96843  0.95978  Biso   1.000  C
  H726     1.0000 0.73307  0.77003  0.89935  Biso   1.000  H
  C886     1.0000 0.72766  0.83383  0.90972  Biso   1.000  C
  H727     1.0000 0.71857  0.89704  0.91013  Biso   1.000  H
  H728     1.0000 0.22997  0.96302  0.89935  Biso   1.000  H
  C887     1.0000 0.16616  0.89382  0.90972  Biso   1.000  C
  H729     1.0000 0.10299  0.82155  0.91013  Biso   1.000  H
  H730     1.0000 0.10296  0.82155  0.91013  Biso   1.000  H
  N209     1.0000 0.98156  0.94810  0.95985  Biso   1.000  N
  C888     1.0000 0.06768  0.96214  0.95879  Biso   1.000  C
  C889     1.0000 0.89448  0.93233  0.95879  Biso   1.000  C
  C890     1.0000 0.73536  0.83183  0.94624  Biso   1.000  C
  C891     1.0000 0.16816  0.90353  0.94624  Biso   1.000  C
  C892     1.0000 0.12076  0.99582  0.95674  Biso   1.000  C
  C893     1.0000 0.04889  0.90955  0.95860  Biso   1.000  C
  C894     1.0000 0.04885  0.90955  0.95860  Biso   1.000  C
  C895     1.0000 0.87507  0.87924  0.95674  Biso   1.000  C
  C896     1.0000 0.86066  0.95113  0.95860  Biso   1.000  C
  N210     1.0000 0.79151  0.86739  0.95318  Biso   1.000  N
  H731     1.0000 0.71428  0.84315  0.95823  Biso   1.000  H
  H732     1.0000 0.72516  0.79654  0.95294  Biso   1.000  H
  N211     1.0000 0.13262  0.92412  0.95318  Biso   1.000  N
  H733     1.0000 0.15689  0.87115  0.95823  Biso   1.000  H
  H734     1.0000 0.20348  0.92865  0.95294  Biso   1.000  H
  N212     1.0000 0.13258  0.92412  0.95318  Biso   1.000  N
  H735     1.0000 0.15686  0.87115  0.95823  Biso   1.000  H
  C897     1.0000 0.15247  0.97553  0.95410  Biso   1.000  C
  H736     1.0000 0.13438  0.03184  0.95715  Biso   1.000  H
  H737     1.0000 0.13435  0.03184  0.95715  Biso   1.000  H
  H738     1.0000 0.01317  0.88615  0.96015  Biso   1.000  H
  C898     1.0000 0.08326  0.89232  0.95615  Biso   1.000  C
  C899     1.0000 0.82307  0.84752  0.95410  Biso   1.000  C
  H739     1.0000 0.89747  0.86563  0.95715  Biso   1.000  H
  H740     1.0000 0.87296  0.98684  0.96015  Biso   1.000  H
  C900     1.0000 0.80907  0.91672  0.95615  Biso   1.000  C
  H741     1.0000 0.18856  0.99774  0.95284  Biso   1.000  H
  H742     1.0000 0.07086  0.85642  0.95664  Biso   1.000  H
  H743     1.0000 0.80917  0.81142  0.95284  Biso   1.000  H
  H744     1.0000 0.78558  0.92915  0.95664  Biso   1.000  H
  C901     1.0000 0.18353  0.13898  0.20481  Biso   1.000  C
  N213     1.0000 0.21057  0.11539  0.20092  Biso   1.000  N
  H745     1.0000 0.20034  0.17538  0.20518  Biso   1.000  H
  C902     1.0000 0.13105  0.11048  0.20832  Biso   1.000  C
  N214     1.0000 0.21054  0.11539  0.20092  Biso   1.000  N
  C903     1.0000 0.18823  0.06325  0.20126  Biso   1.000  C
  C904     1.0000 0.26675  0.14688  0.19337  Biso   1.000  C
  H746     1.0000 0.11171  0.12735  0.21086  Biso   1.000  H
  C905     1.0000 0.10642  0.05796  0.20810  Biso   1.000  C
  C906     1.0000 0.13534  0.03368  0.20532  Biso   1.000  C
  H747     1.0000 0.20853  0.04745  0.19877  Biso   1.000  H
  H748     1.0000 0.28184  0.18025  0.20467  Biso   1.000  H
  H749     1.0000 0.28471  0.12866  0.20058  Biso   1.000  H
  C907     1.0000 0.27222  0.15516  0.15715  Biso   1.000  C
  H750     1.0000 0.28475  0.12866  0.20058  Biso   1.000  H
  H751     1.0000 0.28181  0.18025  0.20467  Biso   1.000  H
  C908     1.0000 0.05088  0.02762  0.20955  Biso   1.000  C
  C909     1.0000 0.05085  0.02762  0.20955  Biso   1.000  C
  H752     1.0000 0.11904  0.99716  0.20617  Biso   1.000  H
  C910     1.0000 0.26984  0.19717  0.14375  Biso   1.000  C
  C911     1.0000 0.27745  0.12118  0.13712  Biso   1.000  C
  C912     1.0000 0.27742  0.12118  0.13712  Biso   1.000  C
  N215     1.0000 0.02420  0.05259  0.20958  Biso   1.000  N
  N216     1.0000 0.02839  0.97580  0.20958  Biso   1.000  N
  N217     1.0000 0.02836  0.97580  0.20958  Biso   1.000  N
  H753     1.0000 0.26864  0.22176  0.15756  Biso   1.000  H
  C913     1.0000 0.26934  0.20235  0.10996  Biso   1.000  C
  C914     1.0000 0.26935  0.20239  0.10996  Biso   1.000  C
  H754     1.0000 0.26861  0.22176  0.15756  Biso   1.000  H
  C915     1.0000 0.27762  0.12616  0.10356  Biso   1.000  C
  H755     1.0000 0.28083  0.09406  0.14636  Biso   1.000  H
  C916     1.0000 0.97239  0.02325  0.20955  Biso   1.000  C
  C917     1.0000 0.97236  0.02325  0.20955  Biso   1.000  C
  C918     1.0000 0.97676  0.94914  0.20955  Biso   1.000  C
  H756     1.0000 0.26693  0.22997  0.10068  Biso   1.000  H
  C919     1.0000 0.27234  0.16617  0.09028  Biso   1.000  C
  H757     1.0000 0.28143  0.10296  0.08987  Biso   1.000  H
  N218     1.0000 0.94744  0.97161  0.20958  Biso   1.000  N
  N219     1.0000 0.94740  0.97161  0.20958  Biso   1.000  N
  C920     1.0000 0.94204  0.04845  0.20810  Biso   1.000  C
  C921     1.0000 0.95153  0.89355  0.20810  Biso   1.000  C
  C922     1.0000 0.26464  0.16817  0.05376  Biso   1.000  C
  C923     1.0000 0.88952  0.02056  0.20832  Biso   1.000  C
  C924     1.0000 0.96631  0.10165  0.20532  Biso   1.000  C
  C925     1.0000 0.97943  0.86896  0.20832  Biso   1.000  C
  C926     1.0000 0.89835  0.86467  0.20532  Biso   1.000  C
  C927     1.0000 0.89832  0.86467  0.20532  Biso   1.000  C
  N220     1.0000 0.20849  0.13261  0.04684  Biso   1.000  N
  H758     1.0000 0.28572  0.15685  0.04177  Biso   1.000  H
  H759     1.0000 0.27484  0.20346  0.04706  Biso   1.000  H
  N221     1.0000 0.20845  0.13261  0.04684  Biso   1.000  N
  H760     1.0000 0.87261  0.98435  0.21086  Biso   1.000  H
  C928     1.0000 0.86104  0.04457  0.20481  Biso   1.000  C
  H761     1.0000 0.00283  0.12187  0.20617  Biso   1.000  H
  C929     1.0000 0.93675  0.12498  0.20126  Biso   1.000  C
  C930     1.0000 0.95543  0.81645  0.20481  Biso   1.000  C
  H762     1.0000 0.01562  0.88826  0.21086  Biso   1.000  H
  H763     1.0000 0.87813  0.88097  0.20617  Biso   1.000  H
  C931     1.0000 0.87502  0.81177  0.20126  Biso   1.000  C
  C932     1.0000 0.17693  0.15248  0.04593  Biso   1.000  C
  C933     1.0000 0.19093  0.08328  0.04385  Biso   1.000  C
  N222     1.0000 0.88461  0.09517  0.20092  Biso   1.000  N
  H764     1.0000 0.82462  0.02497  0.20518  Biso   1.000  H
  H765     1.0000 0.95254  0.16107  0.19877  Biso   1.000  H
  N223     1.0000 0.90482  0.78944  0.20092  Biso   1.000  N
  H766     1.0000 0.97505  0.79969  0.20518  Biso   1.000  H
  N224     1.0000 0.90485  0.78944  0.20092  Biso   1.000  N
  H767     1.0000 0.83893  0.79148  0.19877  Biso   1.000  H
  H768     1.0000 0.19083  0.18858  0.04716  Biso   1.000  H
  C934     1.0000 0.12493  0.12076  0.04326  Biso   1.000  C
  C935     1.0000 0.13934  0.04887  0.04140  Biso   1.000  C
  H769     1.0000 0.21442  0.07085  0.04336  Biso   1.000  H
  C936     1.0000 0.85314  0.11987  0.19337  Biso   1.000  C
  C937     1.0000 0.88013  0.73329  0.19337  Biso   1.000  C
  H770     1.0000 0.10253  0.13437  0.04288  Biso   1.000  H
  C938     1.0000 0.10552  0.06767  0.04121  Biso   1.000  C
  H771     1.0000 0.12704  0.01316  0.03988  Biso   1.000  H
  H772     1.0000 0.81974  0.10158  0.20467  Biso   1.000  H
  H773     1.0000 0.87135  0.15609  0.20058  Biso   1.000  H
  C939     1.0000 0.84483  0.11707  0.15715  Biso   1.000  C
  H774     1.0000 0.89845  0.71817  0.20467  Biso   1.000  H
  H775     1.0000 0.84394  0.71526  0.20058  Biso   1.000  H
  C940     1.0000 0.88292  0.72776  0.15715  Biso   1.000  C
  H776     1.0000 0.89842  0.71817  0.20467  Biso   1.000  H
  C941     1.0000 0.04964  0.03157  0.04022  Biso   1.000  C
  C942     1.0000 0.80282  0.07265  0.14375  Biso   1.000  C
  C943     1.0000 0.87885  0.15628  0.13712  Biso   1.000  C
  C944     1.0000 0.92734  0.73018  0.14375  Biso   1.000  C
  C945     1.0000 0.84375  0.72258  0.13712  Biso   1.000  C
  N225     1.0000 0.01844  0.05190  0.04015  Biso   1.000  N
  N226     1.0000 0.03343  0.98155  0.04015  Biso   1.000  N
  H777     1.0000 0.77824  0.04688  0.15756  Biso   1.000  H
  C946     1.0000 0.79762  0.06698  0.10996  Biso   1.000  C
  C947     1.0000 0.79766  0.06698  0.10996  Biso   1.000  C
  C948     1.0000 0.87383  0.15148  0.10356  Biso   1.000  C
  H778     1.0000 0.90592  0.18677  0.14636  Biso   1.000  H
  H779     1.0000 0.95312  0.73137  0.15756  Biso   1.000  H
  C949     1.0000 0.93304  0.73068  0.10996  Biso   1.000  C
  C950     1.0000 0.84852  0.72235  0.10356  Biso   1.000  C
  H780     1.0000 0.81324  0.71917  0.14636  Biso   1.000  H
  C951     1.0000 0.96844  0.01807  0.04022  Biso   1.000  C
  C952     1.0000 0.98193  0.95036  0.04022  Biso   1.000  C
  H781     1.0000 0.77003  0.03698  0.10068  Biso   1.000  H
  C953     1.0000 0.83384  0.10618  0.09028  Biso   1.000  C
  H782     1.0000 0.89701  0.17845  0.08987  Biso   1.000  H
  H783     1.0000 0.96303  0.73306  0.10068  Biso   1.000  H
  C954     1.0000 0.89384  0.72769  0.09028  Biso   1.000  C
  H784     1.0000 0.82154  0.71856  0.08987  Biso   1.000  H
  N227     1.0000 0.94809  0.96655  0.04015  Biso   1.000  N
  C955     1.0000 0.93232  0.03786  0.04121  Biso   1.000  C
  C956     1.0000 0.96215  0.89447  0.04121  Biso   1.000  C
  C957     1.0000 0.96212  0.89447  0.04121  Biso   1.000  C
  C958     1.0000 0.83184  0.09647  0.05376  Biso   1.000  C
  C959     1.0000 0.90352  0.73536  0.05376  Biso   1.000  C
  C960     1.0000 0.87924  0.00418  0.04326  Biso   1.000  C
  C961     1.0000 0.95111  0.09045  0.04140  Biso   1.000  C
  C962     1.0000 0.99583  0.87506  0.04326  Biso   1.000  C
  C963     1.0000 0.90954  0.86068  0.04140  Biso   1.000  C
  N228     1.0000 0.86738  0.07588  0.04684  Biso   1.000  N
  H785     1.0000 0.84311  0.12885  0.04177  Biso   1.000  H
  H786     1.0000 0.79652  0.07135  0.04706  Biso   1.000  H
  N229     1.0000 0.92413  0.79152  0.04684  Biso   1.000  N
  H787     1.0000 0.87112  0.71426  0.04177  Biso   1.000  H
  H788     1.0000 0.92862  0.72515  0.04706  Biso   1.000  H
  H789     1.0000 0.86562  0.96816  0.04288  Biso   1.000  H
  C964     1.0000 0.84753  0.02447  0.04593  Biso   1.000  C
  H790     1.0000 0.98683  0.11385  0.03988  Biso   1.000  H
  C965     1.0000 0.91674  0.10768  0.04385  Biso   1.000  C
  C966     1.0000 0.97556  0.82309  0.04593  Biso   1.000  C
  C967     1.0000 0.97553  0.82309  0.04593  Biso   1.000  C
  H791     1.0000 0.03182  0.89746  0.04288  Biso   1.000  H
  H792     1.0000 0.03185  0.89746  0.04288  Biso   1.000  H
  H793     1.0000 0.88611  0.87295  0.03988  Biso   1.000  H
  C968     1.0000 0.89235  0.80908  0.04385  Biso   1.000  C
  H794     1.0000 0.81144  0.00226  0.04716  Biso   1.000  H
  H795     1.0000 0.92914  0.14358  0.04336  Biso   1.000  H
  H796     1.0000 0.99773  0.80916  0.04716  Biso   1.000  H
  H797     1.0000 0.85644  0.78557  0.04336  Biso   1.000  H
  C969     1.0000 0.18353  0.13898  0.20481  Biso   1.000  C
  N230     1.0000 0.21057  0.11539  0.20092  Biso   1.000  N
  H798     1.0000 0.20034  0.17538  0.20518  Biso   1.000  H
  C970     1.0000 0.13105  0.11048  0.20832  Biso   1.000  C
  N231     1.0000 0.21054  0.11539  0.20092  Biso   1.000  N
  C971     1.0000 0.18823  0.06325  0.20126  Biso   1.000  C
  C972     1.0000 0.26675  0.14688  0.19337  Biso   1.000  C
  H799     1.0000 0.11171  0.12735  0.21086  Biso   1.000  H
  C973     1.0000 0.10642  0.05796  0.20810  Biso   1.000  C
  C974     1.0000 0.13534  0.03368  0.20532  Biso   1.000  C
  H800     1.0000 0.20853  0.04745  0.19877  Biso   1.000  H
  H801     1.0000 0.28184  0.18025  0.20467  Biso   1.000  H
  C975     1.0000 0.27222  0.15516  0.15715  Biso   1.000  C
  H802     1.0000 0.28471  0.12866  0.20058  Biso   1.000  H
  H803     1.0000 0.28181  0.18025  0.20467  Biso   1.000  H
  H804     1.0000 0.28475  0.12866  0.20058  Biso   1.000  H
  C976     1.0000 0.05088  0.02762  0.20955  Biso   1.000  C
  C977     1.0000 0.05085  0.02762  0.20955  Biso   1.000  C
  H805     1.0000 0.11904  0.99716  0.20617  Biso   1.000  H
  C978     1.0000 0.26984  0.19717  0.14375  Biso   1.000  C
  C979     1.0000 0.27745  0.12118  0.13712  Biso   1.000  C
  C980     1.0000 0.27742  0.12118  0.13712  Biso   1.000  C
  N232     1.0000 0.02420  0.05259  0.20958  Biso   1.000  N
  N233     1.0000 0.02839  0.97580  0.20958  Biso   1.000  N
  N234     1.0000 0.02836  0.97580  0.20958  Biso   1.000  N
  H806     1.0000 0.26864  0.22176  0.15756  Biso   1.000  H
  C981     1.0000 0.26934  0.20235  0.10996  Biso   1.000  C
  C982     1.0000 0.26935  0.20239  0.10996  Biso   1.000  C
  H807     1.0000 0.26861  0.22176  0.15756  Biso   1.000  H
  C983     1.0000 0.27762  0.12616  0.10356  Biso   1.000  C
  H808     1.0000 0.28083  0.09406  0.14636  Biso   1.000  H
  C984     1.0000 0.97239  0.02325  0.20955  Biso   1.000  C
  C985     1.0000 0.97236  0.02325  0.20955  Biso   1.000  C
  C986     1.0000 0.97676  0.94914  0.20955  Biso   1.000  C
  H809     1.0000 0.26693  0.22997  0.10068  Biso   1.000  H
  C987     1.0000 0.27234  0.16617  0.09028  Biso   1.000  C
  H810     1.0000 0.28143  0.10296  0.08987  Biso   1.000  H
  N235     1.0000 0.94744  0.97161  0.20958  Biso   1.000  N
  N236     1.0000 0.94740  0.97161  0.20958  Biso   1.000  N
  C988     1.0000 0.94204  0.04845  0.20810  Biso   1.000  C
  C989     1.0000 0.95153  0.89355  0.20810  Biso   1.000  C
  C990     1.0000 0.26464  0.16817  0.05376  Biso   1.000  C
  C991     1.0000 0.88952  0.02056  0.20832  Biso   1.000  C
  C992     1.0000 0.96631  0.10165  0.20532  Biso   1.000  C
  C993     1.0000 0.97943  0.86896  0.20832  Biso   1.000  C
  C994     1.0000 0.89835  0.86467  0.20532  Biso   1.000  C
  C995     1.0000 0.89832  0.86467  0.20532  Biso   1.000  C
  N237     1.0000 0.20849  0.13261  0.04684  Biso   1.000  N
  H811     1.0000 0.28572  0.15685  0.04177  Biso   1.000  H
  H812     1.0000 0.27484  0.20346  0.04706  Biso   1.000  H
  N238     1.0000 0.20845  0.13261  0.04684  Biso   1.000  N
  H813     1.0000 0.87261  0.98435  0.21086  Biso   1.000  H
  C996     1.0000 0.86104  0.04457  0.20481  Biso   1.000  C
  H814     1.0000 0.00283  0.12187  0.20617  Biso   1.000  H
  C997     1.0000 0.93675  0.12498  0.20126  Biso   1.000  C
  C998     1.0000 0.95543  0.81645  0.20481  Biso   1.000  C
  H815     1.0000 0.01562  0.88826  0.21086  Biso   1.000  H
  H816     1.0000 0.87813  0.88097  0.20617  Biso   1.000  H
  C999     1.0000 0.87502  0.81177  0.20126  Biso   1.000  C
  C1000    1.0000 0.17693  0.15248  0.04593  Biso   1.000  C
  C1001    1.0000 0.19093  0.08328  0.04385  Biso   1.000  C
  N239     1.0000 0.88461  0.09517  0.20092  Biso   1.000  N
  H817     1.0000 0.82462  0.02497  0.20518  Biso   1.000  H
  H818     1.0000 0.95254  0.16107  0.19877  Biso   1.000  H
  N240     1.0000 0.90482  0.78944  0.20092  Biso   1.000  N
  H819     1.0000 0.97505  0.79969  0.20518  Biso   1.000  H
  N241     1.0000 0.90485  0.78944  0.20092  Biso   1.000  N
  H820     1.0000 0.83893  0.79148  0.19877  Biso   1.000  H
  H821     1.0000 0.19083  0.18858  0.04716  Biso   1.000  H
  C1002    1.0000 0.12493  0.12076  0.04326  Biso   1.000  C
  C1003    1.0000 0.13934  0.04887  0.04140  Biso   1.000  C
  H822     1.0000 0.21442  0.07085  0.04336  Biso   1.000  H
  C1004    1.0000 0.85314  0.11987  0.19337  Biso   1.000  C
  C1005    1.0000 0.88013  0.73329  0.19337  Biso   1.000  C
  H823     1.0000 0.10253  0.13437  0.04288  Biso   1.000  H
  C1006    1.0000 0.10552  0.06767  0.04121  Biso   1.000  C
  H824     1.0000 0.12704  0.01316  0.03988  Biso   1.000  H
  H825     1.0000 0.81974  0.10158  0.20467  Biso   1.000  H
  H826     1.0000 0.87135  0.15609  0.20058  Biso   1.000  H
  C1007    1.0000 0.84483  0.11707  0.15715  Biso   1.000  C
  H827     1.0000 0.89845  0.71817  0.20467  Biso   1.000  H
  H828     1.0000 0.84394  0.71526  0.20058  Biso   1.000  H
  C1008    1.0000 0.88292  0.72776  0.15715  Biso   1.000  C
  H829     1.0000 0.89842  0.71817  0.20467  Biso   1.000  H
  C1009    1.0000 0.04964  0.03157  0.04022  Biso   1.000  C
  C1010    1.0000 0.80282  0.07265  0.14375  Biso   1.000  C
  C1011    1.0000 0.87885  0.15628  0.13712  Biso   1.000  C
  C1012    1.0000 0.92734  0.73018  0.14375  Biso   1.000  C
  C1013    1.0000 0.84375  0.72258  0.13712  Biso   1.000  C
  N242     1.0000 0.01844  0.05190  0.04015  Biso   1.000  N
  N243     1.0000 0.03343  0.98155  0.04015  Biso   1.000  N
  H830     1.0000 0.77824  0.04688  0.15756  Biso   1.000  H
  C1014    1.0000 0.79762  0.06698  0.10996  Biso   1.000  C
  C1015    1.0000 0.79766  0.06698  0.10996  Biso   1.000  C
  C1016    1.0000 0.87383  0.15148  0.10356  Biso   1.000  C
  H831     1.0000 0.90592  0.18677  0.14636  Biso   1.000  H
  H832     1.0000 0.95312  0.73137  0.15756  Biso   1.000  H
  C1017    1.0000 0.93304  0.73068  0.10996  Biso   1.000  C
  C1018    1.0000 0.84852  0.72235  0.10356  Biso   1.000  C
  H833     1.0000 0.81324  0.71917  0.14636  Biso   1.000  H
  C1019    1.0000 0.96844  0.01807  0.04022  Biso   1.000  C
  C1020    1.0000 0.98193  0.95036  0.04022  Biso   1.000  C
  H834     1.0000 0.77003  0.03698  0.10068  Biso   1.000  H
  C1021    1.0000 0.83384  0.10618  0.09028  Biso   1.000  C
  H835     1.0000 0.89701  0.17845  0.08987  Biso   1.000  H
  H836     1.0000 0.96303  0.73306  0.10068  Biso   1.000  H
  C1022    1.0000 0.89384  0.72769  0.09028  Biso   1.000  C
  H837     1.0000 0.82154  0.71856  0.08987  Biso   1.000  H
  N244     1.0000 0.94809  0.96655  0.04015  Biso   1.000  N
  C1023    1.0000 0.93232  0.03786  0.04121  Biso   1.000  C
  C1024    1.0000 0.96215  0.89447  0.04121  Biso   1.000  C
  C1025    1.0000 0.96212  0.89447  0.04121  Biso   1.000  C
  C1026    1.0000 0.83184  0.09647  0.05376  Biso   1.000  C
  C1027    1.0000 0.90352  0.73536  0.05376  Biso   1.000  C
  C1028    1.0000 0.87924  0.00418  0.04326  Biso   1.000  C
  C1029    1.0000 0.95111  0.09045  0.04140  Biso   1.000  C
  C1030    1.0000 0.99583  0.87506  0.04326  Biso   1.000  C
  C1031    1.0000 0.90954  0.86068  0.04140  Biso   1.000  C
  N245     1.0000 0.86738  0.07588  0.04684  Biso   1.000  N
  H838     1.0000 0.84311  0.12885  0.04177  Biso   1.000  H
  H839     1.0000 0.79652  0.07135  0.04706  Biso   1.000  H
  N246     1.0000 0.92413  0.79152  0.04684  Biso   1.000  N
  H840     1.0000 0.87112  0.71426  0.04177  Biso   1.000  H
  H841     1.0000 0.92862  0.72515  0.04706  Biso   1.000  H
  H842     1.0000 0.86562  0.96816  0.04288  Biso   1.000  H
  C1032    1.0000 0.84753  0.02447  0.04593  Biso   1.000  C
  H843     1.0000 0.98683  0.11385  0.03988  Biso   1.000  H
  C1033    1.0000 0.91674  0.10768  0.04385  Biso   1.000  C
  C1034    1.0000 0.97556  0.82309  0.04593  Biso   1.000  C
  C1035    1.0000 0.97553  0.82309  0.04593  Biso   1.000  C
  H844     1.0000 0.03182  0.89746  0.04288  Biso   1.000  H
  H845     1.0000 0.03185  0.89746  0.04288  Biso   1.000  H
  H846     1.0000 0.88611  0.87295  0.03988  Biso   1.000  H
  C1036    1.0000 0.89235  0.80908  0.04385  Biso   1.000  C
  H847     1.0000 0.81144  0.00226  0.04716  Biso   1.000  H
  H848     1.0000 0.92914  0.14358  0.04336  Biso   1.000  H
  H849     1.0000 0.99773  0.80916  0.04716  Biso   1.000  H
  H850     1.0000 0.85644  0.78557  0.04336  Biso   1.000  H
  C1037    1.0000 0.18353  0.13898  0.20481  Biso   1.000  C
  H851     1.0000 0.20034  0.17538  0.20518  Biso   1.000  H
  C1038    1.0000 0.13105  0.11048  0.20832  Biso   1.000  C
  N247     1.0000 0.21057  0.11539  0.20092  Biso   1.000  N
  N248     1.0000 0.21054  0.11539  0.20092  Biso   1.000  N
  H852     1.0000 0.11171  0.12735  0.21086  Biso   1.000  H
  C1039    1.0000 0.10642  0.05796  0.20810  Biso   1.000  C
  C1040    1.0000 0.18823  0.06325  0.20126  Biso   1.000  C
  C1041    1.0000 0.26675  0.14688  0.19337  Biso   1.000  C
  C1042    1.0000 0.13534  0.03368  0.20532  Biso   1.000  C
  C1043    1.0000 0.05088  0.02762  0.20955  Biso   1.000  C
  C1044    1.0000 0.05085  0.02762  0.20955  Biso   1.000  C
  H853     1.0000 0.20853  0.04745  0.19877  Biso   1.000  H
  C1045    1.0000 0.27222  0.15516  0.15715  Biso   1.000  C
  H854     1.0000 0.28471  0.12866  0.20058  Biso   1.000  H
  H855     1.0000 0.28184  0.18025  0.20467  Biso   1.000  H
  H856     1.0000 0.28475  0.12866  0.20058  Biso   1.000  H
  H857     1.0000 0.28181  0.18025  0.20467  Biso   1.000  H
  H858     1.0000 0.11904  0.99716  0.20617  Biso   1.000  H
  N249     1.0000 0.02420  0.05259  0.20958  Biso   1.000  N
  N250     1.0000 0.02839  0.97580  0.20958  Biso   1.000  N
  N251     1.0000 0.02836  0.97580  0.20958  Biso   1.000  N
  C1046    1.0000 0.26984  0.19717  0.14375  Biso   1.000  C
  C1047    1.0000 0.27745  0.12118  0.13712  Biso   1.000  C
  C1048    1.0000 0.27742  0.12118  0.13712  Biso   1.000  C
  C1049    1.0000 0.97239  0.02325  0.20955  Biso   1.000  C
  C1050    1.0000 0.97236  0.02325  0.20955  Biso   1.000  C
  C1051    1.0000 0.97676  0.94914  0.20955  Biso   1.000  C
  H859     1.0000 0.26864  0.22176  0.15756  Biso   1.000  H
  C1052    1.0000 0.26934  0.20235  0.10996  Biso   1.000  C
  C1053    1.0000 0.26935  0.20239  0.10996  Biso   1.000  C
  H860     1.0000 0.26861  0.22176  0.15756  Biso   1.000  H
  C1054    1.0000 0.27762  0.12616  0.10356  Biso   1.000  C
  H861     1.0000 0.28083  0.09406  0.14636  Biso   1.000  H
  N252     1.0000 0.94744  0.97161  0.20958  Biso   1.000  N
  N253     1.0000 0.94740  0.97161  0.20958  Biso   1.000  N
  C1055    1.0000 0.94204  0.04845  0.20810  Biso   1.000  C
  C1056    1.0000 0.95153  0.89355  0.20810  Biso   1.000  C
  H862     1.0000 0.26693  0.22997  0.10068  Biso   1.000  H
  C1057    1.0000 0.27234  0.16617  0.09028  Biso   1.000  C
  H863     1.0000 0.28143  0.10296  0.08987  Biso   1.000  H
  C1058    1.0000 0.88952  0.02056  0.20832  Biso   1.000  C
  C1059    1.0000 0.96631  0.10165  0.20532  Biso   1.000  C
  C1060    1.0000 0.97943  0.86896  0.20832  Biso   1.000  C
  C1061    1.0000 0.89835  0.86467  0.20532  Biso   1.000  C
  C1062    1.0000 0.89832  0.86467  0.20532  Biso   1.000  C
  C1063    1.0000 0.26464  0.16817  0.05376  Biso   1.000  C
  H864     1.0000 0.87261  0.98435  0.21086  Biso   1.000  H
  C1064    1.0000 0.86104  0.04457  0.20481  Biso   1.000  C
  H865     1.0000 0.00283  0.12187  0.20617  Biso   1.000  H
  C1065    1.0000 0.93675  0.12498  0.20126  Biso   1.000  C
  C1066    1.0000 0.95543  0.81645  0.20481  Biso   1.000  C
  H866     1.0000 0.01562  0.88826  0.21086  Biso   1.000  H
  H867     1.0000 0.87813  0.88097  0.20617  Biso   1.000  H
  C1067    1.0000 0.87502  0.81177  0.20126  Biso   1.000  C
  H868     1.0000 0.28572  0.15685  0.04177  Biso   1.000  H
  H869     1.0000 0.27484  0.20346  0.04706  Biso   1.000  H
  N254     1.0000 0.20849  0.13261  0.04684  Biso   1.000  N
  N255     1.0000 0.20845  0.13261  0.04684  Biso   1.000  N
  N256     1.0000 0.88461  0.09517  0.20092  Biso   1.000  N
  H870     1.0000 0.82462  0.02497  0.20518  Biso   1.000  H
  H871     1.0000 0.95254  0.16107  0.19877  Biso   1.000  H
  N257     1.0000 0.90482  0.78944  0.20092  Biso   1.000  N
  H872     1.0000 0.97505  0.79969  0.20518  Biso   1.000  H
  N258     1.0000 0.90485  0.78944  0.20092  Biso   1.000  N
  H873     1.0000 0.83893  0.79148  0.19877  Biso   1.000  H
  C1068    1.0000 0.17693  0.15248  0.04593  Biso   1.000  C
  C1069    1.0000 0.19093  0.08328  0.04385  Biso   1.000  C
  C1070    1.0000 0.85314  0.11987  0.19337  Biso   1.000  C
  C1071    1.0000 0.88013  0.73329  0.19337  Biso   1.000  C
  H874     1.0000 0.19083  0.18858  0.04716  Biso   1.000  H
  C1072    1.0000 0.12493  0.12076  0.04326  Biso   1.000  C
  C1073    1.0000 0.13934  0.04887  0.04140  Biso   1.000  C
  H875     1.0000 0.21442  0.07085  0.04336  Biso   1.000  H
  H876     1.0000 0.81974  0.10158  0.20467  Biso   1.000  H
  H877     1.0000 0.87135  0.15609  0.20058  Biso   1.000  H
  C1074    1.0000 0.84483  0.11707  0.15715  Biso   1.000  C
  H878     1.0000 0.89845  0.71817  0.20467  Biso   1.000  H
  H879     1.0000 0.84394  0.71526  0.20058  Biso   1.000  H
  C1075    1.0000 0.88292  0.72776  0.15715  Biso   1.000  C
  H880     1.0000 0.89842  0.71817  0.20467  Biso   1.000  H
  H881     1.0000 0.10253  0.13437  0.04288  Biso   1.000  H
  C1076    1.0000 0.10552  0.06767  0.04121  Biso   1.000  C
  H882     1.0000 0.12704  0.01316  0.03988  Biso   1.000  H
  C1077    1.0000 0.80282  0.07265  0.14375  Biso   1.000  C
  C1078    1.0000 0.87885  0.15628  0.13712  Biso   1.000  C
  C1079    1.0000 0.92734  0.73018  0.14375  Biso   1.000  C
  C1080    1.0000 0.84375  0.72258  0.13712  Biso   1.000  C
  C1081    1.0000 0.04964  0.03157  0.04022  Biso   1.000  C
  H883     1.0000 0.77824  0.04688  0.15756  Biso   1.000  H
  C1082    1.0000 0.79762  0.06698  0.10996  Biso   1.000  C
  C1083    1.0000 0.79766  0.06698  0.10996  Biso   1.000  C
  C1084    1.0000 0.87383  0.15148  0.10356  Biso   1.000  C
  H884     1.0000 0.90592  0.18677  0.14636  Biso   1.000  H
  H885     1.0000 0.95312  0.73137  0.15756  Biso   1.000  H
  C1085    1.0000 0.93304  0.73068  0.10996  Biso   1.000  C
  C1086    1.0000 0.84852  0.72235  0.10356  Biso   1.000  C
  H886     1.0000 0.81324  0.71917  0.14636  Biso   1.000  H
  N259     1.0000 0.01844  0.05190  0.04015  Biso   1.000  N
  N260     1.0000 0.03343  0.98155  0.04015  Biso   1.000  N
  H887     1.0000 0.77003  0.03698  0.10068  Biso   1.000  H
  C1087    1.0000 0.83384  0.10618  0.09028  Biso   1.000  C
  H888     1.0000 0.89701  0.17845  0.08987  Biso   1.000  H
  H889     1.0000 0.96303  0.73306  0.10068  Biso   1.000  H
  C1088    1.0000 0.89384  0.72769  0.09028  Biso   1.000  C
  H890     1.0000 0.82154  0.71856  0.08987  Biso   1.000  H
  C1089    1.0000 0.96844  0.01807  0.04022  Biso   1.000  C
  C1090    1.0000 0.98193  0.95036  0.04022  Biso   1.000  C
  C1091    1.0000 0.83184  0.09647  0.05376  Biso   1.000  C
  C1092    1.0000 0.90352  0.73536  0.05376  Biso   1.000  C
  N261     1.0000 0.94809  0.96655  0.04015  Biso   1.000  N
  C1093    1.0000 0.93232  0.03786  0.04121  Biso   1.000  C
  C1094    1.0000 0.96215  0.89447  0.04121  Biso   1.000  C
  C1095    1.0000 0.96212  0.89447  0.04121  Biso   1.000  C
  N262     1.0000 0.86738  0.07588  0.04684  Biso   1.000  N
  H891     1.0000 0.84311  0.12885  0.04177  Biso   1.000  H
  H892     1.0000 0.79652  0.07135  0.04706  Biso   1.000  H
  N263     1.0000 0.92413  0.79152  0.04684  Biso   1.000  N
  H893     1.0000 0.87112  0.71426  0.04177  Biso   1.000  H
  H894     1.0000 0.92862  0.72515  0.04706  Biso   1.000  H
  C1096    1.0000 0.87924  0.00418  0.04326  Biso   1.000  C
  C1097    1.0000 0.95111  0.09045  0.04140  Biso   1.000  C
  C1098    1.0000 0.99583  0.87506  0.04326  Biso   1.000  C
  C1099    1.0000 0.90954  0.86068  0.04140  Biso   1.000  C
  C1100    1.0000 0.84753  0.02447  0.04593  Biso   1.000  C
  C1101    1.0000 0.91674  0.10768  0.04385  Biso   1.000  C
  C1102    1.0000 0.97556  0.82309  0.04593  Biso   1.000  C
  C1103    1.0000 0.89235  0.80908  0.04385  Biso   1.000  C
  C1104    1.0000 0.97553  0.82309  0.04593  Biso   1.000  C
  H895     1.0000 0.86562  0.96816  0.04288  Biso   1.000  H
  H896     1.0000 0.98683  0.11385  0.03988  Biso   1.000  H
  H897     1.0000 0.03182  0.89746  0.04288  Biso   1.000  H
  H898     1.0000 0.03185  0.89746  0.04288  Biso   1.000  H
  H899     1.0000 0.88611  0.87295  0.03988  Biso   1.000  H
  H900     1.0000 0.81144  0.00226  0.04716  Biso   1.000  H
  H901     1.0000 0.92914  0.14358  0.04336  Biso   1.000  H
  H902     1.0000 0.99773  0.80916  0.04716  Biso   1.000  H
  H903     1.0000 0.85644  0.78557  0.04336  Biso   1.000  H
  C1105    1.0000 0.18353  0.13898  0.20481  Biso   1.000  C
  H904     1.0000 0.20034  0.17538  0.20518  Biso   1.000  H
  C1106    1.0000 0.13105  0.11048  0.20832  Biso   1.000  C
  N264     1.0000 0.21057  0.11539  0.20092  Biso   1.000  N
  N265     1.0000 0.21054  0.11539  0.20092  Biso   1.000  N
  H905     1.0000 0.11171  0.12735  0.21086  Biso   1.000  H
  C1107    1.0000 0.10642  0.05796  0.20810  Biso   1.000  C
  C1108    1.0000 0.18823  0.06325  0.20126  Biso   1.000  C
  C1109    1.0000 0.26675  0.14688  0.19337  Biso   1.000  C
  C1110    1.0000 0.13534  0.03368  0.20532  Biso   1.000  C
  C1111    1.0000 0.05088  0.02762  0.20955  Biso   1.000  C
  C1112    1.0000 0.05085  0.02762  0.20955  Biso   1.000  C
  H906     1.0000 0.20853  0.04745  0.19877  Biso   1.000  H
  C1113    1.0000 0.27222  0.15516  0.15715  Biso   1.000  C
  H907     1.0000 0.28184  0.18025  0.20467  Biso   1.000  H
  H908     1.0000 0.28471  0.12866  0.20058  Biso   1.000  H
  H909     1.0000 0.28475  0.12866  0.20058  Biso   1.000  H
  H910     1.0000 0.28181  0.18025  0.20467  Biso   1.000  H
  H911     1.0000 0.11904  0.99716  0.20617  Biso   1.000  H
  N266     1.0000 0.02420  0.05259  0.20958  Biso   1.000  N
  N267     1.0000 0.02839  0.97580  0.20958  Biso   1.000  N
  N268     1.0000 0.02836  0.97580  0.20958  Biso   1.000  N
  C1114    1.0000 0.26984  0.19717  0.14375  Biso   1.000  C
  C1115    1.0000 0.27745  0.12118  0.13712  Biso   1.000  C
  C1116    1.0000 0.27742  0.12118  0.13712  Biso   1.000  C
  C1117    1.0000 0.97239  0.02325  0.20955  Biso   1.000  C
  C1118    1.0000 0.97236  0.02325  0.20955  Biso   1.000  C
  C1119    1.0000 0.97676  0.94914  0.20955  Biso   1.000  C
  H912     1.0000 0.26864  0.22176  0.15756  Biso   1.000  H
  C1120    1.0000 0.26934  0.20235  0.10996  Biso   1.000  C
  C1121    1.0000 0.26935  0.20239  0.10996  Biso   1.000  C
  H913     1.0000 0.26861  0.22176  0.15756  Biso   1.000  H
  C1122    1.0000 0.27762  0.12616  0.10356  Biso   1.000  C
  H914     1.0000 0.28083  0.09406  0.14636  Biso   1.000  H
  N269     1.0000 0.94744  0.97161  0.20958  Biso   1.000  N
  N270     1.0000 0.94740  0.97161  0.20958  Biso   1.000  N
  C1123    1.0000 0.94204  0.04845  0.20810  Biso   1.000  C
  C1124    1.0000 0.95153  0.89355  0.20810  Biso   1.000  C
  H915     1.0000 0.26693  0.22997  0.10068  Biso   1.000  H
  C1125    1.0000 0.27234  0.16617  0.09028  Biso   1.000  C
  H916     1.0000 0.28143  0.10296  0.08987  Biso   1.000  H
  C1126    1.0000 0.88952  0.02056  0.20832  Biso   1.000  C
  C1127    1.0000 0.96631  0.10165  0.20532  Biso   1.000  C
  C1128    1.0000 0.97943  0.86896  0.20832  Biso   1.000  C
  C1129    1.0000 0.89835  0.86467  0.20532  Biso   1.000  C
  C1130    1.0000 0.89832  0.86467  0.20532  Biso   1.000  C
  C1131    1.0000 0.26464  0.16817  0.05376  Biso   1.000  C
  H917     1.0000 0.87261  0.98435  0.21086  Biso   1.000  H
  C1132    1.0000 0.86104  0.04457  0.20481  Biso   1.000  C
  H918     1.0000 0.00283  0.12187  0.20617  Biso   1.000  H
  C1133    1.0000 0.93675  0.12498  0.20126  Biso   1.000  C
  C1134    1.0000 0.95543  0.81645  0.20481  Biso   1.000  C
  H919     1.0000 0.01562  0.88826  0.21086  Biso   1.000  H
  H920     1.0000 0.87813  0.88097  0.20617  Biso   1.000  H
  C1135    1.0000 0.87502  0.81177  0.20126  Biso   1.000  C
  H921     1.0000 0.28572  0.15685  0.04177  Biso   1.000  H
  H922     1.0000 0.27484  0.20346  0.04706  Biso   1.000  H
  N271     1.0000 0.20849  0.13261  0.04684  Biso   1.000  N
  N272     1.0000 0.20845  0.13261  0.04684  Biso   1.000  N
  N273     1.0000 0.88461  0.09517  0.20092  Biso   1.000  N
  H923     1.0000 0.82462  0.02497  0.20518  Biso   1.000  H
  H924     1.0000 0.95254  0.16107  0.19877  Biso   1.000  H
  N274     1.0000 0.90482  0.78944  0.20092  Biso   1.000  N
  H925     1.0000 0.97505  0.79969  0.20518  Biso   1.000  H
  N275     1.0000 0.90485  0.78944  0.20092  Biso   1.000  N
  H926     1.0000 0.83893  0.79148  0.19877  Biso   1.000  H
  C1136    1.0000 0.17693  0.15248  0.04593  Biso   1.000  C
  C1137    1.0000 0.19093  0.08328  0.04385  Biso   1.000  C
  C1138    1.0000 0.85314  0.11987  0.19337  Biso   1.000  C
  C1139    1.0000 0.88013  0.73329  0.19337  Biso   1.000  C
  H927     1.0000 0.19083  0.18858  0.04716  Biso   1.000  H
  C1140    1.0000 0.12493  0.12076  0.04326  Biso   1.000  C
  C1141    1.0000 0.13934  0.04887  0.04140  Biso   1.000  C
  H928     1.0000 0.21442  0.07085  0.04336  Biso   1.000  H
  H929     1.0000 0.81974  0.10158  0.20467  Biso   1.000  H
  H930     1.0000 0.87135  0.15609  0.20058  Biso   1.000  H
  C1142    1.0000 0.84483  0.11707  0.15715  Biso   1.000  C
  H931     1.0000 0.89845  0.71817  0.20467  Biso   1.000  H
  H932     1.0000 0.84394  0.71526  0.20058  Biso   1.000  H
  C1143    1.0000 0.88292  0.72776  0.15715  Biso   1.000  C
  H933     1.0000 0.89842  0.71817  0.20467  Biso   1.000  H
  H934     1.0000 0.10253  0.13437  0.04288  Biso   1.000  H
  C1144    1.0000 0.10552  0.06767  0.04121  Biso   1.000  C
  H935     1.0000 0.12704  0.01316  0.03988  Biso   1.000  H
  C1145    1.0000 0.80282  0.07265  0.14375  Biso   1.000  C
  C1146    1.0000 0.87885  0.15628  0.13712  Biso   1.000  C
  C1147    1.0000 0.92734  0.73018  0.14375  Biso   1.000  C
  C1148    1.0000 0.84375  0.72258  0.13712  Biso   1.000  C
  C1149    1.0000 0.04964  0.03157  0.04022  Biso   1.000  C
  H936     1.0000 0.77824  0.04688  0.15756  Biso   1.000  H
  C1150    1.0000 0.79762  0.06698  0.10996  Biso   1.000  C
  C1151    1.0000 0.79766  0.06698  0.10996  Biso   1.000  C
  C1152    1.0000 0.87383  0.15148  0.10356  Biso   1.000  C
  H937     1.0000 0.90592  0.18677  0.14636  Biso   1.000  H
  H938     1.0000 0.95312  0.73137  0.15756  Biso   1.000  H
  C1153    1.0000 0.93304  0.73068  0.10996  Biso   1.000  C
  C1154    1.0000 0.84852  0.72235  0.10356  Biso   1.000  C
  H939     1.0000 0.81324  0.71917  0.14636  Biso   1.000  H
  N276     1.0000 0.01844  0.05190  0.04015  Biso   1.000  N
  N277     1.0000 0.03343  0.98155  0.04015  Biso   1.000  N
  H940     1.0000 0.77003  0.03698  0.10068  Biso   1.000  H
  C1155    1.0000 0.83384  0.10618  0.09028  Biso   1.000  C
  H941     1.0000 0.89701  0.17845  0.08987  Biso   1.000  H
  H942     1.0000 0.96303  0.73306  0.10068  Biso   1.000  H
  C1156    1.0000 0.89384  0.72769  0.09028  Biso   1.000  C
  H943     1.0000 0.82154  0.71856  0.08987  Biso   1.000  H
  C1157    1.0000 0.96844  0.01807  0.04022  Biso   1.000  C
  C1158    1.0000 0.98193  0.95036  0.04022  Biso   1.000  C
  C1159    1.0000 0.83184  0.09647  0.05376  Biso   1.000  C
  C1160    1.0000 0.90352  0.73536  0.05376  Biso   1.000  C
  N278     1.0000 0.94809  0.96655  0.04015  Biso   1.000  N
  C1161    1.0000 0.93232  0.03786  0.04121  Biso   1.000  C
  C1162    1.0000 0.96215  0.89447  0.04121  Biso   1.000  C
  C1163    1.0000 0.96212  0.89447  0.04121  Biso   1.000  C
  N279     1.0000 0.86738  0.07588  0.04684  Biso   1.000  N
  H944     1.0000 0.84311  0.12885  0.04177  Biso   1.000  H
  H945     1.0000 0.79652  0.07135  0.04706  Biso   1.000  H
  N280     1.0000 0.92413  0.79152  0.04684  Biso   1.000  N
  H946     1.0000 0.87112  0.71426  0.04177  Biso   1.000  H
  H947     1.0000 0.92862  0.72515  0.04706  Biso   1.000  H
  C1164    1.0000 0.87924  0.00418  0.04326  Biso   1.000  C
  C1165    1.0000 0.95111  0.09045  0.04140  Biso   1.000  C
  C1166    1.0000 0.99583  0.87506  0.04326  Biso   1.000  C
  C1167    1.0000 0.90954  0.86068  0.04140  Biso   1.000  C
  C1168    1.0000 0.84753  0.02447  0.04593  Biso   1.000  C
  C1169    1.0000 0.91674  0.10768  0.04385  Biso   1.000  C
  C1170    1.0000 0.97556  0.82309  0.04593  Biso   1.000  C
  C1171    1.0000 0.89235  0.80908  0.04385  Biso   1.000  C
  C1172    1.0000 0.97553  0.82309  0.04593  Biso   1.000  C
  H948     1.0000 0.86562  0.96816  0.04288  Biso   1.000  H
  H949     1.0000 0.98683  0.11385  0.03988  Biso   1.000  H
  H950     1.0000 0.03182  0.89746  0.04288  Biso   1.000  H
  H951     1.0000 0.03185  0.89746  0.04288  Biso   1.000  H
  H952     1.0000 0.88611  0.87295  0.03988  Biso   1.000  H
  H953     1.0000 0.81144  0.00226  0.04716  Biso   1.000  H
  H954     1.0000 0.92914  0.14358  0.04336  Biso   1.000  H
  H955     1.0000 0.99773  0.80916  0.04716  Biso   1.000  H
  H956     1.0000 0.85644  0.78557  0.04336  Biso   1.000  H
  C1173    1.0000 0.35780  0.51421  0.12075  Biso   1.000  C
  N281     1.0000 0.40920  0.53404  0.11983  Biso   1.000  N
  H957     1.0000 0.33560  0.47811  0.11949  Biso   1.000  H
  C1174    1.0000 0.33749  0.54590  0.12341  Biso   1.000  C
  C1175    1.0000 0.42979  0.49848  0.11289  Biso   1.000  C
  C1176    1.0000 0.44100  0.58341  0.12283  Biso   1.000  C
  H958     1.0000 0.30150  0.53232  0.12380  Biso   1.000  H
  C1177    1.0000 0.37118  0.59899  0.12547  Biso   1.000  C
  C1178    1.0000 0.43951  0.50052  0.07637  Biso   1.000  C
  H959     1.0000 0.46219  0.50980  0.12491  Biso   1.000  H
  H960     1.0000 0.40471  0.46319  0.11961  Biso   1.000  H
  C1179    1.0000 0.42380  0.61778  0.12527  Biso   1.000  C
  H961     1.0000 0.47689  0.59580  0.12331  Biso   1.000  H
  C1180    1.0000 0.35139  0.63508  0.12646  Biso   1.000  C
  C1181    1.0000 0.40031  0.46430  0.05671  Biso   1.000  C
  C1182    1.0000 0.48478  0.54049  0.06312  Biso   1.000  C
  H962     1.0000 0.44720  0.65349  0.12680  Biso   1.000  H
  N282     1.0000 0.29987  0.61475  0.12653  Biso   1.000  N
  N283     1.0000 0.38521  0.68510  0.12653  Biso   1.000  N
  C1183    1.0000 0.40599  0.46948  0.02293  Biso   1.000  C
  H963     1.0000 0.37029  0.43669  0.06600  Biso   1.000  H
  H964     1.0000 0.51180  0.56369  0.07681  Biso   1.000  H
  C1184    1.0000 0.48962  0.54551  0.02953  Biso   1.000  C
  C1185    1.0000 0.28370  0.64858  0.12646  Biso   1.000  C
  C1186    1.0000 0.36489  0.71629  0.12646  Biso   1.000  C
  C1187    1.0000 0.45038  0.51149  0.00953  Biso   1.000  C
  H965     1.0000 0.38021  0.44489  0.00909  Biso   1.000  H
  H966     1.0000 0.52010  0.57259  0.02029  Biso   1.000  H
  C1188    1.0000 0.22779  0.62879  0.12547  Biso   1.000  C
  N284     1.0000 0.31487  0.70010  0.12653  Biso   1.000  N
  C1189    1.0000 0.40101  0.77218  0.12547  Biso   1.000  C
  C1190    1.0000 0.45321  0.51981  0.97330  Biso   1.000  C
  C1191    1.0000 0.20841  0.66251  0.12341  Biso   1.000  C
  C1192    1.0000 0.19399  0.57620  0.12527  Biso   1.000  C
  C1193    1.0000 0.45410  0.79159  0.12341  Biso   1.000  C
  C1194    1.0000 0.38221  0.80601  0.12527  Biso   1.000  C
  N285     1.0000 0.42851  0.55127  0.96576  Biso   1.000  N
  H967     1.0000 0.43491  0.48640  0.96201  Biso   1.000  H
  H968     1.0000 0.48938  0.53799  0.96609  Biso   1.000  H
  C1195    1.0000 0.15640  0.64222  0.12075  Biso   1.000  C
  H969     1.0000 0.23078  0.69849  0.12380  Biso   1.000  H
  H970     1.0000 0.20631  0.55280  0.12680  Biso   1.000  H
  C1196    1.0000 0.14241  0.55901  0.12283  Biso   1.000  C
  C1197    1.0000 0.48582  0.84360  0.12075  Biso   1.000  C
  H971     1.0000 0.46768  0.76919  0.12380  Biso   1.000  H
  H972     1.0000 0.34649  0.79370  0.12680  Biso   1.000  H
  C1198    1.0000 0.41661  0.85761  0.12283  Biso   1.000  C
  C1199    1.0000 0.37790  0.52771  0.96186  Biso   1.000  C
  C1200    1.0000 0.45830  0.60340  0.96539  Biso   1.000  C
  N286     1.0000 0.12485  0.59081  0.11983  Biso   1.000  N
  H973     1.0000 0.14251  0.66439  0.11949  Biso   1.000  H
  H974     1.0000 0.11891  0.52311  0.12331  Biso   1.000  H
  N287     1.0000 0.46594  0.87514  0.11983  Biso   1.000  N
  H975     1.0000 0.52190  0.85749  0.11949  Biso   1.000  H
  H976     1.0000 0.40420  0.88108  0.12331  Biso   1.000  H
  H977     1.0000 0.35831  0.49131  0.96150  Biso   1.000  H
  C1201    1.0000 0.35392  0.55621  0.95836  Biso   1.000  C
  C1202    1.0000 0.43500  0.63301  0.96135  Biso   1.000  C
  H978     1.0000 0.49441  0.61920  0.96791  Biso   1.000  H
  C1203    1.0000 0.06871  0.57022  0.11289  Biso   1.000  C
  C1204    1.0000 0.50149  0.93129  0.11289  Biso   1.000  C
  H979     1.0000 0.31769  0.53930  0.95579  Biso   1.000  H
  C1205    1.0000 0.38178  0.60869  0.95857  Biso   1.000  C
  H980     1.0000 0.45520  0.66949  0.96051  Biso   1.000  H
  C1206    1.0000 0.06100  0.56051  0.07637  Biso   1.000  C
  H981     1.0000 0.04759  0.53780  0.12491  Biso   1.000  H
  H982     1.0000 0.05850  0.59530  0.11961  Biso   1.000  H
  C1207    1.0000 0.49950  0.93900  0.07637  Biso   1.000  C
  H983     1.0000 0.49018  0.95239  0.12491  Biso   1.000  H
  H984     1.0000 0.53679  0.94150  0.11961  Biso   1.000  H
  C1208    1.0000 0.35659  0.63903  0.95710  Biso   1.000  C
  C1209    1.0000 0.06399  0.59971  0.05671  Biso   1.000  C
  C1210    1.0000 0.05569  0.51521  0.06312  Biso   1.000  C
  C1211    1.0000 0.53571  0.93601  0.05671  Biso   1.000  C
  C1212    1.0000 0.45949  0.94430  0.06312  Biso   1.000  C
  N288     1.0000 0.30496  0.61410  0.95710  Biso   1.000  N
  N289     1.0000 0.38592  0.69086  0.95710  Biso   1.000  N
  C1213    1.0000 0.06349  0.59400  0.02293  Biso   1.000  C
  H985     1.0000 0.06640  0.62971  0.06600  Biso   1.000  H
  H986     1.0000 0.05189  0.48820  0.07681  Biso   1.000  H
  C1214    1.0000 0.05592  0.51041  0.02953  Biso   1.000  C
  C1215    1.0000 0.53051  0.93651  0.02293  Biso   1.000  C
  H987     1.0000 0.56330  0.93360  0.06600  Biso   1.000  H
  H988     1.0000 0.43631  0.94810  0.07681  Biso   1.000  H
  C1216    1.0000 0.45451  0.94411  0.02953  Biso   1.000  C
  C1217    1.0000 0.28247  0.64341  0.95710  Biso   1.000  C
  C1218    1.0000 0.36097  0.71755  0.95710  Biso   1.000  C
  C1219    1.0000 0.06110  0.54962  0.00953  Biso   1.000  C
  H989     1.0000 0.06471  0.61981  0.00909  Biso   1.000  H
  H990     1.0000 0.05250  0.47992  0.02029  Biso   1.000  H
  C1220    1.0000 0.48848  0.93889  0.00953  Biso   1.000  C
  H991     1.0000 0.55508  0.93528  0.00909  Biso   1.000  H
  H992     1.0000 0.42740  0.94748  0.02029  Biso   1.000  H
  C1221    1.0000 0.22691  0.61820  0.95857  Biso   1.000  C
  N290     1.0000 0.30915  0.69504  0.95710  Biso   1.000  N
  C1222    1.0000 0.39130  0.77310  0.95857  Biso   1.000  C
  C1223    1.0000 0.06661  0.54682  0.97330  Biso   1.000  C
  C1224    1.0000 0.48019  0.93340  0.97330  Biso   1.000  C
  C1225    1.0000 0.20229  0.64609  0.95836  Biso   1.000  C
  C1226    1.0000 0.19799  0.56500  0.96135  Biso   1.000  C
  C1227    1.0000 0.44379  0.79769  0.95836  Biso   1.000  C
  C1228    1.0000 0.36701  0.80198  0.96135  Biso   1.000  C
  N291     1.0000 0.12276  0.57148  0.96576  Biso   1.000  N
  H993     1.0000 0.05151  0.56511  0.96201  Biso   1.000  H
  H994     1.0000 0.04861  0.51060  0.96609  Biso   1.000  H
  N292     1.0000 0.44872  0.87725  0.96576  Biso   1.000  N
  H995     1.0000 0.51361  0.94848  0.96201  Biso   1.000  H
  H996     1.0000 0.46201  0.95139  0.96609  Biso   1.000  H
  C1229    1.0000 0.14981  0.62212  0.96186  Biso   1.000  C
  H997     1.0000 0.22159  0.68230  0.95579  Biso   1.000  H
  H998     1.0000 0.21429  0.54478  0.96051  Biso   1.000  H
  C1230    1.0000 0.14512  0.54171  0.96539  Biso   1.000  C
  C1231    1.0000 0.47231  0.85020  0.96186  Biso   1.000  C
  H999     1.0000 0.46069  0.77839  0.95579  Biso   1.000  H
  H1000    1.0000 0.33049  0.78568  0.96051  Biso   1.000  H
  C1232    1.0000 0.39658  0.85488  0.96539  Biso   1.000  C
  H1001    1.0000 0.13298  0.64168  0.96150  Biso   1.000  H
  H1002    1.0000 0.12479  0.50558  0.96791  Biso   1.000  H
  H1003    1.0000 0.50871  0.86700  0.96150  Biso   1.000  H
  H1004    1.0000 0.38080  0.87521  0.96791  Biso   1.000  H
  C1233    1.0000 0.55900  0.41659  0.87719  Biso   1.000  C
  N293     1.0000 0.59079  0.46595  0.88017  Biso   1.000  N
  C1234    1.0000 0.57620  0.38222  0.87475  Biso   1.000  C
  H1005    1.0000 0.52311  0.40420  0.87671  Biso   1.000  H
  C1235    1.0000 0.57020  0.50151  0.88711  Biso   1.000  C
  C1236    1.0000 0.64220  0.48579  0.87925  Biso   1.000  C
  C1237    1.0000 0.62882  0.40101  0.87456  Biso   1.000  C
  H1006    1.0000 0.55279  0.34650  0.87320  Biso   1.000  H
  C1238    1.0000 0.56048  0.49948  0.92363  Biso   1.000  C
  H1007    1.0000 0.53780  0.49020  0.87511  Biso   1.000  H
  H1008    1.0000 0.59529  0.53680  0.88041  Biso   1.000  H
  H1009    1.0000 0.66440  0.52188  0.88051  Biso   1.000  H
  C1239    1.0000 0.66250  0.45410  0.87661  Biso   1.000  C
  C1240    1.0000 0.64861  0.36491  0.87357  Biso   1.000  C
  C1241    1.0000 0.59968  0.53569  0.94331  Biso   1.000  C
  C1242    1.0000 0.51522  0.45951  0.93688  Biso   1.000  C
  H1010    1.0000 0.69849  0.46768  0.87620  Biso   1.000  H
  N294     1.0000 0.70013  0.38525  0.87349  Biso   1.000  N
  N295     1.0000 0.61479  0.31489  0.87349  Biso   1.000  N
  C1243    1.0000 0.59401  0.53051  0.97710  Biso   1.000  C
  H1011    1.0000 0.62971  0.56331  0.93400  Biso   1.000  H
  H1012    1.0000 0.48820  0.43630  0.92322  Biso   1.000  H
  C1244    1.0000 0.51038  0.45448  0.97047  Biso   1.000  C
  C1245    1.0000 0.71630  0.35141  0.87357  Biso   1.000  C
  C1246    1.0000 0.63511  0.28371  0.87357  Biso   1.000  C
  C1247    1.0000 0.54962  0.48851  0.99047  Biso   1.000  C
  H1013    1.0000 0.61979  0.55510  0.99091  Biso   1.000  H
  H1014    1.0000 0.47990  0.42740  0.97971  Biso   1.000  H
  C1248    1.0000 0.77221  0.37121  0.87456  Biso   1.000  C
  N296     1.0000 0.68513  0.29990  0.87349  Biso   1.000  N
  C1249    1.0000 0.59899  0.22782  0.87456  Biso   1.000  C
  C1250    1.0000 0.54678  0.48019  0.02670  Biso   1.000  C
  C1251    1.0000 0.79159  0.33749  0.87661  Biso   1.000  C
  C1252    1.0000 0.80601  0.42380  0.87475  Biso   1.000  C
  C1253    1.0000 0.54590  0.20841  0.87661  Biso   1.000  C
  C1254    1.0000 0.61779  0.19398  0.87475  Biso   1.000  C
  N297     1.0000 0.57149  0.44873  0.03424  Biso   1.000  N
  H1015    1.0000 0.56508  0.51360  0.03802  Biso   1.000  H
  H1016    1.0000 0.51058  0.46200  0.03391  Biso   1.000  H
  C1255    1.0000 0.84360  0.35778  0.87925  Biso   1.000  C
  H1017    1.0000 0.76922  0.30151  0.87620  Biso   1.000  H
  H1018    1.0000 0.79369  0.44720  0.87320  Biso   1.000  H
  C1256    1.0000 0.85759  0.44098  0.87719  Biso   1.000  C
  C1257    1.0000 0.51418  0.15639  0.87925  Biso   1.000  C
  H1019    1.0000 0.53229  0.23081  0.87620  Biso   1.000  H
  H1020    1.0000 0.65351  0.20630  0.87320  Biso   1.000  H
  C1258    1.0000 0.58339  0.14239  0.87719  Biso   1.000  C
  C1259    1.0000 0.62210  0.47228  0.03816  Biso   1.000  C
  C1260    1.0000 0.54170  0.39660  0.03461  Biso   1.000  C
  N298     1.0000 0.87514  0.40918  0.88017  Biso   1.000  N
  H1021    1.0000 0.85749  0.33561  0.88051  Biso   1.000  H
  H1022    1.0000 0.88109  0.47689  0.87671  Biso   1.000  H
  N299     1.0000 0.53406  0.12486  0.88017  Biso   1.000  N
  H1023    1.0000 0.47810  0.14251  0.88051  Biso   1.000  H
  H1024    1.0000 0.59580  0.11891  0.87671  Biso   1.000  H
  H1025    1.0000 0.64169  0.50869  0.03850  Biso   1.000  H
  C1261    1.0000 0.64608  0.44378  0.04167  Biso   1.000  C
  C1262    1.0000 0.56500  0.36699  0.03865  Biso   1.000  C
  H1026    1.0000 0.50559  0.38080  0.03212  Biso   1.000  H
  C1263    1.0000 0.93129  0.42978  0.88711  Biso   1.000  C
  C1264    1.0000 0.49851  0.06870  0.88711  Biso   1.000  C
  H1027    1.0000 0.68231  0.46070  0.04421  Biso   1.000  H
  C1265    1.0000 0.61822  0.39131  0.04145  Biso   1.000  C
  H1028    1.0000 0.54480  0.33051  0.03952  Biso   1.000  H
  C1266    1.0000 0.93900  0.43949  0.92363  Biso   1.000  C
  H1029    1.0000 0.95241  0.46219  0.87511  Biso   1.000  H
  H1030    1.0000 0.94150  0.40469  0.88041  Biso   1.000  H
  C1267    1.0000 0.50050  0.06099  0.92363  Biso   1.000  C
  H1031    1.0000 0.50982  0.04760  0.87511  Biso   1.000  H
  H1032    1.0000 0.46321  0.05850  0.88041  Biso   1.000  H
  C1268    1.0000 0.64341  0.36096  0.04290  Biso   1.000  C
  C1269    1.0000 0.93597  0.40028  0.94331  Biso   1.000  C
  C1270    1.0000 0.94431  0.48479  0.93688  Biso   1.000  C
  C1271    1.0000 0.46429  0.06398  0.94331  Biso   1.000  C
  C1272    1.0000 0.54051  0.05570  0.93688  Biso   1.000  C
  N300     1.0000 0.69504  0.38590  0.04293  Biso   1.000  N
  N301     1.0000 0.61407  0.30914  0.04293  Biso   1.000  N
  C1273    1.0000 0.93651  0.40600  0.97710  Biso   1.000  C
  H1033    1.0000 0.93360  0.37029  0.93400  Biso   1.000  H
  H1034    1.0000 0.94811  0.51179  0.92322  Biso   1.000  H
  C1274    1.0000 0.94408  0.48958  0.97047  Biso   1.000  C
  C1275    1.0000 0.46949  0.06349  0.97710  Biso   1.000  C
  H1035    1.0000 0.43670  0.06640  0.93400  Biso   1.000  H
  H1036    1.0000 0.56369  0.05190  0.92322  Biso   1.000  H
  C1276    1.0000 0.54549  0.05589  0.97047  Biso   1.000  C
  C1277    1.0000 0.71753  0.35659  0.04290  Biso   1.000  C
  C1278    1.0000 0.63903  0.28244  0.04290  Biso   1.000  C
  C1279    1.0000 0.93890  0.45038  0.99047  Biso   1.000  C
  H1037    1.0000 0.93529  0.38018  0.99091  Biso   1.000  H
  H1038    1.0000 0.94750  0.52008  0.97971  Biso   1.000  H
  C1280    1.0000 0.51152  0.06111  0.99047  Biso   1.000  C
  H1039    1.0000 0.44492  0.06471  0.99091  Biso   1.000  H
  H1040    1.0000 0.57260  0.05251  0.97971  Biso   1.000  H
  C1281    1.0000 0.77308  0.38179  0.04145  Biso   1.000  C
  N302     1.0000 0.69085  0.30496  0.04293  Biso   1.000  N
  C1282    1.0000 0.60870  0.22690  0.04145  Biso   1.000  C
  C1283    1.0000 0.93339  0.45318  0.02670  Biso   1.000  C
  C1284    1.0000 0.51981  0.06659  0.02670  Biso   1.000  C
  C1285    1.0000 0.79771  0.35391  0.04167  Biso   1.000  C
  C1286    1.0000 0.80201  0.43500  0.03865  Biso   1.000  C
  C1287    1.0000 0.55621  0.20231  0.04167  Biso   1.000  C
  C1288    1.0000 0.63299  0.19801  0.03865  Biso   1.000  C
  N303     1.0000 0.87724  0.42852  0.03424  Biso   1.000  N
  H1041    1.0000 0.94849  0.43488  0.03802  Biso   1.000  H
  H1042    1.0000 0.95139  0.48939  0.03391  Biso   1.000  H
  N304     1.0000 0.55124  0.12275  0.03424  Biso   1.000  N
  H1043    1.0000 0.48639  0.05152  0.03802  Biso   1.000  H
  H1044    1.0000 0.53799  0.04860  0.03391  Biso   1.000  H
  C1289    1.0000 0.85019  0.37788  0.03816  Biso   1.000  C
  H1045    1.0000 0.77841  0.31769  0.04421  Biso   1.000  H
  H1046    1.0000 0.78571  0.45521  0.03952  Biso   1.000  H
  C1290    1.0000 0.85488  0.45828  0.03461  Biso   1.000  C
  C1291    1.0000 0.52769  0.14979  0.03816  Biso   1.000  C
  H1047    1.0000 0.53931  0.22160  0.04421  Biso   1.000  H
  H1048    1.0000 0.66951  0.21432  0.03952  Biso   1.000  H
  C1292    1.0000 0.60342  0.14511  0.03461  Biso   1.000  C
  H1049    1.0000 0.86702  0.35832  0.03850  Biso   1.000  H
  H1050    1.0000 0.87521  0.49442  0.03212  Biso   1.000  H
  H1051    1.0000 0.49129  0.13299  0.03850  Biso   1.000  H
  H1052    1.0000 0.61920  0.12478  0.03212  Biso   1.000  H
  C1293    1.0000 0.87383  0.72235  0.60356  Biso   1.000  C
  C1294    1.0000 0.83384  0.72768  0.59030  Biso   1.000  C
  H1053    1.0000 0.89701  0.71855  0.58987  Biso   1.000  H
  C1295    1.0000 0.87883  0.72258  0.63712  Biso   1.000  C
  C1296    1.0000 0.83183  0.73535  0.55376  Biso   1.000  C
  C1297    1.0000 0.79763  0.73067  0.60996  Biso   1.000  C
  C1298    1.0000 0.84484  0.72776  0.65715  Biso   1.000  C
  C1299    1.0000 0.84481  0.72776  0.65715  Biso   1.000  C
  H1054    1.0000 0.90593  0.71917  0.64638  Biso   1.000  H
  N305     1.0000 0.86739  0.79151  0.54684  Biso   1.000  N
  H1055    1.0000 0.84314  0.71426  0.54177  Biso   1.000  H
  H1056    1.0000 0.79653  0.72515  0.54706  Biso   1.000  H
  H1057    1.0000 0.84311  0.71426  0.54177  Biso   1.000  H
  C1300    1.0000 0.80283  0.73017  0.64375  Biso   1.000  C
  H1058    1.0000 0.77002  0.73305  0.60068  Biso   1.000  H
  C1301    1.0000 0.85315  0.73328  0.69337  Biso   1.000  C
  C1302    1.0000 0.84753  0.82308  0.54593  Biso   1.000  C
  C1303    1.0000 0.84756  0.82308  0.54593  Biso   1.000  C
  C1304    1.0000 0.91673  0.80908  0.54385  Biso   1.000  C
  H1059    1.0000 0.77825  0.73136  0.65758  Biso   1.000  H
  H1060    1.0000 0.77821  0.73136  0.65758  Biso   1.000  H
  N306     1.0000 0.88462  0.78944  0.70092  Biso   1.000  N
  H1061    1.0000 0.81972  0.71817  0.70467  Biso   1.000  H
  H1062    1.0000 0.87131  0.71525  0.70058  Biso   1.000  H
  H1063    1.0000 0.81975  0.71817  0.70467  Biso   1.000  H
  N307     1.0000 0.88459  0.78944  0.70092  Biso   1.000  N
  C1305    1.0000 0.87923  0.87506  0.54326  Biso   1.000  C
  H1064    1.0000 0.81143  0.80916  0.54718  Biso   1.000  H
  C1306    1.0000 0.95113  0.86067  0.54140  Biso   1.000  C
  H1065    1.0000 0.92913  0.78557  0.54336  Biso   1.000  H
  C1307    1.0000 0.86102  0.81645  0.70481  Biso   1.000  C
  C1308    1.0000 0.93674  0.81177  0.70128  Biso   1.000  C
  C1309    1.0000 0.93232  0.89447  0.54121  Biso   1.000  C
  C1310    1.0000 0.93235  0.89447  0.54121  Biso   1.000  C
  H1066    1.0000 0.86565  0.89746  0.54288  Biso   1.000  H
  H1067    1.0000 0.86561  0.89746  0.54288  Biso   1.000  H
  H1068    1.0000 0.98684  0.87295  0.53988  Biso   1.000  H
  H1069    1.0000 0.82463  0.79968  0.70518  Biso   1.000  H
  C1311    1.0000 0.88953  0.86896  0.70832  Biso   1.000  C
  C1312    1.0000 0.96632  0.86466  0.70532  Biso   1.000  C
  H1070    1.0000 0.95254  0.79147  0.69877  Biso   1.000  H
  C1313    1.0000 0.96635  0.86466  0.70532  Biso   1.000  C
  C1314    1.0000 0.96844  0.95036  0.54022  Biso   1.000  C
  H1071    1.0000 0.87264  0.88825  0.71088  Biso   1.000  H
  C1315    1.0000 0.94202  0.89355  0.70810  Biso   1.000  C
  H1072    1.0000 0.00284  0.88097  0.70617  Biso   1.000  H
  N308     1.0000 0.01845  0.96655  0.54015  Biso   1.000  N
  N309     1.0000 0.94812  0.98155  0.54015  Biso   1.000  N
  N310     1.0000 0.94808  0.98155  0.54015  Biso   1.000  N
  C1316    1.0000 0.97237  0.94913  0.70955  Biso   1.000  C
  C1317    1.0000 0.04963  0.01806  0.54022  Biso   1.000  C
  C1318    1.0000 0.98193  0.03157  0.54022  Biso   1.000  C
  N311     1.0000 0.02417  0.97161  0.70958  Biso   1.000  N
  N312     1.0000 0.02421  0.97161  0.70958  Biso   1.000  N
  N313     1.0000 0.94740  0.97579  0.70958  Biso   1.000  N
  N314     1.0000 0.94743  0.97579  0.70958  Biso   1.000  N
  N315     1.0000 0.03346  0.05190  0.54015  Biso   1.000  N
  C1319    1.0000 0.10553  0.03786  0.54121  Biso   1.000  C
  C1320    1.0000 0.96214  0.06766  0.54121  Biso   1.000  C
  C1321    1.0000 0.05085  0.02324  0.70955  Biso   1.000  C
  C1322    1.0000 0.05089  0.02324  0.70955  Biso   1.000  C
  C1323    1.0000 0.97673  0.02762  0.70955  Biso   1.000  C
  C1324    1.0000 0.12494  0.00418  0.54326  Biso   1.000  C
  C1325    1.0000 0.13934  0.09045  0.54140  Biso   1.000  C
  C1326    1.0000 0.13930  0.09045  0.54140  Biso   1.000  C
  C1327    1.0000 0.99583  0.12075  0.54326  Biso   1.000  C
  C1328    1.0000 0.90952  0.04887  0.54140  Biso   1.000  C
  C1329    1.0000 0.10641  0.04844  0.70810  Biso   1.000  C
  N316     1.0000 0.02839  0.05259  0.70958  Biso   1.000  N
  C1330    1.0000 0.95154  0.05796  0.70810  Biso   1.000  C
  H1073    1.0000 0.10254  0.96816  0.54288  Biso   1.000  H
  H1074    1.0000 0.10251  0.96816  0.54288  Biso   1.000  H
  C1331    1.0000 0.17694  0.02447  0.54593  Biso   1.000  C
  H1075    1.0000 0.12702  0.11385  0.53988  Biso   1.000  H
  C1332    1.0000 0.19094  0.10767  0.54385  Biso   1.000  C
  C1333    1.0000 0.97555  0.15248  0.54593  Biso   1.000  C
  H1076    1.0000 0.03184  0.13437  0.54288  Biso   1.000  H
  H1077    1.0000 0.88612  0.01315  0.53988  Biso   1.000  H
  C1334    1.0000 0.89235  0.08327  0.54385  Biso   1.000  C
  C1335    1.0000 0.13103  0.02056  0.70832  Biso   1.000  C
  C1336    1.0000 0.13534  0.10165  0.70532  Biso   1.000  C
  C1337    1.0000 0.97943  0.11047  0.70832  Biso   1.000  C
  C1338    1.0000 0.89834  0.03368  0.70532  Biso   1.000  C
  N317     1.0000 0.20849  0.07587  0.54684  Biso   1.000  N
  H1078    1.0000 0.19082  0.00226  0.54718  Biso   1.000  H
  N318     1.0000 0.20846  0.07587  0.54684  Biso   1.000  N
  H1079    1.0000 0.21444  0.14358  0.54336  Biso   1.000  H
  N319     1.0000 0.92412  0.13261  0.54684  Biso   1.000  N
  H1080    1.0000 0.99775  0.18857  0.54718  Biso   1.000  H
  H1081    1.0000 0.85643  0.07085  0.54336  Biso   1.000  H
  C1339    1.0000 0.18354  0.04457  0.70481  Biso   1.000  C
  H1082    1.0000 0.11173  0.98435  0.71088  Biso   1.000  H
  C1340    1.0000 0.18823  0.12497  0.70128  Biso   1.000  C
  H1083    1.0000 0.11903  0.12186  0.70617  Biso   1.000  H
  C1341    1.0000 0.95544  0.13897  0.70481  Biso   1.000  C
  H1084    1.0000 0.01564  0.12735  0.71088  Biso   1.000  H
  C1342    1.0000 0.87502  0.06325  0.70128  Biso   1.000  C
  H1085    1.0000 0.87812  0.99716  0.70617  Biso   1.000  H
  C1343    1.0000 0.26463  0.09647  0.55376  Biso   1.000  C
  C1344    1.0000 0.90353  0.16816  0.55376  Biso   1.000  C
  N320     1.0000 0.21056  0.09517  0.70092  Biso   1.000  N
  H1086    1.0000 0.20035  0.02497  0.70518  Biso   1.000  H
  H1087    1.0000 0.20853  0.16107  0.69877  Biso   1.000  H
  N321     1.0000 0.90481  0.11538  0.70092  Biso   1.000  N
  N322     1.0000 0.90484  0.11538  0.70092  Biso   1.000  N
  H1088    1.0000 0.97504  0.17538  0.70518  Biso   1.000  H
  H1089    1.0000 0.83892  0.04745  0.69877  Biso   1.000  H
  C1345    1.0000 0.27234  0.10618  0.59030  Biso   1.000  C
  H1090    1.0000 0.28574  0.12885  0.54177  Biso   1.000  H
  H1091    1.0000 0.27483  0.07135  0.54706  Biso   1.000  H
  H1092    1.0000 0.28570  0.12885  0.54177  Biso   1.000  H
  C1346    1.0000 0.89383  0.16617  0.59030  Biso   1.000  C
  H1093    1.0000 0.87113  0.15685  0.54177  Biso   1.000  H
  H1094    1.0000 0.92862  0.20346  0.54706  Biso   1.000  H
  C1347    1.0000 0.26673  0.11987  0.69337  Biso   1.000  C
  C1348    1.0000 0.88013  0.14688  0.69337  Biso   1.000  C
  C1349    1.0000 0.26935  0.06697  0.60996  Biso   1.000  C
  C1350    1.0000 0.27765  0.15148  0.60356  Biso   1.000  C
  C1351    1.0000 0.26932  0.06697  0.60996  Biso   1.000  C
  C1352    1.0000 0.27762  0.15148  0.60356  Biso   1.000  C
  C1353    1.0000 0.93301  0.20234  0.60996  Biso   1.000  C
  C1354    1.0000 0.84854  0.12616  0.60356  Biso   1.000  C
  C1355    1.0000 0.93303  0.20238  0.60996  Biso   1.000  C
  C1356    1.0000 0.27224  0.11707  0.65715  Biso   1.000  C
  H1095    1.0000 0.28183  0.10157  0.70467  Biso   1.000  H
  H1096    1.0000 0.28474  0.15608  0.70058  Biso   1.000  H
  C1357    1.0000 0.88294  0.15516  0.65715  Biso   1.000  C
  H1097    1.0000 0.89841  0.18025  0.70467  Biso   1.000  H
  H1098    1.0000 0.84394  0.12865  0.70058  Biso   1.000  H
  H1099    1.0000 0.89844  0.18025  0.70467  Biso   1.000  H
  H1100    1.0000 0.84391  0.12865  0.70058  Biso   1.000  H
  C1358    1.0000 0.26983  0.07265  0.64375  Biso   1.000  C
  H1101    1.0000 0.26694  0.03697  0.60068  Biso   1.000  H
  H1102    1.0000 0.28144  0.17845  0.58987  Biso   1.000  H
  C1359    1.0000 0.27743  0.15627  0.63712  Biso   1.000  C
  H1103    1.0000 0.28140  0.17845  0.58987  Biso   1.000  H
  C1360    1.0000 0.92733  0.19716  0.64375  Biso   1.000  C
  H1104    1.0000 0.96303  0.22996  0.60068  Biso   1.000  H
  H1105    1.0000 0.82153  0.10295  0.58987  Biso   1.000  H
  C1361    1.0000 0.84372  0.12117  0.63712  Biso   1.000  C
  H1106    1.0000 0.26864  0.04687  0.65758  Biso   1.000  H
  H1107    1.0000 0.28085  0.18677  0.64638  Biso   1.000  H
  H1108    1.0000 0.95311  0.22175  0.65758  Biso   1.000  H
  H1109    1.0000 0.81322  0.09405  0.64638  Biso   1.000  H
  C1362    1.0000 0.87383  0.72235  0.60356  Biso   1.000  C
  C1363    1.0000 0.83384  0.72768  0.59030  Biso   1.000  C
  H1110    1.0000 0.89701  0.71855  0.58987  Biso   1.000  H
  C1364    1.0000 0.87883  0.72258  0.63712  Biso   1.000  C
  C1365    1.0000 0.83183  0.73535  0.55376  Biso   1.000  C
  C1366    1.0000 0.79763  0.73067  0.60996  Biso   1.000  C
  C1367    1.0000 0.84484  0.72776  0.65715  Biso   1.000  C
  C1368    1.0000 0.84481  0.72776  0.65715  Biso   1.000  C
  H1111    1.0000 0.90593  0.71917  0.64638  Biso   1.000  H
  N323     1.0000 0.86739  0.79151  0.54684  Biso   1.000  N
  H1112    1.0000 0.84314  0.71426  0.54177  Biso   1.000  H
  H1113    1.0000 0.79653  0.72515  0.54706  Biso   1.000  H
  H1114    1.0000 0.84311  0.71426  0.54177  Biso   1.000  H
  C1369    1.0000 0.80283  0.73017  0.64375  Biso   1.000  C
  H1115    1.0000 0.77002  0.73305  0.60068  Biso   1.000  H
  C1370    1.0000 0.85315  0.73328  0.69337  Biso   1.000  C
  C1371    1.0000 0.84753  0.82308  0.54593  Biso   1.000  C
  C1372    1.0000 0.84756  0.82308  0.54593  Biso   1.000  C
  C1373    1.0000 0.91673  0.80908  0.54385  Biso   1.000  C
  H1116    1.0000 0.77825  0.73136  0.65758  Biso   1.000  H
  H1117    1.0000 0.77821  0.73136  0.65758  Biso   1.000  H
  N324     1.0000 0.88462  0.78944  0.70092  Biso   1.000  N
  H1118    1.0000 0.81972  0.71817  0.70467  Biso   1.000  H
  H1119    1.0000 0.87131  0.71525  0.70058  Biso   1.000  H
  H1120    1.0000 0.81975  0.71817  0.70467  Biso   1.000  H
  N325     1.0000 0.88459  0.78944  0.70092  Biso   1.000  N
  C1374    1.0000 0.87923  0.87506  0.54326  Biso   1.000  C
  H1121    1.0000 0.81143  0.80916  0.54718  Biso   1.000  H
  C1375    1.0000 0.95113  0.86067  0.54140  Biso   1.000  C
  H1122    1.0000 0.92913  0.78557  0.54336  Biso   1.000  H
  C1376    1.0000 0.86102  0.81645  0.70481  Biso   1.000  C
  C1377    1.0000 0.93674  0.81177  0.70128  Biso   1.000  C
  C1378    1.0000 0.93232  0.89447  0.54121  Biso   1.000  C
  C1379    1.0000 0.93235  0.89447  0.54121  Biso   1.000  C
  H1123    1.0000 0.86565  0.89746  0.54288  Biso   1.000  H
  H1124    1.0000 0.86561  0.89746  0.54288  Biso   1.000  H
  H1125    1.0000 0.98684  0.87295  0.53988  Biso   1.000  H
  H1126    1.0000 0.82463  0.79968  0.70518  Biso   1.000  H
  C1380    1.0000 0.88953  0.86896  0.70832  Biso   1.000  C
  C1381    1.0000 0.96632  0.86466  0.70532  Biso   1.000  C
  H1127    1.0000 0.95254  0.79147  0.69877  Biso   1.000  H
  C1382    1.0000 0.96635  0.86466  0.70532  Biso   1.000  C
  C1383    1.0000 0.96844  0.95036  0.54022  Biso   1.000  C
  H1128    1.0000 0.87264  0.88825  0.71088  Biso   1.000  H
  C1384    1.0000 0.94202  0.89355  0.70810  Biso   1.000  C
  H1129    1.0000 0.00284  0.88097  0.70617  Biso   1.000  H
  N326     1.0000 0.01845  0.96655  0.54015  Biso   1.000  N
  N327     1.0000 0.94812  0.98155  0.54015  Biso   1.000  N
  N328     1.0000 0.94808  0.98155  0.54015  Biso   1.000  N
  C1385    1.0000 0.97237  0.94913  0.70955  Biso   1.000  C
  C1386    1.0000 0.04963  0.01806  0.54022  Biso   1.000  C
  C1387    1.0000 0.98193  0.03157  0.54022  Biso   1.000  C
  N329     1.0000 0.02417  0.97161  0.70958  Biso   1.000  N
  N330     1.0000 0.94740  0.97579  0.70958  Biso   1.000  N
  N331     1.0000 0.94743  0.97579  0.70958  Biso   1.000  N
  N332     1.0000 0.02421  0.97161  0.70958  Biso   1.000  N
  N333     1.0000 0.03346  0.05190  0.54015  Biso   1.000  N
  C1388    1.0000 0.10553  0.03786  0.54121  Biso   1.000  C
  C1389    1.0000 0.96214  0.06766  0.54121  Biso   1.000  C
  C1390    1.0000 0.05085  0.02324  0.70955  Biso   1.000  C
  C1391    1.0000 0.05089  0.02324  0.70955  Biso   1.000  C
  C1392    1.0000 0.97673  0.02762  0.70955  Biso   1.000  C
  C1393    1.0000 0.12494  0.00418  0.54326  Biso   1.000  C
  C1394    1.0000 0.13934  0.09045  0.54140  Biso   1.000  C
  C1395    1.0000 0.13930  0.09045  0.54140  Biso   1.000  C
  C1396    1.0000 0.99583  0.12075  0.54326  Biso   1.000  C
  C1397    1.0000 0.90952  0.04887  0.54140  Biso   1.000  C
  C1398    1.0000 0.10641  0.04844  0.70810  Biso   1.000  C
  N334     1.0000 0.02839  0.05259  0.70958  Biso   1.000  N
  C1399    1.0000 0.95154  0.05796  0.70810  Biso   1.000  C
  H1130    1.0000 0.10254  0.96816  0.54288  Biso   1.000  H
  H1131    1.0000 0.10251  0.96816  0.54288  Biso   1.000  H
  C1400    1.0000 0.17694  0.02447  0.54593  Biso   1.000  C
  H1132    1.0000 0.12702  0.11385  0.53988  Biso   1.000  H
  C1401    1.0000 0.19094  0.10767  0.54385  Biso   1.000  C
  C1402    1.0000 0.97555  0.15248  0.54593  Biso   1.000  C
  H1133    1.0000 0.03184  0.13437  0.54288  Biso   1.000  H
  H1134    1.0000 0.88612  0.01315  0.53988  Biso   1.000  H
  C1403    1.0000 0.89235  0.08327  0.54385  Biso   1.000  C
  C1404    1.0000 0.13103  0.02056  0.70832  Biso   1.000  C
  C1405    1.0000 0.13534  0.10165  0.70532  Biso   1.000  C
  C1406    1.0000 0.97943  0.11047  0.70832  Biso   1.000  C
  C1407    1.0000 0.89834  0.03368  0.70532  Biso   1.000  C
  N335     1.0000 0.20849  0.07587  0.54684  Biso   1.000  N
  H1135    1.0000 0.19082  0.00226  0.54718  Biso   1.000  H
  N336     1.0000 0.20846  0.07587  0.54684  Biso   1.000  N
  H1136    1.0000 0.21444  0.14358  0.54336  Biso   1.000  H
  N337     1.0000 0.92412  0.13261  0.54684  Biso   1.000  N
  H1137    1.0000 0.99775  0.18857  0.54718  Biso   1.000  H
  H1138    1.0000 0.85643  0.07085  0.54336  Biso   1.000  H
  C1408    1.0000 0.18354  0.04457  0.70481  Biso   1.000  C
  H1139    1.0000 0.11173  0.98435  0.71088  Biso   1.000  H
  C1409    1.0000 0.18823  0.12497  0.70128  Biso   1.000  C
  H1140    1.0000 0.11903  0.12186  0.70617  Biso   1.000  H
  C1410    1.0000 0.95544  0.13897  0.70481  Biso   1.000  C
  H1141    1.0000 0.01564  0.12735  0.71088  Biso   1.000  H
  C1411    1.0000 0.87502  0.06325  0.70128  Biso   1.000  C
  H1142    1.0000 0.87812  0.99716  0.70617  Biso   1.000  H
  C1412    1.0000 0.26463  0.09647  0.55376  Biso   1.000  C
  C1413    1.0000 0.90353  0.16816  0.55376  Biso   1.000  C
  N338     1.0000 0.21056  0.09517  0.70092  Biso   1.000  N
  H1143    1.0000 0.20035  0.02497  0.70518  Biso   1.000  H
  H1144    1.0000 0.20853  0.16107  0.69877  Biso   1.000  H
  N339     1.0000 0.90481  0.11538  0.70092  Biso   1.000  N
  N340     1.0000 0.90484  0.11538  0.70092  Biso   1.000  N
  H1145    1.0000 0.97504  0.17538  0.70518  Biso   1.000  H
  H1146    1.0000 0.83892  0.04745  0.69877  Biso   1.000  H
  C1414    1.0000 0.27234  0.10618  0.59030  Biso   1.000  C
  H1147    1.0000 0.28574  0.12885  0.54177  Biso   1.000  H
  H1148    1.0000 0.27483  0.07135  0.54706  Biso   1.000  H
  H1149    1.0000 0.28570  0.12885  0.54177  Biso   1.000  H
  C1415    1.0000 0.89383  0.16617  0.59030  Biso   1.000  C
  H1150    1.0000 0.87113  0.15685  0.54177  Biso   1.000  H
  H1151    1.0000 0.92862  0.20346  0.54706  Biso   1.000  H
  C1416    1.0000 0.26673  0.11987  0.69337  Biso   1.000  C
  C1417    1.0000 0.88013  0.14688  0.69337  Biso   1.000  C
  C1418    1.0000 0.26935  0.06697  0.60996  Biso   1.000  C
  C1419    1.0000 0.27765  0.15148  0.60356  Biso   1.000  C
  C1420    1.0000 0.26932  0.06697  0.60996  Biso   1.000  C
  C1421    1.0000 0.27762  0.15148  0.60356  Biso   1.000  C
  C1422    1.0000 0.93301  0.20234  0.60996  Biso   1.000  C
  C1423    1.0000 0.84854  0.12616  0.60356  Biso   1.000  C
  C1424    1.0000 0.93303  0.20238  0.60996  Biso   1.000  C
  C1425    1.0000 0.27224  0.11707  0.65715  Biso   1.000  C
  H1152    1.0000 0.28183  0.10157  0.70467  Biso   1.000  H
  H1153    1.0000 0.28474  0.15608  0.70058  Biso   1.000  H
  C1426    1.0000 0.88294  0.15516  0.65715  Biso   1.000  C
  H1154    1.0000 0.89841  0.18025  0.70467  Biso   1.000  H
  H1155    1.0000 0.84394  0.12865  0.70058  Biso   1.000  H
  H1156    1.0000 0.89844  0.18025  0.70467  Biso   1.000  H
  H1157    1.0000 0.84391  0.12865  0.70058  Biso   1.000  H
  C1427    1.0000 0.26983  0.07265  0.64375  Biso   1.000  C
  H1158    1.0000 0.26694  0.03697  0.60068  Biso   1.000  H
  H1159    1.0000 0.28144  0.17845  0.58987  Biso   1.000  H
  C1428    1.0000 0.27743  0.15627  0.63712  Biso   1.000  C
  H1160    1.0000 0.28140  0.17845  0.58987  Biso   1.000  H
  C1429    1.0000 0.92733  0.19716  0.64375  Biso   1.000  C
  H1161    1.0000 0.96303  0.22996  0.60068  Biso   1.000  H
  H1162    1.0000 0.82153  0.10295  0.58987  Biso   1.000  H
  C1430    1.0000 0.84372  0.12117  0.63712  Biso   1.000  C
  H1163    1.0000 0.26864  0.04687  0.65758  Biso   1.000  H
  H1164    1.0000 0.28085  0.18677  0.64638  Biso   1.000  H
  H1165    1.0000 0.95311  0.22175  0.65758  Biso   1.000  H
  H1166    1.0000 0.81322  0.09405  0.64638  Biso   1.000  H
  C1431    1.0000 0.87383  0.72235  0.60356  Biso   1.000  C
  C1432    1.0000 0.83384  0.72768  0.59030  Biso   1.000  C
  H1167    1.0000 0.89701  0.71855  0.58987  Biso   1.000  H
  C1433    1.0000 0.87883  0.72258  0.63712  Biso   1.000  C
  C1434    1.0000 0.83183  0.73535  0.55376  Biso   1.000  C
  C1435    1.0000 0.79763  0.73067  0.60996  Biso   1.000  C
  C1436    1.0000 0.84484  0.72776  0.65715  Biso   1.000  C
  C1437    1.0000 0.84481  0.72776  0.65715  Biso   1.000  C
  H1168    1.0000 0.90593  0.71917  0.64638  Biso   1.000  H
  N341     1.0000 0.86739  0.79151  0.54684  Biso   1.000  N
  H1169    1.0000 0.84314  0.71426  0.54177  Biso   1.000  H
  H1170    1.0000 0.79653  0.72515  0.54706  Biso   1.000  H
  H1171    1.0000 0.84311  0.71426  0.54177  Biso   1.000  H
  C1438    1.0000 0.80283  0.73017  0.64375  Biso   1.000  C
  H1172    1.0000 0.77002  0.73305  0.60068  Biso   1.000  H
  C1439    1.0000 0.85315  0.73328  0.69337  Biso   1.000  C
  C1440    1.0000 0.84753  0.82308  0.54593  Biso   1.000  C
  C1441    1.0000 0.84756  0.82308  0.54593  Biso   1.000  C
  C1442    1.0000 0.91673  0.80908  0.54385  Biso   1.000  C
  H1173    1.0000 0.77825  0.73136  0.65758  Biso   1.000  H
  H1174    1.0000 0.77821  0.73136  0.65758  Biso   1.000  H
  N342     1.0000 0.88462  0.78944  0.70092  Biso   1.000  N
  H1175    1.0000 0.81972  0.71817  0.70467  Biso   1.000  H
  H1176    1.0000 0.87131  0.71525  0.70058  Biso   1.000  H
  H1177    1.0000 0.81975  0.71817  0.70467  Biso   1.000  H
  N343     1.0000 0.88459  0.78944  0.70092  Biso   1.000  N
  C1443    1.0000 0.87923  0.87506  0.54326  Biso   1.000  C
  H1178    1.0000 0.81143  0.80916  0.54718  Biso   1.000  H
  C1444    1.0000 0.95113  0.86067  0.54140  Biso   1.000  C
  H1179    1.0000 0.92913  0.78557  0.54336  Biso   1.000  H
  C1445    1.0000 0.86102  0.81645  0.70481  Biso   1.000  C
  C1446    1.0000 0.93674  0.81177  0.70128  Biso   1.000  C
  C1447    1.0000 0.93232  0.89447  0.54121  Biso   1.000  C
  C1448    1.0000 0.93235  0.89447  0.54121  Biso   1.000  C
  H1180    1.0000 0.86565  0.89746  0.54288  Biso   1.000  H
  H1181    1.0000 0.86561  0.89746  0.54288  Biso   1.000  H
  H1182    1.0000 0.98684  0.87295  0.53988  Biso   1.000  H
  H1183    1.0000 0.82463  0.79968  0.70518  Biso   1.000  H
  C1449    1.0000 0.88953  0.86896  0.70832  Biso   1.000  C
  C1450    1.0000 0.96632  0.86466  0.70532  Biso   1.000  C
  H1184    1.0000 0.95254  0.79147  0.69877  Biso   1.000  H
  C1451    1.0000 0.96635  0.86466  0.70532  Biso   1.000  C
  C1452    1.0000 0.96844  0.95036  0.54022  Biso   1.000  C
  H1185    1.0000 0.87264  0.88825  0.71088  Biso   1.000  H
  C1453    1.0000 0.94202  0.89355  0.70810  Biso   1.000  C
  H1186    1.0000 0.00284  0.88097  0.70617  Biso   1.000  H
  N344     1.0000 0.01845  0.96655  0.54015  Biso   1.000  N
  N345     1.0000 0.94812  0.98155  0.54015  Biso   1.000  N
  N346     1.0000 0.94808  0.98155  0.54015  Biso   1.000  N
  C1454    1.0000 0.97237  0.94913  0.70955  Biso   1.000  C
  C1455    1.0000 0.04963  0.01806  0.54022  Biso   1.000  C
  C1456    1.0000 0.98193  0.03157  0.54022  Biso   1.000  C
  N347     1.0000 0.02417  0.97161  0.70958  Biso   1.000  N
  N348     1.0000 0.94740  0.97579  0.70958  Biso   1.000  N
  N349     1.0000 0.94743  0.97579  0.70958  Biso   1.000  N
  N350     1.0000 0.02421  0.97161  0.70958  Biso   1.000  N
  N351     1.0000 0.03346  0.05190  0.54015  Biso   1.000  N
  C1457    1.0000 0.10553  0.03786  0.54121  Biso   1.000  C
  C1458    1.0000 0.96214  0.06766  0.54121  Biso   1.000  C
  C1459    1.0000 0.05085  0.02324  0.70955  Biso   1.000  C
  C1460    1.0000 0.05089  0.02324  0.70955  Biso   1.000  C
  C1461    1.0000 0.97673  0.02762  0.70955  Biso   1.000  C
  C1462    1.0000 0.12494  0.00418  0.54326  Biso   1.000  C
  C1463    1.0000 0.13934  0.09045  0.54140  Biso   1.000  C
  C1464    1.0000 0.13930  0.09045  0.54140  Biso   1.000  C
  C1465    1.0000 0.99583  0.12075  0.54326  Biso   1.000  C
  C1466    1.0000 0.90952  0.04887  0.54140  Biso   1.000  C
  C1467    1.0000 0.10641  0.04844  0.70810  Biso   1.000  C
  N352     1.0000 0.02839  0.05259  0.70958  Biso   1.000  N
  C1468    1.0000 0.95154  0.05796  0.70810  Biso   1.000  C
  H1187    1.0000 0.10254  0.96816  0.54288  Biso   1.000  H
  H1188    1.0000 0.10251  0.96816  0.54288  Biso   1.000  H
  C1469    1.0000 0.17694  0.02447  0.54593  Biso   1.000  C
  H1189    1.0000 0.12702  0.11385  0.53988  Biso   1.000  H
  C1470    1.0000 0.19094  0.10767  0.54385  Biso   1.000  C
  C1471    1.0000 0.97555  0.15248  0.54593  Biso   1.000  C
  H1190    1.0000 0.03184  0.13437  0.54288  Biso   1.000  H
  H1191    1.0000 0.88612  0.01315  0.53988  Biso   1.000  H
  C1472    1.0000 0.89235  0.08327  0.54385  Biso   1.000  C
  C1473    1.0000 0.13103  0.02056  0.70832  Biso   1.000  C
  C1474    1.0000 0.13534  0.10165  0.70532  Biso   1.000  C
  C1475    1.0000 0.97943  0.11047  0.70832  Biso   1.000  C
  C1476    1.0000 0.89834  0.03368  0.70532  Biso   1.000  C
  N353     1.0000 0.20849  0.07587  0.54684  Biso   1.000  N
  H1192    1.0000 0.19082  0.00226  0.54718  Biso   1.000  H
  N354     1.0000 0.20846  0.07587  0.54684  Biso   1.000  N
  H1193    1.0000 0.21444  0.14358  0.54336  Biso   1.000  H
  N355     1.0000 0.92412  0.13261  0.54684  Biso   1.000  N
  H1194    1.0000 0.99775  0.18857  0.54718  Biso   1.000  H
  H1195    1.0000 0.85643  0.07085  0.54336  Biso   1.000  H
  C1477    1.0000 0.18354  0.04457  0.70481  Biso   1.000  C
  H1196    1.0000 0.11173  0.98435  0.71088  Biso   1.000  H
  C1478    1.0000 0.18823  0.12497  0.70128  Biso   1.000  C
  H1197    1.0000 0.11903  0.12186  0.70617  Biso   1.000  H
  C1479    1.0000 0.95544  0.13897  0.70481  Biso   1.000  C
  H1198    1.0000 0.01564  0.12735  0.71088  Biso   1.000  H
  C1480    1.0000 0.87502  0.06325  0.70128  Biso   1.000  C
  H1199    1.0000 0.87812  0.99716  0.70617  Biso   1.000  H
  C1481    1.0000 0.26463  0.09647  0.55376  Biso   1.000  C
  C1482    1.0000 0.90353  0.16816  0.55376  Biso   1.000  C
  N356     1.0000 0.21056  0.09517  0.70092  Biso   1.000  N
  H1200    1.0000 0.20035  0.02497  0.70518  Biso   1.000  H
  H1201    1.0000 0.20853  0.16107  0.69877  Biso   1.000  H
  N357     1.0000 0.90481  0.11538  0.70092  Biso   1.000  N
  N358     1.0000 0.90484  0.11538  0.70092  Biso   1.000  N
  H1202    1.0000 0.97504  0.17538  0.70518  Biso   1.000  H
  H1203    1.0000 0.83892  0.04745  0.69877  Biso   1.000  H
  C1483    1.0000 0.27234  0.10618  0.59030  Biso   1.000  C
  H1204    1.0000 0.28574  0.12885  0.54177  Biso   1.000  H
  H1205    1.0000 0.27483  0.07135  0.54706  Biso   1.000  H
  H1206    1.0000 0.28570  0.12885  0.54177  Biso   1.000  H
  C1484    1.0000 0.89383  0.16617  0.59030  Biso   1.000  C
  H1207    1.0000 0.87113  0.15685  0.54177  Biso   1.000  H
  H1208    1.0000 0.92862  0.20346  0.54706  Biso   1.000  H
  C1485    1.0000 0.26673  0.11987  0.69337  Biso   1.000  C
  C1486    1.0000 0.88013  0.14688  0.69337  Biso   1.000  C
  C1487    1.0000 0.26935  0.06697  0.60996  Biso   1.000  C
  C1488    1.0000 0.27765  0.15148  0.60356  Biso   1.000  C
  C1489    1.0000 0.26932  0.06697  0.60996  Biso   1.000  C
  C1490    1.0000 0.27762  0.15148  0.60356  Biso   1.000  C
  C1491    1.0000 0.93301  0.20234  0.60996  Biso   1.000  C
  C1492    1.0000 0.84854  0.12616  0.60356  Biso   1.000  C
  C1493    1.0000 0.93303  0.20238  0.60996  Biso   1.000  C
  C1494    1.0000 0.27224  0.11707  0.65715  Biso   1.000  C
  H1209    1.0000 0.28183  0.10157  0.70467  Biso   1.000  H
  H1210    1.0000 0.28474  0.15608  0.70058  Biso   1.000  H
  C1495    1.0000 0.88294  0.15516  0.65715  Biso   1.000  C
  H1211    1.0000 0.89841  0.18025  0.70467  Biso   1.000  H
  H1212    1.0000 0.84394  0.12865  0.70058  Biso   1.000  H
  H1213    1.0000 0.89844  0.18025  0.70467  Biso   1.000  H
  H1214    1.0000 0.84391  0.12865  0.70058  Biso   1.000  H
  C1496    1.0000 0.26983  0.07265  0.64375  Biso   1.000  C
  H1215    1.0000 0.26694  0.03697  0.60068  Biso   1.000  H
  H1216    1.0000 0.28144  0.17845  0.58987  Biso   1.000  H
  C1497    1.0000 0.27743  0.15627  0.63712  Biso   1.000  C
  H1217    1.0000 0.28140  0.17845  0.58987  Biso   1.000  H
  C1498    1.0000 0.92733  0.19716  0.64375  Biso   1.000  C
  H1218    1.0000 0.96303  0.22996  0.60068  Biso   1.000  H
  H1219    1.0000 0.82153  0.10295  0.58987  Biso   1.000  H
  C1499    1.0000 0.84372  0.12117  0.63712  Biso   1.000  C
  H1220    1.0000 0.26864  0.04687  0.65758  Biso   1.000  H
  H1221    1.0000 0.28085  0.18677  0.64638  Biso   1.000  H
  H1222    1.0000 0.95311  0.22175  0.65758  Biso   1.000  H
  H1223    1.0000 0.81322  0.09405  0.64638  Biso   1.000  H
  C1500    1.0000 0.87383  0.72235  0.60356  Biso   1.000  C
  C1501    1.0000 0.83384  0.72768  0.59030  Biso   1.000  C
  H1224    1.0000 0.89701  0.71855  0.58987  Biso   1.000  H
  C1502    1.0000 0.87883  0.72258  0.63712  Biso   1.000  C
  C1503    1.0000 0.83183  0.73535  0.55376  Biso   1.000  C
  C1504    1.0000 0.79763  0.73067  0.60996  Biso   1.000  C
  C1505    1.0000 0.84484  0.72776  0.65715  Biso   1.000  C
  C1506    1.0000 0.84481  0.72776  0.65715  Biso   1.000  C
  H1225    1.0000 0.90593  0.71917  0.64638  Biso   1.000  H
  N359     1.0000 0.86739  0.79151  0.54684  Biso   1.000  N
  H1226    1.0000 0.84314  0.71426  0.54177  Biso   1.000  H
  H1227    1.0000 0.79653  0.72515  0.54706  Biso   1.000  H
  H1228    1.0000 0.84311  0.71426  0.54177  Biso   1.000  H
  C1507    1.0000 0.80283  0.73017  0.64375  Biso   1.000  C
  H1229    1.0000 0.77002  0.73305  0.60068  Biso   1.000  H
  C1508    1.0000 0.85315  0.73328  0.69337  Biso   1.000  C
  C1509    1.0000 0.84753  0.82308  0.54593  Biso   1.000  C
  C1510    1.0000 0.84756  0.82308  0.54593  Biso   1.000  C
  C1511    1.0000 0.91673  0.80908  0.54385  Biso   1.000  C
  H1230    1.0000 0.77825  0.73136  0.65758  Biso   1.000  H
  H1231    1.0000 0.77821  0.73136  0.65758  Biso   1.000  H
  N360     1.0000 0.88462  0.78944  0.70092  Biso   1.000  N
  H1232    1.0000 0.81972  0.71817  0.70467  Biso   1.000  H
  H1233    1.0000 0.87131  0.71525  0.70058  Biso   1.000  H
  H1234    1.0000 0.81975  0.71817  0.70467  Biso   1.000  H
  N361     1.0000 0.88459  0.78944  0.70092  Biso   1.000  N
  C1512    1.0000 0.87923  0.87506  0.54326  Biso   1.000  C
  H1235    1.0000 0.81143  0.80916  0.54718  Biso   1.000  H
  C1513    1.0000 0.95113  0.86067  0.54140  Biso   1.000  C
  H1236    1.0000 0.92913  0.78557  0.54336  Biso   1.000  H
  C1514    1.0000 0.86102  0.81645  0.70481  Biso   1.000  C
  C1515    1.0000 0.93674  0.81177  0.70128  Biso   1.000  C
  C1516    1.0000 0.93232  0.89447  0.54121  Biso   1.000  C
  C1517    1.0000 0.93235  0.89447  0.54121  Biso   1.000  C
  H1237    1.0000 0.86565  0.89746  0.54288  Biso   1.000  H
  H1238    1.0000 0.86561  0.89746  0.54288  Biso   1.000  H
  H1239    1.0000 0.98684  0.87295  0.53988  Biso   1.000  H
  H1240    1.0000 0.82463  0.79968  0.70518  Biso   1.000  H
  C1518    1.0000 0.88953  0.86896  0.70832  Biso   1.000  C
  C1519    1.0000 0.96632  0.86466  0.70532  Biso   1.000  C
  H1241    1.0000 0.95254  0.79147  0.69877  Biso   1.000  H
  C1520    1.0000 0.96635  0.86466  0.70532  Biso   1.000  C
  C1521    1.0000 0.96844  0.95036  0.54022  Biso   1.000  C
  H1242    1.0000 0.87264  0.88825  0.71088  Biso   1.000  H
  C1522    1.0000 0.94202  0.89355  0.70810  Biso   1.000  C
  H1243    1.0000 0.00284  0.88097  0.70617  Biso   1.000  H
  N362     1.0000 0.01845  0.96655  0.54015  Biso   1.000  N
  N363     1.0000 0.94812  0.98155  0.54015  Biso   1.000  N
  N364     1.0000 0.94808  0.98155  0.54015  Biso   1.000  N
  C1523    1.0000 0.97237  0.94913  0.70955  Biso   1.000  C
  C1524    1.0000 0.04963  0.01806  0.54022  Biso   1.000  C
  C1525    1.0000 0.98193  0.03157  0.54022  Biso   1.000  C
  N365     1.0000 0.94740  0.97579  0.70958  Biso   1.000  N
  N366     1.0000 0.94743  0.97579  0.70958  Biso   1.000  N
  N367     1.0000 0.02417  0.97161  0.70958  Biso   1.000  N
  N368     1.0000 0.02421  0.97161  0.70958  Biso   1.000  N
  N369     1.0000 0.03346  0.05190  0.54015  Biso   1.000  N
  C1526    1.0000 0.10553  0.03786  0.54121  Biso   1.000  C
  C1527    1.0000 0.96214  0.06766  0.54121  Biso   1.000  C
  C1528    1.0000 0.97673  0.02762  0.70955  Biso   1.000  C
  C1529    1.0000 0.05085  0.02324  0.70955  Biso   1.000  C
  C1530    1.0000 0.05089  0.02324  0.70955  Biso   1.000  C
  C1531    1.0000 0.12494  0.00418  0.54326  Biso   1.000  C
  C1532    1.0000 0.13934  0.09045  0.54140  Biso   1.000  C
  C1533    1.0000 0.13930  0.09045  0.54140  Biso   1.000  C
  C1534    1.0000 0.99583  0.12075  0.54326  Biso   1.000  C
  C1535    1.0000 0.90952  0.04887  0.54140  Biso   1.000  C
  C1536    1.0000 0.95154  0.05796  0.70810  Biso   1.000  C
  N370     1.0000 0.02839  0.05259  0.70958  Biso   1.000  N
  C1537    1.0000 0.10641  0.04844  0.70810  Biso   1.000  C
  H1244    1.0000 0.10254  0.96816  0.54288  Biso   1.000  H
  H1245    1.0000 0.10251  0.96816  0.54288  Biso   1.000  H
  C1538    1.0000 0.17694  0.02447  0.54593  Biso   1.000  C
  H1246    1.0000 0.12702  0.11385  0.53988  Biso   1.000  H
  C1539    1.0000 0.19094  0.10767  0.54385  Biso   1.000  C
  C1540    1.0000 0.97555  0.15248  0.54593  Biso   1.000  C
  H1247    1.0000 0.03184  0.13437  0.54288  Biso   1.000  H
  H1248    1.0000 0.88612  0.01315  0.53988  Biso   1.000  H
  C1541    1.0000 0.89235  0.08327  0.54385  Biso   1.000  C
  C1542    1.0000 0.97943  0.11047  0.70832  Biso   1.000  C
  C1543    1.0000 0.89834  0.03368  0.70532  Biso   1.000  C
  C1544    1.0000 0.13103  0.02056  0.70832  Biso   1.000  C
  C1545    1.0000 0.13534  0.10165  0.70532  Biso   1.000  C
  N371     1.0000 0.20849  0.07587  0.54684  Biso   1.000  N
  H1249    1.0000 0.19082  0.00226  0.54718  Biso   1.000  H
  N372     1.0000 0.20846  0.07587  0.54684  Biso   1.000  N
  H1250    1.0000 0.21444  0.14358  0.54336  Biso   1.000  H
  N373     1.0000 0.92412  0.13261  0.54684  Biso   1.000  N
  H1251    1.0000 0.99775  0.18857  0.54718  Biso   1.000  H
  H1252    1.0000 0.85643  0.07085  0.54336  Biso   1.000  H
  C1546    1.0000 0.95544  0.13897  0.70481  Biso   1.000  C
  H1253    1.0000 0.01564  0.12735  0.71088  Biso   1.000  H
  C1547    1.0000 0.87502  0.06325  0.70128  Biso   1.000  C
  H1254    1.0000 0.87812  0.99716  0.70617  Biso   1.000  H
  C1548    1.0000 0.18354  0.04457  0.70481  Biso   1.000  C
  H1255    1.0000 0.11173  0.98435  0.71088  Biso   1.000  H
  C1549    1.0000 0.18823  0.12497  0.70128  Biso   1.000  C
  H1256    1.0000 0.11903  0.12186  0.70617  Biso   1.000  H
  C1550    1.0000 0.26463  0.09647  0.55376  Biso   1.000  C
  C1551    1.0000 0.90353  0.16816  0.55376  Biso   1.000  C
  N374     1.0000 0.90481  0.11538  0.70092  Biso   1.000  N
  N375     1.0000 0.90484  0.11538  0.70092  Biso   1.000  N
  H1257    1.0000 0.97504  0.17538  0.70518  Biso   1.000  H
  H1258    1.0000 0.83892  0.04745  0.69877  Biso   1.000  H
  N376     1.0000 0.21056  0.09517  0.70092  Biso   1.000  N
  H1259    1.0000 0.20035  0.02497  0.70518  Biso   1.000  H
  H1260    1.0000 0.20853  0.16107  0.69877  Biso   1.000  H
  C1552    1.0000 0.27234  0.10618  0.59030  Biso   1.000  C
  H1261    1.0000 0.28574  0.12885  0.54177  Biso   1.000  H
  H1262    1.0000 0.27483  0.07135  0.54706  Biso   1.000  H
  H1263    1.0000 0.28570  0.12885  0.54177  Biso   1.000  H
  C1553    1.0000 0.89383  0.16617  0.59030  Biso   1.000  C
  H1264    1.0000 0.87113  0.15685  0.54177  Biso   1.000  H
  H1265    1.0000 0.92862  0.20346  0.54706  Biso   1.000  H
  C1554    1.0000 0.88013  0.14688  0.69337  Biso   1.000  C
  C1555    1.0000 0.26673  0.11987  0.69337  Biso   1.000  C
  C1556    1.0000 0.26935  0.06697  0.60996  Biso   1.000  C
  C1557    1.0000 0.27765  0.15148  0.60356  Biso   1.000  C
  C1558    1.0000 0.26932  0.06697  0.60996  Biso   1.000  C
  C1559    1.0000 0.27762  0.15148  0.60356  Biso   1.000  C
  C1560    1.0000 0.93301  0.20234  0.60996  Biso   1.000  C
  C1561    1.0000 0.84854  0.12616  0.60356  Biso   1.000  C
  C1562    1.0000 0.93303  0.20238  0.60996  Biso   1.000  C
  C1563    1.0000 0.88294  0.15516  0.65715  Biso   1.000  C
  H1266    1.0000 0.89841  0.18025  0.70467  Biso   1.000  H
  H1267    1.0000 0.84394  0.12865  0.70058  Biso   1.000  H
  H1268    1.0000 0.89844  0.18025  0.70467  Biso   1.000  H
  H1269    1.0000 0.84391  0.12865  0.70058  Biso   1.000  H
  C1564    1.0000 0.27224  0.11707  0.65715  Biso   1.000  C
  H1270    1.0000 0.28183  0.10157  0.70467  Biso   1.000  H
  H1271    1.0000 0.28474  0.15608  0.70058  Biso   1.000  H
  C1565    1.0000 0.26983  0.07265  0.64375  Biso   1.000  C
  H1272    1.0000 0.26694  0.03697  0.60068  Biso   1.000  H
  H1273    1.0000 0.28144  0.17845  0.58987  Biso   1.000  H
  C1566    1.0000 0.27743  0.15627  0.63712  Biso   1.000  C
  H1274    1.0000 0.28140  0.17845  0.58987  Biso   1.000  H
  C1567    1.0000 0.92733  0.19716  0.64375  Biso   1.000  C
  H1275    1.0000 0.96303  0.22996  0.60068  Biso   1.000  H
  H1276    1.0000 0.82153  0.10295  0.58987  Biso   1.000  H
  C1568    1.0000 0.84372  0.12117  0.63712  Biso   1.000  C
  H1277    1.0000 0.26864  0.04687  0.65758  Biso   1.000  H
  H1278    1.0000 0.28085  0.18677  0.64638  Biso   1.000  H
  H1279    1.0000 0.95311  0.22175  0.65758  Biso   1.000  H
  H1280    1.0000 0.81322  0.09405  0.64638  Biso   1.000  H
  Ne1      1.0000 0.00669  0.00020  0.12826  Biso   1.000  Ne
  He1      1.0000 0.03835  0.98687  0.12499  Biso   1.000  He
  He2      1.0000 0.03531  0.06009  0.12468  Biso   1.000  He
  He3      1.0000 0.94359  0.97573  0.12471  Biso   1.000  He
  Ar1      1.0000 0.99999  0.99999  0.12497  Biso   1.000  Ar
  Ne2      1.0000 0.00669  0.00020  0.12826  Biso   1.000  Ne
  He4      1.0000 0.03835  0.98687  0.12499  Biso   1.000  He
  He5      1.0000 0.03531  0.06009  0.12468  Biso   1.000  He
  He6      1.0000 0.94359  0.97573  0.12471  Biso   1.000  He
  Ar2      1.0000 0.99999  0.99999  0.12497  Biso   1.000  Ar
  Ne3      1.0000 0.00669  0.00020  0.12826  Biso   1.000  Ne
  He7      1.0000 0.03835  0.98687  0.12499  Biso   1.000  He
  He8      1.0000 0.03531  0.06009  0.12468  Biso   1.000  He
  He9      1.0000 0.94359  0.97573  0.12471  Biso   1.000  He
  Ar3      1.0000 0.99999  0.99999  0.12497  Biso   1.000  Ar
  Ne4      1.0000 0.00669  0.00020  0.12826  Biso   1.000  Ne
  He10     1.0000 0.03835  0.98687  0.12499  Biso   1.000  He
  He11     1.0000 0.03531  0.06009  0.12468  Biso   1.000  He
  He12     1.0000 0.94359  0.97573  0.12471  Biso   1.000  He
  Ar4      1.0000 0.99999  0.99999  0.12497  Biso   1.000  Ar
  Ne5      1.0000 0.00572  0.00205  0.37141  Biso   1.000  Ne
  He13     1.0000 0.03379  0.01247  0.37539  Biso   1.000  He
  He14     1.0000 0.98714  0.04162  0.37498  Biso   1.000  He
  He15     1.0000 0.97609  0.94626  0.37527  Biso   1.000  He
  Ar5      1.0000 0.00488  0.00224  0.37498  Biso   1.000  Ar
  Ne6      1.0000 0.00572  0.00205  0.37141  Biso   1.000  Ne
  He16     1.0000 0.03379  0.01247  0.37539  Biso   1.000  He
  He17     1.0000 0.98714  0.04162  0.37498  Biso   1.000  He
  He18     1.0000 0.97609  0.94626  0.37527  Biso   1.000  He
  Ar6      1.0000 0.00488  0.00224  0.37498  Biso   1.000  Ar
  Ne7      1.0000 0.00572  0.00205  0.37141  Biso   1.000  Ne
  He19     1.0000 0.03379  0.01247  0.37539  Biso   1.000  He
  He20     1.0000 0.98714  0.04162  0.37498  Biso   1.000  He
  He21     1.0000 0.97609  0.94626  0.37527  Biso   1.000  He
  Ar7      1.0000 0.00488  0.00224  0.37498  Biso   1.000  Ar
  Ne8      1.0000 0.00572  0.00205  0.37141  Biso   1.000  Ne
  He22     1.0000 0.03379  0.01247  0.37539  Biso   1.000  He
  He23     1.0000 0.98714  0.04162  0.37498  Biso   1.000  He
  He24     1.0000 0.97609  0.94626  0.37527  Biso   1.000  He
  Ar8      1.0000 0.00488  0.00224  0.37498  Biso   1.000  Ar
  Ne9      1.0000 0.66667  0.33333  0.20919  Biso   1.000  Ne
  He25     1.0000 0.64534  0.34584  0.20871  Biso   1.000  He
  He26     1.0000 0.71861  0.37220  0.20833  Biso   1.000  He
  He27     1.0000 0.65192  0.29873  0.20827  Biso   1.000  He
  Ar9      1.0000 0.66666  0.33331  0.20836  Biso   1.000  Ar
  Ne10     1.0000 0.33333  0.66666  0.29081  Biso   1.000  Ne
  He28     1.0000 0.36508  0.64245  0.29139  Biso   1.000  He
  He29     1.0000 0.37274  0.71911  0.29168  Biso   1.000  He
  He30     1.0000 0.27850  0.63587  0.29139  Biso   1.000  He
  Ar10     1.0000 0.33336  0.66671  0.29164  Biso   1.000  Ar
  Ne11     1.0000 0.66666  0.33333  0.45748  Biso   1.000  Ne
  He31     1.0000 0.70498  0.32021  0.45834  Biso   1.000  He
  He32     1.0000 0.61023  0.30917  0.45805  Biso   1.000  He
  He33     1.0000 0.70210  0.39347  0.45803  Biso   1.000  He
  Ar11     1.0000 0.66668  0.33337  0.45831  Biso   1.000  Ar
  Ne12     1.0000 0.33333  0.66667  0.04252  Biso   1.000  Ne
  He34     1.0000 0.36712  0.67914  0.04204  Biso   1.000  He
  He35     1.0000 0.31402  0.63265  0.04156  Biso   1.000  He
  He36     1.0000 0.30131  0.69090  0.04197  Biso   1.000  He
  Ar12     1.0000 0.33308  0.66622  0.04170  Biso   1.000  Ar
  Ne13     1.0000 0.33333  0.66667  0.54253  Biso   1.000  Ne
  He37     1.0000 0.31200  0.67914  0.54206  Biso   1.000  He
  He38     1.0000 0.38526  0.70552  0.54168  Biso   1.000  He
  He39     1.0000 0.31858  0.63204  0.54162  Biso   1.000  He
  Ar13     1.0000 0.33331  0.66667  0.54171  Biso   1.000  Ar
  Ne14     1.0000 0.66666  0.33333  0.70920  Biso   1.000  Ne
  He40     1.0000 0.70033  0.34801  0.70820  Biso   1.000  He
  He41     1.0000 0.64734  0.29934  0.70824  Biso   1.000  He
  He42     1.0000 0.65376  0.35477  0.70867  Biso   1.000  He
  Ar14     1.0000 0.66668  0.33335  0.70837  Biso   1.000  Ar
  Ne15     1.0000 0.33333  0.66666  0.79082  Biso   1.000  Ne
  He43     1.0000 0.37169  0.65356  0.79167  Biso   1.000  He
  He44     1.0000 0.27694  0.64239  0.79138  Biso   1.000  He
  He45     1.0000 0.36863  0.72674  0.79135  Biso   1.000  He
  Ar15     1.0000 0.33333  0.66665  0.79164  Biso   1.000  Ar
  Ne16     1.0000 0.00760  0.00529  0.87462  Biso   1.000  Ne
  He46     1.0000 0.97905  0.01288  0.87530  Biso   1.000  He
  He47     1.0000 0.05193  0.03886  0.87500  Biso   1.000  He
  He48     1.0000 0.98524  0.96539  0.87494  Biso   1.000  He
  Ar16     1.0000 0.99999  1.00000  0.87503  Biso   1.000  Ar
  Ne17     1.0000 0.00760  0.00529  0.87462  Biso   1.000  Ne
  He49     1.0000 0.97905  0.01288  0.87530  Biso   1.000  He
  He50     1.0000 0.05193  0.03886  0.87500  Biso   1.000  He
  He51     1.0000 0.98524  0.96539  0.87494  Biso   1.000  He
  Ar17     1.0000 0.99999  1.00000  0.87503  Biso   1.000  Ar
  Ne18     1.0000 0.00760  0.00529  0.87462  Biso   1.000  Ne
  He52     1.0000 0.97905  0.01288  0.87530  Biso   1.000  He
  He53     1.0000 0.05193  0.03886  0.87500  Biso   1.000  He
  He54     1.0000 0.98524  0.96539  0.87494  Biso   1.000  He
  Ar18     1.0000 0.99999  1.00000  0.87503  Biso   1.000  Ar
  Ne19     1.0000 0.00760  0.00529  0.87462  Biso   1.000  Ne
  He55     1.0000 0.97867  0.01249  0.87538  Biso   1.000  He
  He56     1.0000 0.05193  0.03886  0.87500  Biso   1.000  He
  He57     1.0000 0.98525  0.96539  0.87494  Biso   1.000  He
  Ar19     1.0000 0.99999  0.00000  0.87503  Biso   1.000  Ar
  Ne20     1.0000 0.00149  0.99693  0.62509  Biso   1.000  Ne
  He58     1.0000 0.03176  0.97579  0.62471  Biso   1.000  He
  He59     1.0000 0.94515  0.96920  0.62472  Biso   1.000  He
  He60     1.0000 0.03941  0.05246  0.62500  Biso   1.000  He
  Ar20     1.0000 0.99993  0.99997  0.62497  Biso   1.000  Ar
  Ne21     1.0000 0.00149  0.99693  0.62509  Biso   1.000  Ne
  He61     1.0000 0.03176  0.97579  0.62471  Biso   1.000  He
  He62     1.0000 0.94515  0.96920  0.62472  Biso   1.000  He
  He63     1.0000 0.03941  0.05246  0.62500  Biso   1.000  He
  Ar21     1.0000 0.99993  0.99997  0.62497  Biso   1.000  Ar
  Ne22     1.0000 0.00149  0.99693  0.62509  Biso   1.000  Ne
  He64     1.0000 0.03176  0.97579  0.62471  Biso   1.000  He
  He65     1.0000 0.94515  0.96920  0.62472  Biso   1.000  He
  He66     1.0000 0.03941  0.05246  0.62500  Biso   1.000  He
  Ar22     1.0000 0.99993  0.99997  0.62497  Biso   1.000  Ar
  Ne23     1.0000 0.00149  0.99693  0.62509  Biso   1.000  Ne
  He67     1.0000 0.03176  0.97579  0.62471  Biso   1.000  He
  He68     1.0000 0.94515  0.96920  0.62472  Biso   1.000  He
  He69     1.0000 0.03941  0.05246  0.62500  Biso   1.000  He
  Ar23     1.0000 0.99993  0.99997  0.62497  Biso   1.000  Ar
  Ne24     1.0000 0.66666  0.33333  0.95749  Biso   1.000  Ne
  He70     1.0000 0.69843  0.30914  0.95806  Biso   1.000  He
  He71     1.0000 0.70609  0.38581  0.95835  Biso   1.000  He
  He72     1.0000 0.61183  0.30255  0.95807  Biso   1.000  He
  Ar24     1.0000 0.66655  0.33328  0.95832  Biso   1.000  Ar
