data_image0
_cell_length_a       14.242
_cell_length_b       12.138
_cell_length_c       15.84
_cell_angle_alpha    90
_cell_angle_beta     91.97
_cell_angle_gamma    90

_symmetry_space_group_name_H-M    "P 1"
_symmetry_int_tables_number       1

loop_
  _symmetry_equiv_pos_as_xyz
  'x, y, z'

loop_
  _atom_site_label
  _atom_site_occupancy
  _atom_site_fract_x
  _atom_site_fract_y
  _atom_site_fract_z
  _atom_site_thermal_displace_type
  _atom_site_B_iso_or_equiv
  _atom_site_type_symbol
  C1       1.0000 0.36125  0.22928  0.16506  Biso   1.000  C
  N1       1.0000 0.28348  0.16337  0.16411  Biso   1.000  N
  N2       1.0000 0.28355  0.16337  0.16405  Biso   1.000  N
  O1       1.0000 0.37724  0.30293  0.11497  Biso   1.000  O
  N3       1.0000 0.41697  0.20143  0.23423  Biso   1.000  N
  O2       1.0000 0.37731  0.30293  0.11497  Biso   1.000  O
  N4       1.0000 0.41704  0.20143  0.23417  Biso   1.000  N
  C2       1.0000 0.20201  0.18372  0.10852  Biso   1.000  C
  C3       1.0000 0.28129  0.09170  0.23720  Biso   1.000  C
  C4       1.0000 0.36118  0.22928  0.16512  Biso   1.000  C
  C5       1.0000 0.20201  0.18372  0.10846  Biso   1.000  C
  C6       1.0000 0.28136  0.09170  0.23720  Biso   1.000  C
  C7       1.0000 0.37791  0.11303  0.28312  Biso   1.000  C
  C8       1.0000 0.37791  0.11303  0.28306  Biso   1.000  C
  C9       1.0000 0.50018  0.26314  0.26000  Biso   1.000  C
  C10      1.0000 0.50025  0.26314  0.26000  Biso   1.000  C
  N5       1.0000 0.19228  0.10348  0.04131  Biso   1.000  N
  H1       1.0000 0.20731  0.25812  0.08351  Biso   1.000  H
  H2       1.0000 0.14467  0.18248  0.14219  Biso   1.000  H
  N6       1.0000 0.19235  0.10348  0.04131  Biso   1.000  N
  H3       1.0000 0.20731  0.25812  0.08345  Biso   1.000  H
  H4       1.0000 0.14474  0.18248  0.14219  Biso   1.000  H
  H5       1.0000 0.22779  0.11007  0.27403  Biso   1.000  H
  H6       1.0000 0.22786  0.11007  0.27396  Biso   1.000  H
  N7       1.0000 0.28487  0.97520  0.21869  Biso   1.000  N
  N8       1.0000 0.28494  0.97520  0.21869  Biso   1.000  N
  N9       1.0000 0.42670  0.00824  0.27560  Biso   1.000  N
  H7       1.0000 0.37067  0.13462  0.34351  Biso   1.000  H
  N10      1.0000 0.42670  0.00824  0.27554  Biso   1.000  N
  H8       1.0000 0.37074  0.13462  0.34345  Biso   1.000  H
  N11      1.0000 0.58697  0.21338  0.23259  Biso   1.000  N
  H9       1.0000 0.49522  0.33861  0.23669  Biso   1.000  H
  H10      1.0000 0.50299  0.26907  0.32241  Biso   1.000  H
  N12      1.0000 0.58704  0.21338  0.23259  Biso   1.000  N
  H11      1.0000 0.50306  0.26907  0.32235  Biso   1.000  H
  C11      1.0000 0.14139  0.00058  0.04889  Biso   1.000  C
  C12      1.0000 0.14146  0.00058  0.04889  Biso   1.000  C
  C13      1.0000 0.20161  0.13363  0.95831  Biso   1.000  C
  C14      1.0000 0.20508  0.91251  0.18692  Biso   1.000  C
  C15      1.0000 0.36809  0.92668  0.24490  Biso   1.000  C
  C16      1.0000 0.20515  0.91251  0.18685  Biso   1.000  C
  C17      1.0000 0.36816  0.92668  0.24490  Biso   1.000  C
  C18      1.0000 0.51591  0.98484  0.31881  Biso   1.000  C
  C19      1.0000 0.51591  0.98484  0.31875  Biso   1.000  C
  C20      1.0000 0.63736  0.12852  0.27977  Biso   1.000  C
  C21      1.0000 0.63573  0.25194  0.16550  Biso   1.000  C
  C22      1.0000 0.63743  0.12852  0.27977  Biso   1.000  C
  H12      1.0000 0.07682  0.01293  0.06993  Biso   1.000  H
  H13      1.0000 0.07682  0.01293  0.06986  Biso   1.000  H
  C23      1.0000 0.13829  0.95493  0.95679  Biso   1.000  C
  C24      1.0000 0.13836  0.95493  0.95679  Biso   1.000  C
  N13      1.0000 0.19030  0.91490  0.09608  Biso   1.000  N
  N14      1.0000 0.16838  0.04902  0.90834  Biso   1.000  N
  O3       1.0000 0.23304  0.22079  0.93380  Biso   1.000  O
  N15      1.0000 0.16845  0.04902  0.90834  Biso   1.000  N
  O4       1.0000 0.23311  0.22079  0.93380  Biso   1.000  O
  H14      1.0000 0.21342  0.83482  0.20492  Biso   1.000  H
  H15      1.0000 0.14802  0.94093  0.21332  Biso   1.000  H
  H16      1.0000 0.21342  0.83482  0.20486  Biso   1.000  H
  H17      1.0000 0.14802  0.94093  0.21326  Biso   1.000  H
  O5       1.0000 0.38644  0.82806  0.24187  Biso   1.000  O
  N16      1.0000 0.59591  0.01920  0.27163  Biso   1.000  N
  H18      1.0000 0.51789  0.02257  0.37421  Biso   1.000  H
  N17      1.0000 0.59590  0.01920  0.27156  Biso   1.000  N
  H19      1.0000 0.51796  0.02257  0.37415  Biso   1.000  H
  H20      1.0000 0.52053  0.90451  0.32949  Biso   1.000  H
  H21      1.0000 0.64881  0.14978  0.34029  Biso   1.000  H
  C25      1.0000 0.73007  0.11789  0.23259  Biso   1.000  C
  C26      1.0000 0.73014  0.11789  0.23259  Biso   1.000  C
  O6       1.0000 0.61096  0.32724  0.11800  Biso   1.000  O
  N18      1.0000 0.71807  0.19534  0.16298  Biso   1.000  N
  O7       1.0000 0.61103  0.32724  0.11794  Biso   1.000  O
  N19      1.0000 0.71814  0.19534  0.16298  Biso   1.000  N
  N20      1.0000 0.20393  0.86307  0.96204  Biso   1.000  N
  H22      1.0000 0.07363  0.93030  0.93879  Biso   1.000  H
  C27      1.0000 0.22429  0.83391  0.04479  Biso   1.000  C
  C28      1.0000 0.22436  0.83391  0.04479  Biso   1.000  C
  C29      1.0000 0.18271  0.04943  0.81839  Biso   1.000  C
  C30      1.0000 0.65550  0.94620  0.23429  Biso   1.000  C
  C31      1.0000 0.65557  0.94620  0.23429  Biso   1.000  C
  N21      1.0000 0.73189  0.00387  0.20669  Biso   1.000  N
  N22      1.0000 0.73196  0.00387  0.20669  Biso   1.000  N
  H23      1.0000 0.78577  0.13693  0.26992  Biso   1.000  H
  H24      1.0000 0.78584  0.13693  0.26986  Biso   1.000  H
  C32      1.0000 0.79223  0.21832  0.10467  Biso   1.000  C
  C33      1.0000 0.20777  0.78168  0.89533  Biso   1.000  C
  C34      1.0000 0.20783  0.78168  0.89527  Biso   1.000  C
  O8       1.0000 0.26531  0.75111  0.06892  Biso   1.000  O
  N23      1.0000 0.26811  0.99613  0.79331  Biso   1.000  N
  N24      1.0000 0.26811  0.99613  0.79325  Biso   1.000  N
  H25      1.0000 0.12859  0.01244  0.78952  Biso   1.000  H
  H26      1.0000 0.18350  0.12679  0.79862  Biso   1.000  H
  H27      1.0000 0.12866  0.01244  0.78946  Biso   1.000  H
  H28      1.0000 0.18356  0.12679  0.79856  Biso   1.000  H
  O9       1.0000 0.64292  0.84684  0.22678  Biso   1.000  O
  O10      1.0000 0.64299  0.84684  0.22678  Biso   1.000  O
  C35      1.0000 0.81729  0.95057  0.18161  Biso   1.000  C
  C36      1.0000 0.81736  0.95057  0.18155  Biso   1.000  C
  N25      1.0000 0.79607  0.13693  0.03796  Biso   1.000  N
  H29      1.0000 0.85327  0.21989  0.13638  Biso   1.000  H
  H30      1.0000 0.78157  0.29189  0.07928  Biso   1.000  H
  N26      1.0000 0.79614  0.13693  0.03796  Biso   1.000  N
  H31      1.0000 0.85334  0.21989  0.13638  Biso   1.000  H
  H32      1.0000 0.78164  0.29189  0.07928  Biso   1.000  H
  N27      1.0000 0.28193  0.80466  0.83702  Biso   1.000  N
  H33      1.0000 0.14673  0.78011  0.86362  Biso   1.000  H
  H34      1.0000 0.21843  0.70811  0.92072  Biso   1.000  H
  N28      1.0000 0.28193  0.80466  0.83696  Biso   1.000  N
  H35      1.0000 0.14673  0.78011  0.86356  Biso   1.000  H
  H36      1.0000 0.21842  0.70811  0.92066  Biso   1.000  H
  C37      1.0000 0.26993  0.88211  0.76741  Biso   1.000  C
  C38      1.0000 0.26993  0.88211  0.76735  Biso   1.000  C
  C39      1.0000 0.34450  0.05380  0.76571  Biso   1.000  C
  N29      1.0000 0.83162  0.95098  0.09166  Biso   1.000  N
  H37      1.0000 0.87141  0.98756  0.21048  Biso   1.000  H
  H38      1.0000 0.81650  0.87321  0.20138  Biso   1.000  H
  C40      1.0000 0.86171  0.04507  0.04321  Biso   1.000  C
  C41      1.0000 0.77571  0.16609  0.95521  Biso   1.000  C
  C42      1.0000 0.77570  0.16609  0.95515  Biso   1.000  C
  C43      1.0000 0.36427  0.74806  0.83450  Biso   1.000  C
  C44      1.0000 0.36434  0.74806  0.83450  Biso   1.000  C
  C45      1.0000 0.36264  0.87148  0.72023  Biso   1.000  C
  H39      1.0000 0.21423  0.86307  0.73008  Biso   1.000  H
  C46      1.0000 0.36263  0.87148  0.72016  Biso   1.000  C
  N30      1.0000 0.40409  0.98080  0.72837  Biso   1.000  N
  N31      1.0000 0.40416  0.98080  0.72837  Biso   1.000  N
  O11      1.0000 0.35708  0.15316  0.77322  Biso   1.000  O
  C47      1.0000 0.79839  0.86637  0.04169  Biso   1.000  C
  C48      1.0000 0.79846  0.86637  0.04169  Biso   1.000  C
  H40      1.0000 0.92637  0.06970  0.06121  Biso   1.000  H
  H41      1.0000 0.92644  0.06970  0.06115  Biso   1.000  H
  C49      1.0000 0.85861  0.99942  0.95111  Biso   1.000  C
  O12      1.0000 0.73469  0.24889  0.93108  Biso   1.000  O
  N32      1.0000 0.80970  0.08510  0.90392  Biso   1.000  N
  N33      1.0000 0.80976  0.08510  0.90386  Biso   1.000  N
  O13      1.0000 0.38904  0.67276  0.88200  Biso   1.000  O
  N34      1.0000 0.41303  0.78662  0.76741  Biso   1.000  N
  N35      1.0000 0.41303  0.78662  0.76735  Biso   1.000  N
  H42      1.0000 0.35119  0.85022  0.65971  Biso   1.000  H
  H43      1.0000 0.35126  0.85022  0.65965  Biso   1.000  H
  C50      1.0000 0.48409  0.01516  0.68119  Biso   1.000  C
  C51      1.0000 0.48416  0.01516  0.68119  Biso   1.000  C
  N36      1.0000 0.80772  0.89652  0.95869  Biso   1.000  N
  N37      1.0000 0.80771  0.89652  0.95862  Biso   1.000  N
  O14      1.0000 0.76696  0.77921  0.06620  Biso   1.000  O
  O15      1.0000 0.76696  0.77921  0.06614  Biso   1.000  O
  H44      1.0000 0.92318  0.98707  0.93007  Biso   1.000  H
  H45      1.0000 0.92325  0.98707  0.93007  Biso   1.000  H
  C52      1.0000 0.79492  0.08749  0.81308  Biso   1.000  C
  C53      1.0000 0.49982  0.73686  0.74000  Biso   1.000  C
  N38      1.0000 0.57330  0.99176  0.72440  Biso   1.000  N
  H46      1.0000 0.48211  0.97743  0.62579  Biso   1.000  H
  H47      1.0000 0.47947  0.09549  0.67051  Biso   1.000  H
  H48      1.0000 0.47954  0.09549  0.67045  Biso   1.000  H
  C54      1.0000 0.79799  0.81628  0.89148  Biso   1.000  C
  C55      1.0000 0.79806  0.81628  0.89148  Biso   1.000  C
  N39      1.0000 0.71513  0.02480  0.78131  Biso   1.000  N
  N40      1.0000 0.71513  0.02480  0.78125  Biso   1.000  N
  H49      1.0000 0.78658  0.16518  0.79508  Biso   1.000  H
  H50      1.0000 0.85198  0.05907  0.78668  Biso   1.000  H
  H51      1.0000 0.78665  0.16518  0.79508  Biso   1.000  H
  H52      1.0000 0.85205  0.05907  0.78668  Biso   1.000  H
  N41      1.0000 0.58303  0.79857  0.76577  Biso   1.000  N
  H53      1.0000 0.50478  0.66139  0.76331  Biso   1.000  H
  H54      1.0000 0.49701  0.73093  0.67759  Biso   1.000  H
  H55      1.0000 0.50485  0.66139  0.76331  Biso   1.000  H
  C56      1.0000 0.62209  0.88697  0.71688  Biso   1.000  C
  C57      1.0000 0.62216  0.88697  0.71688  Biso   1.000  C
  C58      1.0000 0.63191  0.07332  0.75510  Biso   1.000  C
  N42      1.0000 0.71652  0.83663  0.83589  Biso   1.000  N
  H56      1.0000 0.79269  0.74188  0.91649  Biso   1.000  H
  H57      1.0000 0.85533  0.81752  0.85781  Biso   1.000  H
  H58      1.0000 0.79276  0.74188  0.91649  Biso   1.000  H
  C59      1.0000 0.71871  0.90830  0.76280  Biso   1.000  C
  C60      1.0000 0.63882  0.77072  0.83488  Biso   1.000  C
  H59      1.0000 0.62933  0.86538  0.65649  Biso   1.000  H
  O16      1.0000 0.61356  0.17194  0.75813  Biso   1.000  O
  O17      1.0000 0.61363  0.17194  0.75806  Biso   1.000  O
  H60      1.0000 0.77221  0.88993  0.72597  Biso   1.000  H
  O18      1.0000 0.62276  0.69707  0.88503  Biso   1.000  O
  C61      1.0000 0.36125  0.22928  0.16506  Biso   1.000  C
  N43      1.0000 0.28348  0.16337  0.16411  Biso   1.000  N
  N44      1.0000 0.28355  0.16337  0.16405  Biso   1.000  N
  O19      1.0000 0.37724  0.30293  0.11497  Biso   1.000  O
  N45      1.0000 0.41697  0.20143  0.23423  Biso   1.000  N
  O20      1.0000 0.37731  0.30293  0.11497  Biso   1.000  O
  N46      1.0000 0.41704  0.20143  0.23417  Biso   1.000  N
  C62      1.0000 0.20201  0.18372  0.10852  Biso   1.000  C
  C63      1.0000 0.28129  0.09170  0.23720  Biso   1.000  C
  C64      1.0000 0.36118  0.22928  0.16512  Biso   1.000  C
  C65      1.0000 0.20201  0.18372  0.10846  Biso   1.000  C
  C66      1.0000 0.28136  0.09170  0.23720  Biso   1.000  C
  C67      1.0000 0.37791  0.11303  0.28312  Biso   1.000  C
  C68      1.0000 0.37791  0.11303  0.28306  Biso   1.000  C
  C69      1.0000 0.50018  0.26314  0.26000  Biso   1.000  C
  C70      1.0000 0.50025  0.26314  0.26000  Biso   1.000  C
  N47      1.0000 0.19228  0.10348  0.04131  Biso   1.000  N
  H61      1.0000 0.20731  0.25812  0.08351  Biso   1.000  H
  H62      1.0000 0.14467  0.18248  0.14219  Biso   1.000  H
  N48      1.0000 0.19235  0.10348  0.04131  Biso   1.000  N
  H63      1.0000 0.20731  0.25812  0.08345  Biso   1.000  H
  H64      1.0000 0.14474  0.18248  0.14219  Biso   1.000  H
  H65      1.0000 0.22779  0.11007  0.27403  Biso   1.000  H
  H66      1.0000 0.22786  0.11007  0.27396  Biso   1.000  H
  N49      1.0000 0.28487  0.97520  0.21869  Biso   1.000  N
  N50      1.0000 0.28494  0.97520  0.21869  Biso   1.000  N
  N51      1.0000 0.42670  0.00824  0.27560  Biso   1.000  N
  H67      1.0000 0.37067  0.13462  0.34351  Biso   1.000  H
  N52      1.0000 0.42670  0.00824  0.27554  Biso   1.000  N
  H68      1.0000 0.37074  0.13462  0.34345  Biso   1.000  H
  H69      1.0000 0.49522  0.33861  0.23669  Biso   1.000  H
  N53      1.0000 0.58697  0.21338  0.23259  Biso   1.000  N
  H70      1.0000 0.50299  0.26907  0.32241  Biso   1.000  H
  N54      1.0000 0.58704  0.21338  0.23259  Biso   1.000  N
  H71      1.0000 0.50306  0.26907  0.32235  Biso   1.000  H
  C71      1.0000 0.14139  0.00058  0.04889  Biso   1.000  C
  C72      1.0000 0.14146  0.00058  0.04889  Biso   1.000  C
  C73      1.0000 0.20161  0.13363  0.95831  Biso   1.000  C
  C74      1.0000 0.20508  0.91251  0.18692  Biso   1.000  C
  C75      1.0000 0.36809  0.92668  0.24490  Biso   1.000  C
  C76      1.0000 0.20515  0.91251  0.18685  Biso   1.000  C
  C77      1.0000 0.36816  0.92668  0.24490  Biso   1.000  C
  C78      1.0000 0.51591  0.98484  0.31881  Biso   1.000  C
  C79      1.0000 0.51591  0.98484  0.31875  Biso   1.000  C
  C80      1.0000 0.63573  0.25194  0.16550  Biso   1.000  C
  C81      1.0000 0.63736  0.12852  0.27977  Biso   1.000  C
  C82      1.0000 0.63743  0.12852  0.27977  Biso   1.000  C
  H72      1.0000 0.07682  0.01293  0.06993  Biso   1.000  H
  H73      1.0000 0.07682  0.01293  0.06986  Biso   1.000  H
  C83      1.0000 0.13829  0.95493  0.95679  Biso   1.000  C
  C84      1.0000 0.13836  0.95493  0.95679  Biso   1.000  C
  N55      1.0000 0.19030  0.91490  0.09608  Biso   1.000  N
  N56      1.0000 0.16838  0.04902  0.90834  Biso   1.000  N
  O21      1.0000 0.23304  0.22079  0.93380  Biso   1.000  O
  N57      1.0000 0.16845  0.04902  0.90834  Biso   1.000  N
  O22      1.0000 0.23311  0.22079  0.93380  Biso   1.000  O
  H74      1.0000 0.21342  0.83482  0.20492  Biso   1.000  H
  H75      1.0000 0.14802  0.94093  0.21332  Biso   1.000  H
  H76      1.0000 0.21342  0.83482  0.20486  Biso   1.000  H
  H77      1.0000 0.14802  0.94093  0.21326  Biso   1.000  H
  O23      1.0000 0.38644  0.82806  0.24187  Biso   1.000  O
  N58      1.0000 0.59591  0.01920  0.27163  Biso   1.000  N
  H78      1.0000 0.51789  0.02257  0.37421  Biso   1.000  H
  N59      1.0000 0.59590  0.01920  0.27156  Biso   1.000  N
  H79      1.0000 0.51796  0.02257  0.37415  Biso   1.000  H
  H80      1.0000 0.52053  0.90451  0.32949  Biso   1.000  H
  O24      1.0000 0.61096  0.32724  0.11800  Biso   1.000  O
  N60      1.0000 0.71807  0.19534  0.16298  Biso   1.000  N
  O25      1.0000 0.61103  0.32724  0.11794  Biso   1.000  O
  N61      1.0000 0.71814  0.19534  0.16298  Biso   1.000  N
  H81      1.0000 0.64881  0.14978  0.34029  Biso   1.000  H
  C85      1.0000 0.73007  0.11789  0.23259  Biso   1.000  C
  C86      1.0000 0.73014  0.11789  0.23259  Biso   1.000  C
  N62      1.0000 0.20393  0.86307  0.96204  Biso   1.000  N
  H82      1.0000 0.07363  0.93030  0.93879  Biso   1.000  H
  C87      1.0000 0.22429  0.83391  0.04479  Biso   1.000  C
  C88      1.0000 0.22436  0.83391  0.04479  Biso   1.000  C
  C89      1.0000 0.18271  0.04943  0.81839  Biso   1.000  C
  C90      1.0000 0.65550  0.94620  0.23429  Biso   1.000  C
  C91      1.0000 0.65557  0.94620  0.23429  Biso   1.000  C
  C92      1.0000 0.79223  0.21832  0.10467  Biso   1.000  C
  N63      1.0000 0.73189  0.00387  0.20669  Biso   1.000  N
  N64      1.0000 0.73196  0.00387  0.20669  Biso   1.000  N
  H83      1.0000 0.78577  0.13693  0.26992  Biso   1.000  H
  H84      1.0000 0.78584  0.13693  0.26986  Biso   1.000  H
  C93      1.0000 0.20777  0.78168  0.89533  Biso   1.000  C
  C94      1.0000 0.20783  0.78168  0.89527  Biso   1.000  C
  O26      1.0000 0.26531  0.75111  0.06892  Biso   1.000  O
  N65      1.0000 0.26811  0.99613  0.79331  Biso   1.000  N
  N66      1.0000 0.26811  0.99613  0.79325  Biso   1.000  N
  H85      1.0000 0.12859  0.01244  0.78952  Biso   1.000  H
  H86      1.0000 0.18350  0.12679  0.79862  Biso   1.000  H
  H87      1.0000 0.12866  0.01244  0.78946  Biso   1.000  H
  H88      1.0000 0.18356  0.12679  0.79856  Biso   1.000  H
  O27      1.0000 0.64292  0.84684  0.22678  Biso   1.000  O
  O28      1.0000 0.64299  0.84684  0.22678  Biso   1.000  O
  N67      1.0000 0.79607  0.13693  0.03796  Biso   1.000  N
  H89      1.0000 0.85327  0.21989  0.13638  Biso   1.000  H
  H90      1.0000 0.78157  0.29189  0.07928  Biso   1.000  H
  N68      1.0000 0.79614  0.13693  0.03796  Biso   1.000  N
  H91      1.0000 0.85334  0.21989  0.13638  Biso   1.000  H
  H92      1.0000 0.78164  0.29189  0.07928  Biso   1.000  H
  C95      1.0000 0.81729  0.95057  0.18161  Biso   1.000  C
  C96      1.0000 0.81736  0.95057  0.18155  Biso   1.000  C
  N69      1.0000 0.28193  0.80466  0.83702  Biso   1.000  N
  H93      1.0000 0.14673  0.78011  0.86362  Biso   1.000  H
  H94      1.0000 0.21843  0.70811  0.92072  Biso   1.000  H
  N70      1.0000 0.28193  0.80466  0.83696  Biso   1.000  N
  H95      1.0000 0.14673  0.78011  0.86356  Biso   1.000  H
  H96      1.0000 0.21842  0.70811  0.92066  Biso   1.000  H
  C97      1.0000 0.26993  0.88211  0.76741  Biso   1.000  C
  C98      1.0000 0.26993  0.88211  0.76735  Biso   1.000  C
  C99      1.0000 0.34450  0.05380  0.76571  Biso   1.000  C
  C100     1.0000 0.86171  0.04507  0.04321  Biso   1.000  C
  C101     1.0000 0.77571  0.16609  0.95521  Biso   1.000  C
  C102     1.0000 0.77570  0.16609  0.95515  Biso   1.000  C
  N71      1.0000 0.83162  0.95098  0.09166  Biso   1.000  N
  H97      1.0000 0.87141  0.98756  0.21048  Biso   1.000  H
  H98      1.0000 0.81650  0.87321  0.20138  Biso   1.000  H
  C103     1.0000 0.36427  0.74806  0.83450  Biso   1.000  C
  C104     1.0000 0.36434  0.74806  0.83450  Biso   1.000  C
  C105     1.0000 0.36264  0.87148  0.72023  Biso   1.000  C
  H99      1.0000 0.21423  0.86307  0.73008  Biso   1.000  H
  C106     1.0000 0.36263  0.87148  0.72016  Biso   1.000  C
  N72      1.0000 0.40409  0.98080  0.72837  Biso   1.000  N
  N73      1.0000 0.40416  0.98080  0.72837  Biso   1.000  N
  O29      1.0000 0.35708  0.15316  0.77322  Biso   1.000  O
  H100     1.0000 0.92637  0.06970  0.06121  Biso   1.000  H
  H101     1.0000 0.92644  0.06970  0.06115  Biso   1.000  H
  C107     1.0000 0.85861  0.99942  0.95111  Biso   1.000  C
  O30      1.0000 0.73469  0.24889  0.93108  Biso   1.000  O
  N74      1.0000 0.80970  0.08510  0.90392  Biso   1.000  N
  N75      1.0000 0.80976  0.08510  0.90386  Biso   1.000  N
  C108     1.0000 0.79839  0.86637  0.04169  Biso   1.000  C
  C109     1.0000 0.79846  0.86637  0.04169  Biso   1.000  C
  O31      1.0000 0.38904  0.67276  0.88200  Biso   1.000  O
  N76      1.0000 0.41303  0.78662  0.76741  Biso   1.000  N
  N77      1.0000 0.41303  0.78662  0.76735  Biso   1.000  N
  H102     1.0000 0.35119  0.85022  0.65971  Biso   1.000  H
  H103     1.0000 0.35126  0.85022  0.65965  Biso   1.000  H
  C110     1.0000 0.48409  0.01516  0.68119  Biso   1.000  C
  C111     1.0000 0.48416  0.01516  0.68119  Biso   1.000  C
  N78      1.0000 0.80772  0.89652  0.95869  Biso   1.000  N
  N79      1.0000 0.80771  0.89652  0.95862  Biso   1.000  N
  H104     1.0000 0.92318  0.98707  0.93007  Biso   1.000  H
  H105     1.0000 0.92325  0.98707  0.93007  Biso   1.000  H
  C112     1.0000 0.79492  0.08749  0.81308  Biso   1.000  C
  O32      1.0000 0.76696  0.77921  0.06620  Biso   1.000  O
  O33      1.0000 0.76696  0.77921  0.06614  Biso   1.000  O
  C113     1.0000 0.49982  0.73686  0.74000  Biso   1.000  C
  N80      1.0000 0.57330  0.99176  0.72440  Biso   1.000  N
  H106     1.0000 0.48211  0.97743  0.62579  Biso   1.000  H
  H107     1.0000 0.47947  0.09549  0.67051  Biso   1.000  H
  H108     1.0000 0.47954  0.09549  0.67045  Biso   1.000  H
  C114     1.0000 0.79799  0.81628  0.89148  Biso   1.000  C
  C115     1.0000 0.79806  0.81628  0.89148  Biso   1.000  C
  N81      1.0000 0.71513  0.02480  0.78131  Biso   1.000  N
  N82      1.0000 0.71513  0.02480  0.78125  Biso   1.000  N
  H109     1.0000 0.78658  0.16518  0.79508  Biso   1.000  H
  H110     1.0000 0.85198  0.05907  0.78668  Biso   1.000  H
  H111     1.0000 0.78665  0.16518  0.79508  Biso   1.000  H
  H112     1.0000 0.85205  0.05907  0.78668  Biso   1.000  H
  N83      1.0000 0.58303  0.79857  0.76577  Biso   1.000  N
  H113     1.0000 0.50478  0.66139  0.76331  Biso   1.000  H
  H114     1.0000 0.49701  0.73093  0.67759  Biso   1.000  H
  H115     1.0000 0.50485  0.66139  0.76331  Biso   1.000  H
  C116     1.0000 0.62209  0.88697  0.71688  Biso   1.000  C
  C117     1.0000 0.62216  0.88697  0.71688  Biso   1.000  C
  C118     1.0000 0.63191  0.07332  0.75510  Biso   1.000  C
  N84      1.0000 0.71652  0.83663  0.83589  Biso   1.000  N
  H116     1.0000 0.79269  0.74188  0.91649  Biso   1.000  H
  H117     1.0000 0.85533  0.81752  0.85781  Biso   1.000  H
  H118     1.0000 0.79276  0.74188  0.91649  Biso   1.000  H
  C119     1.0000 0.71871  0.90830  0.76280  Biso   1.000  C
  C120     1.0000 0.63882  0.77072  0.83488  Biso   1.000  C
  H119     1.0000 0.62933  0.86538  0.65649  Biso   1.000  H
  O34      1.0000 0.61356  0.17194  0.75813  Biso   1.000  O
  O35      1.0000 0.61363  0.17194  0.75806  Biso   1.000  O
  H120     1.0000 0.77221  0.88993  0.72597  Biso   1.000  H
  O36      1.0000 0.62276  0.69707  0.88503  Biso   1.000  O
  C121     1.0000 0.36125  0.22928  0.16506  Biso   1.000  C
  N85      1.0000 0.41697  0.20143  0.23423  Biso   1.000  N
  N86      1.0000 0.41704  0.20143  0.23417  Biso   1.000  N
  O37      1.0000 0.37724  0.30293  0.11497  Biso   1.000  O
  N87      1.0000 0.28348  0.16337  0.16411  Biso   1.000  N
  O38      1.0000 0.37731  0.30293  0.11497  Biso   1.000  O
  N88      1.0000 0.28355  0.16337  0.16405  Biso   1.000  N
  C122     1.0000 0.50018  0.26314  0.26000  Biso   1.000  C
  C123     1.0000 0.50025  0.26314  0.26000  Biso   1.000  C
  C124     1.0000 0.37791  0.11303  0.28312  Biso   1.000  C
  C125     1.0000 0.36118  0.22928  0.16512  Biso   1.000  C
  C126     1.0000 0.37791  0.11303  0.28306  Biso   1.000  C
  C127     1.0000 0.28129  0.09170  0.23720  Biso   1.000  C
  C128     1.0000 0.28136  0.09170  0.23720  Biso   1.000  C
  C129     1.0000 0.20201  0.18372  0.10852  Biso   1.000  C
  C130     1.0000 0.20201  0.18372  0.10846  Biso   1.000  C
  N89      1.0000 0.58697  0.21338  0.23259  Biso   1.000  N
  N90      1.0000 0.58704  0.21338  0.23259  Biso   1.000  N
  H121     1.0000 0.49522  0.33861  0.23669  Biso   1.000  H
  H122     1.0000 0.50299  0.26907  0.32241  Biso   1.000  H
  H123     1.0000 0.50306  0.26907  0.32235  Biso   1.000  H
  N91      1.0000 0.42670  0.00824  0.27560  Biso   1.000  N
  H124     1.0000 0.37067  0.13462  0.34351  Biso   1.000  H
  N92      1.0000 0.42670  0.00824  0.27554  Biso   1.000  N
  H125     1.0000 0.37074  0.13462  0.34345  Biso   1.000  H
  N93      1.0000 0.28487  0.97520  0.21869  Biso   1.000  N
  N94      1.0000 0.28494  0.97520  0.21869  Biso   1.000  N
  H126     1.0000 0.22779  0.11007  0.27403  Biso   1.000  H
  H127     1.0000 0.22786  0.11007  0.27396  Biso   1.000  H
  N95      1.0000 0.19228  0.10348  0.04131  Biso   1.000  N
  H128     1.0000 0.20731  0.25812  0.08351  Biso   1.000  H
  H129     1.0000 0.14467  0.18248  0.14219  Biso   1.000  H
  N96      1.0000 0.19235  0.10348  0.04131  Biso   1.000  N
  H130     1.0000 0.20731  0.25812  0.08345  Biso   1.000  H
  H131     1.0000 0.14474  0.18248  0.14219  Biso   1.000  H
  C131     1.0000 0.63573  0.25194  0.16550  Biso   1.000  C
  C132     1.0000 0.63736  0.12852  0.27977  Biso   1.000  C
  C133     1.0000 0.63743  0.12852  0.27977  Biso   1.000  C
  C134     1.0000 0.51591  0.98484  0.31881  Biso   1.000  C
  C135     1.0000 0.51591  0.98484  0.31875  Biso   1.000  C
  C136     1.0000 0.36809  0.92668  0.24490  Biso   1.000  C
  C137     1.0000 0.36816  0.92668  0.24490  Biso   1.000  C
  C138     1.0000 0.20508  0.91251  0.18692  Biso   1.000  C
  C139     1.0000 0.20515  0.91251  0.18685  Biso   1.000  C
  C140     1.0000 0.20161  0.13363  0.95831  Biso   1.000  C
  C141     1.0000 0.14139  0.00058  0.04889  Biso   1.000  C
  C142     1.0000 0.14146  0.00058  0.04889  Biso   1.000  C
  O39      1.0000 0.61096  0.32724  0.11800  Biso   1.000  O
  N97      1.0000 0.71807  0.19534  0.16298  Biso   1.000  N
  O40      1.0000 0.61103  0.32724  0.11794  Biso   1.000  O
  N98      1.0000 0.71814  0.19534  0.16298  Biso   1.000  N
  C143     1.0000 0.73007  0.11789  0.23259  Biso   1.000  C
  C144     1.0000 0.73014  0.11789  0.23259  Biso   1.000  C
  H132     1.0000 0.64881  0.14978  0.34029  Biso   1.000  H
  N99      1.0000 0.59591  0.01920  0.27163  Biso   1.000  N
  N100     1.0000 0.59590  0.01920  0.27156  Biso   1.000  N
  H133     1.0000 0.52053  0.90451  0.32949  Biso   1.000  H
  H134     1.0000 0.51789  0.02257  0.37421  Biso   1.000  H
  H135     1.0000 0.51796  0.02257  0.37415  Biso   1.000  H
  O41      1.0000 0.38644  0.82806  0.24187  Biso   1.000  O
  N101     1.0000 0.19030  0.91490  0.09608  Biso   1.000  N
  H136     1.0000 0.21342  0.83482  0.20492  Biso   1.000  H
  H137     1.0000 0.14802  0.94093  0.21332  Biso   1.000  H
  H138     1.0000 0.21342  0.83482  0.20486  Biso   1.000  H
  H139     1.0000 0.14802  0.94093  0.21326  Biso   1.000  H
  N102     1.0000 0.16838  0.04902  0.90834  Biso   1.000  N
  O42      1.0000 0.23304  0.22079  0.93380  Biso   1.000  O
  N103     1.0000 0.16845  0.04902  0.90834  Biso   1.000  N
  O43      1.0000 0.23311  0.22079  0.93380  Biso   1.000  O
  C145     1.0000 0.13829  0.95493  0.95679  Biso   1.000  C
  C146     1.0000 0.13836  0.95493  0.95679  Biso   1.000  C
  H140     1.0000 0.07682  0.01293  0.06993  Biso   1.000  H
  H141     1.0000 0.07682  0.01293  0.06986  Biso   1.000  H
  C147     1.0000 0.79223  0.21832  0.10467  Biso   1.000  C
  N104     1.0000 0.73189  0.00387  0.20669  Biso   1.000  N
  H142     1.0000 0.78577  0.13693  0.26992  Biso   1.000  H
  N105     1.0000 0.73196  0.00387  0.20669  Biso   1.000  N
  H143     1.0000 0.78584  0.13693  0.26986  Biso   1.000  H
  C148     1.0000 0.65550  0.94620  0.23429  Biso   1.000  C
  C149     1.0000 0.65557  0.94620  0.23429  Biso   1.000  C
  C150     1.0000 0.22429  0.83391  0.04479  Biso   1.000  C
  C151     1.0000 0.22436  0.83391  0.04479  Biso   1.000  C
  C152     1.0000 0.18271  0.04943  0.81839  Biso   1.000  C
  N106     1.0000 0.20393  0.86307  0.96204  Biso   1.000  N
  H144     1.0000 0.07363  0.93030  0.93879  Biso   1.000  H
  N107     1.0000 0.79607  0.13693  0.03796  Biso   1.000  N
  H145     1.0000 0.85327  0.21989  0.13638  Biso   1.000  H
  H146     1.0000 0.78157  0.29189  0.07928  Biso   1.000  H
  N108     1.0000 0.79614  0.13693  0.03796  Biso   1.000  N
  H147     1.0000 0.85334  0.21989  0.13638  Biso   1.000  H
  H148     1.0000 0.78164  0.29189  0.07928  Biso   1.000  H
  C153     1.0000 0.81729  0.95057  0.18161  Biso   1.000  C
  C154     1.0000 0.81736  0.95057  0.18155  Biso   1.000  C
  O44      1.0000 0.64292  0.84684  0.22678  Biso   1.000  O
  O45      1.0000 0.64299  0.84684  0.22678  Biso   1.000  O
  O46      1.0000 0.26531  0.75111  0.06892  Biso   1.000  O
  N109     1.0000 0.26811  0.99613  0.79331  Biso   1.000  N
  N110     1.0000 0.26811  0.99613  0.79325  Biso   1.000  N
  H149     1.0000 0.12859  0.01244  0.78952  Biso   1.000  H
  H150     1.0000 0.18350  0.12679  0.79862  Biso   1.000  H
  H151     1.0000 0.12866  0.01244  0.78946  Biso   1.000  H
  H152     1.0000 0.18356  0.12679  0.79856  Biso   1.000  H
  C155     1.0000 0.20777  0.78168  0.89533  Biso   1.000  C
  C156     1.0000 0.20783  0.78168  0.89527  Biso   1.000  C
  C157     1.0000 0.86171  0.04507  0.04321  Biso   1.000  C
  C158     1.0000 0.77571  0.16609  0.95521  Biso   1.000  C
  C159     1.0000 0.77570  0.16609  0.95515  Biso   1.000  C
  N111     1.0000 0.83162  0.95098  0.09166  Biso   1.000  N
  H153     1.0000 0.87141  0.98756  0.21048  Biso   1.000  H
  H154     1.0000 0.81650  0.87321  0.20138  Biso   1.000  H
  C160     1.0000 0.26993  0.88211  0.76741  Biso   1.000  C
  C161     1.0000 0.26993  0.88211  0.76735  Biso   1.000  C
  C162     1.0000 0.34450  0.05380  0.76571  Biso   1.000  C
  N112     1.0000 0.28193  0.80466  0.83702  Biso   1.000  N
  H155     1.0000 0.14673  0.78011  0.86362  Biso   1.000  H
  H156     1.0000 0.21843  0.70811  0.92072  Biso   1.000  H
  N113     1.0000 0.28193  0.80466  0.83696  Biso   1.000  N
  H157     1.0000 0.14673  0.78011  0.86356  Biso   1.000  H
  H158     1.0000 0.21842  0.70811  0.92066  Biso   1.000  H
  C163     1.0000 0.85861  0.99942  0.95111  Biso   1.000  C
  H159     1.0000 0.92637  0.06970  0.06121  Biso   1.000  H
  H160     1.0000 0.92644  0.06970  0.06115  Biso   1.000  H
  O47      1.0000 0.73469  0.24889  0.93108  Biso   1.000  O
  N114     1.0000 0.80970  0.08510  0.90392  Biso   1.000  N
  N115     1.0000 0.80976  0.08510  0.90386  Biso   1.000  N
  C164     1.0000 0.79839  0.86637  0.04169  Biso   1.000  C
  C165     1.0000 0.79846  0.86637  0.04169  Biso   1.000  C
  C166     1.0000 0.36264  0.87148  0.72023  Biso   1.000  C
  C167     1.0000 0.36263  0.87148  0.72016  Biso   1.000  C
  H161     1.0000 0.21423  0.86307  0.73008  Biso   1.000  H
  N116     1.0000 0.40409  0.98080  0.72837  Biso   1.000  N
  N117     1.0000 0.40416  0.98080  0.72837  Biso   1.000  N
  O48      1.0000 0.35708  0.15316  0.77322  Biso   1.000  O
  C168     1.0000 0.36427  0.74806  0.83450  Biso   1.000  C
  C169     1.0000 0.36434  0.74806  0.83450  Biso   1.000  C
  N118     1.0000 0.80772  0.89652  0.95869  Biso   1.000  N
  H162     1.0000 0.92318  0.98707  0.93007  Biso   1.000  H
  N119     1.0000 0.80771  0.89652  0.95862  Biso   1.000  N
  H163     1.0000 0.92325  0.98707  0.93007  Biso   1.000  H
  C170     1.0000 0.79492  0.08749  0.81308  Biso   1.000  C
  O49      1.0000 0.76696  0.77921  0.06620  Biso   1.000  O
  O50      1.0000 0.76696  0.77921  0.06614  Biso   1.000  O
  N120     1.0000 0.41303  0.78662  0.76741  Biso   1.000  N
  N121     1.0000 0.41303  0.78662  0.76735  Biso   1.000  N
  H164     1.0000 0.35119  0.85022  0.65971  Biso   1.000  H
  H165     1.0000 0.35126  0.85022  0.65965  Biso   1.000  H
  C171     1.0000 0.48409  0.01516  0.68119  Biso   1.000  C
  C172     1.0000 0.48416  0.01516  0.68119  Biso   1.000  C
  O51      1.0000 0.38904  0.67276  0.88200  Biso   1.000  O
  C173     1.0000 0.79799  0.81628  0.89148  Biso   1.000  C
  C174     1.0000 0.79806  0.81628  0.89148  Biso   1.000  C
  N122     1.0000 0.71513  0.02480  0.78131  Biso   1.000  N
  H166     1.0000 0.78658  0.16518  0.79508  Biso   1.000  H
  H167     1.0000 0.85198  0.05907  0.78668  Biso   1.000  H
  N123     1.0000 0.71513  0.02480  0.78125  Biso   1.000  N
  H168     1.0000 0.78665  0.16518  0.79508  Biso   1.000  H
  H169     1.0000 0.85205  0.05907  0.78668  Biso   1.000  H
  C175     1.0000 0.49982  0.73686  0.74000  Biso   1.000  C
  N124     1.0000 0.57330  0.99176  0.72440  Biso   1.000  N
  H170     1.0000 0.48211  0.97743  0.62579  Biso   1.000  H
  H171     1.0000 0.47947  0.09549  0.67051  Biso   1.000  H
  H172     1.0000 0.47954  0.09549  0.67045  Biso   1.000  H
  N125     1.0000 0.71652  0.83663  0.83589  Biso   1.000  N
  H173     1.0000 0.79269  0.74188  0.91649  Biso   1.000  H
  H174     1.0000 0.85533  0.81752  0.85781  Biso   1.000  H
  H175     1.0000 0.79276  0.74188  0.91649  Biso   1.000  H
  C176     1.0000 0.71871  0.90830  0.76280  Biso   1.000  C
  C177     1.0000 0.63191  0.07332  0.75510  Biso   1.000  C
  N126     1.0000 0.58303  0.79857  0.76577  Biso   1.000  N
  H176     1.0000 0.50478  0.66139  0.76331  Biso   1.000  H
  H177     1.0000 0.49701  0.73093  0.67759  Biso   1.000  H
  H178     1.0000 0.50485  0.66139  0.76331  Biso   1.000  H
  C178     1.0000 0.62209  0.88697  0.71688  Biso   1.000  C
  C179     1.0000 0.62216  0.88697  0.71688  Biso   1.000  C
  C180     1.0000 0.63882  0.77072  0.83488  Biso   1.000  C
  H179     1.0000 0.77221  0.88993  0.72597  Biso   1.000  H
  O52      1.0000 0.61356  0.17194  0.75813  Biso   1.000  O
  O53      1.0000 0.61363  0.17194  0.75806  Biso   1.000  O
  H180     1.0000 0.62933  0.86538  0.65649  Biso   1.000  H
  O54      1.0000 0.62276  0.69707  0.88503  Biso   1.000  O
  C181     1.0000 0.36125  0.22928  0.16506  Biso   1.000  C
  N127     1.0000 0.41697  0.20143  0.23423  Biso   1.000  N
  N128     1.0000 0.41704  0.20143  0.23417  Biso   1.000  N
  O55      1.0000 0.37724  0.30293  0.11497  Biso   1.000  O
  N129     1.0000 0.28348  0.16337  0.16411  Biso   1.000  N
  O56      1.0000 0.37731  0.30293  0.11497  Biso   1.000  O
  N130     1.0000 0.28355  0.16337  0.16405  Biso   1.000  N
  C182     1.0000 0.50018  0.26314  0.26000  Biso   1.000  C
  C183     1.0000 0.50025  0.26314  0.26000  Biso   1.000  C
  C184     1.0000 0.37791  0.11303  0.28312  Biso   1.000  C
  C185     1.0000 0.36118  0.22928  0.16512  Biso   1.000  C
  C186     1.0000 0.37791  0.11303  0.28306  Biso   1.000  C
  C187     1.0000 0.28129  0.09170  0.23720  Biso   1.000  C
  C188     1.0000 0.28136  0.09170  0.23720  Biso   1.000  C
  C189     1.0000 0.20201  0.18372  0.10852  Biso   1.000  C
  C190     1.0000 0.20201  0.18372  0.10846  Biso   1.000  C
  N131     1.0000 0.58697  0.21338  0.23259  Biso   1.000  N
  N132     1.0000 0.58704  0.21338  0.23259  Biso   1.000  N
  H181     1.0000 0.49522  0.33861  0.23669  Biso   1.000  H
  H182     1.0000 0.50299  0.26907  0.32241  Biso   1.000  H
  H183     1.0000 0.50306  0.26907  0.32235  Biso   1.000  H
  N133     1.0000 0.42670  0.00824  0.27560  Biso   1.000  N
  H184     1.0000 0.37067  0.13462  0.34351  Biso   1.000  H
  N134     1.0000 0.42670  0.00824  0.27554  Biso   1.000  N
  H185     1.0000 0.37074  0.13462  0.34345  Biso   1.000  H
  N135     1.0000 0.28487  0.97520  0.21869  Biso   1.000  N
  N136     1.0000 0.28494  0.97520  0.21869  Biso   1.000  N
  H186     1.0000 0.22779  0.11007  0.27403  Biso   1.000  H
  H187     1.0000 0.22786  0.11007  0.27396  Biso   1.000  H
  N137     1.0000 0.19228  0.10348  0.04131  Biso   1.000  N
  H188     1.0000 0.20731  0.25812  0.08351  Biso   1.000  H
  H189     1.0000 0.14467  0.18248  0.14219  Biso   1.000  H
  N138     1.0000 0.19235  0.10348  0.04131  Biso   1.000  N
  H190     1.0000 0.20731  0.25812  0.08345  Biso   1.000  H
  H191     1.0000 0.14474  0.18248  0.14219  Biso   1.000  H
  C191     1.0000 0.63573  0.25194  0.16550  Biso   1.000  C
  C192     1.0000 0.63736  0.12852  0.27977  Biso   1.000  C
  C193     1.0000 0.63743  0.12852  0.27977  Biso   1.000  C
  C194     1.0000 0.51591  0.98484  0.31881  Biso   1.000  C
  C195     1.0000 0.51591  0.98484  0.31875  Biso   1.000  C
  C196     1.0000 0.36809  0.92668  0.24490  Biso   1.000  C
  C197     1.0000 0.36816  0.92668  0.24490  Biso   1.000  C
  C198     1.0000 0.20508  0.91251  0.18692  Biso   1.000  C
  C199     1.0000 0.20515  0.91251  0.18685  Biso   1.000  C
  C200     1.0000 0.20161  0.13363  0.95831  Biso   1.000  C
  C201     1.0000 0.14139  0.00058  0.04889  Biso   1.000  C
  C202     1.0000 0.14146  0.00058  0.04889  Biso   1.000  C
  O57      1.0000 0.61096  0.32724  0.11800  Biso   1.000  O
  N139     1.0000 0.71807  0.19534  0.16298  Biso   1.000  N
  O58      1.0000 0.61103  0.32724  0.11794  Biso   1.000  O
  N140     1.0000 0.71814  0.19534  0.16298  Biso   1.000  N
  C203     1.0000 0.73007  0.11789  0.23259  Biso   1.000  C
  C204     1.0000 0.73014  0.11789  0.23259  Biso   1.000  C
  H192     1.0000 0.64881  0.14978  0.34029  Biso   1.000  H
  N141     1.0000 0.59591  0.01920  0.27163  Biso   1.000  N
  N142     1.0000 0.59590  0.01920  0.27156  Biso   1.000  N
  H193     1.0000 0.52053  0.90451  0.32949  Biso   1.000  H
  H194     1.0000 0.51789  0.02257  0.37421  Biso   1.000  H
  H195     1.0000 0.51796  0.02257  0.37415  Biso   1.000  H
  O59      1.0000 0.38644  0.82806  0.24187  Biso   1.000  O
  N143     1.0000 0.19030  0.91490  0.09608  Biso   1.000  N
  H196     1.0000 0.21342  0.83482  0.20492  Biso   1.000  H
  H197     1.0000 0.14802  0.94093  0.21332  Biso   1.000  H
  H198     1.0000 0.21342  0.83482  0.20486  Biso   1.000  H
  H199     1.0000 0.14802  0.94093  0.21326  Biso   1.000  H
  N144     1.0000 0.16838  0.04902  0.90834  Biso   1.000  N
  O60      1.0000 0.23304  0.22079  0.93380  Biso   1.000  O
  N145     1.0000 0.16845  0.04902  0.90834  Biso   1.000  N
  O61      1.0000 0.23311  0.22079  0.93380  Biso   1.000  O
  C205     1.0000 0.13829  0.95493  0.95679  Biso   1.000  C
  C206     1.0000 0.13836  0.95493  0.95679  Biso   1.000  C
  H200     1.0000 0.07682  0.01293  0.06993  Biso   1.000  H
  H201     1.0000 0.07682  0.01293  0.06986  Biso   1.000  H
  C207     1.0000 0.79223  0.21832  0.10467  Biso   1.000  C
  N146     1.0000 0.73189  0.00387  0.20669  Biso   1.000  N
  H202     1.0000 0.78577  0.13693  0.26992  Biso   1.000  H
  N147     1.0000 0.73196  0.00387  0.20669  Biso   1.000  N
  H203     1.0000 0.78584  0.13693  0.26986  Biso   1.000  H
  C208     1.0000 0.65550  0.94620  0.23429  Biso   1.000  C
  C209     1.0000 0.65557  0.94620  0.23429  Biso   1.000  C
  C210     1.0000 0.22429  0.83391  0.04479  Biso   1.000  C
  C211     1.0000 0.22436  0.83391  0.04479  Biso   1.000  C
  C212     1.0000 0.18271  0.04943  0.81839  Biso   1.000  C
  N148     1.0000 0.20393  0.86307  0.96204  Biso   1.000  N
  H204     1.0000 0.07363  0.93030  0.93879  Biso   1.000  H
  N149     1.0000 0.79607  0.13693  0.03796  Biso   1.000  N
  H205     1.0000 0.85327  0.21989  0.13638  Biso   1.000  H
  H206     1.0000 0.78157  0.29189  0.07928  Biso   1.000  H
  N150     1.0000 0.79614  0.13693  0.03796  Biso   1.000  N
  H207     1.0000 0.85334  0.21989  0.13638  Biso   1.000  H
  H208     1.0000 0.78164  0.29189  0.07928  Biso   1.000  H
  C213     1.0000 0.81729  0.95057  0.18161  Biso   1.000  C
  C214     1.0000 0.81736  0.95057  0.18155  Biso   1.000  C
  O62      1.0000 0.64292  0.84684  0.22678  Biso   1.000  O
  O63      1.0000 0.64299  0.84684  0.22678  Biso   1.000  O
  O64      1.0000 0.26531  0.75111  0.06892  Biso   1.000  O
  N151     1.0000 0.26811  0.99613  0.79331  Biso   1.000  N
  N152     1.0000 0.26811  0.99613  0.79325  Biso   1.000  N
  H209     1.0000 0.12859  0.01244  0.78952  Biso   1.000  H
  H210     1.0000 0.18350  0.12679  0.79862  Biso   1.000  H
  H211     1.0000 0.12866  0.01244  0.78946  Biso   1.000  H
  H212     1.0000 0.18356  0.12679  0.79856  Biso   1.000  H
  C215     1.0000 0.20777  0.78168  0.89533  Biso   1.000  C
  C216     1.0000 0.20783  0.78168  0.89527  Biso   1.000  C
  C217     1.0000 0.86171  0.04507  0.04321  Biso   1.000  C
  C218     1.0000 0.77571  0.16609  0.95521  Biso   1.000  C
  C219     1.0000 0.77570  0.16609  0.95515  Biso   1.000  C
  N153     1.0000 0.83162  0.95098  0.09166  Biso   1.000  N
  H213     1.0000 0.87141  0.98756  0.21048  Biso   1.000  H
  H214     1.0000 0.81650  0.87321  0.20138  Biso   1.000  H
  C220     1.0000 0.26993  0.88211  0.76741  Biso   1.000  C
  C221     1.0000 0.26993  0.88211  0.76735  Biso   1.000  C
  C222     1.0000 0.34450  0.05380  0.76571  Biso   1.000  C
  N154     1.0000 0.28193  0.80466  0.83702  Biso   1.000  N
  H215     1.0000 0.14673  0.78011  0.86362  Biso   1.000  H
  H216     1.0000 0.21843  0.70811  0.92072  Biso   1.000  H
  N155     1.0000 0.28193  0.80466  0.83696  Biso   1.000  N
  H217     1.0000 0.14673  0.78011  0.86356  Biso   1.000  H
  H218     1.0000 0.21842  0.70811  0.92066  Biso   1.000  H
  C223     1.0000 0.85861  0.99942  0.95111  Biso   1.000  C
  H219     1.0000 0.92637  0.06970  0.06121  Biso   1.000  H
  H220     1.0000 0.92644  0.06970  0.06115  Biso   1.000  H
  O65      1.0000 0.73469  0.24889  0.93108  Biso   1.000  O
  N156     1.0000 0.80970  0.08510  0.90392  Biso   1.000  N
  N157     1.0000 0.80976  0.08510  0.90386  Biso   1.000  N
  C224     1.0000 0.79839  0.86637  0.04169  Biso   1.000  C
  C225     1.0000 0.79846  0.86637  0.04169  Biso   1.000  C
  C226     1.0000 0.36264  0.87148  0.72023  Biso   1.000  C
  C227     1.0000 0.36263  0.87148  0.72016  Biso   1.000  C
  H221     1.0000 0.21423  0.86307  0.73008  Biso   1.000  H
  N158     1.0000 0.40409  0.98080  0.72837  Biso   1.000  N
  N159     1.0000 0.40416  0.98080  0.72837  Biso   1.000  N
  O66      1.0000 0.35708  0.15316  0.77322  Biso   1.000  O
  C228     1.0000 0.36427  0.74806  0.83450  Biso   1.000  C
  C229     1.0000 0.36434  0.74806  0.83450  Biso   1.000  C
  N160     1.0000 0.80772  0.89652  0.95869  Biso   1.000  N
  H222     1.0000 0.92318  0.98707  0.93007  Biso   1.000  H
  N161     1.0000 0.80771  0.89652  0.95862  Biso   1.000  N
  H223     1.0000 0.92325  0.98707  0.93007  Biso   1.000  H
  C230     1.0000 0.79492  0.08749  0.81308  Biso   1.000  C
  O67      1.0000 0.76696  0.77921  0.06620  Biso   1.000  O
  O68      1.0000 0.76696  0.77921  0.06614  Biso   1.000  O
  N162     1.0000 0.41303  0.78662  0.76741  Biso   1.000  N
  N163     1.0000 0.41303  0.78662  0.76735  Biso   1.000  N
  H224     1.0000 0.35119  0.85022  0.65971  Biso   1.000  H
  H225     1.0000 0.35126  0.85022  0.65965  Biso   1.000  H
  C231     1.0000 0.48409  0.01516  0.68119  Biso   1.000  C
  C232     1.0000 0.48416  0.01516  0.68119  Biso   1.000  C
  O69      1.0000 0.38904  0.67276  0.88200  Biso   1.000  O
  C233     1.0000 0.79799  0.81628  0.89148  Biso   1.000  C
  C234     1.0000 0.79806  0.81628  0.89148  Biso   1.000  C
  N164     1.0000 0.71513  0.02480  0.78131  Biso   1.000  N
  H226     1.0000 0.78658  0.16518  0.79508  Biso   1.000  H
  H227     1.0000 0.85198  0.05907  0.78668  Biso   1.000  H
  N165     1.0000 0.71513  0.02480  0.78125  Biso   1.000  N
  H228     1.0000 0.78665  0.16518  0.79508  Biso   1.000  H
  H229     1.0000 0.85205  0.05907  0.78668  Biso   1.000  H
  C235     1.0000 0.49982  0.73686  0.74000  Biso   1.000  C
  N166     1.0000 0.57330  0.99176  0.72440  Biso   1.000  N
  H230     1.0000 0.48211  0.97743  0.62579  Biso   1.000  H
  H231     1.0000 0.47947  0.09549  0.67051  Biso   1.000  H
  H232     1.0000 0.47954  0.09549  0.67045  Biso   1.000  H
  N167     1.0000 0.71652  0.83663  0.83589  Biso   1.000  N
  H233     1.0000 0.79269  0.74188  0.91649  Biso   1.000  H
  H234     1.0000 0.85533  0.81752  0.85781  Biso   1.000  H
  H235     1.0000 0.79276  0.74188  0.91649  Biso   1.000  H
  C236     1.0000 0.71871  0.90830  0.76280  Biso   1.000  C
  C237     1.0000 0.63191  0.07332  0.75510  Biso   1.000  C
  N168     1.0000 0.58303  0.79857  0.76577  Biso   1.000  N
  H236     1.0000 0.50478  0.66139  0.76331  Biso   1.000  H
  H237     1.0000 0.49701  0.73093  0.67759  Biso   1.000  H
  H238     1.0000 0.50485  0.66139  0.76331  Biso   1.000  H
  C238     1.0000 0.62209  0.88697  0.71688  Biso   1.000  C
  C239     1.0000 0.62216  0.88697  0.71688  Biso   1.000  C
  C240     1.0000 0.63882  0.77072  0.83488  Biso   1.000  C
  H239     1.0000 0.77221  0.88993  0.72597  Biso   1.000  H
  O70      1.0000 0.61356  0.17194  0.75813  Biso   1.000  O
  O71      1.0000 0.61363  0.17194  0.75806  Biso   1.000  O
  H240     1.0000 0.62933  0.86538  0.65649  Biso   1.000  H
  O72      1.0000 0.62276  0.69707  0.88503  Biso   1.000  O
  C241     1.0000 0.29487  0.41251  0.31313  Biso   1.000  C
  N169     1.0000 0.21508  0.47520  0.28129  Biso   1.000  N
  N170     1.0000 0.30971  0.41490  0.40390  Biso   1.000  N
  H241     1.0000 0.28660  0.33482  0.29512  Biso   1.000  H
  H242     1.0000 0.35200  0.44093  0.28672  Biso   1.000  H
  C242     1.0000 0.13193  0.42668  0.25508  Biso   1.000  C
  C243     1.0000 0.21873  0.59170  0.26278  Biso   1.000  C
  C244     1.0000 0.35863  0.50058  0.45109  Biso   1.000  C
  C245     1.0000 0.27572  0.33391  0.45519  Biso   1.000  C
  O73      1.0000 0.11358  0.32806  0.25811  Biso   1.000  O
  N171     1.0000 0.07332  0.50824  0.22444  Biso   1.000  N
  N172     1.0000 0.21647  0.66337  0.33593  Biso   1.000  N
  H243     1.0000 0.27223  0.61007  0.22602  Biso   1.000  H
  C246     1.0000 0.12211  0.61303  0.21692  Biso   1.000  C
  C247     1.0000 0.36173  0.45493  0.54319  Biso   1.000  C
  N173     1.0000 0.30773  0.60348  0.45867  Biso   1.000  N
  H244     1.0000 0.42320  0.51293  0.43012  Biso   1.000  H
  N174     1.0000 0.29609  0.36307  0.53794  Biso   1.000  N
  O74      1.0000 0.23471  0.25111  0.43106  Biso   1.000  O
  C248     1.0000 0.98411  0.48484  0.18123  Biso   1.000  C
  C249     1.0000 0.29801  0.68372  0.39152  Biso   1.000  C
  C250     1.0000 0.13877  0.72928  0.33492  Biso   1.000  C
  N175     1.0000 0.08298  0.70143  0.26581  Biso   1.000  N
  H245     1.0000 0.12928  0.63462  0.15647  Biso   1.000  H
  N176     1.0000 0.33157  0.54902  0.59164  Biso   1.000  N
  H246     1.0000 0.42639  0.43030  0.56119  Biso   1.000  H
  C251     1.0000 0.29841  0.63363  0.54167  Biso   1.000  C
  C252     1.0000 0.29218  0.28168  0.60471  Biso   1.000  C
  N177     1.0000 0.90411  0.51920  0.22842  Biso   1.000  N
  H247     1.0000 0.97949  0.40451  0.17049  Biso   1.000  H
  H248     1.0000 0.98213  0.52257  0.12577  Biso   1.000  H
  H249     1.0000 0.29271  0.75812  0.41647  Biso   1.000  H
  H250     1.0000 0.35527  0.68248  0.35779  Biso   1.000  H
  O75      1.0000 0.12278  0.80293  0.38501  Biso   1.000  O
  C253     1.0000 0.99977  0.76314  0.23998  Biso   1.000  C
  C254     1.0000 0.31731  0.54943  0.68159  Biso   1.000  C
  O76      1.0000 0.26691  0.72079  0.56618  Biso   1.000  O
  N178     1.0000 0.21809  0.30466  0.66302  Biso   1.000  N
  H251     1.0000 0.35329  0.28011  0.63642  Biso   1.000  H
  H252     1.0000 0.28159  0.20811  0.57932  Biso   1.000  H
  C255     1.0000 0.84452  0.44620  0.26569  Biso   1.000  C
  C256     1.0000 0.86258  0.62852  0.22021  Biso   1.000  C
  H253     1.0000 0.00480  0.83861  0.26329  Biso   1.000  H
  N179     1.0000 0.91298  0.71338  0.26739  Biso   1.000  N
  H254     1.0000 0.99703  0.76907  0.17763  Biso   1.000  H
  N180     1.0000 0.23191  0.49613  0.70673  Biso   1.000  N
  H255     1.0000 0.37143  0.51244  0.71052  Biso   1.000  H
  H256     1.0000 0.31652  0.62679  0.70142  Biso   1.000  H
  C257     1.0000 0.23009  0.38211  0.73263  Biso   1.000  C
  C258     1.0000 0.13568  0.24806  0.66548  Biso   1.000  C
  O77      1.0000 0.85703  0.34684  0.27320  Biso   1.000  O
  N181     1.0000 0.76813  0.50387  0.29329  Biso   1.000  N
  H257     1.0000 0.85121  0.64978  0.15969  Biso   1.000  H
  C259     1.0000 0.76988  0.61789  0.26739  Biso   1.000  C
  C260     1.0000 0.86428  0.75194  0.33448  Biso   1.000  C
  C261     1.0000 0.15551  0.55380  0.73427  Biso   1.000  C
  C262     1.0000 0.13738  0.37148  0.77982  Biso   1.000  C
  H258     1.0000 0.28579  0.36307  0.76990  Biso   1.000  H
  O78      1.0000 0.11097  0.17276  0.61798  Biso   1.000  O
  N182     1.0000 0.08699  0.28662  0.73263  Biso   1.000  N
  C263     1.0000 0.68272  0.45057  0.31837  Biso   1.000  C
  N183     1.0000 0.78188  0.69534  0.33700  Biso   1.000  N
  H259     1.0000 0.71418  0.63693  0.23012  Biso   1.000  H
  O79      1.0000 0.88899  0.82724  0.38204  Biso   1.000  O
  O80      1.0000 0.14294  0.65316  0.72676  Biso   1.000  O
  N184     1.0000 0.09592  0.48080  0.77161  Biso   1.000  N
  H260     1.0000 0.14882  0.35022  0.84027  Biso   1.000  H
  C264     1.0000 0.00020  0.23686  0.75998  Biso   1.000  C
  N185     1.0000 0.66840  0.45098  0.40832  Biso   1.000  N
  H261     1.0000 0.62861  0.48756  0.28950  Biso   1.000  H
  H262     1.0000 0.68351  0.37321  0.29860  Biso   1.000  H
  C265     1.0000 0.70778  0.71832  0.39531  Biso   1.000  C
  C266     1.0000 0.01593  0.51516  0.81879  Biso   1.000  C
  H263     1.0000 0.00301  0.23093  0.82239  Biso   1.000  H
  N186     1.0000 0.91699  0.29857  0.73421  Biso   1.000  N
  H264     1.0000 0.99516  0.16139  0.73667  Biso   1.000  H
  C267     1.0000 0.70163  0.36637  0.45829  Biso   1.000  C
  C268     1.0000 0.63830  0.54507  0.45677  Biso   1.000  C
  N187     1.0000 0.70387  0.63693  0.46202  Biso   1.000  N
  H265     1.0000 0.64668  0.71989  0.36360  Biso   1.000  H
  H266     1.0000 0.71837  0.79189  0.42070  Biso   1.000  H
  H267     1.0000 0.02048  0.59549  0.82953  Biso   1.000  H
  H268     1.0000 0.01791  0.47743  0.87419  Biso   1.000  H
  N188     1.0000 0.92672  0.49176  0.77558  Biso   1.000  N
  C269     1.0000 0.87793  0.38697  0.78310  Biso   1.000  C
  C270     1.0000 0.86120  0.27072  0.66510  Biso   1.000  C
  O81      1.0000 0.73306  0.27921  0.43384  Biso   1.000  O
  N189     1.0000 0.69230  0.39652  0.54136  Biso   1.000  N
  C271     1.0000 0.64140  0.49942  0.54887  Biso   1.000  C
  H269     1.0000 0.57358  0.56970  0.43877  Biso   1.000  H
  C272     1.0000 0.72431  0.66609  0.54483  Biso   1.000  C
  C273     1.0000 0.86811  0.57332  0.74488  Biso   1.000  C
  C274     1.0000 0.78131  0.40830  0.73718  Biso   1.000  C
  H270     1.0000 0.87069  0.36538  0.84349  Biso   1.000  H
  O82      1.0000 0.87725  0.19707  0.61495  Biso   1.000  O
  N190     1.0000 0.78350  0.33663  0.66409  Biso   1.000  N
  C275     1.0000 0.70203  0.31628  0.60850  Biso   1.000  C
  N191     1.0000 0.69032  0.58510  0.59612  Biso   1.000  N
  H271     1.0000 0.57677  0.48707  0.56991  Biso   1.000  H
  O83      1.0000 0.76533  0.74889  0.56890  Biso   1.000  O
  O84      1.0000 0.88639  0.67194  0.74192  Biso   1.000  O
  N192     1.0000 0.78488  0.52480  0.71867  Biso   1.000  N
  H272     1.0000 0.72781  0.38993  0.77401  Biso   1.000  H
  H273     1.0000 0.70732  0.24188  0.58349  Biso   1.000  H
  H274     1.0000 0.64469  0.31752  0.64217  Biso   1.000  H
  C276     1.0000 0.70510  0.58749  0.68690  Biso   1.000  C
  H275     1.0000 0.71337  0.66518  0.70490  Biso   1.000  H
  H276     1.0000 0.64797  0.55907  0.71330  Biso   1.000  H
  C277     1.0000 0.29487  0.41251  0.31313  Biso   1.000  C
  N193     1.0000 0.21508  0.47520  0.28129  Biso   1.000  N
  N194     1.0000 0.30971  0.41490  0.40390  Biso   1.000  N
  H277     1.0000 0.28660  0.33482  0.29512  Biso   1.000  H
  H278     1.0000 0.35200  0.44093  0.28672  Biso   1.000  H
  C278     1.0000 0.13193  0.42668  0.25508  Biso   1.000  C
  C279     1.0000 0.21873  0.59170  0.26278  Biso   1.000  C
  C280     1.0000 0.35863  0.50058  0.45109  Biso   1.000  C
  C281     1.0000 0.27572  0.33391  0.45519  Biso   1.000  C
  O85      1.0000 0.11358  0.32806  0.25811  Biso   1.000  O
  N195     1.0000 0.07332  0.50824  0.22444  Biso   1.000  N
  N196     1.0000 0.21647  0.66337  0.33593  Biso   1.000  N
  H279     1.0000 0.27223  0.61007  0.22602  Biso   1.000  H
  C282     1.0000 0.12211  0.61303  0.21692  Biso   1.000  C
  C283     1.0000 0.36173  0.45493  0.54319  Biso   1.000  C
  N197     1.0000 0.30773  0.60348  0.45867  Biso   1.000  N
  H280     1.0000 0.42320  0.51293  0.43012  Biso   1.000  H
  N198     1.0000 0.29609  0.36307  0.53794  Biso   1.000  N
  O86      1.0000 0.23471  0.25111  0.43106  Biso   1.000  O
  C284     1.0000 0.98411  0.48484  0.18123  Biso   1.000  C
  C285     1.0000 0.29801  0.68372  0.39152  Biso   1.000  C
  C286     1.0000 0.13877  0.72928  0.33492  Biso   1.000  C
  N199     1.0000 0.08298  0.70143  0.26581  Biso   1.000  N
  H281     1.0000 0.12928  0.63462  0.15647  Biso   1.000  H
  N200     1.0000 0.33157  0.54902  0.59164  Biso   1.000  N
  H282     1.0000 0.42639  0.43030  0.56119  Biso   1.000  H
  C287     1.0000 0.29841  0.63363  0.54167  Biso   1.000  C
  C288     1.0000 0.29218  0.28168  0.60471  Biso   1.000  C
  N201     1.0000 0.90411  0.51920  0.22842  Biso   1.000  N
  H283     1.0000 0.97949  0.40451  0.17049  Biso   1.000  H
  H284     1.0000 0.98213  0.52257  0.12577  Biso   1.000  H
  H285     1.0000 0.29271  0.75812  0.41647  Biso   1.000  H
  H286     1.0000 0.35527  0.68248  0.35779  Biso   1.000  H
  O87      1.0000 0.12278  0.80293  0.38501  Biso   1.000  O
  C289     1.0000 0.99977  0.76314  0.23998  Biso   1.000  C
  C290     1.0000 0.31731  0.54943  0.68159  Biso   1.000  C
  O88      1.0000 0.26691  0.72079  0.56618  Biso   1.000  O
  N202     1.0000 0.21809  0.30466  0.66302  Biso   1.000  N
  H287     1.0000 0.35329  0.28011  0.63642  Biso   1.000  H
  H288     1.0000 0.28159  0.20811  0.57932  Biso   1.000  H
  C291     1.0000 0.84452  0.44620  0.26569  Biso   1.000  C
  C292     1.0000 0.86258  0.62852  0.22021  Biso   1.000  C
  H289     1.0000 0.00480  0.83861  0.26329  Biso   1.000  H
  N203     1.0000 0.91298  0.71338  0.26739  Biso   1.000  N
  H290     1.0000 0.99703  0.76907  0.17763  Biso   1.000  H
  N204     1.0000 0.23191  0.49613  0.70673  Biso   1.000  N
  H291     1.0000 0.37143  0.51244  0.71052  Biso   1.000  H
  H292     1.0000 0.31652  0.62679  0.70142  Biso   1.000  H
  C293     1.0000 0.23009  0.38211  0.73263  Biso   1.000  C
  C294     1.0000 0.13568  0.24806  0.66548  Biso   1.000  C
  O89      1.0000 0.85703  0.34684  0.27320  Biso   1.000  O
  N205     1.0000 0.76813  0.50387  0.29329  Biso   1.000  N
  H293     1.0000 0.85121  0.64978  0.15969  Biso   1.000  H
  C295     1.0000 0.76988  0.61789  0.26739  Biso   1.000  C
  C296     1.0000 0.86428  0.75194  0.33448  Biso   1.000  C
  C297     1.0000 0.15551  0.55380  0.73427  Biso   1.000  C
  C298     1.0000 0.13738  0.37148  0.77982  Biso   1.000  C
  H294     1.0000 0.28579  0.36307  0.76990  Biso   1.000  H
  O90      1.0000 0.11097  0.17276  0.61798  Biso   1.000  O
  N206     1.0000 0.08699  0.28662  0.73263  Biso   1.000  N
  C299     1.0000 0.68272  0.45057  0.31837  Biso   1.000  C
  N207     1.0000 0.78188  0.69534  0.33700  Biso   1.000  N
  H295     1.0000 0.71418  0.63693  0.23012  Biso   1.000  H
  O91      1.0000 0.88899  0.82724  0.38204  Biso   1.000  O
  O92      1.0000 0.14294  0.65316  0.72676  Biso   1.000  O
  N208     1.0000 0.09592  0.48080  0.77161  Biso   1.000  N
  H296     1.0000 0.14882  0.35022  0.84027  Biso   1.000  H
  C300     1.0000 0.00020  0.23686  0.75998  Biso   1.000  C
  N209     1.0000 0.66840  0.45098  0.40832  Biso   1.000  N
  H297     1.0000 0.62861  0.48756  0.28950  Biso   1.000  H
  H298     1.0000 0.68351  0.37321  0.29860  Biso   1.000  H
  C301     1.0000 0.70778  0.71832  0.39531  Biso   1.000  C
  C302     1.0000 0.01593  0.51516  0.81879  Biso   1.000  C
  H299     1.0000 0.00301  0.23093  0.82239  Biso   1.000  H
  N210     1.0000 0.91699  0.29857  0.73421  Biso   1.000  N
  H300     1.0000 0.99516  0.16139  0.73667  Biso   1.000  H
  C303     1.0000 0.70163  0.36637  0.45829  Biso   1.000  C
  C304     1.0000 0.63830  0.54507  0.45677  Biso   1.000  C
  N211     1.0000 0.70387  0.63693  0.46202  Biso   1.000  N
  H301     1.0000 0.64668  0.71989  0.36360  Biso   1.000  H
  H302     1.0000 0.71837  0.79189  0.42070  Biso   1.000  H
  H303     1.0000 0.02048  0.59549  0.82953  Biso   1.000  H
  H304     1.0000 0.01791  0.47743  0.87419  Biso   1.000  H
  N212     1.0000 0.92672  0.49176  0.77558  Biso   1.000  N
  C305     1.0000 0.87793  0.38697  0.78310  Biso   1.000  C
  C306     1.0000 0.86120  0.27072  0.66510  Biso   1.000  C
  O93      1.0000 0.73306  0.27921  0.43384  Biso   1.000  O
  N213     1.0000 0.69230  0.39652  0.54136  Biso   1.000  N
  C307     1.0000 0.64140  0.49942  0.54887  Biso   1.000  C
  H305     1.0000 0.57358  0.56970  0.43877  Biso   1.000  H
  C308     1.0000 0.72431  0.66609  0.54483  Biso   1.000  C
  C309     1.0000 0.86811  0.57332  0.74488  Biso   1.000  C
  C310     1.0000 0.78131  0.40830  0.73718  Biso   1.000  C
  H306     1.0000 0.87069  0.36538  0.84349  Biso   1.000  H
  O94      1.0000 0.87725  0.19707  0.61495  Biso   1.000  O
  N214     1.0000 0.78350  0.33663  0.66409  Biso   1.000  N
  C311     1.0000 0.70203  0.31628  0.60850  Biso   1.000  C
  N215     1.0000 0.69032  0.58510  0.59612  Biso   1.000  N
  H307     1.0000 0.57677  0.48707  0.56991  Biso   1.000  H
  O95      1.0000 0.76533  0.74889  0.56890  Biso   1.000  O
  O96      1.0000 0.88639  0.67194  0.74192  Biso   1.000  O
  N216     1.0000 0.78488  0.52480  0.71867  Biso   1.000  N
  H308     1.0000 0.72781  0.38993  0.77401  Biso   1.000  H
  H309     1.0000 0.70732  0.24188  0.58349  Biso   1.000  H
  H310     1.0000 0.64469  0.31752  0.64217  Biso   1.000  H
  C312     1.0000 0.70510  0.58749  0.68690  Biso   1.000  C
  H311     1.0000 0.71337  0.66518  0.70490  Biso   1.000  H
  H312     1.0000 0.64797  0.55907  0.71330  Biso   1.000  H
