data_image0
_cell_length_a       29.588
_cell_length_b       17.891
_cell_length_c       15.725
_cell_angle_alpha    90
_cell_angle_beta     103.5
_cell_angle_gamma    90

_symmetry_space_group_name_H-M    "P 1"
_symmetry_int_tables_number       1

loop_
  _symmetry_equiv_pos_as_xyz
  'x, y, z'

loop_
  _atom_site_label
  _atom_site_occupancy
  _atom_site_fract_x
  _atom_site_fract_y
  _atom_site_fract_z
  _atom_site_thermal_displace_type
  _atom_site_B_iso_or_equiv
  _atom_site_type_symbol
  O1       1.0000 0.42755  0.16763  0.79415  Biso   1.000  O
  C1       1.0000 0.42273  0.19378  0.86321  Biso   1.000  C
  O2       1.0000 0.42754  0.16763  0.79409  Biso   1.000  O
  N1       1.0000 0.45258  0.24342  0.91416  Biso   1.000  N
  N2       1.0000 0.38715  0.17892  0.90304  Biso   1.000  N
  N3       1.0000 0.45257  0.24342  0.91410  Biso   1.000  N
  N4       1.0000 0.38714  0.17892  0.90298  Biso   1.000  N
  C2       1.0000 0.49121  0.27528  0.88473  Biso   1.000  C
  C3       1.0000 0.43566  0.27008  0.98865  Biso   1.000  C
  C4       1.0000 0.43565  0.27008  0.98859  Biso   1.000  C
  C5       1.0000 0.38912  0.22469  0.98022  Biso   1.000  C
  C6       1.0000 0.34616  0.13672  0.85870  Biso   1.000  C
  N5       1.0000 0.53592  0.24459  0.92724  Biso   1.000  N
  H1       1.0000 0.48612  0.26729  0.82084  Biso   1.000  H
  H2       1.0000 0.49180  0.32989  0.89500  Biso   1.000  H
  N6       1.0000 0.53591  0.24459  0.92718  Biso   1.000  N
  H3       1.0000 0.48611  0.26729  0.82077  Biso   1.000  H
  C7       1.0000 0.42776  0.35448  0.98734  Biso   1.000  C
  C8       1.0000 0.42778  0.35448  0.98728  Biso   1.000  C
  N7       1.0000 0.46408  0.24459  0.07282  Biso   1.000  N
  C9       1.0000 0.34733  0.27701  0.97112  Biso   1.000  C
  N8       1.0000 0.39802  0.18188  0.06125  Biso   1.000  N
  N9       1.0000 0.39802  0.18188  0.06118  Biso   1.000  N
  N10      1.0000 0.34317  0.06232  0.89291  Biso   1.000  N
  H4       1.0000 0.31809  0.16500  0.86315  Biso   1.000  H
  H5       1.0000 0.34621  0.13280  0.79592  Biso   1.000  H
  H6       1.0000 0.31811  0.16500  0.86308  Biso   1.000  H
  C10      1.0000 0.55915  0.19619  0.88512  Biso   1.000  C
  C11      1.0000 0.56434  0.27008  0.01141  Biso   1.000  C
  C12      1.0000 0.56438  0.27008  0.01141  Biso   1.000  C
  H7       1.0000 0.41049  0.37007  0.92822  Biso   1.000  H
  H8       1.0000 0.41052  0.37007  0.92822  Biso   1.000  H
  H9       1.0000 0.45811  0.38053  0.00075  Biso   1.000  H
  C13      1.0000 0.40030  0.37673  0.05451  Biso   1.000  C
  H10      1.0000 0.45811  0.38053  0.00069  Biso   1.000  H
  C14      1.0000 0.50880  0.27528  0.11533  Biso   1.000  C
  C15      1.0000 0.44085  0.19619  0.11494  Biso   1.000  C
  C16      1.0000 0.44084  0.19619  0.11487  Biso   1.000  C
  H11      1.0000 0.34181  0.30300  0.91403  Biso   1.000  H
  H12      1.0000 0.31932  0.24711  0.97224  Biso   1.000  H
  H13      1.0000 0.31931  0.24711  0.97217  Biso   1.000  H
  C17      1.0000 0.35490  0.33430  0.04385  Biso   1.000  C
  C18      1.0000 0.35490  0.33430  0.04378  Biso   1.000  C
  C19      1.0000 0.36437  0.13610  0.09022  Biso   1.000  C
  C20      1.0000 0.35141  0.00000  0.84843  Biso   1.000  C
  C21      1.0000 0.32499  0.04432  0.96890  Biso   1.000  C
  C22      1.0000 0.35140  0.00000  0.84837  Biso   1.000  C
  O3       1.0000 0.54489  0.17081  0.81155  Biso   1.000  O
  N11      1.0000 0.60198  0.18188  0.93882  Biso   1.000  N
  O4       1.0000 0.54488  0.17081  0.81148  Biso   1.000  O
  N12      1.0000 0.54743  0.24342  0.08590  Biso   1.000  N
  C23      1.0000 0.61088  0.22469  0.01985  Biso   1.000  C
  C24      1.0000 0.57225  0.35448  0.01272  Biso   1.000  C
  C25      1.0000 0.61087  0.22469  0.01978  Biso   1.000  C
  H14      1.0000 0.41971  0.36762  0.11402  Biso   1.000  H
  H15      1.0000 0.39352  0.43100  0.04915  Biso   1.000  H
  H16      1.0000 0.39351  0.43100  0.04908  Biso   1.000  H
  H17      1.0000 0.51389  0.26729  0.17923  Biso   1.000  H
  H18      1.0000 0.50820  0.32989  0.10506  Biso   1.000  H
  H19      1.0000 0.51392  0.26729  0.17923  Biso   1.000  H
  H20      1.0000 0.50819  0.32989  0.10500  Biso   1.000  H
  O5       1.0000 0.45512  0.17081  0.18851  Biso   1.000  O
  H21      1.0000 0.35461  0.30881  0.09951  Biso   1.000  H
  H22      1.0000 0.32882  0.37041  0.03162  Biso   1.000  H
  N13      1.0000 0.35755  0.06210  0.05131  Biso   1.000  N
  H23      1.0000 0.33420  0.16260  0.07694  Biso   1.000  H
  H24      1.0000 0.37431  0.13062  0.15451  Biso   1.000  H
  H25      1.0000 0.33419  0.16260  0.07688  Biso   1.000  H
  O6       1.0000 0.36313  0.00000  0.77833  Biso   1.000  O
  N14      1.0000 0.34317  0.93768  0.89291  Biso   1.000  N
  C26      1.0000 0.27721  0.07602  0.96406  Biso   1.000  C
  C27      1.0000 0.27720  0.07602  0.96400  Biso   1.000  C
  C28      1.0000 0.32499  0.95568  0.96890  Biso   1.000  C
  C29      1.0000 0.63563  0.13610  0.90984  Biso   1.000  C
  C30      1.0000 0.63562  0.13610  0.90978  Biso   1.000  C
  C31      1.0000 0.57727  0.19378  0.13685  Biso   1.000  C
  C32      1.0000 0.57726  0.19378  0.13678  Biso   1.000  C
  N15      1.0000 0.61285  0.17892  0.09702  Biso   1.000  N
  C33      1.0000 0.65267  0.27701  0.02894  Biso   1.000  C
  C34      1.0000 0.65266  0.27701  0.02887  Biso   1.000  C
  H26      1.0000 0.54189  0.38053  0.99931  Biso   1.000  H
  C35      1.0000 0.59970  0.37673  0.94555  Biso   1.000  C
  C36      1.0000 0.59970  0.37673  0.94549  Biso   1.000  C
  H27      1.0000 0.58952  0.37007  0.07184  Biso   1.000  H
  H28      1.0000 0.58951  0.37007  0.07178  Biso   1.000  H
  C37      1.0000 0.37431  0.00000  0.09865  Biso   1.000  C
  C38      1.0000 0.37430  0.00000  0.09859  Biso   1.000  C
  C39      1.0000 0.34616  0.86328  0.85870  Biso   1.000  C
  H29      1.0000 0.27782  0.13079  0.95562  Biso   1.000  H
  C40      1.0000 0.24089  0.04069  0.88794  Biso   1.000  C
  C41      1.0000 0.24089  0.04069  0.88787  Biso   1.000  C
  H30      1.0000 0.26821  0.06629  0.01985  Biso   1.000  H
  H31      1.0000 0.26820  0.06629  0.01978  Biso   1.000  H
  C42      1.0000 0.27721  0.92398  0.96406  Biso   1.000  C
  C43      1.0000 0.27720  0.92398  0.96400  Biso   1.000  C
  N16      1.0000 0.35755  0.93790  0.05131  Biso   1.000  N
  N17      1.0000 0.64245  0.06210  0.94876  Biso   1.000  N
  H32      1.0000 0.66580  0.16260  0.92312  Biso   1.000  H
  H33      1.0000 0.62569  0.13062  0.84556  Biso   1.000  H
  N18      1.0000 0.64244  0.06210  0.94869  Biso   1.000  N
  H34      1.0000 0.62568  0.13062  0.84549  Biso   1.000  H
  O7       1.0000 0.57246  0.16763  0.20591  Biso   1.000  O
  C44      1.0000 0.65384  0.13672  0.14136  Biso   1.000  C
  C45      1.0000 0.65383  0.13672  0.14130  Biso   1.000  C
  C46      1.0000 0.64510  0.33430  0.95621  Biso   1.000  C
  H35      1.0000 0.65820  0.30300  0.08603  Biso   1.000  H
  H36      1.0000 0.68068  0.24711  0.02783  Biso   1.000  H
  H37      1.0000 0.68072  0.24711  0.02783  Biso   1.000  H
  H38      1.0000 0.58029  0.36762  0.88604  Biso   1.000  H
  H39      1.0000 0.60649  0.43100  0.95092  Biso   1.000  H
  H40      1.0000 0.58028  0.36762  0.88597  Biso   1.000  H
  O8       1.0000 0.39877  0.00000  0.17373  Biso   1.000  O
  O9       1.0000 0.39879  0.00000  0.17367  Biso   1.000  O
  N19      1.0000 0.38715  0.82108  0.90304  Biso   1.000  N
  H41      1.0000 0.31809  0.83500  0.86315  Biso   1.000  H
  H42      1.0000 0.34621  0.86720  0.79592  Biso   1.000  H
  N20      1.0000 0.38714  0.82108  0.90298  Biso   1.000  N
  H43      1.0000 0.31811  0.83500  0.86308  Biso   1.000  H
  H44      1.0000 0.20961  0.05852  0.89101  Biso   1.000  H
  H45      1.0000 0.24690  0.05852  0.83202  Biso   1.000  H
  C47      1.0000 0.24089  0.95931  0.88794  Biso   1.000  C
  C48      1.0000 0.24089  0.95931  0.88787  Biso   1.000  C
  H46      1.0000 0.27782  0.86921  0.95562  Biso   1.000  H
  H47      1.0000 0.26821  0.93371  0.01985  Biso   1.000  H
  H48      1.0000 0.26820  0.93371  0.01978  Biso   1.000  H
  C49      1.0000 0.36437  0.86390  0.09022  Biso   1.000  C
  C50      1.0000 0.62569  0.00000  0.90141  Biso   1.000  C
  C51      1.0000 0.67501  0.04432  0.03116  Biso   1.000  C
  C52      1.0000 0.67501  0.04432  0.03110  Biso   1.000  C
  N21      1.0000 0.65683  0.06232  0.10716  Biso   1.000  N
  H49      1.0000 0.68192  0.16500  0.13691  Biso   1.000  H
  H50      1.0000 0.65379  0.13280  0.20415  Biso   1.000  H
  N22      1.0000 0.65682  0.06232  0.10709  Biso   1.000  N
  H51      1.0000 0.65378  0.13280  0.20408  Biso   1.000  H
  H52      1.0000 0.64539  0.30881  0.90056  Biso   1.000  H
  H53      1.0000 0.67119  0.37041  0.96844  Biso   1.000  H
  H54      1.0000 0.64538  0.30881  0.90049  Biso   1.000  H
  H55      1.0000 0.67121  0.37041  0.96838  Biso   1.000  H
  C53      1.0000 0.42273  0.80622  0.86321  Biso   1.000  C
  C54      1.0000 0.38912  0.77531  0.98022  Biso   1.000  C
  H56      1.0000 0.20961  0.94148  0.89101  Biso   1.000  H
  H57      1.0000 0.24690  0.94148  0.83202  Biso   1.000  H
  N23      1.0000 0.39802  0.81812  0.06125  Biso   1.000  N
  H58      1.0000 0.33420  0.83740  0.07694  Biso   1.000  H
  H59      1.0000 0.37431  0.86938  0.15451  Biso   1.000  H
  N24      1.0000 0.39802  0.81812  0.06118  Biso   1.000  N
  H60      1.0000 0.33419  0.83740  0.07688  Biso   1.000  H
  O10      1.0000 0.60124  0.00000  0.82633  Biso   1.000  O
  N25      1.0000 0.64245  0.93790  0.94876  Biso   1.000  N
  N26      1.0000 0.64244  0.93790  0.94869  Biso   1.000  N
  C55      1.0000 0.67501  0.95568  0.03116  Biso   1.000  C
  C56      1.0000 0.67501  0.95568  0.03110  Biso   1.000  C
  C57      1.0000 0.72280  0.07602  0.03600  Biso   1.000  C
  C58      1.0000 0.64859  0.00000  0.15163  Biso   1.000  C
  O11      1.0000 0.42755  0.83237  0.79415  Biso   1.000  O
  N27      1.0000 0.45258  0.75658  0.91416  Biso   1.000  N
  O12      1.0000 0.42754  0.83237  0.79409  Biso   1.000  O
  N28      1.0000 0.45257  0.75658  0.91410  Biso   1.000  N
  C59      1.0000 0.43566  0.72992  0.98865  Biso   1.000  C
  C60      1.0000 0.34733  0.72299  0.97112  Biso   1.000  C
  C61      1.0000 0.43565  0.72992  0.98859  Biso   1.000  C
  C62      1.0000 0.44085  0.80381  0.11494  Biso   1.000  C
  C63      1.0000 0.44084  0.80381  0.11487  Biso   1.000  C
  C64      1.0000 0.63563  0.86390  0.90984  Biso   1.000  C
  C65      1.0000 0.63562  0.86390  0.90978  Biso   1.000  C
  N29      1.0000 0.65683  0.93768  0.10716  Biso   1.000  N
  C66      1.0000 0.72280  0.92398  0.03600  Biso   1.000  C
  N30      1.0000 0.65682  0.93768  0.10709  Biso   1.000  N
  H61      1.0000 0.73179  0.06629  0.98022  Biso   1.000  H
  H62      1.0000 0.72219  0.13079  0.04444  Biso   1.000  H
  C67      1.0000 0.75911  0.04069  0.11213  Biso   1.000  C
  H63      1.0000 0.72221  0.13079  0.04437  Biso   1.000  H
  O13      1.0000 0.63688  0.00000  0.22174  Biso   1.000  O
  O14      1.0000 0.63690  0.00000  0.22167  Biso   1.000  O
  C68      1.0000 0.49121  0.72472  0.88473  Biso   1.000  C
  C69      1.0000 0.42776  0.64552  0.98734  Biso   1.000  C
  C70      1.0000 0.42778  0.64552  0.98728  Biso   1.000  C
  N31      1.0000 0.46408  0.75541  0.07282  Biso   1.000  N
  H64      1.0000 0.34181  0.69700  0.91403  Biso   1.000  H
  H65      1.0000 0.31932  0.75289  0.97224  Biso   1.000  H
  H66      1.0000 0.31931  0.75289  0.97217  Biso   1.000  H
  C71      1.0000 0.35490  0.66570  0.04385  Biso   1.000  C
  C72      1.0000 0.35490  0.66570  0.04378  Biso   1.000  C
  O15      1.0000 0.45512  0.82919  0.18851  Biso   1.000  O
  N32      1.0000 0.60198  0.81812  0.93882  Biso   1.000  N
  H67      1.0000 0.66580  0.83740  0.92312  Biso   1.000  H
  H68      1.0000 0.62569  0.86938  0.84556  Biso   1.000  H
  H69      1.0000 0.62568  0.86938  0.84549  Biso   1.000  H
  C73      1.0000 0.65384  0.86328  0.14136  Biso   1.000  C
  C74      1.0000 0.65383  0.86328  0.14130  Biso   1.000  C
  H70      1.0000 0.73179  0.93371  0.98022  Biso   1.000  H
  H71      1.0000 0.72219  0.86921  0.04444  Biso   1.000  H
  C75      1.0000 0.75911  0.95931  0.11213  Biso   1.000  C
  H72      1.0000 0.72221  0.86921  0.04437  Biso   1.000  H
  H73      1.0000 0.79040  0.05852  0.10905  Biso   1.000  H
  H74      1.0000 0.75310  0.05852  0.16804  Biso   1.000  H
  H75      1.0000 0.79039  0.05852  0.10899  Biso   1.000  H
  H76      1.0000 0.75309  0.05852  0.16798  Biso   1.000  H
  N33      1.0000 0.53592  0.75541  0.92724  Biso   1.000  N
  H77      1.0000 0.48612  0.73271  0.82084  Biso   1.000  H
  H78      1.0000 0.49180  0.67011  0.89500  Biso   1.000  H
  N34      1.0000 0.53591  0.75541  0.92718  Biso   1.000  N
  H79      1.0000 0.48611  0.73271  0.82077  Biso   1.000  H
  H80      1.0000 0.41049  0.62993  0.92822  Biso   1.000  H
  H81      1.0000 0.41052  0.62993  0.92822  Biso   1.000  H
  H82      1.0000 0.45811  0.61947  0.00075  Biso   1.000  H
  C76      1.0000 0.40030  0.62327  0.05451  Biso   1.000  C
  H83      1.0000 0.45811  0.61947  0.00069  Biso   1.000  H
  C77      1.0000 0.50880  0.72472  0.11533  Biso   1.000  C
  H84      1.0000 0.35461  0.69119  0.09951  Biso   1.000  H
  H85      1.0000 0.32882  0.62959  0.03162  Biso   1.000  H
  C78      1.0000 0.55915  0.80381  0.88512  Biso   1.000  C
  C79      1.0000 0.61088  0.77531  0.01985  Biso   1.000  C
  C80      1.0000 0.61087  0.77531  0.01978  Biso   1.000  C
  N35      1.0000 0.61285  0.82108  0.09702  Biso   1.000  N
  H86      1.0000 0.68192  0.83500  0.13691  Biso   1.000  H
  H87      1.0000 0.65379  0.86720  0.20415  Biso   1.000  H
  H88      1.0000 0.65378  0.86720  0.20408  Biso   1.000  H
  H89      1.0000 0.79040  0.94148  0.10905  Biso   1.000  H
  H90      1.0000 0.75310  0.94148  0.16804  Biso   1.000  H
  H91      1.0000 0.79039  0.94148  0.10899  Biso   1.000  H
  H92      1.0000 0.75309  0.94148  0.16798  Biso   1.000  H
  C81      1.0000 0.56434  0.72992  0.01141  Biso   1.000  C
  C82      1.0000 0.56438  0.72992  0.01141  Biso   1.000  C
  H93      1.0000 0.41971  0.63238  0.11402  Biso   1.000  H
  H94      1.0000 0.39352  0.56900  0.04915  Biso   1.000  H
  H95      1.0000 0.39351  0.56900  0.04908  Biso   1.000  H
  N36      1.0000 0.54743  0.75658  0.08590  Biso   1.000  N
  H96      1.0000 0.51389  0.73271  0.17923  Biso   1.000  H
  H97      1.0000 0.50820  0.67011  0.10506  Biso   1.000  H
  H98      1.0000 0.51392  0.73271  0.17923  Biso   1.000  H
  H99      1.0000 0.50819  0.67011  0.10500  Biso   1.000  H
  O16      1.0000 0.54489  0.82919  0.81155  Biso   1.000  O
  O17      1.0000 0.54488  0.82919  0.81148  Biso   1.000  O
  C83      1.0000 0.65267  0.72299  0.02894  Biso   1.000  C
  C84      1.0000 0.65266  0.72299  0.02887  Biso   1.000  C
  C85      1.0000 0.57727  0.80622  0.13685  Biso   1.000  C
  C86      1.0000 0.57726  0.80622  0.13678  Biso   1.000  C
  C87      1.0000 0.57225  0.64552  0.01272  Biso   1.000  C
  C88      1.0000 0.64510  0.66570  0.95621  Biso   1.000  C
  H100     1.0000 0.65820  0.69700  0.08603  Biso   1.000  H
  H101     1.0000 0.68068  0.75289  0.02783  Biso   1.000  H
  H102     1.0000 0.68072  0.75289  0.02783  Biso   1.000  H
  O18      1.0000 0.57246  0.83237  0.20591  Biso   1.000  O
  H103     1.0000 0.54189  0.61947  0.99931  Biso   1.000  H
  C89      1.0000 0.59970  0.62327  0.94555  Biso   1.000  C
  C90      1.0000 0.59970  0.62327  0.94549  Biso   1.000  C
  H104     1.0000 0.58952  0.62993  0.07184  Biso   1.000  H
  H105     1.0000 0.58951  0.62993  0.07178  Biso   1.000  H
  H106     1.0000 0.64539  0.69119  0.90056  Biso   1.000  H
  H107     1.0000 0.67119  0.62959  0.96844  Biso   1.000  H
  H108     1.0000 0.64538  0.69119  0.90049  Biso   1.000  H
  H109     1.0000 0.67121  0.62959  0.96838  Biso   1.000  H
  H110     1.0000 0.58029  0.63238  0.88604  Biso   1.000  H
  H111     1.0000 0.60649  0.56900  0.95092  Biso   1.000  H
  H112     1.0000 0.58028  0.63238  0.88597  Biso   1.000  H
  O19      1.0000 0.42755  0.16763  0.79415  Biso   1.000  O
  C91      1.0000 0.42273  0.19378  0.86321  Biso   1.000  C
  O20      1.0000 0.42754  0.16763  0.79409  Biso   1.000  O
  N37      1.0000 0.45258  0.24342  0.91416  Biso   1.000  N
  N38      1.0000 0.38715  0.17892  0.90304  Biso   1.000  N
  N39      1.0000 0.45257  0.24342  0.91410  Biso   1.000  N
  N40      1.0000 0.38714  0.17892  0.90298  Biso   1.000  N
  C92      1.0000 0.49121  0.27528  0.88473  Biso   1.000  C
  C93      1.0000 0.43566  0.27008  0.98865  Biso   1.000  C
  C94      1.0000 0.43565  0.27008  0.98859  Biso   1.000  C
  C95      1.0000 0.38912  0.22469  0.98022  Biso   1.000  C
  C96      1.0000 0.34616  0.13672  0.85870  Biso   1.000  C
  H113     1.0000 0.49180  0.32989  0.89500  Biso   1.000  H
  N41      1.0000 0.53592  0.24459  0.92724  Biso   1.000  N
  H114     1.0000 0.48612  0.26729  0.82084  Biso   1.000  H
  N42      1.0000 0.53591  0.24459  0.92718  Biso   1.000  N
  H115     1.0000 0.48611  0.26729  0.82077  Biso   1.000  H
  C97      1.0000 0.42776  0.35448  0.98734  Biso   1.000  C
  C98      1.0000 0.42778  0.35448  0.98728  Biso   1.000  C
  N43      1.0000 0.46408  0.24459  0.07282  Biso   1.000  N
  C99      1.0000 0.34733  0.27701  0.97112  Biso   1.000  C
  N44      1.0000 0.39802  0.18188  0.06125  Biso   1.000  N
  N45      1.0000 0.39802  0.18188  0.06118  Biso   1.000  N
  N46      1.0000 0.34317  0.06232  0.89291  Biso   1.000  N
  H116     1.0000 0.34621  0.13280  0.79592  Biso   1.000  H
  H117     1.0000 0.31809  0.16500  0.86315  Biso   1.000  H
  H118     1.0000 0.31811  0.16500  0.86308  Biso   1.000  H
  C100     1.0000 0.55915  0.19619  0.88512  Biso   1.000  C
  C101     1.0000 0.56434  0.27008  0.01141  Biso   1.000  C
  C102     1.0000 0.56438  0.27008  0.01141  Biso   1.000  C
  H119     1.0000 0.41049  0.37007  0.92822  Biso   1.000  H
  H120     1.0000 0.41052  0.37007  0.92822  Biso   1.000  H
  H121     1.0000 0.45811  0.38053  0.00075  Biso   1.000  H
  C103     1.0000 0.40030  0.37673  0.05451  Biso   1.000  C
  H122     1.0000 0.45811  0.38053  0.00069  Biso   1.000  H
  C104     1.0000 0.50880  0.27528  0.11533  Biso   1.000  C
  C105     1.0000 0.44085  0.19619  0.11494  Biso   1.000  C
  C106     1.0000 0.44084  0.19619  0.11487  Biso   1.000  C
  H123     1.0000 0.34181  0.30300  0.91403  Biso   1.000  H
  H124     1.0000 0.31932  0.24711  0.97224  Biso   1.000  H
  H125     1.0000 0.31931  0.24711  0.97217  Biso   1.000  H
  C107     1.0000 0.35490  0.33430  0.04385  Biso   1.000  C
  C108     1.0000 0.35490  0.33430  0.04378  Biso   1.000  C
  C109     1.0000 0.36437  0.13610  0.09022  Biso   1.000  C
  C110     1.0000 0.32499  0.04432  0.96890  Biso   1.000  C
  C111     1.0000 0.35141  0.00000  0.84843  Biso   1.000  C
  C112     1.0000 0.35140  0.00000  0.84837  Biso   1.000  C
  N47      1.0000 0.60198  0.18188  0.93882  Biso   1.000  N
  O21      1.0000 0.54489  0.17081  0.81155  Biso   1.000  O
  O22      1.0000 0.54488  0.17081  0.81148  Biso   1.000  O
  N48      1.0000 0.54743  0.24342  0.08590  Biso   1.000  N
  C113     1.0000 0.61088  0.22469  0.01985  Biso   1.000  C
  C114     1.0000 0.57225  0.35448  0.01272  Biso   1.000  C
  C115     1.0000 0.61087  0.22469  0.01978  Biso   1.000  C
  H126     1.0000 0.41971  0.36762  0.11402  Biso   1.000  H
  H127     1.0000 0.39352  0.43100  0.04915  Biso   1.000  H
  H128     1.0000 0.39351  0.43100  0.04908  Biso   1.000  H
  H129     1.0000 0.51389  0.26729  0.17923  Biso   1.000  H
  H130     1.0000 0.50820  0.32989  0.10506  Biso   1.000  H
  H131     1.0000 0.51392  0.26729  0.17923  Biso   1.000  H
  H132     1.0000 0.50819  0.32989  0.10500  Biso   1.000  H
  O23      1.0000 0.45512  0.17081  0.18851  Biso   1.000  O
  H133     1.0000 0.35461  0.30881  0.09951  Biso   1.000  H
  H134     1.0000 0.32882  0.37041  0.03162  Biso   1.000  H
  N49      1.0000 0.35755  0.06210  0.05131  Biso   1.000  N
  H135     1.0000 0.33420  0.16260  0.07694  Biso   1.000  H
  H136     1.0000 0.37431  0.13062  0.15451  Biso   1.000  H
  H137     1.0000 0.33419  0.16260  0.07688  Biso   1.000  H
  C116     1.0000 0.27721  0.07602  0.96406  Biso   1.000  C
  C117     1.0000 0.27720  0.07602  0.96400  Biso   1.000  C
  C118     1.0000 0.32499  0.95568  0.96890  Biso   1.000  C
  O24      1.0000 0.36313  0.00000  0.77833  Biso   1.000  O
  N50      1.0000 0.34317  0.93768  0.89291  Biso   1.000  N
  C119     1.0000 0.63563  0.13610  0.90984  Biso   1.000  C
  C120     1.0000 0.63562  0.13610  0.90978  Biso   1.000  C
  C121     1.0000 0.57727  0.19378  0.13685  Biso   1.000  C
  C122     1.0000 0.57726  0.19378  0.13678  Biso   1.000  C
  N51      1.0000 0.61285  0.17892  0.09702  Biso   1.000  N
  C123     1.0000 0.65267  0.27701  0.02894  Biso   1.000  C
  C124     1.0000 0.65266  0.27701  0.02887  Biso   1.000  C
  H138     1.0000 0.54189  0.38053  0.99931  Biso   1.000  H
  C125     1.0000 0.59970  0.37673  0.94555  Biso   1.000  C
  C126     1.0000 0.59970  0.37673  0.94549  Biso   1.000  C
  H139     1.0000 0.58952  0.37007  0.07184  Biso   1.000  H
  H140     1.0000 0.58951  0.37007  0.07178  Biso   1.000  H
  C127     1.0000 0.37431  0.00000  0.09865  Biso   1.000  C
  C128     1.0000 0.37430  0.00000  0.09859  Biso   1.000  C
  H141     1.0000 0.27782  0.13079  0.95562  Biso   1.000  H
  C129     1.0000 0.24089  0.04069  0.88794  Biso   1.000  C
  C130     1.0000 0.24089  0.04069  0.88787  Biso   1.000  C
  H142     1.0000 0.26821  0.06629  0.01985  Biso   1.000  H
  H143     1.0000 0.26820  0.06629  0.01978  Biso   1.000  H
  C131     1.0000 0.27721  0.92398  0.96406  Biso   1.000  C
  C132     1.0000 0.27720  0.92398  0.96400  Biso   1.000  C
  N52      1.0000 0.35755  0.93790  0.05131  Biso   1.000  N
  C133     1.0000 0.34616  0.86328  0.85870  Biso   1.000  C
  H144     1.0000 0.66580  0.16260  0.92312  Biso   1.000  H
  N53      1.0000 0.64245  0.06210  0.94876  Biso   1.000  N
  H145     1.0000 0.62569  0.13062  0.84556  Biso   1.000  H
  N54      1.0000 0.64244  0.06210  0.94869  Biso   1.000  N
  H146     1.0000 0.62568  0.13062  0.84549  Biso   1.000  H
  O25      1.0000 0.57246  0.16763  0.20591  Biso   1.000  O
  C134     1.0000 0.65384  0.13672  0.14136  Biso   1.000  C
  C135     1.0000 0.65383  0.13672  0.14130  Biso   1.000  C
  C136     1.0000 0.64510  0.33430  0.95621  Biso   1.000  C
  H147     1.0000 0.65820  0.30300  0.08603  Biso   1.000  H
  H148     1.0000 0.68068  0.24711  0.02783  Biso   1.000  H
  H149     1.0000 0.68072  0.24711  0.02783  Biso   1.000  H
  H150     1.0000 0.60649  0.43100  0.95092  Biso   1.000  H
  H151     1.0000 0.58029  0.36762  0.88604  Biso   1.000  H
  H152     1.0000 0.58028  0.36762  0.88597  Biso   1.000  H
  O26      1.0000 0.39877  0.00000  0.17373  Biso   1.000  O
  O27      1.0000 0.39879  0.00000  0.17367  Biso   1.000  O
  H153     1.0000 0.20961  0.05852  0.89101  Biso   1.000  H
  H154     1.0000 0.24690  0.05852  0.83202  Biso   1.000  H
  C137     1.0000 0.24089  0.95931  0.88794  Biso   1.000  C
  C138     1.0000 0.24089  0.95931  0.88787  Biso   1.000  C
  H155     1.0000 0.27782  0.86921  0.95562  Biso   1.000  H
  H156     1.0000 0.26821  0.93371  0.01985  Biso   1.000  H
  H157     1.0000 0.26820  0.93371  0.01978  Biso   1.000  H
  C139     1.0000 0.36437  0.86390  0.09022  Biso   1.000  C
  N55      1.0000 0.38715  0.82108  0.90304  Biso   1.000  N
  H158     1.0000 0.31809  0.83500  0.86315  Biso   1.000  H
  H159     1.0000 0.34621  0.86720  0.79592  Biso   1.000  H
  N56      1.0000 0.38714  0.82108  0.90298  Biso   1.000  N
  H160     1.0000 0.31811  0.83500  0.86308  Biso   1.000  H
  C140     1.0000 0.62569  0.00000  0.90141  Biso   1.000  C
  C141     1.0000 0.67501  0.04432  0.03116  Biso   1.000  C
  C142     1.0000 0.67501  0.04432  0.03110  Biso   1.000  C
  N57      1.0000 0.65683  0.06232  0.10716  Biso   1.000  N
  H161     1.0000 0.68192  0.16500  0.13691  Biso   1.000  H
  H162     1.0000 0.65379  0.13280  0.20415  Biso   1.000  H
  N58      1.0000 0.65682  0.06232  0.10709  Biso   1.000  N
  H163     1.0000 0.65378  0.13280  0.20408  Biso   1.000  H
  H164     1.0000 0.64539  0.30881  0.90056  Biso   1.000  H
  H165     1.0000 0.67119  0.37041  0.96844  Biso   1.000  H
  H166     1.0000 0.64538  0.30881  0.90049  Biso   1.000  H
  H167     1.0000 0.67121  0.37041  0.96838  Biso   1.000  H
  H168     1.0000 0.20961  0.94148  0.89101  Biso   1.000  H
  H169     1.0000 0.24690  0.94148  0.83202  Biso   1.000  H
  N59      1.0000 0.39802  0.81812  0.06125  Biso   1.000  N
  H170     1.0000 0.33420  0.83740  0.07694  Biso   1.000  H
  H171     1.0000 0.37431  0.86938  0.15451  Biso   1.000  H
  N60      1.0000 0.39802  0.81812  0.06118  Biso   1.000  N
  H172     1.0000 0.33419  0.83740  0.07688  Biso   1.000  H
  C143     1.0000 0.42273  0.80622  0.86321  Biso   1.000  C
  C144     1.0000 0.38912  0.77531  0.98022  Biso   1.000  C
  O28      1.0000 0.60124  0.00000  0.82633  Biso   1.000  O
  N61      1.0000 0.64245  0.93790  0.94876  Biso   1.000  N
  N62      1.0000 0.64244  0.93790  0.94869  Biso   1.000  N
  C145     1.0000 0.67501  0.95568  0.03116  Biso   1.000  C
  C146     1.0000 0.67501  0.95568  0.03110  Biso   1.000  C
  C147     1.0000 0.72280  0.07602  0.03600  Biso   1.000  C
  C148     1.0000 0.64859  0.00000  0.15163  Biso   1.000  C
  C149     1.0000 0.44085  0.80381  0.11494  Biso   1.000  C
  C150     1.0000 0.44084  0.80381  0.11487  Biso   1.000  C
  O29      1.0000 0.42755  0.83237  0.79415  Biso   1.000  O
  N63      1.0000 0.45258  0.75658  0.91416  Biso   1.000  N
  O30      1.0000 0.42754  0.83237  0.79409  Biso   1.000  O
  N64      1.0000 0.45257  0.75658  0.91410  Biso   1.000  N
  C151     1.0000 0.43566  0.72992  0.98865  Biso   1.000  C
  C152     1.0000 0.34733  0.72299  0.97112  Biso   1.000  C
  C153     1.0000 0.43565  0.72992  0.98859  Biso   1.000  C
  C154     1.0000 0.63563  0.86390  0.90984  Biso   1.000  C
  C155     1.0000 0.63562  0.86390  0.90978  Biso   1.000  C
  N65      1.0000 0.65683  0.93768  0.10716  Biso   1.000  N
  C156     1.0000 0.72280  0.92398  0.03600  Biso   1.000  C
  N66      1.0000 0.65682  0.93768  0.10709  Biso   1.000  N
  H173     1.0000 0.73179  0.06629  0.98022  Biso   1.000  H
  H174     1.0000 0.72219  0.13079  0.04444  Biso   1.000  H
  C157     1.0000 0.75911  0.04069  0.11213  Biso   1.000  C
  H175     1.0000 0.72221  0.13079  0.04437  Biso   1.000  H
  O31      1.0000 0.63688  0.00000  0.22174  Biso   1.000  O
  O32      1.0000 0.63690  0.00000  0.22167  Biso   1.000  O
  O33      1.0000 0.45512  0.82919  0.18851  Biso   1.000  O
  N67      1.0000 0.46408  0.75541  0.07282  Biso   1.000  N
  C158     1.0000 0.49121  0.72472  0.88473  Biso   1.000  C
  C159     1.0000 0.42776  0.64552  0.98734  Biso   1.000  C
  C160     1.0000 0.42778  0.64552  0.98728  Biso   1.000  C
  H176     1.0000 0.34181  0.69700  0.91403  Biso   1.000  H
  H177     1.0000 0.31932  0.75289  0.97224  Biso   1.000  H
  H178     1.0000 0.31931  0.75289  0.97217  Biso   1.000  H
  C161     1.0000 0.35490  0.66570  0.04385  Biso   1.000  C
  C162     1.0000 0.35490  0.66570  0.04378  Biso   1.000  C
  N68      1.0000 0.60198  0.81812  0.93882  Biso   1.000  N
  H179     1.0000 0.66580  0.83740  0.92312  Biso   1.000  H
  H180     1.0000 0.62569  0.86938  0.84556  Biso   1.000  H
  H181     1.0000 0.62568  0.86938  0.84549  Biso   1.000  H
  C163     1.0000 0.65384  0.86328  0.14136  Biso   1.000  C
  C164     1.0000 0.65383  0.86328  0.14130  Biso   1.000  C
  H182     1.0000 0.73179  0.93371  0.98022  Biso   1.000  H
  H183     1.0000 0.72219  0.86921  0.04444  Biso   1.000  H
  C165     1.0000 0.75911  0.95931  0.11213  Biso   1.000  C
  H184     1.0000 0.72221  0.86921  0.04437  Biso   1.000  H
  H185     1.0000 0.79040  0.05852  0.10905  Biso   1.000  H
  H186     1.0000 0.75310  0.05852  0.16804  Biso   1.000  H
  H187     1.0000 0.79039  0.05852  0.10899  Biso   1.000  H
  H188     1.0000 0.75309  0.05852  0.16798  Biso   1.000  H
  C166     1.0000 0.50880  0.72472  0.11533  Biso   1.000  C
  N69      1.0000 0.53592  0.75541  0.92724  Biso   1.000  N
  H189     1.0000 0.48612  0.73271  0.82084  Biso   1.000  H
  H190     1.0000 0.49180  0.67011  0.89500  Biso   1.000  H
  N70      1.0000 0.53591  0.75541  0.92718  Biso   1.000  N
  H191     1.0000 0.48611  0.73271  0.82077  Biso   1.000  H
  H192     1.0000 0.41049  0.62993  0.92822  Biso   1.000  H
  H193     1.0000 0.41052  0.62993  0.92822  Biso   1.000  H
  H194     1.0000 0.45811  0.61947  0.00075  Biso   1.000  H
  C167     1.0000 0.40030  0.62327  0.05451  Biso   1.000  C
  H195     1.0000 0.45811  0.61947  0.00069  Biso   1.000  H
  H196     1.0000 0.35461  0.69119  0.09951  Biso   1.000  H
  H197     1.0000 0.32882  0.62959  0.03162  Biso   1.000  H
  C168     1.0000 0.55915  0.80381  0.88512  Biso   1.000  C
  C169     1.0000 0.61088  0.77531  0.01985  Biso   1.000  C
  C170     1.0000 0.61087  0.77531  0.01978  Biso   1.000  C
  N71      1.0000 0.61285  0.82108  0.09702  Biso   1.000  N
  H198     1.0000 0.68192  0.83500  0.13691  Biso   1.000  H
  H199     1.0000 0.65379  0.86720  0.20415  Biso   1.000  H
  H200     1.0000 0.65378  0.86720  0.20408  Biso   1.000  H
  H201     1.0000 0.79040  0.94148  0.10905  Biso   1.000  H
  H202     1.0000 0.75310  0.94148  0.16804  Biso   1.000  H
  H203     1.0000 0.79039  0.94148  0.10899  Biso   1.000  H
  H204     1.0000 0.75309  0.94148  0.16798  Biso   1.000  H
  N72      1.0000 0.54743  0.75658  0.08590  Biso   1.000  N
  H205     1.0000 0.51389  0.73271  0.17923  Biso   1.000  H
  H206     1.0000 0.50820  0.67011  0.10506  Biso   1.000  H
  H207     1.0000 0.51392  0.73271  0.17923  Biso   1.000  H
  H208     1.0000 0.50819  0.67011  0.10500  Biso   1.000  H
  C171     1.0000 0.56434  0.72992  0.01141  Biso   1.000  C
  C172     1.0000 0.56438  0.72992  0.01141  Biso   1.000  C
  H209     1.0000 0.41971  0.63238  0.11402  Biso   1.000  H
  H210     1.0000 0.39352  0.56900  0.04915  Biso   1.000  H
  H211     1.0000 0.39351  0.56900  0.04908  Biso   1.000  H
  O34      1.0000 0.54489  0.82919  0.81155  Biso   1.000  O
  O35      1.0000 0.54488  0.82919  0.81148  Biso   1.000  O
  C173     1.0000 0.65267  0.72299  0.02894  Biso   1.000  C
  C174     1.0000 0.65266  0.72299  0.02887  Biso   1.000  C
  C175     1.0000 0.57727  0.80622  0.13685  Biso   1.000  C
  C176     1.0000 0.57726  0.80622  0.13678  Biso   1.000  C
  C177     1.0000 0.57225  0.64552  0.01272  Biso   1.000  C
  C178     1.0000 0.64510  0.66570  0.95621  Biso   1.000  C
  H212     1.0000 0.65820  0.69700  0.08603  Biso   1.000  H
  H213     1.0000 0.68068  0.75289  0.02783  Biso   1.000  H
  H214     1.0000 0.68072  0.75289  0.02783  Biso   1.000  H
  O36      1.0000 0.57246  0.83237  0.20591  Biso   1.000  O
  H215     1.0000 0.54189  0.61947  0.99931  Biso   1.000  H
  C179     1.0000 0.59970  0.62327  0.94555  Biso   1.000  C
  C180     1.0000 0.59970  0.62327  0.94549  Biso   1.000  C
  H216     1.0000 0.58952  0.62993  0.07184  Biso   1.000  H
  H217     1.0000 0.58951  0.62993  0.07178  Biso   1.000  H
  H218     1.0000 0.64539  0.69119  0.90056  Biso   1.000  H
  H219     1.0000 0.67119  0.62959  0.96844  Biso   1.000  H
  H220     1.0000 0.64538  0.69119  0.90049  Biso   1.000  H
  H221     1.0000 0.67121  0.62959  0.96838  Biso   1.000  H
  H222     1.0000 0.58029  0.63238  0.88604  Biso   1.000  H
  H223     1.0000 0.60649  0.56900  0.95092  Biso   1.000  H
  H224     1.0000 0.58028  0.63238  0.88597  Biso   1.000  H
  O37      1.0000 0.42755  0.16763  0.79415  Biso   1.000  O
  C181     1.0000 0.42273  0.19378  0.86321  Biso   1.000  C
  N73      1.0000 0.38715  0.17892  0.90304  Biso   1.000  N
  N74      1.0000 0.38714  0.17892  0.90298  Biso   1.000  N
  N75      1.0000 0.45258  0.24342  0.91416  Biso   1.000  N
  O38      1.0000 0.42754  0.16763  0.79409  Biso   1.000  O
  N76      1.0000 0.45257  0.24342  0.91410  Biso   1.000  N
  C182     1.0000 0.34616  0.13672  0.85870  Biso   1.000  C
  C183     1.0000 0.38912  0.22469  0.98022  Biso   1.000  C
  C184     1.0000 0.43566  0.27008  0.98865  Biso   1.000  C
  C185     1.0000 0.43565  0.27008  0.98859  Biso   1.000  C
  C186     1.0000 0.49121  0.27528  0.88473  Biso   1.000  C
  N77      1.0000 0.34317  0.06232  0.89291  Biso   1.000  N
  H225     1.0000 0.34621  0.13280  0.79592  Biso   1.000  H
  H226     1.0000 0.31809  0.16500  0.86315  Biso   1.000  H
  H227     1.0000 0.31811  0.16500  0.86308  Biso   1.000  H
  C187     1.0000 0.34733  0.27701  0.97112  Biso   1.000  C
  N78      1.0000 0.39802  0.18188  0.06125  Biso   1.000  N
  N79      1.0000 0.39802  0.18188  0.06118  Biso   1.000  N
  C188     1.0000 0.42776  0.35448  0.98734  Biso   1.000  C
  C189     1.0000 0.42778  0.35448  0.98728  Biso   1.000  C
  N80      1.0000 0.46408  0.24459  0.07282  Biso   1.000  N
  H228     1.0000 0.49180  0.32989  0.89500  Biso   1.000  H
  N81      1.0000 0.53592  0.24459  0.92724  Biso   1.000  N
  H229     1.0000 0.48612  0.26729  0.82084  Biso   1.000  H
  N82      1.0000 0.53591  0.24459  0.92718  Biso   1.000  N
  H230     1.0000 0.48611  0.26729  0.82077  Biso   1.000  H
  C190     1.0000 0.35141  0.00000  0.84843  Biso   1.000  C
  C191     1.0000 0.35140  0.00000  0.84837  Biso   1.000  C
  C192     1.0000 0.32499  0.04432  0.96890  Biso   1.000  C
  H231     1.0000 0.34181  0.30300  0.91403  Biso   1.000  H
  H232     1.0000 0.31932  0.24711  0.97224  Biso   1.000  H
  H233     1.0000 0.31931  0.24711  0.97217  Biso   1.000  H
  C193     1.0000 0.35490  0.33430  0.04385  Biso   1.000  C
  C194     1.0000 0.35490  0.33430  0.04378  Biso   1.000  C
  C195     1.0000 0.36437  0.13610  0.09022  Biso   1.000  C
  C196     1.0000 0.44085  0.19619  0.11494  Biso   1.000  C
  C197     1.0000 0.44084  0.19619  0.11487  Biso   1.000  C
  C198     1.0000 0.40030  0.37673  0.05451  Biso   1.000  C
  H234     1.0000 0.41049  0.37007  0.92822  Biso   1.000  H
  H235     1.0000 0.41052  0.37007  0.92822  Biso   1.000  H
  H236     1.0000 0.45811  0.38053  0.00075  Biso   1.000  H
  H237     1.0000 0.45811  0.38053  0.00069  Biso   1.000  H
  C199     1.0000 0.50880  0.27528  0.11533  Biso   1.000  C
  C200     1.0000 0.55915  0.19619  0.88512  Biso   1.000  C
  C201     1.0000 0.56434  0.27008  0.01141  Biso   1.000  C
  C202     1.0000 0.56438  0.27008  0.01141  Biso   1.000  C
  O39      1.0000 0.36313  0.00000  0.77833  Biso   1.000  O
  N83      1.0000 0.34317  0.93768  0.89291  Biso   1.000  N
  C203     1.0000 0.32499  0.95568  0.96890  Biso   1.000  C
  C204     1.0000 0.27721  0.07602  0.96406  Biso   1.000  C
  C205     1.0000 0.27720  0.07602  0.96400  Biso   1.000  C
  N84      1.0000 0.35755  0.06210  0.05131  Biso   1.000  N
  H238     1.0000 0.35461  0.30881  0.09951  Biso   1.000  H
  H239     1.0000 0.32882  0.37041  0.03162  Biso   1.000  H
  H240     1.0000 0.33420  0.16260  0.07694  Biso   1.000  H
  H241     1.0000 0.37431  0.13062  0.15451  Biso   1.000  H
  H242     1.0000 0.33419  0.16260  0.07688  Biso   1.000  H
  O40      1.0000 0.45512  0.17081  0.18851  Biso   1.000  O
  H243     1.0000 0.41971  0.36762  0.11402  Biso   1.000  H
  H244     1.0000 0.39352  0.43100  0.04915  Biso   1.000  H
  H245     1.0000 0.39351  0.43100  0.04908  Biso   1.000  H
  N85      1.0000 0.54743  0.24342  0.08590  Biso   1.000  N
  H246     1.0000 0.51389  0.26729  0.17923  Biso   1.000  H
  H247     1.0000 0.50820  0.32989  0.10506  Biso   1.000  H
  H248     1.0000 0.51392  0.26729  0.17923  Biso   1.000  H
  H249     1.0000 0.50819  0.32989  0.10500  Biso   1.000  H
  N86      1.0000 0.60198  0.18188  0.93882  Biso   1.000  N
  O41      1.0000 0.54489  0.17081  0.81155  Biso   1.000  O
  O42      1.0000 0.54488  0.17081  0.81148  Biso   1.000  O
  C206     1.0000 0.61088  0.22469  0.01985  Biso   1.000  C
  C207     1.0000 0.57225  0.35448  0.01272  Biso   1.000  C
  C208     1.0000 0.61087  0.22469  0.01978  Biso   1.000  C
  C209     1.0000 0.34616  0.86328  0.85870  Biso   1.000  C
  C210     1.0000 0.27721  0.92398  0.96406  Biso   1.000  C
  C211     1.0000 0.27720  0.92398  0.96400  Biso   1.000  C
  N87      1.0000 0.35755  0.93790  0.05131  Biso   1.000  N
  H250     1.0000 0.27782  0.13079  0.95562  Biso   1.000  H
  C212     1.0000 0.24089  0.04069  0.88794  Biso   1.000  C
  C213     1.0000 0.24089  0.04069  0.88787  Biso   1.000  C
  H251     1.0000 0.26821  0.06629  0.01985  Biso   1.000  H
  H252     1.0000 0.26820  0.06629  0.01978  Biso   1.000  H
  C214     1.0000 0.37431  0.00000  0.09865  Biso   1.000  C
  C215     1.0000 0.37430  0.00000  0.09859  Biso   1.000  C
  C216     1.0000 0.57727  0.19378  0.13685  Biso   1.000  C
  C217     1.0000 0.57726  0.19378  0.13678  Biso   1.000  C
  C218     1.0000 0.63563  0.13610  0.90984  Biso   1.000  C
  C219     1.0000 0.63562  0.13610  0.90978  Biso   1.000  C
  N88      1.0000 0.61285  0.17892  0.09702  Biso   1.000  N
  C220     1.0000 0.65267  0.27701  0.02894  Biso   1.000  C
  C221     1.0000 0.65266  0.27701  0.02887  Biso   1.000  C
  H253     1.0000 0.54189  0.38053  0.99931  Biso   1.000  H
  C222     1.0000 0.59970  0.37673  0.94555  Biso   1.000  C
  C223     1.0000 0.59970  0.37673  0.94549  Biso   1.000  C
  H254     1.0000 0.58952  0.37007  0.07184  Biso   1.000  H
  H255     1.0000 0.58951  0.37007  0.07178  Biso   1.000  H
  N89      1.0000 0.38715  0.82108  0.90304  Biso   1.000  N
  H256     1.0000 0.31809  0.83500  0.86315  Biso   1.000  H
  H257     1.0000 0.34621  0.86720  0.79592  Biso   1.000  H
  N90      1.0000 0.38714  0.82108  0.90298  Biso   1.000  N
  H258     1.0000 0.31811  0.83500  0.86308  Biso   1.000  H
  H259     1.0000 0.27782  0.86921  0.95562  Biso   1.000  H
  C224     1.0000 0.24089  0.95931  0.88794  Biso   1.000  C
  C225     1.0000 0.24089  0.95931  0.88787  Biso   1.000  C
  H260     1.0000 0.26821  0.93371  0.01985  Biso   1.000  H
  H261     1.0000 0.26820  0.93371  0.01978  Biso   1.000  H
  C226     1.0000 0.36437  0.86390  0.09022  Biso   1.000  C
  H262     1.0000 0.20961  0.05852  0.89101  Biso   1.000  H
  H263     1.0000 0.24690  0.05852  0.83202  Biso   1.000  H
  O43      1.0000 0.39877  0.00000  0.17373  Biso   1.000  O
  O44      1.0000 0.39879  0.00000  0.17367  Biso   1.000  O
  O45      1.0000 0.57246  0.16763  0.20591  Biso   1.000  O
  H264     1.0000 0.66580  0.16260  0.92312  Biso   1.000  H
  N91      1.0000 0.64245  0.06210  0.94876  Biso   1.000  N
  H265     1.0000 0.62569  0.13062  0.84556  Biso   1.000  H
  N92      1.0000 0.64244  0.06210  0.94869  Biso   1.000  N
  H266     1.0000 0.62568  0.13062  0.84549  Biso   1.000  H
  C227     1.0000 0.65384  0.13672  0.14136  Biso   1.000  C
  C228     1.0000 0.65383  0.13672  0.14130  Biso   1.000  C
  C229     1.0000 0.64510  0.33430  0.95621  Biso   1.000  C
  H267     1.0000 0.65820  0.30300  0.08603  Biso   1.000  H
  H268     1.0000 0.68068  0.24711  0.02783  Biso   1.000  H
  H269     1.0000 0.68072  0.24711  0.02783  Biso   1.000  H
  H270     1.0000 0.60649  0.43100  0.95092  Biso   1.000  H
  H271     1.0000 0.58029  0.36762  0.88604  Biso   1.000  H
  H272     1.0000 0.58028  0.36762  0.88597  Biso   1.000  H
  C230     1.0000 0.42273  0.80622  0.86321  Biso   1.000  C
  C231     1.0000 0.38912  0.77531  0.98022  Biso   1.000  C
  H273     1.0000 0.20961  0.94148  0.89101  Biso   1.000  H
  H274     1.0000 0.24690  0.94148  0.83202  Biso   1.000  H
  N93      1.0000 0.39802  0.81812  0.06125  Biso   1.000  N
  N94      1.0000 0.39802  0.81812  0.06118  Biso   1.000  N
  H275     1.0000 0.33420  0.83740  0.07694  Biso   1.000  H
  H276     1.0000 0.37431  0.86938  0.15451  Biso   1.000  H
  H277     1.0000 0.33419  0.83740  0.07688  Biso   1.000  H
  C232     1.0000 0.62569  0.00000  0.90141  Biso   1.000  C
  C233     1.0000 0.67501  0.04432  0.03116  Biso   1.000  C
  C234     1.0000 0.67501  0.04432  0.03110  Biso   1.000  C
  N95      1.0000 0.65683  0.06232  0.10716  Biso   1.000  N
  H278     1.0000 0.68192  0.16500  0.13691  Biso   1.000  H
  H279     1.0000 0.65379  0.13280  0.20415  Biso   1.000  H
  N96      1.0000 0.65682  0.06232  0.10709  Biso   1.000  N
  H280     1.0000 0.65378  0.13280  0.20408  Biso   1.000  H
  H281     1.0000 0.64539  0.30881  0.90056  Biso   1.000  H
  H282     1.0000 0.67119  0.37041  0.96844  Biso   1.000  H
  H283     1.0000 0.64538  0.30881  0.90049  Biso   1.000  H
  H284     1.0000 0.67121  0.37041  0.96838  Biso   1.000  H
  O46      1.0000 0.42755  0.83237  0.79415  Biso   1.000  O
  N97      1.0000 0.45258  0.75658  0.91416  Biso   1.000  N
  O47      1.0000 0.42754  0.83237  0.79409  Biso   1.000  O
  N98      1.0000 0.45257  0.75658  0.91410  Biso   1.000  N
  C235     1.0000 0.43566  0.72992  0.98865  Biso   1.000  C
  C236     1.0000 0.34733  0.72299  0.97112  Biso   1.000  C
  C237     1.0000 0.43565  0.72992  0.98859  Biso   1.000  C
  C238     1.0000 0.44085  0.80381  0.11494  Biso   1.000  C
  C239     1.0000 0.44084  0.80381  0.11487  Biso   1.000  C
  N99      1.0000 0.64245  0.93790  0.94876  Biso   1.000  N
  N100     1.0000 0.64244  0.93790  0.94869  Biso   1.000  N
  O48      1.0000 0.60124  0.00000  0.82633  Biso   1.000  O
  C240     1.0000 0.67501  0.95568  0.03116  Biso   1.000  C
  C241     1.0000 0.67501  0.95568  0.03110  Biso   1.000  C
  C242     1.0000 0.72280  0.07602  0.03600  Biso   1.000  C
  C243     1.0000 0.64859  0.00000  0.15163  Biso   1.000  C
  C244     1.0000 0.49121  0.72472  0.88473  Biso   1.000  C
  C245     1.0000 0.42776  0.64552  0.98734  Biso   1.000  C
  C246     1.0000 0.42778  0.64552  0.98728  Biso   1.000  C
  N101     1.0000 0.46408  0.75541  0.07282  Biso   1.000  N
  H285     1.0000 0.34181  0.69700  0.91403  Biso   1.000  H
  H286     1.0000 0.31932  0.75289  0.97224  Biso   1.000  H
  H287     1.0000 0.31931  0.75289  0.97217  Biso   1.000  H
  C247     1.0000 0.35490  0.66570  0.04385  Biso   1.000  C
  C248     1.0000 0.35490  0.66570  0.04378  Biso   1.000  C
  O49      1.0000 0.45512  0.82919  0.18851  Biso   1.000  O
  C249     1.0000 0.63563  0.86390  0.90984  Biso   1.000  C
  C250     1.0000 0.63562  0.86390  0.90978  Biso   1.000  C
  N102     1.0000 0.65683  0.93768  0.10716  Biso   1.000  N
  N103     1.0000 0.65682  0.93768  0.10709  Biso   1.000  N
  C251     1.0000 0.72280  0.92398  0.03600  Biso   1.000  C
  H288     1.0000 0.73179  0.06629  0.98022  Biso   1.000  H
  H289     1.0000 0.72219  0.13079  0.04444  Biso   1.000  H
  C252     1.0000 0.75911  0.04069  0.11213  Biso   1.000  C
  H290     1.0000 0.72221  0.13079  0.04437  Biso   1.000  H
  O50      1.0000 0.63688  0.00000  0.22174  Biso   1.000  O
  O51      1.0000 0.63690  0.00000  0.22167  Biso   1.000  O
  N104     1.0000 0.53592  0.75541  0.92724  Biso   1.000  N
  H291     1.0000 0.48612  0.73271  0.82084  Biso   1.000  H
  H292     1.0000 0.49180  0.67011  0.89500  Biso   1.000  H
  N105     1.0000 0.53591  0.75541  0.92718  Biso   1.000  N
  H293     1.0000 0.48611  0.73271  0.82077  Biso   1.000  H
  H294     1.0000 0.41049  0.62993  0.92822  Biso   1.000  H
  H295     1.0000 0.41052  0.62993  0.92822  Biso   1.000  H
  H296     1.0000 0.45811  0.61947  0.00075  Biso   1.000  H
  C253     1.0000 0.40030  0.62327  0.05451  Biso   1.000  C
  H297     1.0000 0.45811  0.61947  0.00069  Biso   1.000  H
  C254     1.0000 0.50880  0.72472  0.11533  Biso   1.000  C
  H298     1.0000 0.35461  0.69119  0.09951  Biso   1.000  H
  H299     1.0000 0.32882  0.62959  0.03162  Biso   1.000  H
  N106     1.0000 0.60198  0.81812  0.93882  Biso   1.000  N
  H300     1.0000 0.66580  0.83740  0.92312  Biso   1.000  H
  H301     1.0000 0.62569  0.86938  0.84556  Biso   1.000  H
  H302     1.0000 0.62568  0.86938  0.84549  Biso   1.000  H
  C255     1.0000 0.65384  0.86328  0.14136  Biso   1.000  C
  C256     1.0000 0.65383  0.86328  0.14130  Biso   1.000  C
  H303     1.0000 0.73179  0.93371  0.98022  Biso   1.000  H
  H304     1.0000 0.72219  0.86921  0.04444  Biso   1.000  H
  C257     1.0000 0.75911  0.95931  0.11213  Biso   1.000  C
  H305     1.0000 0.72221  0.86921  0.04437  Biso   1.000  H
  H306     1.0000 0.79040  0.05852  0.10905  Biso   1.000  H
  H307     1.0000 0.75310  0.05852  0.16804  Biso   1.000  H
  H308     1.0000 0.79039  0.05852  0.10899  Biso   1.000  H
  H309     1.0000 0.75309  0.05852  0.16798  Biso   1.000  H
  C258     1.0000 0.55915  0.80381  0.88512  Biso   1.000  C
  C259     1.0000 0.56434  0.72992  0.01141  Biso   1.000  C
  C260     1.0000 0.56438  0.72992  0.01141  Biso   1.000  C
  H310     1.0000 0.41971  0.63238  0.11402  Biso   1.000  H
  H311     1.0000 0.39352  0.56900  0.04915  Biso   1.000  H
  H312     1.0000 0.39351  0.56900  0.04908  Biso   1.000  H
  N107     1.0000 0.54743  0.75658  0.08590  Biso   1.000  N
  H313     1.0000 0.51389  0.73271  0.17923  Biso   1.000  H
  H314     1.0000 0.50820  0.67011  0.10506  Biso   1.000  H
  H315     1.0000 0.51392  0.73271  0.17923  Biso   1.000  H
  H316     1.0000 0.50819  0.67011  0.10500  Biso   1.000  H
  C261     1.0000 0.61088  0.77531  0.01985  Biso   1.000  C
  C262     1.0000 0.61087  0.77531  0.01978  Biso   1.000  C
  N108     1.0000 0.61285  0.82108  0.09702  Biso   1.000  N
  H317     1.0000 0.68192  0.83500  0.13691  Biso   1.000  H
  H318     1.0000 0.65379  0.86720  0.20415  Biso   1.000  H
  H319     1.0000 0.65378  0.86720  0.20408  Biso   1.000  H
  H320     1.0000 0.79040  0.94148  0.10905  Biso   1.000  H
  H321     1.0000 0.75310  0.94148  0.16804  Biso   1.000  H
  H322     1.0000 0.79039  0.94148  0.10899  Biso   1.000  H
  H323     1.0000 0.75309  0.94148  0.16798  Biso   1.000  H
  O52      1.0000 0.54489  0.82919  0.81155  Biso   1.000  O
  O53      1.0000 0.54488  0.82919  0.81148  Biso   1.000  O
  C263     1.0000 0.57225  0.64552  0.01272  Biso   1.000  C
  C264     1.0000 0.57727  0.80622  0.13685  Biso   1.000  C
  C265     1.0000 0.57726  0.80622  0.13678  Biso   1.000  C
  C266     1.0000 0.65267  0.72299  0.02894  Biso   1.000  C
  C267     1.0000 0.65266  0.72299  0.02887  Biso   1.000  C
  H324     1.0000 0.54189  0.61947  0.99931  Biso   1.000  H
  C268     1.0000 0.59970  0.62327  0.94555  Biso   1.000  C
  C269     1.0000 0.59970  0.62327  0.94549  Biso   1.000  C
  H325     1.0000 0.58952  0.62993  0.07184  Biso   1.000  H
  H326     1.0000 0.58951  0.62993  0.07178  Biso   1.000  H
  O54      1.0000 0.57246  0.83237  0.20591  Biso   1.000  O
  C270     1.0000 0.64510  0.66570  0.95621  Biso   1.000  C
  H327     1.0000 0.65820  0.69700  0.08603  Biso   1.000  H
  H328     1.0000 0.68068  0.75289  0.02783  Biso   1.000  H
  H329     1.0000 0.68072  0.75289  0.02783  Biso   1.000  H
  H330     1.0000 0.58029  0.63238  0.88604  Biso   1.000  H
  H331     1.0000 0.60649  0.56900  0.95092  Biso   1.000  H
  H332     1.0000 0.58028  0.63238  0.88597  Biso   1.000  H
  H333     1.0000 0.64539  0.69119  0.90056  Biso   1.000  H
  H334     1.0000 0.67119  0.62959  0.96844  Biso   1.000  H
  H335     1.0000 0.64538  0.69119  0.90049  Biso   1.000  H
  H336     1.0000 0.67121  0.62959  0.96838  Biso   1.000  H
  O55      1.0000 0.42755  0.16763  0.79415  Biso   1.000  O
  C271     1.0000 0.42273  0.19378  0.86321  Biso   1.000  C
  N109     1.0000 0.38715  0.17892  0.90304  Biso   1.000  N
  N110     1.0000 0.38714  0.17892  0.90298  Biso   1.000  N
  N111     1.0000 0.45258  0.24342  0.91416  Biso   1.000  N
  O56      1.0000 0.42754  0.16763  0.79409  Biso   1.000  O
  N112     1.0000 0.45257  0.24342  0.91410  Biso   1.000  N
  C272     1.0000 0.34616  0.13672  0.85870  Biso   1.000  C
  C273     1.0000 0.38912  0.22469  0.98022  Biso   1.000  C
  C274     1.0000 0.43566  0.27008  0.98865  Biso   1.000  C
  C275     1.0000 0.43565  0.27008  0.98859  Biso   1.000  C
  C276     1.0000 0.49121  0.27528  0.88473  Biso   1.000  C
  N113     1.0000 0.34317  0.06232  0.89291  Biso   1.000  N
  H337     1.0000 0.34621  0.13280  0.79592  Biso   1.000  H
  H338     1.0000 0.31809  0.16500  0.86315  Biso   1.000  H
  H339     1.0000 0.31811  0.16500  0.86308  Biso   1.000  H
  C277     1.0000 0.34733  0.27701  0.97112  Biso   1.000  C
  N114     1.0000 0.39802  0.18188  0.06125  Biso   1.000  N
  N115     1.0000 0.39802  0.18188  0.06118  Biso   1.000  N
  C278     1.0000 0.42776  0.35448  0.98734  Biso   1.000  C
  C279     1.0000 0.42778  0.35448  0.98728  Biso   1.000  C
  N116     1.0000 0.46408  0.24459  0.07282  Biso   1.000  N
  H340     1.0000 0.49180  0.32989  0.89500  Biso   1.000  H
  N117     1.0000 0.53592  0.24459  0.92724  Biso   1.000  N
  H341     1.0000 0.48612  0.26729  0.82084  Biso   1.000  H
  N118     1.0000 0.53591  0.24459  0.92718  Biso   1.000  N
  H342     1.0000 0.48611  0.26729  0.82077  Biso   1.000  H
  C280     1.0000 0.35141  0.00000  0.84843  Biso   1.000  C
  C281     1.0000 0.35140  0.00000  0.84837  Biso   1.000  C
  C282     1.0000 0.32499  0.04432  0.96890  Biso   1.000  C
  H343     1.0000 0.34181  0.30300  0.91403  Biso   1.000  H
  H344     1.0000 0.31932  0.24711  0.97224  Biso   1.000  H
  H345     1.0000 0.31931  0.24711  0.97217  Biso   1.000  H
  C283     1.0000 0.35490  0.33430  0.04385  Biso   1.000  C
  C284     1.0000 0.35490  0.33430  0.04378  Biso   1.000  C
  C285     1.0000 0.36437  0.13610  0.09022  Biso   1.000  C
  C286     1.0000 0.44085  0.19619  0.11494  Biso   1.000  C
  C287     1.0000 0.44084  0.19619  0.11487  Biso   1.000  C
  C288     1.0000 0.40030  0.37673  0.05451  Biso   1.000  C
  H346     1.0000 0.41049  0.37007  0.92822  Biso   1.000  H
  H347     1.0000 0.41052  0.37007  0.92822  Biso   1.000  H
  H348     1.0000 0.45811  0.38053  0.00075  Biso   1.000  H
  H349     1.0000 0.45811  0.38053  0.00069  Biso   1.000  H
  C289     1.0000 0.50880  0.27528  0.11533  Biso   1.000  C
  C290     1.0000 0.55915  0.19619  0.88512  Biso   1.000  C
  C291     1.0000 0.56434  0.27008  0.01141  Biso   1.000  C
  C292     1.0000 0.56438  0.27008  0.01141  Biso   1.000  C
  O57      1.0000 0.36313  0.00000  0.77833  Biso   1.000  O
  N119     1.0000 0.34317  0.93768  0.89291  Biso   1.000  N
  C293     1.0000 0.32499  0.95568  0.96890  Biso   1.000  C
  C294     1.0000 0.27721  0.07602  0.96406  Biso   1.000  C
  C295     1.0000 0.27720  0.07602  0.96400  Biso   1.000  C
  N120     1.0000 0.35755  0.06210  0.05131  Biso   1.000  N
  H350     1.0000 0.35461  0.30881  0.09951  Biso   1.000  H
  H351     1.0000 0.32882  0.37041  0.03162  Biso   1.000  H
  H352     1.0000 0.33420  0.16260  0.07694  Biso   1.000  H
  H353     1.0000 0.37431  0.13062  0.15451  Biso   1.000  H
  H354     1.0000 0.33419  0.16260  0.07688  Biso   1.000  H
  O58      1.0000 0.45512  0.17081  0.18851  Biso   1.000  O
  H355     1.0000 0.41971  0.36762  0.11402  Biso   1.000  H
  H356     1.0000 0.39352  0.43100  0.04915  Biso   1.000  H
  H357     1.0000 0.39351  0.43100  0.04908  Biso   1.000  H
  N121     1.0000 0.54743  0.24342  0.08590  Biso   1.000  N
  H358     1.0000 0.51389  0.26729  0.17923  Biso   1.000  H
  H359     1.0000 0.50820  0.32989  0.10506  Biso   1.000  H
  H360     1.0000 0.51392  0.26729  0.17923  Biso   1.000  H
  H361     1.0000 0.50819  0.32989  0.10500  Biso   1.000  H
  N122     1.0000 0.60198  0.18188  0.93882  Biso   1.000  N
  O59      1.0000 0.54489  0.17081  0.81155  Biso   1.000  O
  O60      1.0000 0.54488  0.17081  0.81148  Biso   1.000  O
  C296     1.0000 0.61088  0.22469  0.01985  Biso   1.000  C
  C297     1.0000 0.57225  0.35448  0.01272  Biso   1.000  C
  C298     1.0000 0.61087  0.22469  0.01978  Biso   1.000  C
  C299     1.0000 0.34616  0.86328  0.85870  Biso   1.000  C
  C300     1.0000 0.27721  0.92398  0.96406  Biso   1.000  C
  C301     1.0000 0.27720  0.92398  0.96400  Biso   1.000  C
  N123     1.0000 0.35755  0.93790  0.05131  Biso   1.000  N
  H362     1.0000 0.27782  0.13079  0.95562  Biso   1.000  H
  C302     1.0000 0.24089  0.04069  0.88794  Biso   1.000  C
  C303     1.0000 0.24089  0.04069  0.88787  Biso   1.000  C
  H363     1.0000 0.26821  0.06629  0.01985  Biso   1.000  H
  H364     1.0000 0.26820  0.06629  0.01978  Biso   1.000  H
  C304     1.0000 0.37431  0.00000  0.09865  Biso   1.000  C
  C305     1.0000 0.37430  0.00000  0.09859  Biso   1.000  C
  C306     1.0000 0.57727  0.19378  0.13685  Biso   1.000  C
  C307     1.0000 0.57726  0.19378  0.13678  Biso   1.000  C
  C308     1.0000 0.63563  0.13610  0.90984  Biso   1.000  C
  C309     1.0000 0.63562  0.13610  0.90978  Biso   1.000  C
  N124     1.0000 0.61285  0.17892  0.09702  Biso   1.000  N
  C310     1.0000 0.65267  0.27701  0.02894  Biso   1.000  C
  C311     1.0000 0.65266  0.27701  0.02887  Biso   1.000  C
  H365     1.0000 0.54189  0.38053  0.99931  Biso   1.000  H
  C312     1.0000 0.59970  0.37673  0.94555  Biso   1.000  C
  C313     1.0000 0.59970  0.37673  0.94549  Biso   1.000  C
  H366     1.0000 0.58952  0.37007  0.07184  Biso   1.000  H
  H367     1.0000 0.58951  0.37007  0.07178  Biso   1.000  H
  N125     1.0000 0.38715  0.82108  0.90304  Biso   1.000  N
  H368     1.0000 0.31809  0.83500  0.86315  Biso   1.000  H
  H369     1.0000 0.34621  0.86720  0.79592  Biso   1.000  H
  N126     1.0000 0.38714  0.82108  0.90298  Biso   1.000  N
  H370     1.0000 0.31811  0.83500  0.86308  Biso   1.000  H
  H371     1.0000 0.27782  0.86921  0.95562  Biso   1.000  H
  C314     1.0000 0.24089  0.95931  0.88794  Biso   1.000  C
  C315     1.0000 0.24089  0.95931  0.88787  Biso   1.000  C
  H372     1.0000 0.26821  0.93371  0.01985  Biso   1.000  H
  H373     1.0000 0.26820  0.93371  0.01978  Biso   1.000  H
  C316     1.0000 0.36437  0.86390  0.09022  Biso   1.000  C
  H374     1.0000 0.20961  0.05852  0.89101  Biso   1.000  H
  H375     1.0000 0.24690  0.05852  0.83202  Biso   1.000  H
  O61      1.0000 0.39877  0.00000  0.17373  Biso   1.000  O
  O62      1.0000 0.39879  0.00000  0.17367  Biso   1.000  O
  O63      1.0000 0.57246  0.16763  0.20591  Biso   1.000  O
  H376     1.0000 0.66580  0.16260  0.92312  Biso   1.000  H
  N127     1.0000 0.64245  0.06210  0.94876  Biso   1.000  N
  H377     1.0000 0.62569  0.13062  0.84556  Biso   1.000  H
  N128     1.0000 0.64244  0.06210  0.94869  Biso   1.000  N
  H378     1.0000 0.62568  0.13062  0.84549  Biso   1.000  H
  C317     1.0000 0.65384  0.13672  0.14136  Biso   1.000  C
  C318     1.0000 0.65383  0.13672  0.14130  Biso   1.000  C
  C319     1.0000 0.64510  0.33430  0.95621  Biso   1.000  C
  H379     1.0000 0.65820  0.30300  0.08603  Biso   1.000  H
  H380     1.0000 0.68068  0.24711  0.02783  Biso   1.000  H
  H381     1.0000 0.68072  0.24711  0.02783  Biso   1.000  H
  H382     1.0000 0.60649  0.43100  0.95092  Biso   1.000  H
  H383     1.0000 0.58029  0.36762  0.88604  Biso   1.000  H
  H384     1.0000 0.58028  0.36762  0.88597  Biso   1.000  H
  C320     1.0000 0.42273  0.80622  0.86321  Biso   1.000  C
  C321     1.0000 0.38912  0.77531  0.98022  Biso   1.000  C
  H385     1.0000 0.20961  0.94148  0.89101  Biso   1.000  H
  H386     1.0000 0.24690  0.94148  0.83202  Biso   1.000  H
  N129     1.0000 0.39802  0.81812  0.06125  Biso   1.000  N
  N130     1.0000 0.39802  0.81812  0.06118  Biso   1.000  N
  H387     1.0000 0.33420  0.83740  0.07694  Biso   1.000  H
  H388     1.0000 0.37431  0.86938  0.15451  Biso   1.000  H
  H389     1.0000 0.33419  0.83740  0.07688  Biso   1.000  H
  C322     1.0000 0.62569  0.00000  0.90141  Biso   1.000  C
  C323     1.0000 0.67501  0.04432  0.03116  Biso   1.000  C
  C324     1.0000 0.67501  0.04432  0.03110  Biso   1.000  C
  N131     1.0000 0.65683  0.06232  0.10716  Biso   1.000  N
  H390     1.0000 0.68192  0.16500  0.13691  Biso   1.000  H
  H391     1.0000 0.65379  0.13280  0.20415  Biso   1.000  H
  N132     1.0000 0.65682  0.06232  0.10709  Biso   1.000  N
  H392     1.0000 0.65378  0.13280  0.20408  Biso   1.000  H
  H393     1.0000 0.64539  0.30881  0.90056  Biso   1.000  H
  H394     1.0000 0.67119  0.37041  0.96844  Biso   1.000  H
  H395     1.0000 0.64538  0.30881  0.90049  Biso   1.000  H
  H396     1.0000 0.67121  0.37041  0.96838  Biso   1.000  H
  O64      1.0000 0.42755  0.83237  0.79415  Biso   1.000  O
  N133     1.0000 0.45258  0.75658  0.91416  Biso   1.000  N
  O65      1.0000 0.42754  0.83237  0.79409  Biso   1.000  O
  N134     1.0000 0.45257  0.75658  0.91410  Biso   1.000  N
  C325     1.0000 0.43566  0.72992  0.98865  Biso   1.000  C
  C326     1.0000 0.34733  0.72299  0.97112  Biso   1.000  C
  C327     1.0000 0.43565  0.72992  0.98859  Biso   1.000  C
  C328     1.0000 0.44085  0.80381  0.11494  Biso   1.000  C
  C329     1.0000 0.44084  0.80381  0.11487  Biso   1.000  C
  N135     1.0000 0.64245  0.93790  0.94876  Biso   1.000  N
  N136     1.0000 0.64244  0.93790  0.94869  Biso   1.000  N
  O66      1.0000 0.60124  0.00000  0.82633  Biso   1.000  O
  C330     1.0000 0.67501  0.95568  0.03116  Biso   1.000  C
  C331     1.0000 0.67501  0.95568  0.03110  Biso   1.000  C
  C332     1.0000 0.72280  0.07602  0.03600  Biso   1.000  C
  C333     1.0000 0.64859  0.00000  0.15163  Biso   1.000  C
  C334     1.0000 0.49121  0.72472  0.88473  Biso   1.000  C
  C335     1.0000 0.42776  0.64552  0.98734  Biso   1.000  C
  C336     1.0000 0.42778  0.64552  0.98728  Biso   1.000  C
  N137     1.0000 0.46408  0.75541  0.07282  Biso   1.000  N
  H397     1.0000 0.34181  0.69700  0.91403  Biso   1.000  H
  H398     1.0000 0.31932  0.75289  0.97224  Biso   1.000  H
  H399     1.0000 0.31931  0.75289  0.97217  Biso   1.000  H
  C337     1.0000 0.35490  0.66570  0.04385  Biso   1.000  C
  C338     1.0000 0.35490  0.66570  0.04378  Biso   1.000  C
  O67      1.0000 0.45512  0.82919  0.18851  Biso   1.000  O
  C339     1.0000 0.63563  0.86390  0.90984  Biso   1.000  C
  C340     1.0000 0.63562  0.86390  0.90978  Biso   1.000  C
  N138     1.0000 0.65683  0.93768  0.10716  Biso   1.000  N
  N139     1.0000 0.65682  0.93768  0.10709  Biso   1.000  N
  C341     1.0000 0.72280  0.92398  0.03600  Biso   1.000  C
  H400     1.0000 0.73179  0.06629  0.98022  Biso   1.000  H
  H401     1.0000 0.72219  0.13079  0.04444  Biso   1.000  H
  C342     1.0000 0.75911  0.04069  0.11213  Biso   1.000  C
  H402     1.0000 0.72221  0.13079  0.04437  Biso   1.000  H
  O68      1.0000 0.63688  0.00000  0.22174  Biso   1.000  O
  O69      1.0000 0.63690  0.00000  0.22167  Biso   1.000  O
  N140     1.0000 0.53592  0.75541  0.92724  Biso   1.000  N
  H403     1.0000 0.48612  0.73271  0.82084  Biso   1.000  H
  H404     1.0000 0.49180  0.67011  0.89500  Biso   1.000  H
  N141     1.0000 0.53591  0.75541  0.92718  Biso   1.000  N
  H405     1.0000 0.48611  0.73271  0.82077  Biso   1.000  H
  H406     1.0000 0.41049  0.62993  0.92822  Biso   1.000  H
  H407     1.0000 0.41052  0.62993  0.92822  Biso   1.000  H
  H408     1.0000 0.45811  0.61947  0.00075  Biso   1.000  H
  C343     1.0000 0.40030  0.62327  0.05451  Biso   1.000  C
  H409     1.0000 0.45811  0.61947  0.00069  Biso   1.000  H
  C344     1.0000 0.50880  0.72472  0.11533  Biso   1.000  C
  H410     1.0000 0.35461  0.69119  0.09951  Biso   1.000  H
  H411     1.0000 0.32882  0.62959  0.03162  Biso   1.000  H
  N142     1.0000 0.60198  0.81812  0.93882  Biso   1.000  N
  H412     1.0000 0.66580  0.83740  0.92312  Biso   1.000  H
  H413     1.0000 0.62569  0.86938  0.84556  Biso   1.000  H
  H414     1.0000 0.62568  0.86938  0.84549  Biso   1.000  H
  C345     1.0000 0.65384  0.86328  0.14136  Biso   1.000  C
  C346     1.0000 0.65383  0.86328  0.14130  Biso   1.000  C
  H415     1.0000 0.73179  0.93371  0.98022  Biso   1.000  H
  H416     1.0000 0.72219  0.86921  0.04444  Biso   1.000  H
  C347     1.0000 0.75911  0.95931  0.11213  Biso   1.000  C
  H417     1.0000 0.72221  0.86921  0.04437  Biso   1.000  H
  H418     1.0000 0.79040  0.05852  0.10905  Biso   1.000  H
  H419     1.0000 0.75310  0.05852  0.16804  Biso   1.000  H
  H420     1.0000 0.79039  0.05852  0.10899  Biso   1.000  H
  H421     1.0000 0.75309  0.05852  0.16798  Biso   1.000  H
  C348     1.0000 0.55915  0.80381  0.88512  Biso   1.000  C
  C349     1.0000 0.56434  0.72992  0.01141  Biso   1.000  C
  C350     1.0000 0.56438  0.72992  0.01141  Biso   1.000  C
  H422     1.0000 0.41971  0.63238  0.11402  Biso   1.000  H
  H423     1.0000 0.39352  0.56900  0.04915  Biso   1.000  H
  H424     1.0000 0.39351  0.56900  0.04908  Biso   1.000  H
  N143     1.0000 0.54743  0.75658  0.08590  Biso   1.000  N
  H425     1.0000 0.51389  0.73271  0.17923  Biso   1.000  H
  H426     1.0000 0.50820  0.67011  0.10506  Biso   1.000  H
  H427     1.0000 0.51392  0.73271  0.17923  Biso   1.000  H
  H428     1.0000 0.50819  0.67011  0.10500  Biso   1.000  H
  C351     1.0000 0.61088  0.77531  0.01985  Biso   1.000  C
  C352     1.0000 0.61087  0.77531  0.01978  Biso   1.000  C
  N144     1.0000 0.61285  0.82108  0.09702  Biso   1.000  N
  H429     1.0000 0.68192  0.83500  0.13691  Biso   1.000  H
  H430     1.0000 0.65379  0.86720  0.20415  Biso   1.000  H
  H431     1.0000 0.65378  0.86720  0.20408  Biso   1.000  H
  H432     1.0000 0.79040  0.94148  0.10905  Biso   1.000  H
  H433     1.0000 0.75310  0.94148  0.16804  Biso   1.000  H
  H434     1.0000 0.79039  0.94148  0.10899  Biso   1.000  H
  H435     1.0000 0.75309  0.94148  0.16798  Biso   1.000  H
  O70      1.0000 0.54489  0.82919  0.81155  Biso   1.000  O
  O71      1.0000 0.54488  0.82919  0.81148  Biso   1.000  O
  C353     1.0000 0.57225  0.64552  0.01272  Biso   1.000  C
  C354     1.0000 0.57727  0.80622  0.13685  Biso   1.000  C
  C355     1.0000 0.57726  0.80622  0.13678  Biso   1.000  C
  C356     1.0000 0.65267  0.72299  0.02894  Biso   1.000  C
  C357     1.0000 0.65266  0.72299  0.02887  Biso   1.000  C
  H436     1.0000 0.54189  0.61947  0.99931  Biso   1.000  H
  C358     1.0000 0.59970  0.62327  0.94555  Biso   1.000  C
  C359     1.0000 0.59970  0.62327  0.94549  Biso   1.000  C
  H437     1.0000 0.58952  0.62993  0.07184  Biso   1.000  H
  H438     1.0000 0.58951  0.62993  0.07178  Biso   1.000  H
  O72      1.0000 0.57246  0.83237  0.20591  Biso   1.000  O
  C360     1.0000 0.64510  0.66570  0.95621  Biso   1.000  C
  H439     1.0000 0.65820  0.69700  0.08603  Biso   1.000  H
  H440     1.0000 0.68068  0.75289  0.02783  Biso   1.000  H
  H441     1.0000 0.68072  0.75289  0.02783  Biso   1.000  H
  H442     1.0000 0.58029  0.63238  0.88604  Biso   1.000  H
  H443     1.0000 0.60649  0.56900  0.95092  Biso   1.000  H
  H444     1.0000 0.58028  0.63238  0.88597  Biso   1.000  H
  H445     1.0000 0.64539  0.69119  0.90056  Biso   1.000  H
  H446     1.0000 0.67119  0.62959  0.96844  Biso   1.000  H
  H447     1.0000 0.64538  0.69119  0.90049  Biso   1.000  H
  H448     1.0000 0.67121  0.62959  0.96838  Biso   1.000  H
  O73      1.0000 0.42752  0.33134  0.65093  Biso   1.000  O
  C361     1.0000 0.42258  0.30731  0.57650  Biso   1.000  C
  N145     1.0000 0.38581  0.32027  0.50757  Biso   1.000  N
  N146     1.0000 0.45365  0.26175  0.54877  Biso   1.000  N
  C362     1.0000 0.38811  0.27679  0.43001  Biso   1.000  C
  C363     1.0000 0.34588  0.36381  0.51758  Biso   1.000  C
  C364     1.0000 0.43580  0.23442  0.45970  Biso   1.000  C
  C365     1.0000 0.49378  0.23179  0.61071  Biso   1.000  C
  C366     1.0000 0.34736  0.22279  0.40228  Biso   1.000  C
  N147     1.0000 0.39522  0.32324  0.35813  Biso   1.000  N
  N148     1.0000 0.34306  0.43787  0.47958  Biso   1.000  N
  H449     1.0000 0.34690  0.36862  0.58082  Biso   1.000  H
  H450     1.0000 0.31719  0.33598  0.49030  Biso   1.000  H
  N149     1.0000 0.46233  0.26225  0.39842  Biso   1.000  N
  C367     1.0000 0.42958  0.15002  0.45531  Biso   1.000  C
  H451     1.0000 0.49440  0.17690  0.60318  Biso   1.000  H
  H452     1.0000 0.49030  0.24191  0.67068  Biso   1.000  H
  N150     1.0000 0.53767  0.26225  0.60161  Biso   1.000  N
  H453     1.0000 0.31850  0.25130  0.37801  Biso   1.000  H
  H454     1.0000 0.34288  0.19462  0.45388  Biso   1.000  H
  C368     1.0000 0.35666  0.16858  0.33367  Biso   1.000  C
  C369     1.0000 0.43791  0.31262  0.33969  Biso   1.000  C
  C370     1.0000 0.35874  0.36381  0.29842  Biso   1.000  C
  C371     1.0000 0.35251  0.50003  0.53151  Biso   1.000  C
  C372     1.0000 0.32129  0.45559  0.38880  Biso   1.000  C
  C373     1.0000 0.50623  0.23179  0.38933  Biso   1.000  C
  C374     1.0000 0.40238  0.12459  0.36519  Biso   1.000  C
  H455     1.0000 0.46050  0.12571  0.46892  Biso   1.000  H
  H456     1.0000 0.41291  0.13398  0.49992  Biso   1.000  H
  C375     1.0000 0.56419  0.23442  0.54027  Biso   1.000  C
  C376     1.0000 0.56208  0.31262  0.66028  Biso   1.000  C
  H457     1.0000 0.33051  0.13280  0.31817  Biso   1.000  H
  H458     1.0000 0.35812  0.19691  0.28030  Biso   1.000  H
  O74      1.0000 0.45150  0.34257  0.28004  Biso   1.000  O
  N151     1.0000 0.35016  0.43782  0.32811  Biso   1.000  N
  H459     1.0000 0.32961  0.33441  0.28920  Biso   1.000  H
  H460     1.0000 0.36709  0.36812  0.24120  Biso   1.000  H
  O75      1.0000 0.36553  0.50003  0.61110  Biso   1.000  O
  N152     1.0000 0.34306  0.56213  0.47958  Biso   1.000  N
  C377     1.0000 0.27252  0.42368  0.36048  Biso   1.000  C
  C378     1.0000 0.32129  0.54441  0.38880  Biso   1.000  C
  N153     1.0000 0.54635  0.26175  0.45119  Biso   1.000  N
  H461     1.0000 0.50560  0.17690  0.39678  Biso   1.000  H
  H462     1.0000 0.50969  0.24191  0.32929  Biso   1.000  H
  H463     1.0000 0.42190  0.13130  0.32262  Biso   1.000  H
  H464     1.0000 0.39519  0.07071  0.36748  Biso   1.000  H
  C379     1.0000 0.61189  0.27679  0.57003  Biso   1.000  C
  C380     1.0000 0.57042  0.15002  0.54472  Biso   1.000  C
  O76      1.0000 0.54849  0.34257  0.71992  Biso   1.000  O
  N154     1.0000 0.60478  0.32324  0.64190  Biso   1.000  N
  C381     1.0000 0.36440  0.50003  0.29038  Biso   1.000  C
  C382     1.0000 0.34588  0.63619  0.51758  Biso   1.000  C
  H465     1.0000 0.25988  0.43407  0.29757  Biso   1.000  H
  H466     1.0000 0.27371  0.36890  0.36873  Biso   1.000  H
  C383     1.0000 0.24028  0.45777  0.41333  Biso   1.000  C
  N155     1.0000 0.35016  0.56218  0.32811  Biso   1.000  N
  C384     1.0000 0.27252  0.57632  0.36048  Biso   1.000  C
  C385     1.0000 0.57742  0.30731  0.42353  Biso   1.000  C
  N156     1.0000 0.61419  0.32027  0.49240  Biso   1.000  N
  C386     1.0000 0.65263  0.22279  0.59769  Biso   1.000  C
  H467     1.0000 0.53950  0.12571  0.53111  Biso   1.000  H
  H468     1.0000 0.58709  0.13398  0.50011  Biso   1.000  H
  C387     1.0000 0.59761  0.12459  0.63477  Biso   1.000  C
  C388     1.0000 0.64126  0.36381  0.70161  Biso   1.000  C
  O77      1.0000 0.38547  0.50003  0.23217  Biso   1.000  O
  N157     1.0000 0.38581  0.67973  0.50757  Biso   1.000  N
  H469     1.0000 0.34690  0.63138  0.58082  Biso   1.000  H
  H470     1.0000 0.31719  0.66402  0.49030  Biso   1.000  H
  H471     1.0000 0.24989  0.43989  0.47448  Biso   1.000  H
  H472     1.0000 0.20821  0.43989  0.38887  Biso   1.000  H
  C389     1.0000 0.24028  0.54223  0.41333  Biso   1.000  C
  C390     1.0000 0.35874  0.63619  0.29842  Biso   1.000  C
  H473     1.0000 0.25988  0.56593  0.29757  Biso   1.000  H
  H474     1.0000 0.27371  0.63110  0.36873  Biso   1.000  H
  O78      1.0000 0.57248  0.33134  0.34911  Biso   1.000  O
  C391     1.0000 0.65411  0.36381  0.48239  Biso   1.000  C
  H475     1.0000 0.68151  0.25130  0.62202  Biso   1.000  H
  H476     1.0000 0.65711  0.19462  0.54609  Biso   1.000  H
  C392     1.0000 0.64333  0.16858  0.66630  Biso   1.000  C
  H477     1.0000 0.57810  0.13130  0.67741  Biso   1.000  H
  H478     1.0000 0.60480  0.07071  0.63248  Biso   1.000  H
  N158     1.0000 0.64984  0.43782  0.67192  Biso   1.000  N
  H479     1.0000 0.67038  0.33441  0.71077  Biso   1.000  H
  H480     1.0000 0.63291  0.36812  0.75877  Biso   1.000  H
  C393     1.0000 0.42258  0.69269  0.57650  Biso   1.000  C
  C394     1.0000 0.38811  0.72321  0.43001  Biso   1.000  C
  H481     1.0000 0.24989  0.56011  0.47448  Biso   1.000  H
  H482     1.0000 0.20821  0.56011  0.38887  Biso   1.000  H
  N159     1.0000 0.39522  0.67676  0.35813  Biso   1.000  N
  H483     1.0000 0.32961  0.66559  0.28920  Biso   1.000  H
  H484     1.0000 0.36709  0.63188  0.24120  Biso   1.000  H
  N160     1.0000 0.65693  0.43787  0.52039  Biso   1.000  N
  H485     1.0000 0.65310  0.36862  0.41921  Biso   1.000  H
  H486     1.0000 0.68282  0.33598  0.50973  Biso   1.000  H
  H487     1.0000 0.66949  0.13280  0.68180  Biso   1.000  H
  H488     1.0000 0.64192  0.19691  0.71973  Biso   1.000  H
  C395     1.0000 0.67871  0.45559  0.61123  Biso   1.000  C
  C396     1.0000 0.63559  0.50003  0.70959  Biso   1.000  C
  O79      1.0000 0.42752  0.66866  0.65093  Biso   1.000  O
  N161     1.0000 0.45365  0.73825  0.54877  Biso   1.000  N
  C397     1.0000 0.43580  0.76558  0.45970  Biso   1.000  C
  C398     1.0000 0.34736  0.77721  0.40228  Biso   1.000  C
  C399     1.0000 0.43791  0.68738  0.33969  Biso   1.000  C
  C400     1.0000 0.64749  0.50003  0.46853  Biso   1.000  C
  C401     1.0000 0.67871  0.54441  0.61123  Biso   1.000  C
  C402     1.0000 0.72747  0.42368  0.63948  Biso   1.000  C
  O80      1.0000 0.61452  0.50003  0.76780  Biso   1.000  O
  N162     1.0000 0.64984  0.56218  0.67192  Biso   1.000  N
  C403     1.0000 0.49378  0.76821  0.61071  Biso   1.000  C
  N163     1.0000 0.46233  0.73775  0.39842  Biso   1.000  N
  C404     1.0000 0.42958  0.84998  0.45531  Biso   1.000  C
  H489     1.0000 0.31850  0.74870  0.37801  Biso   1.000  H
  H490     1.0000 0.34288  0.80538  0.45388  Biso   1.000  H
  C405     1.0000 0.35666  0.83142  0.33367  Biso   1.000  C
  O81      1.0000 0.45150  0.65743  0.28004  Biso   1.000  O
  O82      1.0000 0.63446  0.50003  0.38887  Biso   1.000  O
  N164     1.0000 0.65693  0.56213  0.52039  Biso   1.000  N
  C406     1.0000 0.72747  0.57632  0.63948  Biso   1.000  C
  H491     1.0000 0.74011  0.43407  0.70240  Biso   1.000  H
  H492     1.0000 0.72629  0.36890  0.63131  Biso   1.000  H
  C407     1.0000 0.75973  0.45777  0.58670  Biso   1.000  C
  C408     1.0000 0.64126  0.63619  0.70161  Biso   1.000  C
  N165     1.0000 0.53767  0.73775  0.60161  Biso   1.000  N
  H493     1.0000 0.49440  0.82310  0.60318  Biso   1.000  H
  H494     1.0000 0.49030  0.75809  0.67068  Biso   1.000  H
  C409     1.0000 0.50623  0.76821  0.38933  Biso   1.000  C
  H495     1.0000 0.46050  0.87429  0.46892  Biso   1.000  H
  H496     1.0000 0.41291  0.86602  0.49992  Biso   1.000  H
  C410     1.0000 0.40238  0.87541  0.36519  Biso   1.000  C
  H497     1.0000 0.33051  0.86720  0.31817  Biso   1.000  H
  H498     1.0000 0.35812  0.80309  0.28030  Biso   1.000  H
  C411     1.0000 0.65411  0.63619  0.48239  Biso   1.000  C
  H499     1.0000 0.74011  0.56593  0.70240  Biso   1.000  H
  H500     1.0000 0.72629  0.63110  0.63131  Biso   1.000  H
  C412     1.0000 0.75973  0.54223  0.58670  Biso   1.000  C
  H501     1.0000 0.75010  0.43989  0.52549  Biso   1.000  H
  H502     1.0000 0.79178  0.43989  0.61110  Biso   1.000  H
  N166     1.0000 0.60478  0.67676  0.64190  Biso   1.000  N
  H503     1.0000 0.67038  0.66559  0.71077  Biso   1.000  H
  H504     1.0000 0.63291  0.63188  0.75877  Biso   1.000  H
  C413     1.0000 0.56419  0.76558  0.54027  Biso   1.000  C
  C414     1.0000 0.56208  0.68738  0.66028  Biso   1.000  C
  N167     1.0000 0.54635  0.73825  0.45119  Biso   1.000  N
  H505     1.0000 0.50560  0.82310  0.39678  Biso   1.000  H
  H506     1.0000 0.50969  0.75809  0.32929  Biso   1.000  H
  H507     1.0000 0.42190  0.86870  0.32262  Biso   1.000  H
  H508     1.0000 0.39519  0.92929  0.36748  Biso   1.000  H
  N168     1.0000 0.61419  0.67973  0.49240  Biso   1.000  N
  H509     1.0000 0.65310  0.63138  0.41921  Biso   1.000  H
  H510     1.0000 0.68282  0.66402  0.50973  Biso   1.000  H
  H511     1.0000 0.75010  0.56011  0.52549  Biso   1.000  H
  H512     1.0000 0.79178  0.56011  0.61110  Biso   1.000  H
  C415     1.0000 0.61189  0.72321  0.57003  Biso   1.000  C
  C416     1.0000 0.57042  0.84998  0.54472  Biso   1.000  C
  O83      1.0000 0.54849  0.65743  0.71992  Biso   1.000  O
  C417     1.0000 0.57742  0.69269  0.42353  Biso   1.000  C
  C418     1.0000 0.65263  0.77721  0.59769  Biso   1.000  C
  H513     1.0000 0.53950  0.87429  0.53111  Biso   1.000  H
  H514     1.0000 0.58709  0.86602  0.50011  Biso   1.000  H
  C419     1.0000 0.59761  0.87541  0.63477  Biso   1.000  C
  O84      1.0000 0.57248  0.66866  0.34911  Biso   1.000  O
  H515     1.0000 0.68151  0.74870  0.62202  Biso   1.000  H
  H516     1.0000 0.65711  0.80538  0.54609  Biso   1.000  H
  C420     1.0000 0.64333  0.83142  0.66630  Biso   1.000  C
  H517     1.0000 0.57810  0.86870  0.67741  Biso   1.000  H
  H518     1.0000 0.60480  0.92929  0.63248  Biso   1.000  H
  H519     1.0000 0.66949  0.86720  0.68180  Biso   1.000  H
  H520     1.0000 0.64192  0.80309  0.71973  Biso   1.000  H
  C421     1.0000 0.22280  0.42401  0.03600  Biso   1.000  C
  C422     1.0000 0.17501  0.45570  0.03116  Biso   1.000  C
  C423     1.0000 0.17501  0.45570  0.03110  Biso   1.000  C
  H521     1.0000 0.23179  0.43368  0.98022  Biso   1.000  H
  H522     1.0000 0.22219  0.36918  0.04444  Biso   1.000  H
  C424     1.0000 0.25911  0.45928  0.11213  Biso   1.000  C
  H523     1.0000 0.22221  0.36918  0.04437  Biso   1.000  H
  N169     1.0000 0.14245  0.43787  0.94876  Biso   1.000  N
  N170     1.0000 0.14244  0.43787  0.94869  Biso   1.000  N
  N171     1.0000 0.15683  0.43771  0.10716  Biso   1.000  N
  C425     1.0000 0.17501  0.54430  0.03116  Biso   1.000  C
  N172     1.0000 0.15682  0.43771  0.10709  Biso   1.000  N
  C426     1.0000 0.17501  0.54430  0.03110  Biso   1.000  C
  H524     1.0000 0.29040  0.44151  0.10905  Biso   1.000  H
  H525     1.0000 0.25310  0.44151  0.16804  Biso   1.000  H
  C427     1.0000 0.25911  0.54072  0.11213  Biso   1.000  C
  H526     1.0000 0.29039  0.44151  0.10899  Biso   1.000  H
  H527     1.0000 0.25309  0.44151  0.16798  Biso   1.000  H
  C428     1.0000 0.13562  0.36393  0.90978  Biso   1.000  C
  C429     1.0000 0.13563  0.36393  0.90984  Biso   1.000  C
  C430     1.0000 0.12569  0.50003  0.90141  Biso   1.000  C
  C431     1.0000 0.15384  0.36331  0.14136  Biso   1.000  C
  C432     1.0000 0.15383  0.36331  0.14130  Biso   1.000  C
  C433     1.0000 0.14859  0.50003  0.15163  Biso   1.000  C
  N173     1.0000 0.14245  0.56213  0.94876  Biso   1.000  N
  N174     1.0000 0.14244  0.56213  0.94869  Biso   1.000  N
  N175     1.0000 0.15683  0.56229  0.10716  Biso   1.000  N
  C434     1.0000 0.22280  0.57599  0.03600  Biso   1.000  C
  N176     1.0000 0.15682  0.56229  0.10709  Biso   1.000  N
  H528     1.0000 0.29040  0.55849  0.10905  Biso   1.000  H
  H529     1.0000 0.25310  0.55849  0.16804  Biso   1.000  H
  H530     1.0000 0.29039  0.55849  0.10899  Biso   1.000  H
  H531     1.0000 0.25309  0.55849  0.16798  Biso   1.000  H
  N177     1.0000 0.10198  0.31809  0.93882  Biso   1.000  N
  H532     1.0000 0.16580  0.33738  0.92312  Biso   1.000  H
  H533     1.0000 0.12569  0.36940  0.84556  Biso   1.000  H
  H534     1.0000 0.12568  0.36940  0.84549  Biso   1.000  H
  O85      1.0000 0.10124  0.50003  0.82633  Biso   1.000  O
  N178     1.0000 0.11285  0.32111  0.09702  Biso   1.000  N
  H535     1.0000 0.18192  0.33497  0.13691  Biso   1.000  H
  H536     1.0000 0.15379  0.36722  0.20415  Biso   1.000  H
  H537     1.0000 0.15378  0.36722  0.20408  Biso   1.000  H
  O86      1.0000 0.13688  0.50003  0.22174  Biso   1.000  O
  O87      1.0000 0.13690  0.50003  0.22167  Biso   1.000  O
  C435     1.0000 0.13563  0.63607  0.90984  Biso   1.000  C
  C436     1.0000 0.13562  0.63607  0.90978  Biso   1.000  C
  C437     1.0000 0.15384  0.63669  0.14136  Biso   1.000  C
  C438     1.0000 0.15383  0.63669  0.14130  Biso   1.000  C
  H538     1.0000 0.23179  0.56632  0.98022  Biso   1.000  H
  H539     1.0000 0.22219  0.63082  0.04444  Biso   1.000  H
  H540     1.0000 0.22221  0.63082  0.04437  Biso   1.000  H
  C439     1.0000 0.05915  0.30378  0.88512  Biso   1.000  C
  C440     1.0000 0.11088  0.27528  0.01985  Biso   1.000  C
  C441     1.0000 0.11087  0.27528  0.01978  Biso   1.000  C
  C442     1.0000 0.07727  0.30619  0.13685  Biso   1.000  C
  C443     1.0000 0.07726  0.30619  0.13678  Biso   1.000  C
  N179     1.0000 0.10198  0.68191  0.93882  Biso   1.000  N
  H541     1.0000 0.16580  0.66262  0.92312  Biso   1.000  H
  H542     1.0000 0.12569  0.63060  0.84556  Biso   1.000  H
  H543     1.0000 0.12568  0.63060  0.84549  Biso   1.000  H
  N180     1.0000 0.11285  0.67889  0.09702  Biso   1.000  N
  H544     1.0000 0.18192  0.66503  0.13691  Biso   1.000  H
  H545     1.0000 0.15379  0.63278  0.20415  Biso   1.000  H
  H546     1.0000 0.15378  0.63278  0.20408  Biso   1.000  H
  O88      1.0000 0.04489  0.32922  0.81155  Biso   1.000  O
  N181     1.0000 0.03592  0.25538  0.92724  Biso   1.000  N
  O89      1.0000 0.04488  0.32922  0.81148  Biso   1.000  O
  N182     1.0000 0.03591  0.25538  0.92718  Biso   1.000  N
  C444     1.0000 0.06434  0.22989  0.01141  Biso   1.000  C
  C445     1.0000 0.15267  0.22302  0.02894  Biso   1.000  C
  C446     1.0000 0.06438  0.22989  0.01141  Biso   1.000  C
  C447     1.0000 0.15266  0.22302  0.02887  Biso   1.000  C
  N183     1.0000 0.04743  0.25661  0.08590  Biso   1.000  N
  O90      1.0000 0.07246  0.33240  0.20591  Biso   1.000  O
  C448     1.0000 0.05915  0.69622  0.88512  Biso   1.000  C
  C449     1.0000 0.11088  0.72472  0.01985  Biso   1.000  C
  C450     1.0000 0.11087  0.72472  0.01978  Biso   1.000  C
  C451     1.0000 0.07727  0.69381  0.13685  Biso   1.000  C
  C452     1.0000 0.07726  0.69381  0.13678  Biso   1.000  C
  C453     1.0000 0.99121  0.22469  0.88473  Biso   1.000  C
  C454     1.0000 0.07225  0.14549  0.01272  Biso   1.000  C
  C455     1.0000 0.14510  0.16573  0.95621  Biso   1.000  C
  H547     1.0000 0.15820  0.19703  0.08603  Biso   1.000  H
  H548     1.0000 0.18068  0.25292  0.02783  Biso   1.000  H
  H549     1.0000 0.18072  0.25292  0.02783  Biso   1.000  H
  C456     1.0000 0.00880  0.22469  0.11533  Biso   1.000  C
  O91      1.0000 0.04489  0.67078  0.81155  Biso   1.000  O
  N184     1.0000 0.03592  0.74462  0.92724  Biso   1.000  N
  O92      1.0000 0.04488  0.67078  0.81148  Biso   1.000  O
  N185     1.0000 0.03591  0.74462  0.92718  Biso   1.000  N
  C457     1.0000 0.06434  0.77011  0.01141  Biso   1.000  C
  C458     1.0000 0.15267  0.77698  0.02894  Biso   1.000  C
  C459     1.0000 0.06438  0.77011  0.01141  Biso   1.000  C
  C460     1.0000 0.15266  0.77698  0.02887  Biso   1.000  C
  N186     1.0000 0.04743  0.74339  0.08590  Biso   1.000  N
  O93      1.0000 0.07246  0.66760  0.20591  Biso   1.000  O
  N187     1.0000 0.95258  0.25661  0.91416  Biso   1.000  N
  H550     1.0000 0.98612  0.23269  0.82084  Biso   1.000  H
  H551     1.0000 0.99180  0.17009  0.89500  Biso   1.000  H
  N188     1.0000 0.95257  0.25661  0.91410  Biso   1.000  N
  H552     1.0000 0.98611  0.23269  0.82077  Biso   1.000  H
  H553     1.0000 0.04189  0.11950  0.99931  Biso   1.000  H
  C461     1.0000 0.09970  0.12330  0.94555  Biso   1.000  C
  C462     1.0000 0.09970  0.12330  0.94549  Biso   1.000  C
  H554     1.0000 0.08952  0.12990  0.07184  Biso   1.000  H
  H555     1.0000 0.08951  0.12990  0.07178  Biso   1.000  H
  H556     1.0000 0.14539  0.19121  0.90056  Biso   1.000  H
  H557     1.0000 0.17119  0.12962  0.96844  Biso   1.000  H
  H558     1.0000 0.14538  0.19121  0.90049  Biso   1.000  H
  H559     1.0000 0.17121  0.12962  0.96838  Biso   1.000  H
  N189     1.0000 0.96408  0.25538  0.07282  Biso   1.000  N
  H560     1.0000 0.01389  0.23269  0.17923  Biso   1.000  H
  H561     1.0000 0.00820  0.17009  0.10506  Biso   1.000  H
  H562     1.0000 0.01392  0.23269  0.17923  Biso   1.000  H
  H563     1.0000 0.00819  0.17009  0.10500  Biso   1.000  H
  C463     1.0000 0.99121  0.77531  0.88473  Biso   1.000  C
  C464     1.0000 0.07225  0.85451  0.01272  Biso   1.000  C
  C465     1.0000 0.14510  0.83427  0.95621  Biso   1.000  C
  H564     1.0000 0.15820  0.80297  0.08603  Biso   1.000  H
  H565     1.0000 0.18068  0.74708  0.02783  Biso   1.000  H
  H566     1.0000 0.18072  0.74708  0.02783  Biso   1.000  H
  C466     1.0000 0.00880  0.77531  0.11533  Biso   1.000  C
  C467     1.0000 0.92273  0.30619  0.86321  Biso   1.000  C
  C468     1.0000 0.93566  0.22989  0.98865  Biso   1.000  C
  C469     1.0000 0.93565  0.22989  0.98859  Biso   1.000  C
  H567     1.0000 0.08029  0.13241  0.88604  Biso   1.000  H
  H568     1.0000 0.10649  0.06897  0.95092  Biso   1.000  H
  H569     1.0000 0.08028  0.13241  0.88597  Biso   1.000  H
  C470     1.0000 0.94085  0.30378  0.11494  Biso   1.000  C
  C471     1.0000 0.94084  0.30378  0.11487  Biso   1.000  C
  N190     1.0000 0.95258  0.74339  0.91416  Biso   1.000  N
  H570     1.0000 0.98612  0.76731  0.82084  Biso   1.000  H
  H571     1.0000 0.99180  0.82991  0.89500  Biso   1.000  H
  N191     1.0000 0.95257  0.74339  0.91410  Biso   1.000  N
  H572     1.0000 0.98611  0.76731  0.82077  Biso   1.000  H
  H573     1.0000 0.04189  0.88050  0.99931  Biso   1.000  H
  C472     1.0000 0.09970  0.87670  0.94555  Biso   1.000  C
  C473     1.0000 0.09970  0.87670  0.94549  Biso   1.000  C
  H574     1.0000 0.08952  0.87010  0.07184  Biso   1.000  H
  H575     1.0000 0.08951  0.87010  0.07178  Biso   1.000  H
  H576     1.0000 0.14539  0.80879  0.90056  Biso   1.000  H
  H577     1.0000 0.17119  0.87038  0.96844  Biso   1.000  H
  H578     1.0000 0.14538  0.80879  0.90049  Biso   1.000  H
  H579     1.0000 0.17121  0.87038  0.96838  Biso   1.000  H
  N192     1.0000 0.96408  0.74462  0.07282  Biso   1.000  N
  H580     1.0000 0.01389  0.76731  0.17923  Biso   1.000  H
  H581     1.0000 0.00820  0.82991  0.10506  Biso   1.000  H
  H582     1.0000 0.01392  0.76731  0.17923  Biso   1.000  H
  H583     1.0000 0.00819  0.82991  0.10500  Biso   1.000  H
  O94      1.0000 0.92755  0.33240  0.79415  Biso   1.000  O
  N193     1.0000 0.88715  0.32111  0.90304  Biso   1.000  N
  O95      1.0000 0.92754  0.33240  0.79409  Biso   1.000  O
  N194     1.0000 0.88714  0.32111  0.90298  Biso   1.000  N
  C474     1.0000 0.88912  0.27528  0.98022  Biso   1.000  C
  C475     1.0000 0.92776  0.14549  0.98734  Biso   1.000  C
  C476     1.0000 0.92778  0.14549  0.98728  Biso   1.000  C
  N195     1.0000 0.89802  0.31809  0.06125  Biso   1.000  N
  N196     1.0000 0.89802  0.31809  0.06118  Biso   1.000  N
  O96      1.0000 0.95512  0.32922  0.18851  Biso   1.000  O
  C477     1.0000 0.92273  0.69381  0.86321  Biso   1.000  C
  C478     1.0000 0.93566  0.77011  0.98865  Biso   1.000  C
  C479     1.0000 0.93565  0.77011  0.98859  Biso   1.000  C
  H584     1.0000 0.08029  0.86759  0.88604  Biso   1.000  H
  H585     1.0000 0.10649  0.93103  0.95092  Biso   1.000  H
  H586     1.0000 0.08028  0.86759  0.88597  Biso   1.000  H
  C480     1.0000 0.94085  0.69622  0.11494  Biso   1.000  C
  C481     1.0000 0.94084  0.69622  0.11487  Biso   1.000  C
  C482     1.0000 0.84616  0.36331  0.85870  Biso   1.000  C
  C483     1.0000 0.84733  0.22302  0.97112  Biso   1.000  C
  H587     1.0000 0.91049  0.12990  0.92822  Biso   1.000  H
  H588     1.0000 0.91052  0.12990  0.92822  Biso   1.000  H
  H589     1.0000 0.95811  0.11950  0.00075  Biso   1.000  H
  C484     1.0000 0.90030  0.12330  0.05451  Biso   1.000  C
  H590     1.0000 0.95811  0.11950  0.00069  Biso   1.000  H
  C485     1.0000 0.86437  0.36393  0.09022  Biso   1.000  C
  O97      1.0000 0.92755  0.66760  0.79415  Biso   1.000  O
  N197     1.0000 0.88715  0.67889  0.90304  Biso   1.000  N
  O98      1.0000 0.92754  0.66760  0.79409  Biso   1.000  O
  N198     1.0000 0.88714  0.67889  0.90298  Biso   1.000  N
  C486     1.0000 0.88912  0.72472  0.98022  Biso   1.000  C
  C487     1.0000 0.92776  0.85451  0.98734  Biso   1.000  C
  C488     1.0000 0.92778  0.85451  0.98728  Biso   1.000  C
  N199     1.0000 0.89802  0.68191  0.06125  Biso   1.000  N
  N200     1.0000 0.89802  0.68191  0.06118  Biso   1.000  N
  O99      1.0000 0.95512  0.67078  0.18851  Biso   1.000  O
  N201     1.0000 0.84317  0.43771  0.89291  Biso   1.000  N
  H591     1.0000 0.81809  0.33497  0.86315  Biso   1.000  H
  H592     1.0000 0.84621  0.36722  0.79592  Biso   1.000  H
  H593     1.0000 0.81811  0.33497  0.86308  Biso   1.000  H
  H594     1.0000 0.84181  0.19703  0.91403  Biso   1.000  H
  H595     1.0000 0.81932  0.25292  0.97224  Biso   1.000  H
  H596     1.0000 0.81931  0.25292  0.97217  Biso   1.000  H
  C489     1.0000 0.85490  0.16573  0.04385  Biso   1.000  C
  C490     1.0000 0.85490  0.16573  0.04378  Biso   1.000  C
  H597     1.0000 0.91971  0.13241  0.11402  Biso   1.000  H
  H598     1.0000 0.89352  0.06897  0.04915  Biso   1.000  H
  H599     1.0000 0.89351  0.06897  0.04908  Biso   1.000  H
  N202     1.0000 0.85755  0.43787  0.05131  Biso   1.000  N
  H600     1.0000 0.83420  0.33738  0.07694  Biso   1.000  H
  H601     1.0000 0.87431  0.36940  0.15451  Biso   1.000  H
  H602     1.0000 0.83419  0.33738  0.07688  Biso   1.000  H
  C491     1.0000 0.84616  0.63669  0.85870  Biso   1.000  C
  C492     1.0000 0.84733  0.77698  0.97112  Biso   1.000  C
  H603     1.0000 0.91049  0.87010  0.92822  Biso   1.000  H
  H604     1.0000 0.91052  0.87010  0.92822  Biso   1.000  H
  H605     1.0000 0.95811  0.88050  0.00075  Biso   1.000  H
  C493     1.0000 0.90030  0.87670  0.05451  Biso   1.000  C
  H606     1.0000 0.95811  0.88050  0.00069  Biso   1.000  H
  C494     1.0000 0.86437  0.63607  0.09022  Biso   1.000  C
  C495     1.0000 0.85141  0.50003  0.84843  Biso   1.000  C
  C496     1.0000 0.82499  0.45570  0.96890  Biso   1.000  C
  C497     1.0000 0.85140  0.50003  0.84837  Biso   1.000  C
  H607     1.0000 0.85461  0.19121  0.09951  Biso   1.000  H
  H608     1.0000 0.82882  0.12962  0.03162  Biso   1.000  H
  C498     1.0000 0.87431  0.50003  0.09865  Biso   1.000  C
  C499     1.0000 0.87430  0.50003  0.09859  Biso   1.000  C
  N203     1.0000 0.84317  0.56229  0.89291  Biso   1.000  N
  H609     1.0000 0.81809  0.66503  0.86315  Biso   1.000  H
  H610     1.0000 0.84621  0.63278  0.79592  Biso   1.000  H
  H611     1.0000 0.81811  0.66503  0.86308  Biso   1.000  H
  H612     1.0000 0.84181  0.80297  0.91403  Biso   1.000  H
  H613     1.0000 0.81932  0.74708  0.97224  Biso   1.000  H
  H614     1.0000 0.81931  0.74708  0.97217  Biso   1.000  H
  C500     1.0000 0.85490  0.83427  0.04385  Biso   1.000  C
  C501     1.0000 0.85490  0.83427  0.04378  Biso   1.000  C
  H615     1.0000 0.91971  0.86759  0.11402  Biso   1.000  H
  H616     1.0000 0.89352  0.93103  0.04915  Biso   1.000  H
  H617     1.0000 0.89351  0.93103  0.04908  Biso   1.000  H
  N204     1.0000 0.85755  0.56213  0.05131  Biso   1.000  N
  H618     1.0000 0.83420  0.66262  0.07694  Biso   1.000  H
  H619     1.0000 0.87431  0.63060  0.15451  Biso   1.000  H
  H620     1.0000 0.83419  0.66262  0.07688  Biso   1.000  H
  O100     1.0000 0.86313  0.50003  0.77833  Biso   1.000  O
  C502     1.0000 0.82499  0.54430  0.96890  Biso   1.000  C
  C503     1.0000 0.77721  0.42401  0.96406  Biso   1.000  C
  C504     1.0000 0.77720  0.42401  0.96400  Biso   1.000  C
  O101     1.0000 0.89877  0.50003  0.17373  Biso   1.000  O
  O102     1.0000 0.89879  0.50003  0.17367  Biso   1.000  O
  H621     1.0000 0.85461  0.80879  0.09951  Biso   1.000  H
  H622     1.0000 0.82882  0.87038  0.03162  Biso   1.000  H
  C505     1.0000 0.77721  0.57599  0.96406  Biso   1.000  C
  C506     1.0000 0.77720  0.57599  0.96400  Biso   1.000  C
  H623     1.0000 0.77782  0.36918  0.95562  Biso   1.000  H
  C507     1.0000 0.74089  0.45928  0.88794  Biso   1.000  C
  C508     1.0000 0.74089  0.45928  0.88787  Biso   1.000  C
  H624     1.0000 0.76821  0.43368  0.01985  Biso   1.000  H
  H625     1.0000 0.76820  0.43368  0.01978  Biso   1.000  H
  H626     1.0000 0.77782  0.63082  0.95562  Biso   1.000  H
  C509     1.0000 0.74089  0.54072  0.88794  Biso   1.000  C
  C510     1.0000 0.74089  0.54072  0.88787  Biso   1.000  C
  H627     1.0000 0.76821  0.56632  0.01985  Biso   1.000  H
  H628     1.0000 0.76820  0.56632  0.01978  Biso   1.000  H
  H629     1.0000 0.70961  0.44151  0.89101  Biso   1.000  H
  H630     1.0000 0.74690  0.44151  0.83202  Biso   1.000  H
  H631     1.0000 0.70961  0.55849  0.89101  Biso   1.000  H
  H632     1.0000 0.74690  0.55849  0.83202  Biso   1.000  H
  C511     1.0000 0.22280  0.42401  0.03600  Biso   1.000  C
  C512     1.0000 0.17501  0.45570  0.03116  Biso   1.000  C
  C513     1.0000 0.17501  0.45570  0.03110  Biso   1.000  C
  H633     1.0000 0.23179  0.43368  0.98022  Biso   1.000  H
  H634     1.0000 0.22219  0.36918  0.04444  Biso   1.000  H
  C514     1.0000 0.25911  0.45928  0.11213  Biso   1.000  C
  H635     1.0000 0.22221  0.36918  0.04437  Biso   1.000  H
  N205     1.0000 0.14245  0.43787  0.94876  Biso   1.000  N
  N206     1.0000 0.14244  0.43787  0.94869  Biso   1.000  N
  N207     1.0000 0.15683  0.43771  0.10716  Biso   1.000  N
  C515     1.0000 0.17501  0.54430  0.03116  Biso   1.000  C
  N208     1.0000 0.15682  0.43771  0.10709  Biso   1.000  N
  C516     1.0000 0.17501  0.54430  0.03110  Biso   1.000  C
  H636     1.0000 0.29040  0.44151  0.10905  Biso   1.000  H
  H637     1.0000 0.25310  0.44151  0.16804  Biso   1.000  H
  C517     1.0000 0.25911  0.54072  0.11213  Biso   1.000  C
  H638     1.0000 0.29039  0.44151  0.10899  Biso   1.000  H
  H639     1.0000 0.25309  0.44151  0.16798  Biso   1.000  H
  C518     1.0000 0.13562  0.36393  0.90978  Biso   1.000  C
  C519     1.0000 0.13563  0.36393  0.90984  Biso   1.000  C
  C520     1.0000 0.12569  0.50003  0.90141  Biso   1.000  C
  C521     1.0000 0.15384  0.36331  0.14136  Biso   1.000  C
  C522     1.0000 0.15383  0.36331  0.14130  Biso   1.000  C
  C523     1.0000 0.14859  0.50003  0.15163  Biso   1.000  C
  N209     1.0000 0.14245  0.56213  0.94876  Biso   1.000  N
  N210     1.0000 0.14244  0.56213  0.94869  Biso   1.000  N
  N211     1.0000 0.15683  0.56229  0.10716  Biso   1.000  N
  C524     1.0000 0.22280  0.57599  0.03600  Biso   1.000  C
  N212     1.0000 0.15682  0.56229  0.10709  Biso   1.000  N
  H640     1.0000 0.29040  0.55849  0.10905  Biso   1.000  H
  H641     1.0000 0.25310  0.55849  0.16804  Biso   1.000  H
  H642     1.0000 0.29039  0.55849  0.10899  Biso   1.000  H
  H643     1.0000 0.25309  0.55849  0.16798  Biso   1.000  H
  N213     1.0000 0.10198  0.31809  0.93882  Biso   1.000  N
  H644     1.0000 0.16580  0.33738  0.92312  Biso   1.000  H
  H645     1.0000 0.12569  0.36940  0.84556  Biso   1.000  H
  H646     1.0000 0.12568  0.36940  0.84549  Biso   1.000  H
  O103     1.0000 0.10124  0.50003  0.82633  Biso   1.000  O
  N214     1.0000 0.11285  0.32111  0.09702  Biso   1.000  N
  H647     1.0000 0.18192  0.33497  0.13691  Biso   1.000  H
  H648     1.0000 0.15379  0.36722  0.20415  Biso   1.000  H
  H649     1.0000 0.15378  0.36722  0.20408  Biso   1.000  H
  O104     1.0000 0.13688  0.50003  0.22174  Biso   1.000  O
  O105     1.0000 0.13690  0.50003  0.22167  Biso   1.000  O
  C525     1.0000 0.13563  0.63607  0.90984  Biso   1.000  C
  C526     1.0000 0.13562  0.63607  0.90978  Biso   1.000  C
  C527     1.0000 0.15384  0.63669  0.14136  Biso   1.000  C
  C528     1.0000 0.15383  0.63669  0.14130  Biso   1.000  C
  H650     1.0000 0.23179  0.56632  0.98022  Biso   1.000  H
  H651     1.0000 0.22219  0.63082  0.04444  Biso   1.000  H
  H652     1.0000 0.22221  0.63082  0.04437  Biso   1.000  H
  C529     1.0000 0.05915  0.30378  0.88512  Biso   1.000  C
  C530     1.0000 0.11088  0.27528  0.01985  Biso   1.000  C
  C531     1.0000 0.11087  0.27528  0.01978  Biso   1.000  C
  C532     1.0000 0.07727  0.30619  0.13685  Biso   1.000  C
  C533     1.0000 0.07726  0.30619  0.13678  Biso   1.000  C
  N215     1.0000 0.10198  0.68191  0.93882  Biso   1.000  N
  H653     1.0000 0.16580  0.66262  0.92312  Biso   1.000  H
  H654     1.0000 0.12569  0.63060  0.84556  Biso   1.000  H
  H655     1.0000 0.12568  0.63060  0.84549  Biso   1.000  H
  N216     1.0000 0.11285  0.67889  0.09702  Biso   1.000  N
  H656     1.0000 0.18192  0.66503  0.13691  Biso   1.000  H
  H657     1.0000 0.15379  0.63278  0.20415  Biso   1.000  H
  H658     1.0000 0.15378  0.63278  0.20408  Biso   1.000  H
  O106     1.0000 0.04489  0.32922  0.81155  Biso   1.000  O
  N217     1.0000 0.03592  0.25538  0.92724  Biso   1.000  N
  O107     1.0000 0.04488  0.32922  0.81148  Biso   1.000  O
  N218     1.0000 0.03591  0.25538  0.92718  Biso   1.000  N
  C534     1.0000 0.06434  0.22989  0.01141  Biso   1.000  C
  C535     1.0000 0.15267  0.22302  0.02894  Biso   1.000  C
  C536     1.0000 0.06438  0.22989  0.01141  Biso   1.000  C
  C537     1.0000 0.15266  0.22302  0.02887  Biso   1.000  C
  N219     1.0000 0.04743  0.25661  0.08590  Biso   1.000  N
  O108     1.0000 0.07246  0.33240  0.20591  Biso   1.000  O
  C538     1.0000 0.05915  0.69622  0.88512  Biso   1.000  C
  C539     1.0000 0.11088  0.72472  0.01985  Biso   1.000  C
  C540     1.0000 0.11087  0.72472  0.01978  Biso   1.000  C
  C541     1.0000 0.07727  0.69381  0.13685  Biso   1.000  C
  C542     1.0000 0.07726  0.69381  0.13678  Biso   1.000  C
  C543     1.0000 0.99121  0.22469  0.88473  Biso   1.000  C
  C544     1.0000 0.07225  0.14549  0.01272  Biso   1.000  C
  C545     1.0000 0.14510  0.16573  0.95621  Biso   1.000  C
  H659     1.0000 0.15820  0.19703  0.08603  Biso   1.000  H
  H660     1.0000 0.18068  0.25292  0.02783  Biso   1.000  H
  H661     1.0000 0.18072  0.25292  0.02783  Biso   1.000  H
  C546     1.0000 0.00880  0.22469  0.11533  Biso   1.000  C
  O109     1.0000 0.04489  0.67078  0.81155  Biso   1.000  O
  N220     1.0000 0.03592  0.74462  0.92724  Biso   1.000  N
  O110     1.0000 0.04488  0.67078  0.81148  Biso   1.000  O
  N221     1.0000 0.03591  0.74462  0.92718  Biso   1.000  N
  C547     1.0000 0.06434  0.77011  0.01141  Biso   1.000  C
  C548     1.0000 0.15267  0.77698  0.02894  Biso   1.000  C
  C549     1.0000 0.06438  0.77011  0.01141  Biso   1.000  C
  C550     1.0000 0.15266  0.77698  0.02887  Biso   1.000  C
  N222     1.0000 0.04743  0.74339  0.08590  Biso   1.000  N
  O111     1.0000 0.07246  0.66760  0.20591  Biso   1.000  O
  N223     1.0000 0.95258  0.25661  0.91416  Biso   1.000  N
  H662     1.0000 0.98612  0.23269  0.82084  Biso   1.000  H
  H663     1.0000 0.99180  0.17009  0.89500  Biso   1.000  H
  N224     1.0000 0.95257  0.25661  0.91410  Biso   1.000  N
  H664     1.0000 0.98611  0.23269  0.82077  Biso   1.000  H
  H665     1.0000 0.04189  0.11950  0.99931  Biso   1.000  H
  C551     1.0000 0.09970  0.12330  0.94555  Biso   1.000  C
  C552     1.0000 0.09970  0.12330  0.94549  Biso   1.000  C
  H666     1.0000 0.08952  0.12990  0.07184  Biso   1.000  H
  H667     1.0000 0.08951  0.12990  0.07178  Biso   1.000  H
  H668     1.0000 0.14539  0.19121  0.90056  Biso   1.000  H
  H669     1.0000 0.17119  0.12962  0.96844  Biso   1.000  H
  H670     1.0000 0.14538  0.19121  0.90049  Biso   1.000  H
  H671     1.0000 0.17121  0.12962  0.96838  Biso   1.000  H
  N225     1.0000 0.96408  0.25538  0.07282  Biso   1.000  N
  H672     1.0000 0.01389  0.23269  0.17923  Biso   1.000  H
  H673     1.0000 0.00820  0.17009  0.10506  Biso   1.000  H
  H674     1.0000 0.01392  0.23269  0.17923  Biso   1.000  H
  H675     1.0000 0.00819  0.17009  0.10500  Biso   1.000  H
  C553     1.0000 0.99121  0.77531  0.88473  Biso   1.000  C
  C554     1.0000 0.07225  0.85451  0.01272  Biso   1.000  C
  C555     1.0000 0.14510  0.83427  0.95621  Biso   1.000  C
  H676     1.0000 0.15820  0.80297  0.08603  Biso   1.000  H
  H677     1.0000 0.18068  0.74708  0.02783  Biso   1.000  H
  H678     1.0000 0.18072  0.74708  0.02783  Biso   1.000  H
  C556     1.0000 0.00880  0.77531  0.11533  Biso   1.000  C
  C557     1.0000 0.92273  0.30619  0.86321  Biso   1.000  C
  C558     1.0000 0.93566  0.22989  0.98865  Biso   1.000  C
  C559     1.0000 0.93565  0.22989  0.98859  Biso   1.000  C
  H679     1.0000 0.10649  0.06897  0.95092  Biso   1.000  H
  H680     1.0000 0.08029  0.13241  0.88604  Biso   1.000  H
  H681     1.0000 0.08028  0.13241  0.88597  Biso   1.000  H
  C560     1.0000 0.94085  0.30378  0.11494  Biso   1.000  C
  C561     1.0000 0.94084  0.30378  0.11487  Biso   1.000  C
  N226     1.0000 0.95258  0.74339  0.91416  Biso   1.000  N
  H682     1.0000 0.98612  0.76731  0.82084  Biso   1.000  H
  H683     1.0000 0.99180  0.82991  0.89500  Biso   1.000  H
  N227     1.0000 0.95257  0.74339  0.91410  Biso   1.000  N
  H684     1.0000 0.98611  0.76731  0.82077  Biso   1.000  H
  H685     1.0000 0.04189  0.88050  0.99931  Biso   1.000  H
  C562     1.0000 0.09970  0.87670  0.94555  Biso   1.000  C
  C563     1.0000 0.09970  0.87670  0.94549  Biso   1.000  C
  H686     1.0000 0.08952  0.87010  0.07184  Biso   1.000  H
  H687     1.0000 0.08951  0.87010  0.07178  Biso   1.000  H
  H688     1.0000 0.14539  0.80879  0.90056  Biso   1.000  H
  H689     1.0000 0.17119  0.87038  0.96844  Biso   1.000  H
  H690     1.0000 0.14538  0.80879  0.90049  Biso   1.000  H
  H691     1.0000 0.17121  0.87038  0.96838  Biso   1.000  H
  N228     1.0000 0.96408  0.74462  0.07282  Biso   1.000  N
  H692     1.0000 0.01389  0.76731  0.17923  Biso   1.000  H
  H693     1.0000 0.00820  0.82991  0.10506  Biso   1.000  H
  H694     1.0000 0.01392  0.76731  0.17923  Biso   1.000  H
  H695     1.0000 0.00819  0.82991  0.10500  Biso   1.000  H
  O112     1.0000 0.92755  0.33240  0.79415  Biso   1.000  O
  N229     1.0000 0.88715  0.32111  0.90304  Biso   1.000  N
  O113     1.0000 0.92754  0.33240  0.79409  Biso   1.000  O
  N230     1.0000 0.88714  0.32111  0.90298  Biso   1.000  N
  C564     1.0000 0.88912  0.27528  0.98022  Biso   1.000  C
  C565     1.0000 0.92776  0.14549  0.98734  Biso   1.000  C
  C566     1.0000 0.92778  0.14549  0.98728  Biso   1.000  C
  N231     1.0000 0.89802  0.31809  0.06125  Biso   1.000  N
  N232     1.0000 0.89802  0.31809  0.06118  Biso   1.000  N
  O114     1.0000 0.95512  0.32922  0.18851  Biso   1.000  O
  C567     1.0000 0.92273  0.69381  0.86321  Biso   1.000  C
  C568     1.0000 0.93566  0.77011  0.98865  Biso   1.000  C
  C569     1.0000 0.93565  0.77011  0.98859  Biso   1.000  C
  H696     1.0000 0.10649  0.93103  0.95092  Biso   1.000  H
  H697     1.0000 0.08029  0.86759  0.88604  Biso   1.000  H
  H698     1.0000 0.08028  0.86759  0.88597  Biso   1.000  H
  C570     1.0000 0.94085  0.69622  0.11494  Biso   1.000  C
  C571     1.0000 0.94084  0.69622  0.11487  Biso   1.000  C
  C572     1.0000 0.84616  0.36331  0.85870  Biso   1.000  C
  C573     1.0000 0.84733  0.22302  0.97112  Biso   1.000  C
  H699     1.0000 0.91049  0.12990  0.92822  Biso   1.000  H
  H700     1.0000 0.91052  0.12990  0.92822  Biso   1.000  H
  H701     1.0000 0.95811  0.11950  0.00075  Biso   1.000  H
  C574     1.0000 0.90030  0.12330  0.05451  Biso   1.000  C
  H702     1.0000 0.95811  0.11950  0.00069  Biso   1.000  H
  C575     1.0000 0.86437  0.36393  0.09022  Biso   1.000  C
  O115     1.0000 0.92755  0.66760  0.79415  Biso   1.000  O
  N233     1.0000 0.88715  0.67889  0.90304  Biso   1.000  N
  O116     1.0000 0.92754  0.66760  0.79409  Biso   1.000  O
  N234     1.0000 0.88714  0.67889  0.90298  Biso   1.000  N
  C576     1.0000 0.88912  0.72472  0.98022  Biso   1.000  C
  C577     1.0000 0.92776  0.85451  0.98734  Biso   1.000  C
  C578     1.0000 0.92778  0.85451  0.98728  Biso   1.000  C
  N235     1.0000 0.89802  0.68191  0.06125  Biso   1.000  N
  N236     1.0000 0.89802  0.68191  0.06118  Biso   1.000  N
  O117     1.0000 0.95512  0.67078  0.18851  Biso   1.000  O
  N237     1.0000 0.84317  0.43771  0.89291  Biso   1.000  N
  H703     1.0000 0.81809  0.33497  0.86315  Biso   1.000  H
  H704     1.0000 0.84621  0.36722  0.79592  Biso   1.000  H
  H705     1.0000 0.81811  0.33497  0.86308  Biso   1.000  H
  H706     1.0000 0.84181  0.19703  0.91403  Biso   1.000  H
  H707     1.0000 0.81932  0.25292  0.97224  Biso   1.000  H
  H708     1.0000 0.81931  0.25292  0.97217  Biso   1.000  H
  C579     1.0000 0.85490  0.16573  0.04385  Biso   1.000  C
  C580     1.0000 0.85490  0.16573  0.04378  Biso   1.000  C
  H709     1.0000 0.91971  0.13241  0.11402  Biso   1.000  H
  H710     1.0000 0.89352  0.06897  0.04915  Biso   1.000  H
  H711     1.0000 0.89351  0.06897  0.04908  Biso   1.000  H
  N238     1.0000 0.85755  0.43787  0.05131  Biso   1.000  N
  H712     1.0000 0.83420  0.33738  0.07694  Biso   1.000  H
  H713     1.0000 0.87431  0.36940  0.15451  Biso   1.000  H
  H714     1.0000 0.83419  0.33738  0.07688  Biso   1.000  H
  C581     1.0000 0.84616  0.63669  0.85870  Biso   1.000  C
  C582     1.0000 0.84733  0.77698  0.97112  Biso   1.000  C
  H715     1.0000 0.91049  0.87010  0.92822  Biso   1.000  H
  H716     1.0000 0.91052  0.87010  0.92822  Biso   1.000  H
  H717     1.0000 0.95811  0.88050  0.00075  Biso   1.000  H
  C583     1.0000 0.90030  0.87670  0.05451  Biso   1.000  C
  H718     1.0000 0.95811  0.88050  0.00069  Biso   1.000  H
  C584     1.0000 0.86437  0.63607  0.09022  Biso   1.000  C
  C585     1.0000 0.85141  0.50003  0.84843  Biso   1.000  C
  C586     1.0000 0.82499  0.45570  0.96890  Biso   1.000  C
  C587     1.0000 0.85140  0.50003  0.84837  Biso   1.000  C
  H719     1.0000 0.85461  0.19121  0.09951  Biso   1.000  H
  H720     1.0000 0.82882  0.12962  0.03162  Biso   1.000  H
  C588     1.0000 0.87431  0.50003  0.09865  Biso   1.000  C
  C589     1.0000 0.87430  0.50003  0.09859  Biso   1.000  C
  N239     1.0000 0.84317  0.56229  0.89291  Biso   1.000  N
  H721     1.0000 0.81809  0.66503  0.86315  Biso   1.000  H
  H722     1.0000 0.84621  0.63278  0.79592  Biso   1.000  H
  H723     1.0000 0.81811  0.66503  0.86308  Biso   1.000  H
  H724     1.0000 0.84181  0.80297  0.91403  Biso   1.000  H
  H725     1.0000 0.81932  0.74708  0.97224  Biso   1.000  H
  H726     1.0000 0.81931  0.74708  0.97217  Biso   1.000  H
  C590     1.0000 0.85490  0.83427  0.04385  Biso   1.000  C
  C591     1.0000 0.85490  0.83427  0.04378  Biso   1.000  C
  H727     1.0000 0.91971  0.86759  0.11402  Biso   1.000  H
  H728     1.0000 0.89352  0.93103  0.04915  Biso   1.000  H
  H729     1.0000 0.89351  0.93103  0.04908  Biso   1.000  H
  N240     1.0000 0.85755  0.56213  0.05131  Biso   1.000  N
  H730     1.0000 0.83420  0.66262  0.07694  Biso   1.000  H
  H731     1.0000 0.87431  0.63060  0.15451  Biso   1.000  H
  H732     1.0000 0.83419  0.66262  0.07688  Biso   1.000  H
  O118     1.0000 0.86313  0.50003  0.77833  Biso   1.000  O
  C592     1.0000 0.82499  0.54430  0.96890  Biso   1.000  C
  C593     1.0000 0.77721  0.42401  0.96406  Biso   1.000  C
  C594     1.0000 0.77720  0.42401  0.96400  Biso   1.000  C
  O119     1.0000 0.89877  0.50003  0.17373  Biso   1.000  O
  O120     1.0000 0.89879  0.50003  0.17367  Biso   1.000  O
  H733     1.0000 0.85461  0.80879  0.09951  Biso   1.000  H
  H734     1.0000 0.82882  0.87038  0.03162  Biso   1.000  H
  C595     1.0000 0.77721  0.57599  0.96406  Biso   1.000  C
  C596     1.0000 0.77720  0.57599  0.96400  Biso   1.000  C
  H735     1.0000 0.77782  0.36918  0.95562  Biso   1.000  H
  C597     1.0000 0.74089  0.45928  0.88794  Biso   1.000  C
  C598     1.0000 0.74089  0.45928  0.88787  Biso   1.000  C
  H736     1.0000 0.76821  0.43368  0.01985  Biso   1.000  H
  H737     1.0000 0.76820  0.43368  0.01978  Biso   1.000  H
  H738     1.0000 0.77782  0.63082  0.95562  Biso   1.000  H
  C599     1.0000 0.74089  0.54072  0.88794  Biso   1.000  C
  C600     1.0000 0.74089  0.54072  0.88787  Biso   1.000  C
  H739     1.0000 0.76821  0.56632  0.01985  Biso   1.000  H
  H740     1.0000 0.76820  0.56632  0.01978  Biso   1.000  H
  H741     1.0000 0.70961  0.44151  0.89101  Biso   1.000  H
  H742     1.0000 0.74690  0.44151  0.83202  Biso   1.000  H
  H743     1.0000 0.70961  0.55849  0.89101  Biso   1.000  H
  H744     1.0000 0.74690  0.55849  0.83202  Biso   1.000  H
  C601     1.0000 0.22280  0.42401  0.03600  Biso   1.000  C
  C602     1.0000 0.17501  0.45570  0.03116  Biso   1.000  C
  C603     1.0000 0.17501  0.45570  0.03110  Biso   1.000  C
  H745     1.0000 0.23179  0.43368  0.98022  Biso   1.000  H
  H746     1.0000 0.22219  0.36918  0.04444  Biso   1.000  H
  C604     1.0000 0.25911  0.45928  0.11213  Biso   1.000  C
  H747     1.0000 0.22221  0.36918  0.04437  Biso   1.000  H
  N241     1.0000 0.14245  0.43787  0.94876  Biso   1.000  N
  N242     1.0000 0.14244  0.43787  0.94869  Biso   1.000  N
  C605     1.0000 0.17501  0.54430  0.03116  Biso   1.000  C
  C606     1.0000 0.17501  0.54430  0.03110  Biso   1.000  C
  N243     1.0000 0.15683  0.43771  0.10716  Biso   1.000  N
  N244     1.0000 0.15682  0.43771  0.10709  Biso   1.000  N
  C607     1.0000 0.25911  0.54072  0.11213  Biso   1.000  C
  H748     1.0000 0.29040  0.44151  0.10905  Biso   1.000  H
  H749     1.0000 0.25310  0.44151  0.16804  Biso   1.000  H
  H750     1.0000 0.29039  0.44151  0.10899  Biso   1.000  H
  H751     1.0000 0.25309  0.44151  0.16798  Biso   1.000  H
  C608     1.0000 0.12569  0.50003  0.90141  Biso   1.000  C
  C609     1.0000 0.13563  0.36393  0.90984  Biso   1.000  C
  C610     1.0000 0.13562  0.36393  0.90978  Biso   1.000  C
  N245     1.0000 0.14245  0.56213  0.94876  Biso   1.000  N
  N246     1.0000 0.14244  0.56213  0.94869  Biso   1.000  N
  N247     1.0000 0.15683  0.56229  0.10716  Biso   1.000  N
  C611     1.0000 0.22280  0.57599  0.03600  Biso   1.000  C
  N248     1.0000 0.15682  0.56229  0.10709  Biso   1.000  N
  C612     1.0000 0.15384  0.36331  0.14136  Biso   1.000  C
  C613     1.0000 0.14859  0.50003  0.15163  Biso   1.000  C
  C614     1.0000 0.15383  0.36331  0.14130  Biso   1.000  C
  H752     1.0000 0.29040  0.55849  0.10905  Biso   1.000  H
  H753     1.0000 0.25310  0.55849  0.16804  Biso   1.000  H
  H754     1.0000 0.29039  0.55849  0.10899  Biso   1.000  H
  H755     1.0000 0.25309  0.55849  0.16798  Biso   1.000  H
  O121     1.0000 0.10124  0.50003  0.82633  Biso   1.000  O
  N249     1.0000 0.10198  0.31809  0.93882  Biso   1.000  N
  H756     1.0000 0.16580  0.33738  0.92312  Biso   1.000  H
  H757     1.0000 0.12569  0.36940  0.84556  Biso   1.000  H
  H758     1.0000 0.12568  0.36940  0.84549  Biso   1.000  H
  C615     1.0000 0.13563  0.63607  0.90984  Biso   1.000  C
  C616     1.0000 0.13562  0.63607  0.90978  Biso   1.000  C
  C617     1.0000 0.15384  0.63669  0.14136  Biso   1.000  C
  C618     1.0000 0.15383  0.63669  0.14130  Biso   1.000  C
  H759     1.0000 0.23179  0.56632  0.98022  Biso   1.000  H
  H760     1.0000 0.22219  0.63082  0.04444  Biso   1.000  H
  H761     1.0000 0.22221  0.63082  0.04437  Biso   1.000  H
  N250     1.0000 0.11285  0.32111  0.09702  Biso   1.000  N
  H762     1.0000 0.18192  0.33497  0.13691  Biso   1.000  H
  H763     1.0000 0.15379  0.36722  0.20415  Biso   1.000  H
  H764     1.0000 0.15378  0.36722  0.20408  Biso   1.000  H
  O122     1.0000 0.13688  0.50003  0.22174  Biso   1.000  O
  O123     1.0000 0.13690  0.50003  0.22167  Biso   1.000  O
  C619     1.0000 0.05915  0.30378  0.88512  Biso   1.000  C
  C620     1.0000 0.11088  0.27528  0.01985  Biso   1.000  C
  C621     1.0000 0.11087  0.27528  0.01978  Biso   1.000  C
  N251     1.0000 0.10198  0.68191  0.93882  Biso   1.000  N
  H765     1.0000 0.16580  0.66262  0.92312  Biso   1.000  H
  H766     1.0000 0.12569  0.63060  0.84556  Biso   1.000  H
  H767     1.0000 0.12568  0.63060  0.84549  Biso   1.000  H
  N252     1.0000 0.11285  0.67889  0.09702  Biso   1.000  N
  H768     1.0000 0.18192  0.66503  0.13691  Biso   1.000  H
  H769     1.0000 0.15379  0.63278  0.20415  Biso   1.000  H
  H770     1.0000 0.15378  0.63278  0.20408  Biso   1.000  H
  C622     1.0000 0.07727  0.30619  0.13685  Biso   1.000  C
  C623     1.0000 0.07726  0.30619  0.13678  Biso   1.000  C
  O124     1.0000 0.04489  0.32922  0.81155  Biso   1.000  O
  N253     1.0000 0.03592  0.25538  0.92724  Biso   1.000  N
  O125     1.0000 0.04488  0.32922  0.81148  Biso   1.000  O
  N254     1.0000 0.03591  0.25538  0.92718  Biso   1.000  N
  C624     1.0000 0.06434  0.22989  0.01141  Biso   1.000  C
  C625     1.0000 0.15267  0.22302  0.02894  Biso   1.000  C
  C626     1.0000 0.06438  0.22989  0.01141  Biso   1.000  C
  C627     1.0000 0.15266  0.22302  0.02887  Biso   1.000  C
  C628     1.0000 0.05915  0.69622  0.88512  Biso   1.000  C
  C629     1.0000 0.11088  0.72472  0.01985  Biso   1.000  C
  C630     1.0000 0.11087  0.72472  0.01978  Biso   1.000  C
  C631     1.0000 0.07727  0.69381  0.13685  Biso   1.000  C
  C632     1.0000 0.07726  0.69381  0.13678  Biso   1.000  C
  N255     1.0000 0.04743  0.25661  0.08590  Biso   1.000  N
  O126     1.0000 0.07246  0.33240  0.20591  Biso   1.000  O
  C633     1.0000 0.99121  0.22469  0.88473  Biso   1.000  C
  C634     1.0000 0.07225  0.14549  0.01272  Biso   1.000  C
  C635     1.0000 0.14510  0.16573  0.95621  Biso   1.000  C
  H771     1.0000 0.15820  0.19703  0.08603  Biso   1.000  H
  H772     1.0000 0.18068  0.25292  0.02783  Biso   1.000  H
  H773     1.0000 0.18072  0.25292  0.02783  Biso   1.000  H
  O127     1.0000 0.04489  0.67078  0.81155  Biso   1.000  O
  N256     1.0000 0.03592  0.74462  0.92724  Biso   1.000  N
  O128     1.0000 0.04488  0.67078  0.81148  Biso   1.000  O
  N257     1.0000 0.03591  0.74462  0.92718  Biso   1.000  N
  C636     1.0000 0.06434  0.77011  0.01141  Biso   1.000  C
  C637     1.0000 0.15267  0.77698  0.02894  Biso   1.000  C
  C638     1.0000 0.06438  0.77011  0.01141  Biso   1.000  C
  C639     1.0000 0.15266  0.77698  0.02887  Biso   1.000  C
  N258     1.0000 0.04743  0.74339  0.08590  Biso   1.000  N
  O129     1.0000 0.07246  0.66760  0.20591  Biso   1.000  O
  C640     1.0000 0.00880  0.22469  0.11533  Biso   1.000  C
  N259     1.0000 0.95258  0.25661  0.91416  Biso   1.000  N
  H774     1.0000 0.98612  0.23269  0.82084  Biso   1.000  H
  H775     1.0000 0.99180  0.17009  0.89500  Biso   1.000  H
  N260     1.0000 0.95257  0.25661  0.91410  Biso   1.000  N
  H776     1.0000 0.98611  0.23269  0.82077  Biso   1.000  H
  H777     1.0000 0.04189  0.11950  0.99931  Biso   1.000  H
  C641     1.0000 0.09970  0.12330  0.94555  Biso   1.000  C
  C642     1.0000 0.09970  0.12330  0.94549  Biso   1.000  C
  H778     1.0000 0.08952  0.12990  0.07184  Biso   1.000  H
  H779     1.0000 0.08951  0.12990  0.07178  Biso   1.000  H
  H780     1.0000 0.14539  0.19121  0.90056  Biso   1.000  H
  H781     1.0000 0.17119  0.12962  0.96844  Biso   1.000  H
  H782     1.0000 0.14538  0.19121  0.90049  Biso   1.000  H
  H783     1.0000 0.17121  0.12962  0.96838  Biso   1.000  H
  C643     1.0000 0.99121  0.77531  0.88473  Biso   1.000  C
  C644     1.0000 0.07225  0.85451  0.01272  Biso   1.000  C
  C645     1.0000 0.14510  0.83427  0.95621  Biso   1.000  C
  H784     1.0000 0.15820  0.80297  0.08603  Biso   1.000  H
  H785     1.0000 0.18068  0.74708  0.02783  Biso   1.000  H
  H786     1.0000 0.18072  0.74708  0.02783  Biso   1.000  H
  C646     1.0000 0.00880  0.77531  0.11533  Biso   1.000  C
  N261     1.0000 0.96408  0.25538  0.07282  Biso   1.000  N
  H787     1.0000 0.01389  0.23269  0.17923  Biso   1.000  H
  H788     1.0000 0.00820  0.17009  0.10506  Biso   1.000  H
  H789     1.0000 0.01392  0.23269  0.17923  Biso   1.000  H
  H790     1.0000 0.00819  0.17009  0.10500  Biso   1.000  H
  C647     1.0000 0.92273  0.30619  0.86321  Biso   1.000  C
  C648     1.0000 0.93566  0.22989  0.98865  Biso   1.000  C
  C649     1.0000 0.93565  0.22989  0.98859  Biso   1.000  C
  H791     1.0000 0.10649  0.06897  0.95092  Biso   1.000  H
  H792     1.0000 0.08029  0.13241  0.88604  Biso   1.000  H
  H793     1.0000 0.08028  0.13241  0.88597  Biso   1.000  H
  N262     1.0000 0.95258  0.74339  0.91416  Biso   1.000  N
  H794     1.0000 0.98612  0.76731  0.82084  Biso   1.000  H
  H795     1.0000 0.99180  0.82991  0.89500  Biso   1.000  H
  N263     1.0000 0.95257  0.74339  0.91410  Biso   1.000  N
  H796     1.0000 0.98611  0.76731  0.82077  Biso   1.000  H
  H797     1.0000 0.04189  0.88050  0.99931  Biso   1.000  H
  C650     1.0000 0.09970  0.87670  0.94555  Biso   1.000  C
  C651     1.0000 0.09970  0.87670  0.94549  Biso   1.000  C
  H798     1.0000 0.08952  0.87010  0.07184  Biso   1.000  H
  H799     1.0000 0.08951  0.87010  0.07178  Biso   1.000  H
  H800     1.0000 0.14539  0.80879  0.90056  Biso   1.000  H
  H801     1.0000 0.17119  0.87038  0.96844  Biso   1.000  H
  H802     1.0000 0.14538  0.80879  0.90049  Biso   1.000  H
  H803     1.0000 0.17121  0.87038  0.96838  Biso   1.000  H
  N264     1.0000 0.96408  0.74462  0.07282  Biso   1.000  N
  H804     1.0000 0.01389  0.76731  0.17923  Biso   1.000  H
  H805     1.0000 0.00820  0.82991  0.10506  Biso   1.000  H
  H806     1.0000 0.01392  0.76731  0.17923  Biso   1.000  H
  H807     1.0000 0.00819  0.82991  0.10500  Biso   1.000  H
  C652     1.0000 0.94085  0.30378  0.11494  Biso   1.000  C
  C653     1.0000 0.94084  0.30378  0.11487  Biso   1.000  C
  O130     1.0000 0.92755  0.33240  0.79415  Biso   1.000  O
  N265     1.0000 0.88715  0.32111  0.90304  Biso   1.000  N
  O131     1.0000 0.92754  0.33240  0.79409  Biso   1.000  O
  N266     1.0000 0.88714  0.32111  0.90298  Biso   1.000  N
  C654     1.0000 0.88912  0.27528  0.98022  Biso   1.000  C
  C655     1.0000 0.92776  0.14549  0.98734  Biso   1.000  C
  C656     1.0000 0.92778  0.14549  0.98728  Biso   1.000  C
  C657     1.0000 0.92273  0.69381  0.86321  Biso   1.000  C
  C658     1.0000 0.93566  0.77011  0.98865  Biso   1.000  C
  C659     1.0000 0.93565  0.77011  0.98859  Biso   1.000  C
  H808     1.0000 0.10649  0.93103  0.95092  Biso   1.000  H
  H809     1.0000 0.08029  0.86759  0.88604  Biso   1.000  H
  H810     1.0000 0.08028  0.86759  0.88597  Biso   1.000  H
  C660     1.0000 0.94085  0.69622  0.11494  Biso   1.000  C
  C661     1.0000 0.94084  0.69622  0.11487  Biso   1.000  C
  N267     1.0000 0.89802  0.31809  0.06125  Biso   1.000  N
  N268     1.0000 0.89802  0.31809  0.06118  Biso   1.000  N
  O132     1.0000 0.95512  0.32922  0.18851  Biso   1.000  O
  C662     1.0000 0.84616  0.36331  0.85870  Biso   1.000  C
  C663     1.0000 0.84733  0.22302  0.97112  Biso   1.000  C
  H811     1.0000 0.91049  0.12990  0.92822  Biso   1.000  H
  H812     1.0000 0.91052  0.12990  0.92822  Biso   1.000  H
  H813     1.0000 0.95811  0.11950  0.00075  Biso   1.000  H
  C664     1.0000 0.90030  0.12330  0.05451  Biso   1.000  C
  H814     1.0000 0.95811  0.11950  0.00069  Biso   1.000  H
  O133     1.0000 0.92755  0.66760  0.79415  Biso   1.000  O
  N269     1.0000 0.88715  0.67889  0.90304  Biso   1.000  N
  O134     1.0000 0.92754  0.66760  0.79409  Biso   1.000  O
  N270     1.0000 0.88714  0.67889  0.90298  Biso   1.000  N
  C665     1.0000 0.88912  0.72472  0.98022  Biso   1.000  C
  C666     1.0000 0.92776  0.85451  0.98734  Biso   1.000  C
  C667     1.0000 0.92778  0.85451  0.98728  Biso   1.000  C
  N271     1.0000 0.89802  0.68191  0.06125  Biso   1.000  N
  N272     1.0000 0.89802  0.68191  0.06118  Biso   1.000  N
  O135     1.0000 0.95512  0.67078  0.18851  Biso   1.000  O
  C668     1.0000 0.86437  0.36393  0.09022  Biso   1.000  C
  N273     1.0000 0.84317  0.43771  0.89291  Biso   1.000  N
  H815     1.0000 0.81809  0.33497  0.86315  Biso   1.000  H
  H816     1.0000 0.84621  0.36722  0.79592  Biso   1.000  H
  H817     1.0000 0.81811  0.33497  0.86308  Biso   1.000  H
  H818     1.0000 0.84181  0.19703  0.91403  Biso   1.000  H
  H819     1.0000 0.81932  0.25292  0.97224  Biso   1.000  H
  H820     1.0000 0.81931  0.25292  0.97217  Biso   1.000  H
  C669     1.0000 0.85490  0.16573  0.04385  Biso   1.000  C
  C670     1.0000 0.85490  0.16573  0.04378  Biso   1.000  C
  H821     1.0000 0.91971  0.13241  0.11402  Biso   1.000  H
  H822     1.0000 0.89352  0.06897  0.04915  Biso   1.000  H
  H823     1.0000 0.89351  0.06897  0.04908  Biso   1.000  H
  C671     1.0000 0.84616  0.63669  0.85870  Biso   1.000  C
  C672     1.0000 0.84733  0.77698  0.97112  Biso   1.000  C
  H824     1.0000 0.91049  0.87010  0.92822  Biso   1.000  H
  H825     1.0000 0.91052  0.87010  0.92822  Biso   1.000  H
  H826     1.0000 0.95811  0.88050  0.00075  Biso   1.000  H
  C673     1.0000 0.90030  0.87670  0.05451  Biso   1.000  C
  H827     1.0000 0.95811  0.88050  0.00069  Biso   1.000  H
  C674     1.0000 0.86437  0.63607  0.09022  Biso   1.000  C
  N274     1.0000 0.85755  0.43787  0.05131  Biso   1.000  N
  H828     1.0000 0.83420  0.33738  0.07694  Biso   1.000  H
  H829     1.0000 0.87431  0.36940  0.15451  Biso   1.000  H
  H830     1.0000 0.83419  0.33738  0.07688  Biso   1.000  H
  C675     1.0000 0.85141  0.50003  0.84843  Biso   1.000  C
  C676     1.0000 0.82499  0.45570  0.96890  Biso   1.000  C
  C677     1.0000 0.85140  0.50003  0.84837  Biso   1.000  C
  H831     1.0000 0.85461  0.19121  0.09951  Biso   1.000  H
  H832     1.0000 0.82882  0.12962  0.03162  Biso   1.000  H
  N275     1.0000 0.84317  0.56229  0.89291  Biso   1.000  N
  H833     1.0000 0.81809  0.66503  0.86315  Biso   1.000  H
  H834     1.0000 0.84621  0.63278  0.79592  Biso   1.000  H
  H835     1.0000 0.81811  0.66503  0.86308  Biso   1.000  H
  H836     1.0000 0.84181  0.80297  0.91403  Biso   1.000  H
  H837     1.0000 0.81932  0.74708  0.97224  Biso   1.000  H
  H838     1.0000 0.81931  0.74708  0.97217  Biso   1.000  H
  C678     1.0000 0.85490  0.83427  0.04385  Biso   1.000  C
  C679     1.0000 0.85490  0.83427  0.04378  Biso   1.000  C
  H839     1.0000 0.91971  0.86759  0.11402  Biso   1.000  H
  H840     1.0000 0.89352  0.93103  0.04915  Biso   1.000  H
  H841     1.0000 0.89351  0.93103  0.04908  Biso   1.000  H
  N276     1.0000 0.85755  0.56213  0.05131  Biso   1.000  N
  H842     1.0000 0.83420  0.66262  0.07694  Biso   1.000  H
  H843     1.0000 0.87431  0.63060  0.15451  Biso   1.000  H
  H844     1.0000 0.83419  0.66262  0.07688  Biso   1.000  H
  C680     1.0000 0.87431  0.50003  0.09865  Biso   1.000  C
  C681     1.0000 0.87430  0.50003  0.09859  Biso   1.000  C
  O136     1.0000 0.86313  0.50003  0.77833  Biso   1.000  O
  C682     1.0000 0.82499  0.54430  0.96890  Biso   1.000  C
  C683     1.0000 0.77721  0.42401  0.96406  Biso   1.000  C
  C684     1.0000 0.77720  0.42401  0.96400  Biso   1.000  C
  H845     1.0000 0.85461  0.80879  0.09951  Biso   1.000  H
  H846     1.0000 0.82882  0.87038  0.03162  Biso   1.000  H
  O137     1.0000 0.89877  0.50003  0.17373  Biso   1.000  O
  O138     1.0000 0.89879  0.50003  0.17367  Biso   1.000  O
  C685     1.0000 0.77721  0.57599  0.96406  Biso   1.000  C
  C686     1.0000 0.77720  0.57599  0.96400  Biso   1.000  C
  H847     1.0000 0.77782  0.36918  0.95562  Biso   1.000  H
  C687     1.0000 0.74089  0.45928  0.88794  Biso   1.000  C
  C688     1.0000 0.74089  0.45928  0.88787  Biso   1.000  C
  H848     1.0000 0.76821  0.43368  0.01985  Biso   1.000  H
  H849     1.0000 0.76820  0.43368  0.01978  Biso   1.000  H
  H850     1.0000 0.77782  0.63082  0.95562  Biso   1.000  H
  C689     1.0000 0.74089  0.54072  0.88794  Biso   1.000  C
  C690     1.0000 0.74089  0.54072  0.88787  Biso   1.000  C
  H851     1.0000 0.76821  0.56632  0.01985  Biso   1.000  H
  H852     1.0000 0.76820  0.56632  0.01978  Biso   1.000  H
  H853     1.0000 0.70961  0.44151  0.89101  Biso   1.000  H
  H854     1.0000 0.74690  0.44151  0.83202  Biso   1.000  H
  H855     1.0000 0.70961  0.55849  0.89101  Biso   1.000  H
  H856     1.0000 0.74690  0.55849  0.83202  Biso   1.000  H
  C691     1.0000 0.22280  0.42401  0.03600  Biso   1.000  C
  C692     1.0000 0.17501  0.45570  0.03116  Biso   1.000  C
  C693     1.0000 0.17501  0.45570  0.03110  Biso   1.000  C
  H857     1.0000 0.23179  0.43368  0.98022  Biso   1.000  H
  H858     1.0000 0.22219  0.36918  0.04444  Biso   1.000  H
  C694     1.0000 0.25911  0.45928  0.11213  Biso   1.000  C
  H859     1.0000 0.22221  0.36918  0.04437  Biso   1.000  H
  N277     1.0000 0.14245  0.43787  0.94876  Biso   1.000  N
  N278     1.0000 0.14244  0.43787  0.94869  Biso   1.000  N
  C695     1.0000 0.17501  0.54430  0.03116  Biso   1.000  C
  C696     1.0000 0.17501  0.54430  0.03110  Biso   1.000  C
  N279     1.0000 0.15683  0.43771  0.10716  Biso   1.000  N
  N280     1.0000 0.15682  0.43771  0.10709  Biso   1.000  N
  C697     1.0000 0.25911  0.54072  0.11213  Biso   1.000  C
  H860     1.0000 0.29040  0.44151  0.10905  Biso   1.000  H
  H861     1.0000 0.25310  0.44151  0.16804  Biso   1.000  H
  H862     1.0000 0.29039  0.44151  0.10899  Biso   1.000  H
  H863     1.0000 0.25309  0.44151  0.16798  Biso   1.000  H
  C698     1.0000 0.12569  0.50003  0.90141  Biso   1.000  C
  C699     1.0000 0.13563  0.36393  0.90984  Biso   1.000  C
  C700     1.0000 0.13562  0.36393  0.90978  Biso   1.000  C
  N281     1.0000 0.14245  0.56213  0.94876  Biso   1.000  N
  N282     1.0000 0.14244  0.56213  0.94869  Biso   1.000  N
  N283     1.0000 0.15683  0.56229  0.10716  Biso   1.000  N
  C701     1.0000 0.22280  0.57599  0.03600  Biso   1.000  C
  N284     1.0000 0.15682  0.56229  0.10709  Biso   1.000  N
  C702     1.0000 0.15384  0.36331  0.14136  Biso   1.000  C
  C703     1.0000 0.14859  0.50003  0.15163  Biso   1.000  C
  C704     1.0000 0.15383  0.36331  0.14130  Biso   1.000  C
  H864     1.0000 0.29040  0.55849  0.10905  Biso   1.000  H
  H865     1.0000 0.25310  0.55849  0.16804  Biso   1.000  H
  H866     1.0000 0.29039  0.55849  0.10899  Biso   1.000  H
  H867     1.0000 0.25309  0.55849  0.16798  Biso   1.000  H
  O139     1.0000 0.10124  0.50003  0.82633  Biso   1.000  O
  N285     1.0000 0.10198  0.31809  0.93882  Biso   1.000  N
  H868     1.0000 0.16580  0.33738  0.92312  Biso   1.000  H
  H869     1.0000 0.12569  0.36940  0.84556  Biso   1.000  H
  H870     1.0000 0.12568  0.36940  0.84549  Biso   1.000  H
  C705     1.0000 0.13563  0.63607  0.90984  Biso   1.000  C
  C706     1.0000 0.13562  0.63607  0.90978  Biso   1.000  C
  C707     1.0000 0.15384  0.63669  0.14136  Biso   1.000  C
  C708     1.0000 0.15383  0.63669  0.14130  Biso   1.000  C
  H871     1.0000 0.23179  0.56632  0.98022  Biso   1.000  H
  H872     1.0000 0.22219  0.63082  0.04444  Biso   1.000  H
  H873     1.0000 0.22221  0.63082  0.04437  Biso   1.000  H
  N286     1.0000 0.11285  0.32111  0.09702  Biso   1.000  N
  H874     1.0000 0.18192  0.33497  0.13691  Biso   1.000  H
  H875     1.0000 0.15379  0.36722  0.20415  Biso   1.000  H
  H876     1.0000 0.15378  0.36722  0.20408  Biso   1.000  H
  O140     1.0000 0.13688  0.50003  0.22174  Biso   1.000  O
  O141     1.0000 0.13690  0.50003  0.22167  Biso   1.000  O
  C709     1.0000 0.05915  0.30378  0.88512  Biso   1.000  C
  C710     1.0000 0.11088  0.27528  0.01985  Biso   1.000  C
  C711     1.0000 0.11087  0.27528  0.01978  Biso   1.000  C
  N287     1.0000 0.10198  0.68191  0.93882  Biso   1.000  N
  H877     1.0000 0.16580  0.66262  0.92312  Biso   1.000  H
  H878     1.0000 0.12569  0.63060  0.84556  Biso   1.000  H
  H879     1.0000 0.12568  0.63060  0.84549  Biso   1.000  H
  N288     1.0000 0.11285  0.67889  0.09702  Biso   1.000  N
  H880     1.0000 0.18192  0.66503  0.13691  Biso   1.000  H
  H881     1.0000 0.15379  0.63278  0.20415  Biso   1.000  H
  H882     1.0000 0.15378  0.63278  0.20408  Biso   1.000  H
  C712     1.0000 0.07727  0.30619  0.13685  Biso   1.000  C
  C713     1.0000 0.07726  0.30619  0.13678  Biso   1.000  C
  O142     1.0000 0.04489  0.32922  0.81155  Biso   1.000  O
  N289     1.0000 0.03592  0.25538  0.92724  Biso   1.000  N
  O143     1.0000 0.04488  0.32922  0.81148  Biso   1.000  O
  N290     1.0000 0.03591  0.25538  0.92718  Biso   1.000  N
  C714     1.0000 0.06434  0.22989  0.01141  Biso   1.000  C
  C715     1.0000 0.15267  0.22302  0.02894  Biso   1.000  C
  C716     1.0000 0.06438  0.22989  0.01141  Biso   1.000  C
  C717     1.0000 0.15266  0.22302  0.02887  Biso   1.000  C
  C718     1.0000 0.05915  0.69622  0.88512  Biso   1.000  C
  C719     1.0000 0.11088  0.72472  0.01985  Biso   1.000  C
  C720     1.0000 0.11087  0.72472  0.01978  Biso   1.000  C
  C721     1.0000 0.07727  0.69381  0.13685  Biso   1.000  C
  C722     1.0000 0.07726  0.69381  0.13678  Biso   1.000  C
  N291     1.0000 0.04743  0.25661  0.08590  Biso   1.000  N
  O144     1.0000 0.07246  0.33240  0.20591  Biso   1.000  O
  C723     1.0000 0.99121  0.22469  0.88473  Biso   1.000  C
  C724     1.0000 0.07225  0.14549  0.01272  Biso   1.000  C
  C725     1.0000 0.14510  0.16573  0.95621  Biso   1.000  C
  H883     1.0000 0.15820  0.19703  0.08603  Biso   1.000  H
  H884     1.0000 0.18068  0.25292  0.02783  Biso   1.000  H
  H885     1.0000 0.18072  0.25292  0.02783  Biso   1.000  H
  O145     1.0000 0.04489  0.67078  0.81155  Biso   1.000  O
  N292     1.0000 0.03592  0.74462  0.92724  Biso   1.000  N
  O146     1.0000 0.04488  0.67078  0.81148  Biso   1.000  O
  N293     1.0000 0.03591  0.74462  0.92718  Biso   1.000  N
  C726     1.0000 0.06434  0.77011  0.01141  Biso   1.000  C
  C727     1.0000 0.15267  0.77698  0.02894  Biso   1.000  C
  C728     1.0000 0.06438  0.77011  0.01141  Biso   1.000  C
  C729     1.0000 0.15266  0.77698  0.02887  Biso   1.000  C
  N294     1.0000 0.04743  0.74339  0.08590  Biso   1.000  N
  O147     1.0000 0.07246  0.66760  0.20591  Biso   1.000  O
  C730     1.0000 0.00880  0.22469  0.11533  Biso   1.000  C
  N295     1.0000 0.95258  0.25661  0.91416  Biso   1.000  N
  H886     1.0000 0.98612  0.23269  0.82084  Biso   1.000  H
  H887     1.0000 0.99180  0.17009  0.89500  Biso   1.000  H
  N296     1.0000 0.95257  0.25661  0.91410  Biso   1.000  N
  H888     1.0000 0.98611  0.23269  0.82077  Biso   1.000  H
  H889     1.0000 0.04189  0.11950  0.99931  Biso   1.000  H
  C731     1.0000 0.09970  0.12330  0.94555  Biso   1.000  C
  C732     1.0000 0.09970  0.12330  0.94549  Biso   1.000  C
  H890     1.0000 0.08952  0.12990  0.07184  Biso   1.000  H
  H891     1.0000 0.08951  0.12990  0.07178  Biso   1.000  H
  H892     1.0000 0.14539  0.19121  0.90056  Biso   1.000  H
  H893     1.0000 0.17119  0.12962  0.96844  Biso   1.000  H
  H894     1.0000 0.14538  0.19121  0.90049  Biso   1.000  H
  H895     1.0000 0.17121  0.12962  0.96838  Biso   1.000  H
  C733     1.0000 0.99121  0.77531  0.88473  Biso   1.000  C
  C734     1.0000 0.07225  0.85451  0.01272  Biso   1.000  C
  C735     1.0000 0.14510  0.83427  0.95621  Biso   1.000  C
  H896     1.0000 0.15820  0.80297  0.08603  Biso   1.000  H
  H897     1.0000 0.18068  0.74708  0.02783  Biso   1.000  H
  H898     1.0000 0.18072  0.74708  0.02783  Biso   1.000  H
  C736     1.0000 0.00880  0.77531  0.11533  Biso   1.000  C
  N297     1.0000 0.96408  0.25538  0.07282  Biso   1.000  N
  H899     1.0000 0.01389  0.23269  0.17923  Biso   1.000  H
  H900     1.0000 0.00820  0.17009  0.10506  Biso   1.000  H
  H901     1.0000 0.01392  0.23269  0.17923  Biso   1.000  H
  H902     1.0000 0.00819  0.17009  0.10500  Biso   1.000  H
  C737     1.0000 0.92273  0.30619  0.86321  Biso   1.000  C
  C738     1.0000 0.93566  0.22989  0.98865  Biso   1.000  C
  C739     1.0000 0.93565  0.22989  0.98859  Biso   1.000  C
  H903     1.0000 0.10649  0.06897  0.95092  Biso   1.000  H
  H904     1.0000 0.08029  0.13241  0.88604  Biso   1.000  H
  H905     1.0000 0.08028  0.13241  0.88597  Biso   1.000  H
  N298     1.0000 0.95258  0.74339  0.91416  Biso   1.000  N
  H906     1.0000 0.98612  0.76731  0.82084  Biso   1.000  H
  H907     1.0000 0.99180  0.82991  0.89500  Biso   1.000  H
  N299     1.0000 0.95257  0.74339  0.91410  Biso   1.000  N
  H908     1.0000 0.98611  0.76731  0.82077  Biso   1.000  H
  H909     1.0000 0.04189  0.88050  0.99931  Biso   1.000  H
  C740     1.0000 0.09970  0.87670  0.94555  Biso   1.000  C
  C741     1.0000 0.09970  0.87670  0.94549  Biso   1.000  C
  H910     1.0000 0.08952  0.87010  0.07184  Biso   1.000  H
  H911     1.0000 0.08951  0.87010  0.07178  Biso   1.000  H
  H912     1.0000 0.14539  0.80879  0.90056  Biso   1.000  H
  H913     1.0000 0.17119  0.87038  0.96844  Biso   1.000  H
  H914     1.0000 0.14538  0.80879  0.90049  Biso   1.000  H
  H915     1.0000 0.17121  0.87038  0.96838  Biso   1.000  H
  N300     1.0000 0.96408  0.74462  0.07282  Biso   1.000  N
  H916     1.0000 0.01389  0.76731  0.17923  Biso   1.000  H
  H917     1.0000 0.00820  0.82991  0.10506  Biso   1.000  H
  H918     1.0000 0.01392  0.76731  0.17923  Biso   1.000  H
  H919     1.0000 0.00819  0.82991  0.10500  Biso   1.000  H
  C742     1.0000 0.94085  0.30378  0.11494  Biso   1.000  C
  C743     1.0000 0.94084  0.30378  0.11487  Biso   1.000  C
  O148     1.0000 0.92755  0.33240  0.79415  Biso   1.000  O
  N301     1.0000 0.88715  0.32111  0.90304  Biso   1.000  N
  O149     1.0000 0.92754  0.33240  0.79409  Biso   1.000  O
  N302     1.0000 0.88714  0.32111  0.90298  Biso   1.000  N
  C744     1.0000 0.88912  0.27528  0.98022  Biso   1.000  C
  C745     1.0000 0.92776  0.14549  0.98734  Biso   1.000  C
  C746     1.0000 0.92778  0.14549  0.98728  Biso   1.000  C
  C747     1.0000 0.92273  0.69381  0.86321  Biso   1.000  C
  C748     1.0000 0.93566  0.77011  0.98865  Biso   1.000  C
  C749     1.0000 0.93565  0.77011  0.98859  Biso   1.000  C
  H920     1.0000 0.10649  0.93103  0.95092  Biso   1.000  H
  H921     1.0000 0.08029  0.86759  0.88604  Biso   1.000  H
  H922     1.0000 0.08028  0.86759  0.88597  Biso   1.000  H
  C750     1.0000 0.94085  0.69622  0.11494  Biso   1.000  C
  C751     1.0000 0.94084  0.69622  0.11487  Biso   1.000  C
  N303     1.0000 0.89802  0.31809  0.06125  Biso   1.000  N
  N304     1.0000 0.89802  0.31809  0.06118  Biso   1.000  N
  O150     1.0000 0.95512  0.32922  0.18851  Biso   1.000  O
  C752     1.0000 0.84616  0.36331  0.85870  Biso   1.000  C
  C753     1.0000 0.84733  0.22302  0.97112  Biso   1.000  C
  H923     1.0000 0.91049  0.12990  0.92822  Biso   1.000  H
  H924     1.0000 0.91052  0.12990  0.92822  Biso   1.000  H
  H925     1.0000 0.95811  0.11950  0.00075  Biso   1.000  H
  C754     1.0000 0.90030  0.12330  0.05451  Biso   1.000  C
  H926     1.0000 0.95811  0.11950  0.00069  Biso   1.000  H
  O151     1.0000 0.92755  0.66760  0.79415  Biso   1.000  O
  N305     1.0000 0.88715  0.67889  0.90304  Biso   1.000  N
  O152     1.0000 0.92754  0.66760  0.79409  Biso   1.000  O
  N306     1.0000 0.88714  0.67889  0.90298  Biso   1.000  N
  C755     1.0000 0.88912  0.72472  0.98022  Biso   1.000  C
  C756     1.0000 0.92776  0.85451  0.98734  Biso   1.000  C
  C757     1.0000 0.92778  0.85451  0.98728  Biso   1.000  C
  N307     1.0000 0.89802  0.68191  0.06125  Biso   1.000  N
  N308     1.0000 0.89802  0.68191  0.06118  Biso   1.000  N
  O153     1.0000 0.95512  0.67078  0.18851  Biso   1.000  O
  C758     1.0000 0.86437  0.36393  0.09022  Biso   1.000  C
  N309     1.0000 0.84317  0.43771  0.89291  Biso   1.000  N
  H927     1.0000 0.81809  0.33497  0.86315  Biso   1.000  H
  H928     1.0000 0.84621  0.36722  0.79592  Biso   1.000  H
  H929     1.0000 0.81811  0.33497  0.86308  Biso   1.000  H
  H930     1.0000 0.84181  0.19703  0.91403  Biso   1.000  H
  H931     1.0000 0.81932  0.25292  0.97224  Biso   1.000  H
  H932     1.0000 0.81931  0.25292  0.97217  Biso   1.000  H
  C759     1.0000 0.85490  0.16573  0.04385  Biso   1.000  C
  C760     1.0000 0.85490  0.16573  0.04378  Biso   1.000  C
  H933     1.0000 0.91971  0.13241  0.11402  Biso   1.000  H
  H934     1.0000 0.89352  0.06897  0.04915  Biso   1.000  H
  H935     1.0000 0.89351  0.06897  0.04908  Biso   1.000  H
  C761     1.0000 0.84616  0.63669  0.85870  Biso   1.000  C
  C762     1.0000 0.84733  0.77698  0.97112  Biso   1.000  C
  H936     1.0000 0.91049  0.87010  0.92822  Biso   1.000  H
  H937     1.0000 0.91052  0.87010  0.92822  Biso   1.000  H
  H938     1.0000 0.95811  0.88050  0.00075  Biso   1.000  H
  C763     1.0000 0.90030  0.87670  0.05451  Biso   1.000  C
  H939     1.0000 0.95811  0.88050  0.00069  Biso   1.000  H
  C764     1.0000 0.86437  0.63607  0.09022  Biso   1.000  C
  N310     1.0000 0.85755  0.43787  0.05131  Biso   1.000  N
  H940     1.0000 0.83420  0.33738  0.07694  Biso   1.000  H
  H941     1.0000 0.87431  0.36940  0.15451  Biso   1.000  H
  H942     1.0000 0.83419  0.33738  0.07688  Biso   1.000  H
  C765     1.0000 0.85141  0.50003  0.84843  Biso   1.000  C
  C766     1.0000 0.82499  0.45570  0.96890  Biso   1.000  C
  C767     1.0000 0.85140  0.50003  0.84837  Biso   1.000  C
  H943     1.0000 0.85461  0.19121  0.09951  Biso   1.000  H
  H944     1.0000 0.82882  0.12962  0.03162  Biso   1.000  H
  N311     1.0000 0.84317  0.56229  0.89291  Biso   1.000  N
  H945     1.0000 0.81809  0.66503  0.86315  Biso   1.000  H
  H946     1.0000 0.84621  0.63278  0.79592  Biso   1.000  H
  H947     1.0000 0.81811  0.66503  0.86308  Biso   1.000  H
  H948     1.0000 0.84181  0.80297  0.91403  Biso   1.000  H
  H949     1.0000 0.81932  0.74708  0.97224  Biso   1.000  H
  H950     1.0000 0.81931  0.74708  0.97217  Biso   1.000  H
  C768     1.0000 0.85490  0.83427  0.04385  Biso   1.000  C
  C769     1.0000 0.85490  0.83427  0.04378  Biso   1.000  C
  H951     1.0000 0.91971  0.86759  0.11402  Biso   1.000  H
  H952     1.0000 0.89352  0.93103  0.04915  Biso   1.000  H
  H953     1.0000 0.89351  0.93103  0.04908  Biso   1.000  H
  N312     1.0000 0.85755  0.56213  0.05131  Biso   1.000  N
  H954     1.0000 0.83420  0.66262  0.07694  Biso   1.000  H
  H955     1.0000 0.87431  0.63060  0.15451  Biso   1.000  H
  H956     1.0000 0.83419  0.66262  0.07688  Biso   1.000  H
  C770     1.0000 0.87431  0.50003  0.09865  Biso   1.000  C
  C771     1.0000 0.87430  0.50003  0.09859  Biso   1.000  C
  O154     1.0000 0.86313  0.50003  0.77833  Biso   1.000  O
  C772     1.0000 0.82499  0.54430  0.96890  Biso   1.000  C
  C773     1.0000 0.77721  0.42401  0.96406  Biso   1.000  C
  C774     1.0000 0.77720  0.42401  0.96400  Biso   1.000  C
  H957     1.0000 0.85461  0.80879  0.09951  Biso   1.000  H
  H958     1.0000 0.82882  0.87038  0.03162  Biso   1.000  H
  O155     1.0000 0.89877  0.50003  0.17373  Biso   1.000  O
  O156     1.0000 0.89879  0.50003  0.17367  Biso   1.000  O
  C775     1.0000 0.77721  0.57599  0.96406  Biso   1.000  C
  C776     1.0000 0.77720  0.57599  0.96400  Biso   1.000  C
  H959     1.0000 0.77782  0.36918  0.95562  Biso   1.000  H
  C777     1.0000 0.74089  0.45928  0.88794  Biso   1.000  C
  C778     1.0000 0.74089  0.45928  0.88787  Biso   1.000  C
  H960     1.0000 0.76821  0.43368  0.01985  Biso   1.000  H
  H961     1.0000 0.76820  0.43368  0.01978  Biso   1.000  H
  H962     1.0000 0.77782  0.63082  0.95562  Biso   1.000  H
  C779     1.0000 0.74089  0.54072  0.88794  Biso   1.000  C
  C780     1.0000 0.74089  0.54072  0.88787  Biso   1.000  C
  H963     1.0000 0.76821  0.56632  0.01985  Biso   1.000  H
  H964     1.0000 0.76820  0.56632  0.01978  Biso   1.000  H
  H965     1.0000 0.70961  0.44151  0.89101  Biso   1.000  H
  H966     1.0000 0.74690  0.44151  0.83202  Biso   1.000  H
  H967     1.0000 0.70961  0.55849  0.89101  Biso   1.000  H
  H968     1.0000 0.74690  0.55849  0.83202  Biso   1.000  H
  C781     1.0000 0.74028  0.04220  0.41333  Biso   1.000  C
  C782     1.0000 0.77252  0.07630  0.36048  Biso   1.000  C
  H969     1.0000 0.74989  0.06009  0.47448  Biso   1.000  H
  H970     1.0000 0.70821  0.06009  0.38887  Biso   1.000  H
  C783     1.0000 0.74028  0.95780  0.41333  Biso   1.000  C
  C784     1.0000 0.82129  0.04438  0.38880  Biso   1.000  C
  H971     1.0000 0.75988  0.06590  0.29757  Biso   1.000  H
  H972     1.0000 0.77371  0.13113  0.36873  Biso   1.000  H
  C785     1.0000 0.77252  0.92370  0.36048  Biso   1.000  C
  H973     1.0000 0.74989  0.93991  0.47448  Biso   1.000  H
  H974     1.0000 0.70821  0.93991  0.38887  Biso   1.000  H
  N313     1.0000 0.84306  0.06210  0.47958  Biso   1.000  N
  N314     1.0000 0.85016  0.06221  0.32811  Biso   1.000  N
  C786     1.0000 0.82129  0.95562  0.38880  Biso   1.000  C
  H975     1.0000 0.75988  0.93410  0.29757  Biso   1.000  H
  H976     1.0000 0.77371  0.86887  0.36873  Biso   1.000  H
  C787     1.0000 0.85251  0.00000  0.53151  Biso   1.000  C
  C788     1.0000 0.84588  0.13621  0.51758  Biso   1.000  C
  C789     1.0000 0.86440  0.00000  0.29038  Biso   1.000  C
  C790     1.0000 0.85874  0.13621  0.29842  Biso   1.000  C
  N315     1.0000 0.84306  0.93790  0.47958  Biso   1.000  N
  N316     1.0000 0.85016  0.93779  0.32811  Biso   1.000  N
  O157     1.0000 0.86553  0.00000  0.61110  Biso   1.000  O
  N317     1.0000 0.88581  0.17970  0.50757  Biso   1.000  N
  H977     1.0000 0.84690  0.13141  0.58082  Biso   1.000  H
  H978     1.0000 0.81719  0.16399  0.49030  Biso   1.000  H
  O158     1.0000 0.88547  0.00000  0.23217  Biso   1.000  O
  N318     1.0000 0.89522  0.17674  0.35813  Biso   1.000  N
  H979     1.0000 0.82961  0.16561  0.28920  Biso   1.000  H
  H980     1.0000 0.86709  0.13191  0.24120  Biso   1.000  H
  C791     1.0000 0.84588  0.86379  0.51758  Biso   1.000  C
  C792     1.0000 0.85874  0.86379  0.29842  Biso   1.000  C
  C793     1.0000 0.92258  0.19272  0.57650  Biso   1.000  C
  C794     1.0000 0.88811  0.22318  0.43001  Biso   1.000  C
  C795     1.0000 0.93791  0.18741  0.33969  Biso   1.000  C
  N319     1.0000 0.88581  0.82030  0.50757  Biso   1.000  N
  H981     1.0000 0.84690  0.86859  0.58082  Biso   1.000  H
  H982     1.0000 0.81719  0.83601  0.49030  Biso   1.000  H
  N320     1.0000 0.89522  0.82326  0.35813  Biso   1.000  N
  H983     1.0000 0.82961  0.83439  0.28920  Biso   1.000  H
  H984     1.0000 0.86709  0.86809  0.24120  Biso   1.000  H
  O159     1.0000 0.92752  0.16863  0.65093  Biso   1.000  O
  N321     1.0000 0.95365  0.23828  0.54877  Biso   1.000  N
  C796     1.0000 0.93580  0.26561  0.45970  Biso   1.000  C
  C797     1.0000 0.84736  0.27718  0.40228  Biso   1.000  C
  O160     1.0000 0.95150  0.15740  0.28004  Biso   1.000  O
  N322     1.0000 0.96233  0.23777  0.39842  Biso   1.000  N
  C798     1.0000 0.92258  0.80728  0.57650  Biso   1.000  C
  C799     1.0000 0.88811  0.77682  0.43001  Biso   1.000  C
  C800     1.0000 0.93791  0.81259  0.33969  Biso   1.000  C
  C801     1.0000 0.99378  0.26818  0.61071  Biso   1.000  C
  C802     1.0000 0.92958  0.35001  0.45531  Biso   1.000  C
  H985     1.0000 0.81850  0.24867  0.37801  Biso   1.000  H
  H986     1.0000 0.84288  0.30540  0.45388  Biso   1.000  H
  C803     1.0000 0.85666  0.33140  0.33367  Biso   1.000  C
  C804     1.0000 0.00623  0.26818  0.38933  Biso   1.000  C
  O161     1.0000 0.92752  0.83137  0.65093  Biso   1.000  O
  N323     1.0000 0.95365  0.76172  0.54877  Biso   1.000  N
  C805     1.0000 0.93580  0.73439  0.45970  Biso   1.000  C
  C806     1.0000 0.84736  0.72282  0.40228  Biso   1.000  C
  O162     1.0000 0.95150  0.84260  0.28004  Biso   1.000  O
  N324     1.0000 0.96233  0.76223  0.39842  Biso   1.000  N
  H987     1.0000 0.99440  0.32312  0.60318  Biso   1.000  H
  H988     1.0000 0.99030  0.25812  0.67068  Biso   1.000  H
  N325     1.0000 0.03767  0.23777  0.60161  Biso   1.000  N
  H989     1.0000 0.96050  0.37432  0.46892  Biso   1.000  H
  H990     1.0000 0.91291  0.36599  0.49992  Biso   1.000  H
  C807     1.0000 0.90238  0.37538  0.36519  Biso   1.000  C
  H991     1.0000 0.83051  0.36722  0.31817  Biso   1.000  H
  H992     1.0000 0.85812  0.30311  0.28030  Biso   1.000  H
  N326     1.0000 0.04635  0.23828  0.45119  Biso   1.000  N
  H993     1.0000 0.00560  0.32312  0.39678  Biso   1.000  H
  H994     1.0000 0.00969  0.25812  0.32929  Biso   1.000  H
  C808     1.0000 0.99378  0.73182  0.61071  Biso   1.000  C
  C809     1.0000 0.92958  0.64999  0.45531  Biso   1.000  C
  H995     1.0000 0.81850  0.75133  0.37801  Biso   1.000  H
  H996     1.0000 0.84288  0.69460  0.45388  Biso   1.000  H
  C810     1.0000 0.85666  0.66860  0.33367  Biso   1.000  C
  C811     1.0000 0.00623  0.73182  0.38933  Biso   1.000  C
  C812     1.0000 0.06419  0.26561  0.54027  Biso   1.000  C
  C813     1.0000 0.06208  0.18741  0.66028  Biso   1.000  C
  H997     1.0000 0.92190  0.36868  0.32262  Biso   1.000  H
  H998     1.0000 0.89519  0.42932  0.36748  Biso   1.000  H
  C814     1.0000 0.07742  0.19272  0.42353  Biso   1.000  C
  H999     1.0000 0.99440  0.67688  0.60318  Biso   1.000  H
  H1000    1.0000 0.99030  0.74188  0.67068  Biso   1.000  H
  N327     1.0000 0.03767  0.76223  0.60161  Biso   1.000  N
  H1001    1.0000 0.96050  0.62568  0.46892  Biso   1.000  H
  H1002    1.0000 0.91291  0.63401  0.49992  Biso   1.000  H
  C815     1.0000 0.90238  0.62462  0.36519  Biso   1.000  C
  H1003    1.0000 0.83051  0.63278  0.31817  Biso   1.000  H
  H1004    1.0000 0.85812  0.69689  0.28030  Biso   1.000  H
  N328     1.0000 0.04635  0.76172  0.45119  Biso   1.000  N
  H1005    1.0000 0.00560  0.67688  0.39678  Biso   1.000  H
  H1006    1.0000 0.00969  0.74188  0.32929  Biso   1.000  H
  C816     1.0000 0.11189  0.22318  0.57003  Biso   1.000  C
  C817     1.0000 0.07042  0.35001  0.54472  Biso   1.000  C
  O163     1.0000 0.04849  0.15740  0.71992  Biso   1.000  O
  N329     1.0000 0.10478  0.17674  0.64190  Biso   1.000  N
  O164     1.0000 0.07248  0.16863  0.34911  Biso   1.000  O
  N330     1.0000 0.11419  0.17970  0.49240  Biso   1.000  N
  C818     1.0000 0.06419  0.73439  0.54027  Biso   1.000  C
  C819     1.0000 0.06208  0.81259  0.66028  Biso   1.000  C
  H1007    1.0000 0.92190  0.63132  0.32262  Biso   1.000  H
  H1008    1.0000 0.89519  0.57068  0.36748  Biso   1.000  H
  C820     1.0000 0.07742  0.80728  0.42353  Biso   1.000  C
  C821     1.0000 0.15263  0.27718  0.59769  Biso   1.000  C
  H1009    1.0000 0.03950  0.37432  0.53111  Biso   1.000  H
  H1010    1.0000 0.08709  0.36599  0.50011  Biso   1.000  H
  C822     1.0000 0.09761  0.37538  0.63477  Biso   1.000  C
  C823     1.0000 0.14126  0.13621  0.70161  Biso   1.000  C
  C824     1.0000 0.15411  0.13621  0.48239  Biso   1.000  C
  C825     1.0000 0.11189  0.77682  0.57003  Biso   1.000  C
  C826     1.0000 0.07042  0.64999  0.54472  Biso   1.000  C
  O165     1.0000 0.04849  0.84260  0.71992  Biso   1.000  O
  N331     1.0000 0.10478  0.82326  0.64190  Biso   1.000  N
  O166     1.0000 0.07248  0.83137  0.34911  Biso   1.000  O
  N332     1.0000 0.11419  0.82030  0.49240  Biso   1.000  N
  H1011    1.0000 0.18151  0.24867  0.62202  Biso   1.000  H
  H1012    1.0000 0.15711  0.30540  0.54609  Biso   1.000  H
  C827     1.0000 0.14333  0.33140  0.66630  Biso   1.000  C
  H1013    1.0000 0.07810  0.36868  0.67741  Biso   1.000  H
  H1014    1.0000 0.10480  0.42932  0.63248  Biso   1.000  H
  N333     1.0000 0.14984  0.06221  0.67192  Biso   1.000  N
  H1015    1.0000 0.17038  0.16561  0.71077  Biso   1.000  H
  H1016    1.0000 0.13291  0.13191  0.75877  Biso   1.000  H
  N334     1.0000 0.15693  0.06210  0.52039  Biso   1.000  N
  H1017    1.0000 0.15310  0.13141  0.41921  Biso   1.000  H
  H1018    1.0000 0.18282  0.16399  0.50973  Biso   1.000  H
  C828     1.0000 0.15263  0.72282  0.59769  Biso   1.000  C
  H1019    1.0000 0.03950  0.62568  0.53111  Biso   1.000  H
  H1020    1.0000 0.08709  0.63401  0.50011  Biso   1.000  H
  C829     1.0000 0.09761  0.62462  0.63477  Biso   1.000  C
  C830     1.0000 0.14126  0.86379  0.70161  Biso   1.000  C
  C831     1.0000 0.15411  0.86379  0.48239  Biso   1.000  C
  H1021    1.0000 0.16949  0.36722  0.68180  Biso   1.000  H
  H1022    1.0000 0.14192  0.30311  0.71973  Biso   1.000  H
  C832     1.0000 0.17871  0.04438  0.61123  Biso   1.000  C
  C833     1.0000 0.13559  0.00000  0.70959  Biso   1.000  C
  C834     1.0000 0.14749  0.00000  0.46853  Biso   1.000  C
  H1023    1.0000 0.18151  0.75133  0.62202  Biso   1.000  H
  H1024    1.0000 0.15711  0.69460  0.54609  Biso   1.000  H
  C835     1.0000 0.14333  0.66860  0.66630  Biso   1.000  C
  H1025    1.0000 0.07810  0.63132  0.67741  Biso   1.000  H
  H1026    1.0000 0.10480  0.57068  0.63248  Biso   1.000  H
  N335     1.0000 0.14984  0.93779  0.67192  Biso   1.000  N
  H1027    1.0000 0.17038  0.83439  0.71077  Biso   1.000  H
  H1028    1.0000 0.13291  0.86809  0.75877  Biso   1.000  H
  N336     1.0000 0.15693  0.93790  0.52039  Biso   1.000  N
  H1029    1.0000 0.15310  0.86859  0.41921  Biso   1.000  H
  H1030    1.0000 0.18282  0.83601  0.50973  Biso   1.000  H
  C836     1.0000 0.17871  0.95562  0.61123  Biso   1.000  C
  C837     1.0000 0.22747  0.07630  0.63948  Biso   1.000  C
  O167     1.0000 0.11452  0.00000  0.76780  Biso   1.000  O
  O168     1.0000 0.13446  0.00000  0.38887  Biso   1.000  O
  H1031    1.0000 0.16949  0.63278  0.68180  Biso   1.000  H
  H1032    1.0000 0.14192  0.69689  0.71973  Biso   1.000  H
  C838     1.0000 0.22747  0.92370  0.63948  Biso   1.000  C
  H1033    1.0000 0.24011  0.06590  0.70240  Biso   1.000  H
  H1034    1.0000 0.22629  0.13113  0.63131  Biso   1.000  H
  C839     1.0000 0.25973  0.04220  0.58670  Biso   1.000  C
  H1035    1.0000 0.24011  0.93410  0.70240  Biso   1.000  H
  H1036    1.0000 0.22629  0.86887  0.63131  Biso   1.000  H
  C840     1.0000 0.25973  0.95780  0.58670  Biso   1.000  C
  H1037    1.0000 0.25010  0.06009  0.52549  Biso   1.000  H
  H1038    1.0000 0.29178  0.06009  0.61110  Biso   1.000  H
  H1039    1.0000 0.25010  0.93991  0.52549  Biso   1.000  H
  H1040    1.0000 0.29178  0.93991  0.61110  Biso   1.000  H
  C841     1.0000 0.74028  0.04220  0.41333  Biso   1.000  C
  C842     1.0000 0.77252  0.07630  0.36048  Biso   1.000  C
  H1041    1.0000 0.74989  0.06009  0.47448  Biso   1.000  H
  H1042    1.0000 0.70821  0.06009  0.38887  Biso   1.000  H
  C843     1.0000 0.74028  0.95780  0.41333  Biso   1.000  C
  C844     1.0000 0.82129  0.04438  0.38880  Biso   1.000  C
  H1043    1.0000 0.75988  0.06590  0.29757  Biso   1.000  H
  H1044    1.0000 0.77371  0.13113  0.36873  Biso   1.000  H
  C845     1.0000 0.77252  0.92370  0.36048  Biso   1.000  C
  H1045    1.0000 0.74989  0.93991  0.47448  Biso   1.000  H
  H1046    1.0000 0.70821  0.93991  0.38887  Biso   1.000  H
  N337     1.0000 0.84306  0.06210  0.47958  Biso   1.000  N
  N338     1.0000 0.85016  0.06221  0.32811  Biso   1.000  N
  C846     1.0000 0.82129  0.95562  0.38880  Biso   1.000  C
  H1047    1.0000 0.75988  0.93410  0.29757  Biso   1.000  H
  H1048    1.0000 0.77371  0.86887  0.36873  Biso   1.000  H
  C847     1.0000 0.85251  0.00000  0.53151  Biso   1.000  C
  C848     1.0000 0.84588  0.13621  0.51758  Biso   1.000  C
  C849     1.0000 0.86440  0.00000  0.29038  Biso   1.000  C
  C850     1.0000 0.85874  0.13621  0.29842  Biso   1.000  C
  N339     1.0000 0.84306  0.93790  0.47958  Biso   1.000  N
  N340     1.0000 0.85016  0.93779  0.32811  Biso   1.000  N
  O169     1.0000 0.86553  0.00000  0.61110  Biso   1.000  O
  N341     1.0000 0.88581  0.17970  0.50757  Biso   1.000  N
  H1049    1.0000 0.84690  0.13141  0.58082  Biso   1.000  H
  H1050    1.0000 0.81719  0.16399  0.49030  Biso   1.000  H
  O170     1.0000 0.88547  0.00000  0.23217  Biso   1.000  O
  N342     1.0000 0.89522  0.17674  0.35813  Biso   1.000  N
  H1051    1.0000 0.82961  0.16561  0.28920  Biso   1.000  H
  H1052    1.0000 0.86709  0.13191  0.24120  Biso   1.000  H
  C851     1.0000 0.84588  0.86379  0.51758  Biso   1.000  C
  C852     1.0000 0.85874  0.86379  0.29842  Biso   1.000  C
  C853     1.0000 0.92258  0.19272  0.57650  Biso   1.000  C
  C854     1.0000 0.88811  0.22318  0.43001  Biso   1.000  C
  C855     1.0000 0.93791  0.18741  0.33969  Biso   1.000  C
  N343     1.0000 0.88581  0.82030  0.50757  Biso   1.000  N
  H1053    1.0000 0.84690  0.86859  0.58082  Biso   1.000  H
  H1054    1.0000 0.81719  0.83601  0.49030  Biso   1.000  H
  N344     1.0000 0.89522  0.82326  0.35813  Biso   1.000  N
  H1055    1.0000 0.82961  0.83439  0.28920  Biso   1.000  H
  H1056    1.0000 0.86709  0.86809  0.24120  Biso   1.000  H
  O171     1.0000 0.92752  0.16863  0.65093  Biso   1.000  O
  N345     1.0000 0.95365  0.23828  0.54877  Biso   1.000  N
  C856     1.0000 0.93580  0.26561  0.45970  Biso   1.000  C
  C857     1.0000 0.84736  0.27718  0.40228  Biso   1.000  C
  O172     1.0000 0.95150  0.15740  0.28004  Biso   1.000  O
  N346     1.0000 0.96233  0.23777  0.39842  Biso   1.000  N
  C858     1.0000 0.92258  0.80728  0.57650  Biso   1.000  C
  C859     1.0000 0.88811  0.77682  0.43001  Biso   1.000  C
  C860     1.0000 0.93791  0.81259  0.33969  Biso   1.000  C
  C861     1.0000 0.99378  0.26818  0.61071  Biso   1.000  C
  C862     1.0000 0.92958  0.35001  0.45531  Biso   1.000  C
  H1057    1.0000 0.81850  0.24867  0.37801  Biso   1.000  H
  H1058    1.0000 0.84288  0.30540  0.45388  Biso   1.000  H
  C863     1.0000 0.85666  0.33140  0.33367  Biso   1.000  C
  C864     1.0000 0.00623  0.26818  0.38933  Biso   1.000  C
  O173     1.0000 0.92752  0.83137  0.65093  Biso   1.000  O
  N347     1.0000 0.95365  0.76172  0.54877  Biso   1.000  N
  C865     1.0000 0.93580  0.73439  0.45970  Biso   1.000  C
  C866     1.0000 0.84736  0.72282  0.40228  Biso   1.000  C
  O174     1.0000 0.95150  0.84260  0.28004  Biso   1.000  O
  N348     1.0000 0.96233  0.76223  0.39842  Biso   1.000  N
  H1059    1.0000 0.99440  0.32312  0.60318  Biso   1.000  H
  H1060    1.0000 0.99030  0.25812  0.67068  Biso   1.000  H
  N349     1.0000 0.03767  0.23777  0.60161  Biso   1.000  N
  H1061    1.0000 0.96050  0.37432  0.46892  Biso   1.000  H
  H1062    1.0000 0.91291  0.36599  0.49992  Biso   1.000  H
  C867     1.0000 0.90238  0.37538  0.36519  Biso   1.000  C
  H1063    1.0000 0.83051  0.36722  0.31817  Biso   1.000  H
  H1064    1.0000 0.85812  0.30311  0.28030  Biso   1.000  H
  N350     1.0000 0.04635  0.23828  0.45119  Biso   1.000  N
  H1065    1.0000 0.00560  0.32312  0.39678  Biso   1.000  H
  H1066    1.0000 0.00969  0.25812  0.32929  Biso   1.000  H
  C868     1.0000 0.99378  0.73182  0.61071  Biso   1.000  C
  C869     1.0000 0.92958  0.64999  0.45531  Biso   1.000  C
  H1067    1.0000 0.81850  0.75133  0.37801  Biso   1.000  H
  H1068    1.0000 0.84288  0.69460  0.45388  Biso   1.000  H
  C870     1.0000 0.85666  0.66860  0.33367  Biso   1.000  C
  C871     1.0000 0.00623  0.73182  0.38933  Biso   1.000  C
  C872     1.0000 0.06419  0.26561  0.54027  Biso   1.000  C
  C873     1.0000 0.06208  0.18741  0.66028  Biso   1.000  C
  H1069    1.0000 0.92190  0.36868  0.32262  Biso   1.000  H
  H1070    1.0000 0.89519  0.42932  0.36748  Biso   1.000  H
  C874     1.0000 0.07742  0.19272  0.42353  Biso   1.000  C
  H1071    1.0000 0.99440  0.67688  0.60318  Biso   1.000  H
  H1072    1.0000 0.99030  0.74188  0.67068  Biso   1.000  H
  N351     1.0000 0.03767  0.76223  0.60161  Biso   1.000  N
  H1073    1.0000 0.96050  0.62568  0.46892  Biso   1.000  H
  H1074    1.0000 0.91291  0.63401  0.49992  Biso   1.000  H
  C875     1.0000 0.90238  0.62462  0.36519  Biso   1.000  C
  H1075    1.0000 0.83051  0.63278  0.31817  Biso   1.000  H
  H1076    1.0000 0.85812  0.69689  0.28030  Biso   1.000  H
  N352     1.0000 0.04635  0.76172  0.45119  Biso   1.000  N
  H1077    1.0000 0.00560  0.67688  0.39678  Biso   1.000  H
  H1078    1.0000 0.00969  0.74188  0.32929  Biso   1.000  H
  C876     1.0000 0.11189  0.22318  0.57003  Biso   1.000  C
  C877     1.0000 0.07042  0.35001  0.54472  Biso   1.000  C
  O175     1.0000 0.04849  0.15740  0.71992  Biso   1.000  O
  N353     1.0000 0.10478  0.17674  0.64190  Biso   1.000  N
  O176     1.0000 0.07248  0.16863  0.34911  Biso   1.000  O
  N354     1.0000 0.11419  0.17970  0.49240  Biso   1.000  N
  C878     1.0000 0.06419  0.73439  0.54027  Biso   1.000  C
  C879     1.0000 0.06208  0.81259  0.66028  Biso   1.000  C
  H1079    1.0000 0.92190  0.63132  0.32262  Biso   1.000  H
  H1080    1.0000 0.89519  0.57068  0.36748  Biso   1.000  H
  C880     1.0000 0.07742  0.80728  0.42353  Biso   1.000  C
  C881     1.0000 0.15263  0.27718  0.59769  Biso   1.000  C
  H1081    1.0000 0.03950  0.37432  0.53111  Biso   1.000  H
  H1082    1.0000 0.08709  0.36599  0.50011  Biso   1.000  H
  C882     1.0000 0.09761  0.37538  0.63477  Biso   1.000  C
  C883     1.0000 0.14126  0.13621  0.70161  Biso   1.000  C
  C884     1.0000 0.15411  0.13621  0.48239  Biso   1.000  C
  C885     1.0000 0.11189  0.77682  0.57003  Biso   1.000  C
  C886     1.0000 0.07042  0.64999  0.54472  Biso   1.000  C
  O177     1.0000 0.04849  0.84260  0.71992  Biso   1.000  O
  N355     1.0000 0.10478  0.82326  0.64190  Biso   1.000  N
  O178     1.0000 0.07248  0.83137  0.34911  Biso   1.000  O
  N356     1.0000 0.11419  0.82030  0.49240  Biso   1.000  N
  H1083    1.0000 0.18151  0.24867  0.62202  Biso   1.000  H
  H1084    1.0000 0.15711  0.30540  0.54609  Biso   1.000  H
  C887     1.0000 0.14333  0.33140  0.66630  Biso   1.000  C
  H1085    1.0000 0.07810  0.36868  0.67741  Biso   1.000  H
  H1086    1.0000 0.10480  0.42932  0.63248  Biso   1.000  H
  N357     1.0000 0.14984  0.06221  0.67192  Biso   1.000  N
  H1087    1.0000 0.17038  0.16561  0.71077  Biso   1.000  H
  H1088    1.0000 0.13291  0.13191  0.75877  Biso   1.000  H
  N358     1.0000 0.15693  0.06210  0.52039  Biso   1.000  N
  H1089    1.0000 0.15310  0.13141  0.41921  Biso   1.000  H
  H1090    1.0000 0.18282  0.16399  0.50973  Biso   1.000  H
  C888     1.0000 0.15263  0.72282  0.59769  Biso   1.000  C
  H1091    1.0000 0.03950  0.62568  0.53111  Biso   1.000  H
  H1092    1.0000 0.08709  0.63401  0.50011  Biso   1.000  H
  C889     1.0000 0.09761  0.62462  0.63477  Biso   1.000  C
  C890     1.0000 0.14126  0.86379  0.70161  Biso   1.000  C
  C891     1.0000 0.15411  0.86379  0.48239  Biso   1.000  C
  H1093    1.0000 0.16949  0.36722  0.68180  Biso   1.000  H
  H1094    1.0000 0.14192  0.30311  0.71973  Biso   1.000  H
  C892     1.0000 0.17871  0.04438  0.61123  Biso   1.000  C
  C893     1.0000 0.13559  0.00000  0.70959  Biso   1.000  C
  C894     1.0000 0.14749  0.00000  0.46853  Biso   1.000  C
  H1095    1.0000 0.18151  0.75133  0.62202  Biso   1.000  H
  H1096    1.0000 0.15711  0.69460  0.54609  Biso   1.000  H
  C895     1.0000 0.14333  0.66860  0.66630  Biso   1.000  C
  H1097    1.0000 0.07810  0.63132  0.67741  Biso   1.000  H
  H1098    1.0000 0.10480  0.57068  0.63248  Biso   1.000  H
  N359     1.0000 0.14984  0.93779  0.67192  Biso   1.000  N
  H1099    1.0000 0.17038  0.83439  0.71077  Biso   1.000  H
  H1100    1.0000 0.13291  0.86809  0.75877  Biso   1.000  H
  N360     1.0000 0.15693  0.93790  0.52039  Biso   1.000  N
  H1101    1.0000 0.15310  0.86859  0.41921  Biso   1.000  H
  H1102    1.0000 0.18282  0.83601  0.50973  Biso   1.000  H
  C896     1.0000 0.17871  0.95562  0.61123  Biso   1.000  C
  C897     1.0000 0.22747  0.07630  0.63948  Biso   1.000  C
  O179     1.0000 0.11452  0.00000  0.76780  Biso   1.000  O
  O180     1.0000 0.13446  0.00000  0.38887  Biso   1.000  O
  H1103    1.0000 0.16949  0.63278  0.68180  Biso   1.000  H
  H1104    1.0000 0.14192  0.69689  0.71973  Biso   1.000  H
  C898     1.0000 0.22747  0.92370  0.63948  Biso   1.000  C
  H1105    1.0000 0.24011  0.06590  0.70240  Biso   1.000  H
  H1106    1.0000 0.22629  0.13113  0.63131  Biso   1.000  H
  C899     1.0000 0.25973  0.04220  0.58670  Biso   1.000  C
  H1107    1.0000 0.24011  0.93410  0.70240  Biso   1.000  H
  H1108    1.0000 0.22629  0.86887  0.63131  Biso   1.000  H
  C900     1.0000 0.25973  0.95780  0.58670  Biso   1.000  C
  H1109    1.0000 0.25010  0.06009  0.52549  Biso   1.000  H
  H1110    1.0000 0.29178  0.06009  0.61110  Biso   1.000  H
  H1111    1.0000 0.25010  0.93991  0.52549  Biso   1.000  H
  H1112    1.0000 0.29178  0.93991  0.61110  Biso   1.000  H
  C901     1.0000 0.74028  0.04220  0.41333  Biso   1.000  C
  C902     1.0000 0.77252  0.07630  0.36048  Biso   1.000  C
  H1113    1.0000 0.74989  0.06009  0.47448  Biso   1.000  H
  H1114    1.0000 0.70821  0.06009  0.38887  Biso   1.000  H
  C903     1.0000 0.74028  0.95780  0.41333  Biso   1.000  C
  C904     1.0000 0.82129  0.04438  0.38880  Biso   1.000  C
  H1115    1.0000 0.75988  0.06590  0.29757  Biso   1.000  H
  H1116    1.0000 0.77371  0.13113  0.36873  Biso   1.000  H
  C905     1.0000 0.77252  0.92370  0.36048  Biso   1.000  C
  H1117    1.0000 0.74989  0.93991  0.47448  Biso   1.000  H
  H1118    1.0000 0.70821  0.93991  0.38887  Biso   1.000  H
  N361     1.0000 0.84306  0.06210  0.47958  Biso   1.000  N
  N362     1.0000 0.85016  0.06221  0.32811  Biso   1.000  N
  C906     1.0000 0.82129  0.95562  0.38880  Biso   1.000  C
  H1119    1.0000 0.75988  0.93410  0.29757  Biso   1.000  H
  H1120    1.0000 0.77371  0.86887  0.36873  Biso   1.000  H
  C907     1.0000 0.85251  0.00000  0.53151  Biso   1.000  C
  C908     1.0000 0.84588  0.13621  0.51758  Biso   1.000  C
  C909     1.0000 0.86440  0.00000  0.29038  Biso   1.000  C
  C910     1.0000 0.85874  0.13621  0.29842  Biso   1.000  C
  N363     1.0000 0.84306  0.93790  0.47958  Biso   1.000  N
  N364     1.0000 0.85016  0.93779  0.32811  Biso   1.000  N
  O181     1.0000 0.86553  0.00000  0.61110  Biso   1.000  O
  N365     1.0000 0.88581  0.17970  0.50757  Biso   1.000  N
  H1121    1.0000 0.84690  0.13141  0.58082  Biso   1.000  H
  H1122    1.0000 0.81719  0.16399  0.49030  Biso   1.000  H
  O182     1.0000 0.88547  0.00000  0.23217  Biso   1.000  O
  N366     1.0000 0.89522  0.17674  0.35813  Biso   1.000  N
  H1123    1.0000 0.82961  0.16561  0.28920  Biso   1.000  H
  H1124    1.0000 0.86709  0.13191  0.24120  Biso   1.000  H
  C911     1.0000 0.84588  0.86379  0.51758  Biso   1.000  C
  C912     1.0000 0.85874  0.86379  0.29842  Biso   1.000  C
  C913     1.0000 0.92258  0.19272  0.57650  Biso   1.000  C
  C914     1.0000 0.88811  0.22318  0.43001  Biso   1.000  C
  C915     1.0000 0.93791  0.18741  0.33969  Biso   1.000  C
  N367     1.0000 0.88581  0.82030  0.50757  Biso   1.000  N
  H1125    1.0000 0.84690  0.86859  0.58082  Biso   1.000  H
  H1126    1.0000 0.81719  0.83601  0.49030  Biso   1.000  H
  N368     1.0000 0.89522  0.82326  0.35813  Biso   1.000  N
  H1127    1.0000 0.82961  0.83439  0.28920  Biso   1.000  H
  H1128    1.0000 0.86709  0.86809  0.24120  Biso   1.000  H
  O183     1.0000 0.92752  0.16863  0.65093  Biso   1.000  O
  N369     1.0000 0.95365  0.23828  0.54877  Biso   1.000  N
  C916     1.0000 0.93580  0.26561  0.45970  Biso   1.000  C
  C917     1.0000 0.84736  0.27718  0.40228  Biso   1.000  C
  O184     1.0000 0.95150  0.15740  0.28004  Biso   1.000  O
  N370     1.0000 0.96233  0.23777  0.39842  Biso   1.000  N
  C918     1.0000 0.92258  0.80728  0.57650  Biso   1.000  C
  C919     1.0000 0.88811  0.77682  0.43001  Biso   1.000  C
  C920     1.0000 0.93791  0.81259  0.33969  Biso   1.000  C
  C921     1.0000 0.99378  0.26818  0.61071  Biso   1.000  C
  C922     1.0000 0.92958  0.35001  0.45531  Biso   1.000  C
  H1129    1.0000 0.81850  0.24867  0.37801  Biso   1.000  H
  H1130    1.0000 0.84288  0.30540  0.45388  Biso   1.000  H
  C923     1.0000 0.85666  0.33140  0.33367  Biso   1.000  C
  C924     1.0000 0.00623  0.26818  0.38933  Biso   1.000  C
  O185     1.0000 0.92752  0.83137  0.65093  Biso   1.000  O
  N371     1.0000 0.95365  0.76172  0.54877  Biso   1.000  N
  C925     1.0000 0.93580  0.73439  0.45970  Biso   1.000  C
  C926     1.0000 0.84736  0.72282  0.40228  Biso   1.000  C
  O186     1.0000 0.95150  0.84260  0.28004  Biso   1.000  O
  N372     1.0000 0.96233  0.76223  0.39842  Biso   1.000  N
  H1131    1.0000 0.99440  0.32312  0.60318  Biso   1.000  H
  H1132    1.0000 0.99030  0.25812  0.67068  Biso   1.000  H
  N373     1.0000 0.03767  0.23777  0.60161  Biso   1.000  N
  H1133    1.0000 0.96050  0.37432  0.46892  Biso   1.000  H
  H1134    1.0000 0.91291  0.36599  0.49992  Biso   1.000  H
  C927     1.0000 0.90238  0.37538  0.36519  Biso   1.000  C
  H1135    1.0000 0.83051  0.36722  0.31817  Biso   1.000  H
  H1136    1.0000 0.85812  0.30311  0.28030  Biso   1.000  H
  N374     1.0000 0.04635  0.23828  0.45119  Biso   1.000  N
  H1137    1.0000 0.00560  0.32312  0.39678  Biso   1.000  H
  H1138    1.0000 0.00969  0.25812  0.32929  Biso   1.000  H
  C928     1.0000 0.99378  0.73182  0.61071  Biso   1.000  C
  C929     1.0000 0.92958  0.64999  0.45531  Biso   1.000  C
  H1139    1.0000 0.81850  0.75133  0.37801  Biso   1.000  H
  H1140    1.0000 0.84288  0.69460  0.45388  Biso   1.000  H
  C930     1.0000 0.85666  0.66860  0.33367  Biso   1.000  C
  C931     1.0000 0.00623  0.73182  0.38933  Biso   1.000  C
  C932     1.0000 0.06419  0.26561  0.54027  Biso   1.000  C
  C933     1.0000 0.06208  0.18741  0.66028  Biso   1.000  C
  H1141    1.0000 0.92190  0.36868  0.32262  Biso   1.000  H
  H1142    1.0000 0.89519  0.42932  0.36748  Biso   1.000  H
  C934     1.0000 0.07742  0.19272  0.42353  Biso   1.000  C
  H1143    1.0000 0.99440  0.67688  0.60318  Biso   1.000  H
  H1144    1.0000 0.99030  0.74188  0.67068  Biso   1.000  H
  N375     1.0000 0.03767  0.76223  0.60161  Biso   1.000  N
  H1145    1.0000 0.96050  0.62568  0.46892  Biso   1.000  H
  H1146    1.0000 0.91291  0.63401  0.49992  Biso   1.000  H
  C935     1.0000 0.90238  0.62462  0.36519  Biso   1.000  C
  H1147    1.0000 0.83051  0.63278  0.31817  Biso   1.000  H
  H1148    1.0000 0.85812  0.69689  0.28030  Biso   1.000  H
  N376     1.0000 0.04635  0.76172  0.45119  Biso   1.000  N
  H1149    1.0000 0.00560  0.67688  0.39678  Biso   1.000  H
  H1150    1.0000 0.00969  0.74188  0.32929  Biso   1.000  H
  C936     1.0000 0.11189  0.22318  0.57003  Biso   1.000  C
  C937     1.0000 0.07042  0.35001  0.54472  Biso   1.000  C
  O187     1.0000 0.04849  0.15740  0.71992  Biso   1.000  O
  N377     1.0000 0.10478  0.17674  0.64190  Biso   1.000  N
  O188     1.0000 0.07248  0.16863  0.34911  Biso   1.000  O
  N378     1.0000 0.11419  0.17970  0.49240  Biso   1.000  N
  C938     1.0000 0.06419  0.73439  0.54027  Biso   1.000  C
  C939     1.0000 0.06208  0.81259  0.66028  Biso   1.000  C
  H1151    1.0000 0.92190  0.63132  0.32262  Biso   1.000  H
  H1152    1.0000 0.89519  0.57068  0.36748  Biso   1.000  H
  C940     1.0000 0.07742  0.80728  0.42353  Biso   1.000  C
  C941     1.0000 0.15263  0.27718  0.59769  Biso   1.000  C
  H1153    1.0000 0.03950  0.37432  0.53111  Biso   1.000  H
  H1154    1.0000 0.08709  0.36599  0.50011  Biso   1.000  H
  C942     1.0000 0.09761  0.37538  0.63477  Biso   1.000  C
  C943     1.0000 0.14126  0.13621  0.70161  Biso   1.000  C
  C944     1.0000 0.15411  0.13621  0.48239  Biso   1.000  C
  C945     1.0000 0.11189  0.77682  0.57003  Biso   1.000  C
  C946     1.0000 0.07042  0.64999  0.54472  Biso   1.000  C
  O189     1.0000 0.04849  0.84260  0.71992  Biso   1.000  O
  N379     1.0000 0.10478  0.82326  0.64190  Biso   1.000  N
  O190     1.0000 0.07248  0.83137  0.34911  Biso   1.000  O
  N380     1.0000 0.11419  0.82030  0.49240  Biso   1.000  N
  H1155    1.0000 0.18151  0.24867  0.62202  Biso   1.000  H
  H1156    1.0000 0.15711  0.30540  0.54609  Biso   1.000  H
  C947     1.0000 0.14333  0.33140  0.66630  Biso   1.000  C
  H1157    1.0000 0.07810  0.36868  0.67741  Biso   1.000  H
  H1158    1.0000 0.10480  0.42932  0.63248  Biso   1.000  H
  N381     1.0000 0.14984  0.06221  0.67192  Biso   1.000  N
  H1159    1.0000 0.17038  0.16561  0.71077  Biso   1.000  H
  H1160    1.0000 0.13291  0.13191  0.75877  Biso   1.000  H
  N382     1.0000 0.15693  0.06210  0.52039  Biso   1.000  N
  H1161    1.0000 0.15310  0.13141  0.41921  Biso   1.000  H
  H1162    1.0000 0.18282  0.16399  0.50973  Biso   1.000  H
  C948     1.0000 0.15263  0.72282  0.59769  Biso   1.000  C
  H1163    1.0000 0.03950  0.62568  0.53111  Biso   1.000  H
  H1164    1.0000 0.08709  0.63401  0.50011  Biso   1.000  H
  C949     1.0000 0.09761  0.62462  0.63477  Biso   1.000  C
  C950     1.0000 0.14126  0.86379  0.70161  Biso   1.000  C
  C951     1.0000 0.15411  0.86379  0.48239  Biso   1.000  C
  H1165    1.0000 0.16949  0.36722  0.68180  Biso   1.000  H
  H1166    1.0000 0.14192  0.30311  0.71973  Biso   1.000  H
  C952     1.0000 0.17871  0.04438  0.61123  Biso   1.000  C
  C953     1.0000 0.13559  0.00000  0.70959  Biso   1.000  C
  C954     1.0000 0.14749  0.00000  0.46853  Biso   1.000  C
  H1167    1.0000 0.18151  0.75133  0.62202  Biso   1.000  H
  H1168    1.0000 0.15711  0.69460  0.54609  Biso   1.000  H
  C955     1.0000 0.14333  0.66860  0.66630  Biso   1.000  C
  H1169    1.0000 0.07810  0.63132  0.67741  Biso   1.000  H
  H1170    1.0000 0.10480  0.57068  0.63248  Biso   1.000  H
  N383     1.0000 0.14984  0.93779  0.67192  Biso   1.000  N
  H1171    1.0000 0.17038  0.83439  0.71077  Biso   1.000  H
  H1172    1.0000 0.13291  0.86809  0.75877  Biso   1.000  H
  N384     1.0000 0.15693  0.93790  0.52039  Biso   1.000  N
  H1173    1.0000 0.15310  0.86859  0.41921  Biso   1.000  H
  H1174    1.0000 0.18282  0.83601  0.50973  Biso   1.000  H
  C956     1.0000 0.17871  0.95562  0.61123  Biso   1.000  C
  C957     1.0000 0.22747  0.07630  0.63948  Biso   1.000  C
  O191     1.0000 0.11452  0.00000  0.76780  Biso   1.000  O
  O192     1.0000 0.13446  0.00000  0.38887  Biso   1.000  O
  H1175    1.0000 0.16949  0.63278  0.68180  Biso   1.000  H
  H1176    1.0000 0.14192  0.69689  0.71973  Biso   1.000  H
  C958     1.0000 0.22747  0.92370  0.63948  Biso   1.000  C
  H1177    1.0000 0.24011  0.06590  0.70240  Biso   1.000  H
  H1178    1.0000 0.22629  0.13113  0.63131  Biso   1.000  H
  C959     1.0000 0.25973  0.04220  0.58670  Biso   1.000  C
  H1179    1.0000 0.24011  0.93410  0.70240  Biso   1.000  H
  H1180    1.0000 0.22629  0.86887  0.63131  Biso   1.000  H
  C960     1.0000 0.25973  0.95780  0.58670  Biso   1.000  C
  H1181    1.0000 0.25010  0.06009  0.52549  Biso   1.000  H
  H1182    1.0000 0.29178  0.06009  0.61110  Biso   1.000  H
  H1183    1.0000 0.25010  0.93991  0.52549  Biso   1.000  H
  H1184    1.0000 0.29178  0.93991  0.61110  Biso   1.000  H
  C961     1.0000 0.74028  0.04220  0.41333  Biso   1.000  C
  C962     1.0000 0.77252  0.07630  0.36048  Biso   1.000  C
  H1185    1.0000 0.74989  0.06009  0.47448  Biso   1.000  H
  H1186    1.0000 0.70821  0.06009  0.38887  Biso   1.000  H
  C963     1.0000 0.74028  0.95780  0.41333  Biso   1.000  C
  C964     1.0000 0.82129  0.04438  0.38880  Biso   1.000  C
  H1187    1.0000 0.75988  0.06590  0.29757  Biso   1.000  H
  H1188    1.0000 0.77371  0.13113  0.36873  Biso   1.000  H
  C965     1.0000 0.77252  0.92370  0.36048  Biso   1.000  C
  H1189    1.0000 0.74989  0.93991  0.47448  Biso   1.000  H
  H1190    1.0000 0.70821  0.93991  0.38887  Biso   1.000  H
  N385     1.0000 0.84306  0.06210  0.47958  Biso   1.000  N
  N386     1.0000 0.85016  0.06221  0.32811  Biso   1.000  N
  C966     1.0000 0.82129  0.95562  0.38880  Biso   1.000  C
  H1191    1.0000 0.75988  0.93410  0.29757  Biso   1.000  H
  H1192    1.0000 0.77371  0.86887  0.36873  Biso   1.000  H
  C967     1.0000 0.85251  0.00000  0.53151  Biso   1.000  C
  C968     1.0000 0.84588  0.13621  0.51758  Biso   1.000  C
  C969     1.0000 0.86440  0.00000  0.29038  Biso   1.000  C
  C970     1.0000 0.85874  0.13621  0.29842  Biso   1.000  C
  N387     1.0000 0.84306  0.93790  0.47958  Biso   1.000  N
  N388     1.0000 0.85016  0.93779  0.32811  Biso   1.000  N
  O193     1.0000 0.86553  0.00000  0.61110  Biso   1.000  O
  N389     1.0000 0.88581  0.17970  0.50757  Biso   1.000  N
  H1193    1.0000 0.84690  0.13141  0.58082  Biso   1.000  H
  H1194    1.0000 0.81719  0.16399  0.49030  Biso   1.000  H
  O194     1.0000 0.88547  0.00000  0.23217  Biso   1.000  O
  N390     1.0000 0.89522  0.17674  0.35813  Biso   1.000  N
  H1195    1.0000 0.82961  0.16561  0.28920  Biso   1.000  H
  H1196    1.0000 0.86709  0.13191  0.24120  Biso   1.000  H
  C971     1.0000 0.84588  0.86379  0.51758  Biso   1.000  C
  C972     1.0000 0.85874  0.86379  0.29842  Biso   1.000  C
  C973     1.0000 0.92258  0.19272  0.57650  Biso   1.000  C
  C974     1.0000 0.88811  0.22318  0.43001  Biso   1.000  C
  C975     1.0000 0.93791  0.18741  0.33969  Biso   1.000  C
  N391     1.0000 0.88581  0.82030  0.50757  Biso   1.000  N
  H1197    1.0000 0.84690  0.86859  0.58082  Biso   1.000  H
  H1198    1.0000 0.81719  0.83601  0.49030  Biso   1.000  H
  N392     1.0000 0.89522  0.82326  0.35813  Biso   1.000  N
  H1199    1.0000 0.82961  0.83439  0.28920  Biso   1.000  H
  H1200    1.0000 0.86709  0.86809  0.24120  Biso   1.000  H
  O195     1.0000 0.92752  0.16863  0.65093  Biso   1.000  O
  N393     1.0000 0.95365  0.23828  0.54877  Biso   1.000  N
  C976     1.0000 0.93580  0.26561  0.45970  Biso   1.000  C
  C977     1.0000 0.84736  0.27718  0.40228  Biso   1.000  C
  O196     1.0000 0.95150  0.15740  0.28004  Biso   1.000  O
  N394     1.0000 0.96233  0.23777  0.39842  Biso   1.000  N
  C978     1.0000 0.92258  0.80728  0.57650  Biso   1.000  C
  C979     1.0000 0.88811  0.77682  0.43001  Biso   1.000  C
  C980     1.0000 0.93791  0.81259  0.33969  Biso   1.000  C
  C981     1.0000 0.99378  0.26818  0.61071  Biso   1.000  C
  C982     1.0000 0.92958  0.35001  0.45531  Biso   1.000  C
  H1201    1.0000 0.81850  0.24867  0.37801  Biso   1.000  H
  H1202    1.0000 0.84288  0.30540  0.45388  Biso   1.000  H
  C983     1.0000 0.85666  0.33140  0.33367  Biso   1.000  C
  C984     1.0000 0.00623  0.26818  0.38933  Biso   1.000  C
  O197     1.0000 0.92752  0.83137  0.65093  Biso   1.000  O
  N395     1.0000 0.95365  0.76172  0.54877  Biso   1.000  N
  C985     1.0000 0.93580  0.73439  0.45970  Biso   1.000  C
  C986     1.0000 0.84736  0.72282  0.40228  Biso   1.000  C
  O198     1.0000 0.95150  0.84260  0.28004  Biso   1.000  O
  N396     1.0000 0.96233  0.76223  0.39842  Biso   1.000  N
  H1203    1.0000 0.99440  0.32312  0.60318  Biso   1.000  H
  H1204    1.0000 0.99030  0.25812  0.67068  Biso   1.000  H
  N397     1.0000 0.03767  0.23777  0.60161  Biso   1.000  N
  H1205    1.0000 0.96050  0.37432  0.46892  Biso   1.000  H
  H1206    1.0000 0.91291  0.36599  0.49992  Biso   1.000  H
  C987     1.0000 0.90238  0.37538  0.36519  Biso   1.000  C
  H1207    1.0000 0.83051  0.36722  0.31817  Biso   1.000  H
  H1208    1.0000 0.85812  0.30311  0.28030  Biso   1.000  H
  N398     1.0000 0.04635  0.23828  0.45119  Biso   1.000  N
  H1209    1.0000 0.00560  0.32312  0.39678  Biso   1.000  H
  H1210    1.0000 0.00969  0.25812  0.32929  Biso   1.000  H
  C988     1.0000 0.99378  0.73182  0.61071  Biso   1.000  C
  C989     1.0000 0.92958  0.64999  0.45531  Biso   1.000  C
  H1211    1.0000 0.81850  0.75133  0.37801  Biso   1.000  H
  H1212    1.0000 0.84288  0.69460  0.45388  Biso   1.000  H
  C990     1.0000 0.85666  0.66860  0.33367  Biso   1.000  C
  C991     1.0000 0.00623  0.73182  0.38933  Biso   1.000  C
  C992     1.0000 0.06419  0.26561  0.54027  Biso   1.000  C
  C993     1.0000 0.06208  0.18741  0.66028  Biso   1.000  C
  H1213    1.0000 0.92190  0.36868  0.32262  Biso   1.000  H
  H1214    1.0000 0.89519  0.42932  0.36748  Biso   1.000  H
  C994     1.0000 0.07742  0.19272  0.42353  Biso   1.000  C
  H1215    1.0000 0.99440  0.67688  0.60318  Biso   1.000  H
  H1216    1.0000 0.99030  0.74188  0.67068  Biso   1.000  H
  N399     1.0000 0.03767  0.76223  0.60161  Biso   1.000  N
  H1217    1.0000 0.96050  0.62568  0.46892  Biso   1.000  H
  H1218    1.0000 0.91291  0.63401  0.49992  Biso   1.000  H
  C995     1.0000 0.90238  0.62462  0.36519  Biso   1.000  C
  H1219    1.0000 0.83051  0.63278  0.31817  Biso   1.000  H
  H1220    1.0000 0.85812  0.69689  0.28030  Biso   1.000  H
  N400     1.0000 0.04635  0.76172  0.45119  Biso   1.000  N
  H1221    1.0000 0.00560  0.67688  0.39678  Biso   1.000  H
  H1222    1.0000 0.00969  0.74188  0.32929  Biso   1.000  H
  C996     1.0000 0.11189  0.22318  0.57003  Biso   1.000  C
  C997     1.0000 0.07042  0.35001  0.54472  Biso   1.000  C
  O199     1.0000 0.04849  0.15740  0.71992  Biso   1.000  O
  N401     1.0000 0.10478  0.17674  0.64190  Biso   1.000  N
  O200     1.0000 0.07248  0.16863  0.34911  Biso   1.000  O
  N402     1.0000 0.11419  0.17970  0.49240  Biso   1.000  N
  C998     1.0000 0.06419  0.73439  0.54027  Biso   1.000  C
  C999     1.0000 0.06208  0.81259  0.66028  Biso   1.000  C
  H1223    1.0000 0.92190  0.63132  0.32262  Biso   1.000  H
  H1224    1.0000 0.89519  0.57068  0.36748  Biso   1.000  H
  C1000    1.0000 0.07742  0.80728  0.42353  Biso   1.000  C
  C1001    1.0000 0.15263  0.27718  0.59769  Biso   1.000  C
  H1225    1.0000 0.03950  0.37432  0.53111  Biso   1.000  H
  H1226    1.0000 0.08709  0.36599  0.50011  Biso   1.000  H
  C1002    1.0000 0.09761  0.37538  0.63477  Biso   1.000  C
  C1003    1.0000 0.14126  0.13621  0.70161  Biso   1.000  C
  C1004    1.0000 0.15411  0.13621  0.48239  Biso   1.000  C
  C1005    1.0000 0.11189  0.77682  0.57003  Biso   1.000  C
  C1006    1.0000 0.07042  0.64999  0.54472  Biso   1.000  C
  O201     1.0000 0.04849  0.84260  0.71992  Biso   1.000  O
  N403     1.0000 0.10478  0.82326  0.64190  Biso   1.000  N
  O202     1.0000 0.07248  0.83137  0.34911  Biso   1.000  O
  N404     1.0000 0.11419  0.82030  0.49240  Biso   1.000  N
  H1227    1.0000 0.18151  0.24867  0.62202  Biso   1.000  H
  H1228    1.0000 0.15711  0.30540  0.54609  Biso   1.000  H
  C1007    1.0000 0.14333  0.33140  0.66630  Biso   1.000  C
  H1229    1.0000 0.07810  0.36868  0.67741  Biso   1.000  H
  H1230    1.0000 0.10480  0.42932  0.63248  Biso   1.000  H
  N405     1.0000 0.14984  0.06221  0.67192  Biso   1.000  N
  H1231    1.0000 0.17038  0.16561  0.71077  Biso   1.000  H
  H1232    1.0000 0.13291  0.13191  0.75877  Biso   1.000  H
  N406     1.0000 0.15693  0.06210  0.52039  Biso   1.000  N
  H1233    1.0000 0.15310  0.13141  0.41921  Biso   1.000  H
  H1234    1.0000 0.18282  0.16399  0.50973  Biso   1.000  H
  C1008    1.0000 0.15263  0.72282  0.59769  Biso   1.000  C
  H1235    1.0000 0.03950  0.62568  0.53111  Biso   1.000  H
  H1236    1.0000 0.08709  0.63401  0.50011  Biso   1.000  H
  C1009    1.0000 0.09761  0.62462  0.63477  Biso   1.000  C
  C1010    1.0000 0.14126  0.86379  0.70161  Biso   1.000  C
  C1011    1.0000 0.15411  0.86379  0.48239  Biso   1.000  C
  H1237    1.0000 0.16949  0.36722  0.68180  Biso   1.000  H
  H1238    1.0000 0.14192  0.30311  0.71973  Biso   1.000  H
  C1012    1.0000 0.17871  0.04438  0.61123  Biso   1.000  C
  C1013    1.0000 0.13559  0.00000  0.70959  Biso   1.000  C
  C1014    1.0000 0.14749  0.00000  0.46853  Biso   1.000  C
  H1239    1.0000 0.18151  0.75133  0.62202  Biso   1.000  H
  H1240    1.0000 0.15711  0.69460  0.54609  Biso   1.000  H
  C1015    1.0000 0.14333  0.66860  0.66630  Biso   1.000  C
  H1241    1.0000 0.07810  0.63132  0.67741  Biso   1.000  H
  H1242    1.0000 0.10480  0.57068  0.63248  Biso   1.000  H
  N407     1.0000 0.14984  0.93779  0.67192  Biso   1.000  N
  H1243    1.0000 0.17038  0.83439  0.71077  Biso   1.000  H
  H1244    1.0000 0.13291  0.86809  0.75877  Biso   1.000  H
  N408     1.0000 0.15693  0.93790  0.52039  Biso   1.000  N
  H1245    1.0000 0.15310  0.86859  0.41921  Biso   1.000  H
  H1246    1.0000 0.18282  0.83601  0.50973  Biso   1.000  H
  C1016    1.0000 0.17871  0.95562  0.61123  Biso   1.000  C
  C1017    1.0000 0.22747  0.07630  0.63948  Biso   1.000  C
  O203     1.0000 0.11452  0.00000  0.76780  Biso   1.000  O
  O204     1.0000 0.13446  0.00000  0.38887  Biso   1.000  O
  H1247    1.0000 0.16949  0.63278  0.68180  Biso   1.000  H
  H1248    1.0000 0.14192  0.69689  0.71973  Biso   1.000  H
  C1018    1.0000 0.22747  0.92370  0.63948  Biso   1.000  C
  H1249    1.0000 0.24011  0.06590  0.70240  Biso   1.000  H
  H1250    1.0000 0.22629  0.13113  0.63131  Biso   1.000  H
  C1019    1.0000 0.25973  0.04220  0.58670  Biso   1.000  C
  H1251    1.0000 0.24011  0.93410  0.70240  Biso   1.000  H
  H1252    1.0000 0.22629  0.86887  0.63131  Biso   1.000  H
  C1020    1.0000 0.25973  0.95780  0.58670  Biso   1.000  C
  H1253    1.0000 0.25010  0.06009  0.52549  Biso   1.000  H
  H1254    1.0000 0.29178  0.06009  0.61110  Biso   1.000  H
  H1255    1.0000 0.25010  0.93991  0.52549  Biso   1.000  H
  H1256    1.0000 0.29178  0.93991  0.61110  Biso   1.000  H
