data_image0
_cell_length_a       16.195
_cell_length_b       21.13
_cell_length_c       12.144
_cell_angle_alpha    90
_cell_angle_beta     106.37
_cell_angle_gamma    90

_symmetry_space_group_name_H-M    "P 1"
_symmetry_int_tables_number       1

loop_
  _symmetry_equiv_pos_as_xyz
  'x, y, z'

loop_
  _atom_site_label
  _atom_site_occupancy
  _atom_site_fract_x
  _atom_site_fract_y
  _atom_site_fract_z
  _atom_site_thermal_displace_type
  _atom_site_B_iso_or_equiv
  _atom_site_type_symbol
  C1       1.0000 0.76241  0.49319  0.86811  Biso   1.000  C
  N1       1.0000 0.75783  0.44056  0.79061  Biso   1.000  N
  H1       1.0000 0.82242  0.50232  0.90605  Biso   1.000  H
  H2       1.0000 0.73528  0.48112  0.92673  Biso   1.000  H
  N2       1.0000 0.72129  0.55021  0.81173  Biso   1.000  N
  C2       1.0000 0.69972  0.39281  0.78504  Biso   1.000  C
  C3       1.0000 0.81949  0.42622  0.72565  Biso   1.000  C
  C4       1.0000 0.76571  0.59650  0.75955  Biso   1.000  C
  C5       1.0000 0.64589  0.57402  0.82718  Biso   1.000  C
  N3       1.0000 0.71308  0.34718  0.71269  Biso   1.000  N
  O1       1.0000 0.64648  0.39077  0.83902  Biso   1.000  O
  C6       1.0000 0.78628  0.36100  0.66754  Biso   1.000  C
  N4       1.0000 0.81011  0.46834  0.62635  Biso   1.000  N
  C7       1.0000 0.91227  0.42759  0.80589  Biso   1.000  C
  N5       1.0000 0.77392  0.57837  0.64763  Biso   1.000  N
  H3       1.0000 0.82127  0.60861  0.81207  Biso   1.000  H
  C8       1.0000 0.70249  0.65291  0.73243  Biso   1.000  C
  N6       1.0000 0.63192  0.63204  0.77542  Biso   1.000  N
  O2       1.0000 0.60018  0.54723  0.87678  Biso   1.000  O
  C9       1.0000 0.66142  0.28968  0.69235  Biso   1.000  C
  N7       1.0000 0.75968  0.37648  0.54490  Biso   1.000  N
  C10      1.0000 0.85289  0.30748  0.69844  Biso   1.000  C
  C11      1.0000 0.77260  0.43900  0.52422  Biso   1.000  C
  C12      1.0000 0.83691  0.53398  0.63218  Biso   1.000  C
  H4       1.0000 0.91660  0.39938  0.86932  Biso   1.000  H
  H5       1.0000 0.92639  0.46981  0.83413  Biso   1.000  H
  H6       1.0000 0.95156  0.41429  0.76418  Biso   1.000  H
  C13      1.0000 0.72697  0.61770  0.56163  Biso   1.000  C
  N8       1.0000 0.68158  0.65873  0.60867  Biso   1.000  N
  H7       1.0000 0.72908  0.69162  0.77087  Biso   1.000  H
  C14      1.0000 0.56830  0.67530  0.79345  Biso   1.000  C
  N9       1.0000 0.59090  0.29044  0.58833  Biso   1.000  N
  H8       1.0000 0.69847  0.25409  0.68917  Biso   1.000  H
  H9       1.0000 0.63832  0.28301  0.75689  Biso   1.000  H
  C15      1.0000 0.73029  0.33171  0.45229  Biso   1.000  C
  H10      1.0000 0.86799  0.29981  0.77954  Biso   1.000  H
  H11      1.0000 0.90337  0.31940  0.67698  Biso   1.000  H
  H12      1.0000 0.82897  0.26971  0.65802  Biso   1.000  H
  O3       1.0000 0.75607  0.46294  0.42878  Biso   1.000  O
  H13      1.0000 0.88881  0.53881  0.69518  Biso   1.000  H
  H14      1.0000 0.85116  0.54458  0.56198  Biso   1.000  H
  O4       1.0000 0.72836  0.61557  0.46156  Biso   1.000  O
  C16      1.0000 0.63777  0.71301  0.54833  Biso   1.000  C
  N10      1.0000 0.49550  0.68528  0.69089  Biso   1.000  N
  H15      1.0000 0.54661  0.65920  0.85472  Biso   1.000  H
  H16      1.0000 0.59562  0.71581  0.81808  Biso   1.000  H
  C17      1.0000 0.50801  0.30161  0.58704  Biso   1.000  C
  C18      1.0000 0.59917  0.27151  0.47641  Biso   1.000  C
  N11      1.0000 0.63828  0.31879  0.42131  Biso   1.000  N
  H17      1.0000 0.76110  0.29219  0.47418  Biso   1.000  H
  H18      1.0000 0.74470  0.34770  0.38518  Biso   1.000  H
  N12      1.0000 0.54429  0.71003  0.52233  Biso   1.000  N
  H19      1.0000 0.65800  0.75050  0.59408  Biso   1.000  H
  H20      1.0000 0.65302  0.71751  0.47701  Biso   1.000  H
  C19      1.0000 0.41767  0.65878  0.67878  Biso   1.000  C
  C20      1.0000 0.49597  0.72939  0.60077  Biso   1.000  C
  N13      1.0000 0.45570  0.28997  0.47770  Biso   1.000  N
  O5       1.0000 0.48319  0.31675  0.66943  Biso   1.000  O
  C21      1.0000 0.50400  0.27061  0.39917  Biso   1.000  C
  H21      1.0000 0.62696  0.23010  0.47907  Biso   1.000  H
  C22      1.0000 0.58231  0.34122  0.32124  Biso   1.000  C
  C23      1.0000 0.49197  0.69839  0.41299  Biso   1.000  C
  N14      1.0000 0.36170  0.68121  0.57871  Biso   1.000  N
  O6       1.0000 0.39868  0.62191  0.74607  Biso   1.000  O
  C24      1.0000 0.40081  0.72849  0.52361  Biso   1.000  C
  H22      1.0000 0.51302  0.77189  0.63150  Biso   1.000  H
  C25      1.0000 0.36221  0.28699  0.45169  Biso   1.000  C
  N15      1.0000 0.50448  0.31472  0.30914  Biso   1.000  N
  H23      1.0000 0.48702  0.22811  0.36853  Biso   1.000  H
  O7       1.0000 0.60129  0.37809  0.25387  Biso   1.000  O
  N16      1.0000 0.40908  0.70956  0.41170  Biso   1.000  N
  O8       1.0000 0.51680  0.68325  0.33060  Biso   1.000  O
  C26      1.0000 0.26969  0.66829  0.54773  Biso   1.000  C
  H24      1.0000 0.37300  0.76990  0.52087  Biso   1.000  H
  N17      1.0000 0.31838  0.34127  0.39127  Biso   1.000  N
  H25      1.0000 0.34197  0.24950  0.40586  Biso   1.000  H
  H26      1.0000 0.34703  0.28249  0.52301  Biso   1.000  H
  C27      1.0000 0.43168  0.32470  0.20658  Biso   1.000  C
  C28      1.0000 0.33857  0.71032  0.30768  Biso   1.000  C
  N18      1.0000 0.24031  0.62352  0.45513  Biso   1.000  N
  H27      1.0000 0.23889  0.70781  0.52585  Biso   1.000  H
  H28      1.0000 0.25529  0.65230  0.61485  Biso   1.000  H
  C29      1.0000 0.29749  0.34709  0.26760  Biso   1.000  C
  C30      1.0000 0.27301  0.38230  0.43839  Biso   1.000  C
  N19      1.0000 0.36812  0.36796  0.22460  Biso   1.000  N
  H29      1.0000 0.45337  0.34080  0.14530  Biso   1.000  H
  H30      1.0000 0.40441  0.28419  0.18186  Biso   1.000  H
  N20      1.0000 0.28691  0.65282  0.28734  Biso   1.000  N
  H31      1.0000 0.30149  0.74591  0.31077  Biso   1.000  H
  H32      1.0000 0.36173  0.71699  0.24314  Biso   1.000  H
  C31      1.0000 0.22739  0.56100  0.47581  Biso   1.000  C
  C32      1.0000 0.21371  0.63900  0.33248  Biso   1.000  C
  C33      1.0000 0.23427  0.40350  0.24048  Biso   1.000  C
  H33      1.0000 0.27089  0.30838  0.22907  Biso   1.000  H
  N21      1.0000 0.22613  0.42163  0.35239  Biso   1.000  N
  O9       1.0000 0.27161  0.38443  0.53838  Biso   1.000  O
  C34      1.0000 0.35408  0.42598  0.17276  Biso   1.000  C
  C35      1.0000 0.30027  0.60719  0.21499  Biso   1.000  C
  N22      1.0000 0.18987  0.53166  0.37368  Biso   1.000  N
  O10      1.0000 0.24391  0.53706  0.57125  Biso   1.000  O
  C36      1.0000 0.18049  0.57378  0.27438  Biso   1.000  C
  C37      1.0000 0.14710  0.69252  0.30159  Biso   1.000  C
  H34      1.0000 0.17870  0.39139  0.18787  Biso   1.000  H
  N23      1.0000 0.27870  0.44979  0.18830  Biso   1.000  N
  C38      1.0000 0.16314  0.46602  0.36784  Biso   1.000  C
  O11      1.0000 0.39980  0.45277  0.12324  Biso   1.000  O
  N24      1.0000 0.24222  0.55944  0.20941  Biso   1.000  N
  O12      1.0000 0.35351  0.60923  0.16101  Biso   1.000  O
  C39      1.0000 0.08771  0.57241  0.19413  Biso   1.000  C
  H35      1.0000 0.13199  0.70019  0.22048  Biso   1.000  H
  H36      1.0000 0.09661  0.68060  0.32304  Biso   1.000  H
  H37      1.0000 0.17101  0.73029  0.34201  Biso   1.000  H
  C40      1.0000 0.23757  0.50681  0.13191  Biso   1.000  C
  H38      1.0000 0.11121  0.46119  0.30476  Biso   1.000  H
  H39      1.0000 0.14881  0.45542  0.43796  Biso   1.000  H
  H40      1.0000 0.08338  0.60062  0.13071  Biso   1.000  H
  H41      1.0000 0.07359  0.53019  0.16590  Biso   1.000  H
  H42      1.0000 0.04841  0.58571  0.23576  Biso   1.000  H
  H43      1.0000 0.17756  0.49768  0.09398  Biso   1.000  H
  H44      1.0000 0.26470  0.51888  0.07329  Biso   1.000  H
  C41      1.0000 0.63780  0.78699  0.04834  Biso   1.000  C
  N25      1.0000 0.54425  0.78997  0.02234  Biso   1.000  N
  H45      1.0000 0.65304  0.78249  0.97702  Biso   1.000  H
  H46      1.0000 0.65298  0.78249  0.97702  Biso   1.000  H
  H47      1.0000 0.65796  0.74950  0.09409  Biso   1.000  H
  N26      1.0000 0.68156  0.84127  0.10876  Biso   1.000  N
  N27      1.0000 0.68155  0.84127  0.10868  Biso   1.000  N
  C42      1.0000 0.49200  0.80161  0.91300  Biso   1.000  C
  C43      1.0000 0.49601  0.77061  0.10087  Biso   1.000  C
  C44      1.0000 0.49593  0.77061  0.10078  Biso   1.000  C
  C45      1.0000 0.63774  0.78699  0.04834  Biso   1.000  C
  C46      1.0000 0.70245  0.84709  0.23244  Biso   1.000  C
  C47      1.0000 0.72699  0.88230  0.06165  Biso   1.000  C
  C48      1.0000 0.72693  0.88230  0.06165  Biso   1.000  C
  N28      1.0000 0.40911  0.79044  0.91171  Biso   1.000  N
  O13      1.0000 0.51682  0.81675  0.83061  Biso   1.000  O
  C49      1.0000 0.40077  0.77151  0.02363  Biso   1.000  C
  H48      1.0000 0.51298  0.72811  0.13151  Biso   1.000  H
  N29      1.0000 0.49546  0.81472  0.19090  Biso   1.000  N
  N30      1.0000 0.63188  0.86796  0.27544  Biso   1.000  N
  C50      1.0000 0.76567  0.90350  0.25956  Biso   1.000  C
  H49      1.0000 0.72904  0.80838  0.27089  Biso   1.000  H
  C51      1.0000 0.76565  0.90350  0.25947  Biso   1.000  C
  O14      1.0000 0.72840  0.88443  0.96166  Biso   1.000  O
  O15      1.0000 0.72838  0.88443  0.96158  Biso   1.000  O
  N31      1.0000 0.77388  0.92163  0.14764  Biso   1.000  N
  C52      1.0000 0.33865  0.78968  0.80769  Biso   1.000  C
  C53      1.0000 0.33859  0.78968  0.80769  Biso   1.000  C
  H50      1.0000 0.37298  0.73010  0.02097  Biso   1.000  H
  N32      1.0000 0.36166  0.81879  0.07873  Biso   1.000  N
  H51      1.0000 0.37296  0.73010  0.02088  Biso   1.000  H
  C54      1.0000 0.41770  0.84122  0.17880  Biso   1.000  C
  C55      1.0000 0.41764  0.84122  0.17880  Biso   1.000  C
  C56      1.0000 0.56827  0.82470  0.29346  Biso   1.000  C
  C57      1.0000 0.56825  0.82470  0.29337  Biso   1.000  C
  C58      1.0000 0.64585  0.92598  0.32719  Biso   1.000  C
  H52      1.0000 0.82125  0.89139  0.31217  Biso   1.000  H
  N33      1.0000 0.72125  0.94979  0.31174  Biso   1.000  N
  H53      1.0000 0.82123  0.89139  0.31208  Biso   1.000  H
  C59      1.0000 0.83687  0.96602  0.13220  Biso   1.000  C
  H54      1.0000 0.30151  0.75409  0.81078  Biso   1.000  H
  H55      1.0000 0.36175  0.78301  0.74315  Biso   1.000  H
  N34      1.0000 0.28693  0.84718  0.78735  Biso   1.000  N
  H56      1.0000 0.36167  0.78301  0.74307  Biso   1.000  H
  N35      1.0000 0.28691  0.84718  0.78727  Biso   1.000  N
  C60      1.0000 0.26966  0.83171  0.04774  Biso   1.000  C
  O16      1.0000 0.39872  0.87809  0.24617  Biso   1.000  O
  O17      1.0000 0.39864  0.87809  0.24608  Biso   1.000  O
  H57      1.0000 0.54658  0.84080  0.35474  Biso   1.000  H
  H58      1.0000 0.59558  0.78419  0.31809  Biso   1.000  H
  O18      1.0000 0.60014  0.95277  0.37679  Biso   1.000  O
  C61      1.0000 0.76237  0.00681  0.36813  Biso   1.000  C
  H59      1.0000 0.88878  0.96119  0.19519  Biso   1.000  H
  H60      1.0000 0.85118  0.95542  0.06199  Biso   1.000  H
  H61      1.0000 0.88871  0.96119  0.19519  Biso   1.000  H
  H62      1.0000 0.85112  0.95542  0.06199  Biso   1.000  H
  N36      1.0000 0.81007  0.03166  0.12636  Biso   1.000  N
  N37      1.0000 0.81006  0.03166  0.12627  Biso   1.000  N
  C62      1.0000 0.30035  0.89281  0.71500  Biso   1.000  C
  C63      1.0000 0.21373  0.86100  0.83250  Biso   1.000  C
  C64      1.0000 0.30029  0.89281  0.71500  Biso   1.000  C
  N38      1.0000 0.24033  0.87648  0.95514  Biso   1.000  N
  H63      1.0000 0.23891  0.79219  0.02586  Biso   1.000  H
  H64      1.0000 0.25531  0.84770  0.11486  Biso   1.000  H
  H65      1.0000 0.23883  0.79219  0.02577  Biso   1.000  H
  H66      1.0000 0.25523  0.84770  0.11477  Biso   1.000  H
  H67      1.0000 0.82238  0.99768  0.40606  Biso   1.000  H
  H68      1.0000 0.82236  0.99768  0.40597  Biso   1.000  H
  H69      1.0000 0.73530  0.01888  0.42674  Biso   1.000  H
  N39      1.0000 0.75779  0.05944  0.29063  Biso   1.000  N
  H70      1.0000 0.73524  0.01888  0.42674  Biso   1.000  H
  N40      1.0000 0.75773  0.05944  0.29063  Biso   1.000  N
  C65      1.0000 0.81945  0.07378  0.22566  Biso   1.000  C
  C66      1.0000 0.77256  0.06100  0.02423  Biso   1.000  C
  C67      1.0000 0.81943  0.07378  0.22557  Biso   1.000  C
  N41      1.0000 0.24224  0.94056  0.70942  Biso   1.000  N
  O19      1.0000 0.35353  0.89077  0.66102  Biso   1.000  O
  C68      1.0000 0.18052  0.92622  0.77439  Biso   1.000  C
  C69      1.0000 0.14712  0.80748  0.80160  Biso   1.000  C
  C70      1.0000 0.22741  0.93900  0.97582  Biso   1.000  C
  C71      1.0000 0.69968  0.10719  0.28505  Biso   1.000  C
  C72      1.0000 0.78630  0.13900  0.16755  Biso   1.000  C
  C73      1.0000 0.91224  0.07241  0.30590  Biso   1.000  C
  C74      1.0000 0.78624  0.13900  0.16755  Biso   1.000  C
  O20      1.0000 0.75609  0.03706  0.92879  Biso   1.000  O
  N42      1.0000 0.75964  0.12352  0.04491  Biso   1.000  N
  C75      1.0000 0.23766  0.99319  0.63192  Biso   1.000  C
  C76      1.0000 0.23760  0.99319  0.63192  Biso   1.000  C
  C77      1.0000 0.08773  0.92759  0.69415  Biso   1.000  C
  N43      1.0000 0.18996  0.96834  0.87369  Biso   1.000  N
  N44      1.0000 0.18989  0.96834  0.87369  Biso   1.000  N
  H71      1.0000 0.13202  0.79981  0.72050  Biso   1.000  H
  H72      1.0000 0.09664  0.81940  0.82306  Biso   1.000  H
  H73      1.0000 0.17104  0.76971  0.84202  Biso   1.000  H
  H74      1.0000 0.09662  0.81940  0.82297  Biso   1.000  H
  O21      1.0000 0.24387  0.96294  0.07126  Biso   1.000  O
  O22      1.0000 0.24386  0.96294  0.07117  Biso   1.000  O
  N45      1.0000 0.71304  0.15282  0.21270  Biso   1.000  N
  O23      1.0000 0.64650  0.10923  0.33903  Biso   1.000  O
  O24      1.0000 0.64644  0.10923  0.33903  Biso   1.000  O
  C78      1.0000 0.85285  0.19252  0.19845  Biso   1.000  C
  H75      1.0000 0.91656  0.10062  0.36933  Biso   1.000  H
  H76      1.0000 0.92635  0.03019  0.33414  Biso   1.000  H
  H77      1.0000 0.95158  0.08571  0.26419  Biso   1.000  H
  H78      1.0000 0.95152  0.08571  0.26419  Biso   1.000  H
  C79      1.0000 0.73031  0.16829  0.95231  Biso   1.000  C
  H79      1.0000 0.26473  0.98112  0.57331  Biso   1.000  H
  H80      1.0000 0.17765  0.00232  0.59399  Biso   1.000  H
  N46      1.0000 0.27872  0.05021  0.68831  Biso   1.000  N
  H81      1.0000 0.17759  0.00232  0.59399  Biso   1.000  H
  H82      1.0000 0.08341  0.89938  0.63072  Biso   1.000  H
  H83      1.0000 0.07361  0.96981  0.66591  Biso   1.000  H
  H84      1.0000 0.04845  0.91429  0.73586  Biso   1.000  H
  H85      1.0000 0.04843  0.91429  0.73577  Biso   1.000  H
  C80      1.0000 0.16316  0.03398  0.86786  Biso   1.000  C
  C81      1.0000 0.16308  0.03398  0.86777  Biso   1.000  C
  C82      1.0000 0.66138  0.21032  0.19236  Biso   1.000  C
  C83      1.0000 0.66136  0.21032  0.19227  Biso   1.000  C
  H86      1.0000 0.86795  0.20019  0.27956  Biso   1.000  H
  H87      1.0000 0.90333  0.18060  0.17700  Biso   1.000  H
  H88      1.0000 0.82899  0.23029  0.15803  Biso   1.000  H
  H89      1.0000 0.82893  0.23029  0.15803  Biso   1.000  H
  N47      1.0000 0.63831  0.18121  0.92132  Biso   1.000  N
  H90      1.0000 0.76112  0.20781  0.97419  Biso   1.000  H
  H91      1.0000 0.74472  0.15230  0.88519  Biso   1.000  H
  C84      1.0000 0.35412  0.07402  0.67286  Biso   1.000  C
  C85      1.0000 0.23430  0.09650  0.74049  Biso   1.000  C
  C86      1.0000 0.35410  0.07402  0.67278  Biso   1.000  C
  H92      1.0000 0.11125  0.03881  0.80486  Biso   1.000  H
  H93      1.0000 0.14885  0.04458  0.93806  Biso   1.000  H
  N48      1.0000 0.22615  0.07837  0.85241  Biso   1.000  N
  H94      1.0000 0.11124  0.03881  0.80478  Biso   1.000  H
  H95      1.0000 0.14883  0.04458  0.93797  Biso   1.000  H
  N49      1.0000 0.22609  0.07837  0.85241  Biso   1.000  N
  N50      1.0000 0.59086  0.20956  0.08834  Biso   1.000  N
  H96      1.0000 0.69845  0.24591  0.18927  Biso   1.000  H
  H97      1.0000 0.63828  0.21699  0.25690  Biso   1.000  H
  H98      1.0000 0.69844  0.24591  0.18918  Biso   1.000  H
  C87      1.0000 0.58233  0.15878  0.82125  Biso   1.000  C
  C88      1.0000 0.58231  0.15878  0.82117  Biso   1.000  C
  C89      1.0000 0.59926  0.22849  0.97642  Biso   1.000  C
  C90      1.0000 0.59919  0.22849  0.97642  Biso   1.000  C
  O25      1.0000 0.39983  0.04723  0.62326  Biso   1.000  O
  N51      1.0000 0.36814  0.13204  0.72462  Biso   1.000  N
  O26      1.0000 0.39981  0.04723  0.62317  Biso   1.000  O
  N52      1.0000 0.36808  0.13204  0.72462  Biso   1.000  N
  H99      1.0000 0.17872  0.10861  0.68788  Biso   1.000  H
  C91      1.0000 0.29752  0.15291  0.76761  Biso   1.000  C
  C92      1.0000 0.27304  0.11770  0.93840  Biso   1.000  C
  C93      1.0000 0.50797  0.19839  0.08705  Biso   1.000  C
  N53      1.0000 0.50450  0.18528  0.80915  Biso   1.000  N
  N54      1.0000 0.50449  0.18528  0.80907  Biso   1.000  N
  O27      1.0000 0.60131  0.12191  0.75388  Biso   1.000  O
  C94      1.0000 0.50402  0.22939  0.89918  Biso   1.000  C
  H100     1.0000 0.62699  0.26990  0.97908  Biso   1.000  H
  C95      1.0000 0.43170  0.17530  0.70659  Biso   1.000  C
  H101     1.0000 0.27093  0.19162  0.72916  Biso   1.000  H
  N55      1.0000 0.31840  0.15873  0.89129  Biso   1.000  N
  H102     1.0000 0.27091  0.19162  0.72908  Biso   1.000  H
  O28      1.0000 0.27157  0.11557  0.03839  Biso   1.000  O
  N56      1.0000 0.45572  0.21003  0.97771  Biso   1.000  N
  O29      1.0000 0.48315  0.18325  0.16944  Biso   1.000  O
  H103     1.0000 0.48705  0.27189  0.86854  Biso   1.000  H
  H104     1.0000 0.48698  0.27189  0.86854  Biso   1.000  H
  H105     1.0000 0.45339  0.15920  0.64531  Biso   1.000  H
  H106     1.0000 0.40445  0.21581  0.68196  Biso   1.000  H
  H107     1.0000 0.40437  0.21581  0.68187  Biso   1.000  H
  C96      1.0000 0.36223  0.21301  0.95171  Biso   1.000  C
  H108     1.0000 0.34207  0.25050  0.90596  Biso   1.000  H
  H109     1.0000 0.34199  0.25050  0.90588  Biso   1.000  H
  H110     1.0000 0.34699  0.21751  0.02303  Biso   1.000  H
  C97      1.0000 0.63780  0.78699  0.04834  Biso   1.000  C
  N57      1.0000 0.54425  0.78997  0.02234  Biso   1.000  N
  H111     1.0000 0.65304  0.78249  0.97702  Biso   1.000  H
  H112     1.0000 0.65298  0.78249  0.97702  Biso   1.000  H
  H113     1.0000 0.65796  0.74950  0.09409  Biso   1.000  H
  N58      1.0000 0.68156  0.84127  0.10876  Biso   1.000  N
  N59      1.0000 0.68155  0.84127  0.10868  Biso   1.000  N
  C98      1.0000 0.49200  0.80161  0.91300  Biso   1.000  C
  C99      1.0000 0.49601  0.77061  0.10087  Biso   1.000  C
  C100     1.0000 0.49593  0.77061  0.10078  Biso   1.000  C
  C101     1.0000 0.63774  0.78699  0.04834  Biso   1.000  C
  C102     1.0000 0.70245  0.84709  0.23244  Biso   1.000  C
  C103     1.0000 0.72699  0.88230  0.06165  Biso   1.000  C
  C104     1.0000 0.72693  0.88230  0.06165  Biso   1.000  C
  N60      1.0000 0.40911  0.79044  0.91171  Biso   1.000  N
  O30      1.0000 0.51682  0.81675  0.83061  Biso   1.000  O
  C105     1.0000 0.40077  0.77151  0.02363  Biso   1.000  C
  H114     1.0000 0.51298  0.72811  0.13151  Biso   1.000  H
  N61      1.0000 0.49546  0.81472  0.19090  Biso   1.000  N
  N62      1.0000 0.63188  0.86796  0.27544  Biso   1.000  N
  C106     1.0000 0.76567  0.90350  0.25956  Biso   1.000  C
  H115     1.0000 0.72904  0.80838  0.27089  Biso   1.000  H
  C107     1.0000 0.76565  0.90350  0.25947  Biso   1.000  C
  O31      1.0000 0.72840  0.88443  0.96166  Biso   1.000  O
  O32      1.0000 0.72838  0.88443  0.96158  Biso   1.000  O
  N63      1.0000 0.77388  0.92163  0.14764  Biso   1.000  N
  C108     1.0000 0.33865  0.78968  0.80769  Biso   1.000  C
  C109     1.0000 0.33859  0.78968  0.80769  Biso   1.000  C
  H116     1.0000 0.37298  0.73010  0.02097  Biso   1.000  H
  N64      1.0000 0.36166  0.81879  0.07873  Biso   1.000  N
  H117     1.0000 0.37296  0.73010  0.02088  Biso   1.000  H
  C110     1.0000 0.41770  0.84122  0.17880  Biso   1.000  C
  C111     1.0000 0.41764  0.84122  0.17880  Biso   1.000  C
  C112     1.0000 0.56827  0.82470  0.29346  Biso   1.000  C
  C113     1.0000 0.56825  0.82470  0.29337  Biso   1.000  C
  C114     1.0000 0.64585  0.92598  0.32719  Biso   1.000  C
  H118     1.0000 0.82125  0.89139  0.31217  Biso   1.000  H
  N65      1.0000 0.72125  0.94979  0.31174  Biso   1.000  N
  H119     1.0000 0.82123  0.89139  0.31208  Biso   1.000  H
  C115     1.0000 0.83687  0.96602  0.13220  Biso   1.000  C
  H120     1.0000 0.30151  0.75409  0.81078  Biso   1.000  H
  H121     1.0000 0.36175  0.78301  0.74315  Biso   1.000  H
  N66      1.0000 0.28693  0.84718  0.78735  Biso   1.000  N
  H122     1.0000 0.36167  0.78301  0.74307  Biso   1.000  H
  N67      1.0000 0.28691  0.84718  0.78727  Biso   1.000  N
  C116     1.0000 0.26966  0.83171  0.04774  Biso   1.000  C
  O33      1.0000 0.39872  0.87809  0.24617  Biso   1.000  O
  O34      1.0000 0.39864  0.87809  0.24608  Biso   1.000  O
  H123     1.0000 0.54658  0.84080  0.35474  Biso   1.000  H
  H124     1.0000 0.59558  0.78419  0.31809  Biso   1.000  H
  O35      1.0000 0.60014  0.95277  0.37679  Biso   1.000  O
  C117     1.0000 0.76237  0.00681  0.36813  Biso   1.000  C
  H125     1.0000 0.88878  0.96119  0.19519  Biso   1.000  H
  H126     1.0000 0.85118  0.95542  0.06199  Biso   1.000  H
  H127     1.0000 0.88871  0.96119  0.19519  Biso   1.000  H
  H128     1.0000 0.85112  0.95542  0.06199  Biso   1.000  H
  N68      1.0000 0.81007  0.03166  0.12636  Biso   1.000  N
  N69      1.0000 0.81006  0.03166  0.12627  Biso   1.000  N
  C118     1.0000 0.21373  0.86100  0.83250  Biso   1.000  C
  C119     1.0000 0.30035  0.89281  0.71500  Biso   1.000  C
  C120     1.0000 0.30029  0.89281  0.71500  Biso   1.000  C
  N70      1.0000 0.24033  0.87648  0.95514  Biso   1.000  N
  H129     1.0000 0.23891  0.79219  0.02586  Biso   1.000  H
  H130     1.0000 0.25531  0.84770  0.11486  Biso   1.000  H
  H131     1.0000 0.23883  0.79219  0.02577  Biso   1.000  H
  H132     1.0000 0.25523  0.84770  0.11477  Biso   1.000  H
  H133     1.0000 0.82238  0.99768  0.40606  Biso   1.000  H
  H134     1.0000 0.82236  0.99768  0.40597  Biso   1.000  H
  H135     1.0000 0.73530  0.01888  0.42674  Biso   1.000  H
  N71      1.0000 0.75779  0.05944  0.29063  Biso   1.000  N
  H136     1.0000 0.73524  0.01888  0.42674  Biso   1.000  H
  N72      1.0000 0.75773  0.05944  0.29063  Biso   1.000  N
  C121     1.0000 0.81945  0.07378  0.22566  Biso   1.000  C
  C122     1.0000 0.77256  0.06100  0.02423  Biso   1.000  C
  C123     1.0000 0.81943  0.07378  0.22557  Biso   1.000  C
  C124     1.0000 0.18052  0.92622  0.77439  Biso   1.000  C
  C125     1.0000 0.14712  0.80748  0.80160  Biso   1.000  C
  N73      1.0000 0.24224  0.94056  0.70942  Biso   1.000  N
  O36      1.0000 0.35353  0.89077  0.66102  Biso   1.000  O
  C126     1.0000 0.22741  0.93900  0.97582  Biso   1.000  C
  C127     1.0000 0.69968  0.10719  0.28505  Biso   1.000  C
  C128     1.0000 0.78630  0.13900  0.16755  Biso   1.000  C
  C129     1.0000 0.91224  0.07241  0.30590  Biso   1.000  C
  C130     1.0000 0.78624  0.13900  0.16755  Biso   1.000  C
  O37      1.0000 0.75609  0.03706  0.92879  Biso   1.000  O
  N74      1.0000 0.75964  0.12352  0.04491  Biso   1.000  N
  C131     1.0000 0.08773  0.92759  0.69415  Biso   1.000  C
  N75      1.0000 0.18996  0.96834  0.87369  Biso   1.000  N
  N76      1.0000 0.18989  0.96834  0.87369  Biso   1.000  N
  H137     1.0000 0.13202  0.79981  0.72050  Biso   1.000  H
  H138     1.0000 0.17104  0.76971  0.84202  Biso   1.000  H
  H139     1.0000 0.09664  0.81940  0.82306  Biso   1.000  H
  H140     1.0000 0.09662  0.81940  0.82297  Biso   1.000  H
  C132     1.0000 0.23766  0.99319  0.63192  Biso   1.000  C
  C133     1.0000 0.23760  0.99319  0.63192  Biso   1.000  C
  O38      1.0000 0.24387  0.96294  0.07126  Biso   1.000  O
  O39      1.0000 0.24386  0.96294  0.07117  Biso   1.000  O
  N77      1.0000 0.71304  0.15282  0.21270  Biso   1.000  N
  O40      1.0000 0.64650  0.10923  0.33903  Biso   1.000  O
  O41      1.0000 0.64644  0.10923  0.33903  Biso   1.000  O
  C134     1.0000 0.85285  0.19252  0.19845  Biso   1.000  C
  H141     1.0000 0.91656  0.10062  0.36933  Biso   1.000  H
  H142     1.0000 0.92635  0.03019  0.33414  Biso   1.000  H
  H143     1.0000 0.95158  0.08571  0.26419  Biso   1.000  H
  H144     1.0000 0.95152  0.08571  0.26419  Biso   1.000  H
  C135     1.0000 0.73031  0.16829  0.95231  Biso   1.000  C
  H145     1.0000 0.08341  0.89938  0.63072  Biso   1.000  H
  H146     1.0000 0.07361  0.96981  0.66591  Biso   1.000  H
  H147     1.0000 0.04845  0.91429  0.73586  Biso   1.000  H
  H148     1.0000 0.04843  0.91429  0.73577  Biso   1.000  H
  C136     1.0000 0.16316  0.03398  0.86786  Biso   1.000  C
  C137     1.0000 0.16308  0.03398  0.86777  Biso   1.000  C
  H149     1.0000 0.26473  0.98112  0.57331  Biso   1.000  H
  H150     1.0000 0.17765  0.00232  0.59399  Biso   1.000  H
  N78      1.0000 0.27872  0.05021  0.68831  Biso   1.000  N
  H151     1.0000 0.17759  0.00232  0.59399  Biso   1.000  H
  C138     1.0000 0.66138  0.21032  0.19236  Biso   1.000  C
  C139     1.0000 0.66136  0.21032  0.19227  Biso   1.000  C
  H152     1.0000 0.86795  0.20019  0.27956  Biso   1.000  H
  H153     1.0000 0.90333  0.18060  0.17700  Biso   1.000  H
  H154     1.0000 0.82899  0.23029  0.15803  Biso   1.000  H
  H155     1.0000 0.82893  0.23029  0.15803  Biso   1.000  H
  N79      1.0000 0.63831  0.18121  0.92132  Biso   1.000  N
  H156     1.0000 0.76112  0.20781  0.97419  Biso   1.000  H
  H157     1.0000 0.74472  0.15230  0.88519  Biso   1.000  H
  H158     1.0000 0.11125  0.03881  0.80486  Biso   1.000  H
  H159     1.0000 0.14885  0.04458  0.93806  Biso   1.000  H
  N80      1.0000 0.22615  0.07837  0.85241  Biso   1.000  N
  H160     1.0000 0.11124  0.03881  0.80478  Biso   1.000  H
  H161     1.0000 0.14883  0.04458  0.93797  Biso   1.000  H
  N81      1.0000 0.22609  0.07837  0.85241  Biso   1.000  N
  C140     1.0000 0.35412  0.07402  0.67286  Biso   1.000  C
  C141     1.0000 0.23430  0.09650  0.74049  Biso   1.000  C
  C142     1.0000 0.35410  0.07402  0.67278  Biso   1.000  C
  N82      1.0000 0.59086  0.20956  0.08834  Biso   1.000  N
  H162     1.0000 0.69845  0.24591  0.18927  Biso   1.000  H
  H163     1.0000 0.63828  0.21699  0.25690  Biso   1.000  H
  H164     1.0000 0.69844  0.24591  0.18918  Biso   1.000  H
  C143     1.0000 0.58233  0.15878  0.82125  Biso   1.000  C
  C144     1.0000 0.58231  0.15878  0.82117  Biso   1.000  C
  C145     1.0000 0.59926  0.22849  0.97642  Biso   1.000  C
  C146     1.0000 0.59919  0.22849  0.97642  Biso   1.000  C
  C147     1.0000 0.27304  0.11770  0.93840  Biso   1.000  C
  O42      1.0000 0.39983  0.04723  0.62326  Biso   1.000  O
  N83      1.0000 0.36814  0.13204  0.72462  Biso   1.000  N
  O43      1.0000 0.39981  0.04723  0.62317  Biso   1.000  O
  N84      1.0000 0.36808  0.13204  0.72462  Biso   1.000  N
  H165     1.0000 0.17872  0.10861  0.68788  Biso   1.000  H
  C148     1.0000 0.29752  0.15291  0.76761  Biso   1.000  C
  C149     1.0000 0.50797  0.19839  0.08705  Biso   1.000  C
  N85      1.0000 0.50450  0.18528  0.80915  Biso   1.000  N
  N86      1.0000 0.50449  0.18528  0.80907  Biso   1.000  N
  O44      1.0000 0.60131  0.12191  0.75388  Biso   1.000  O
  C150     1.0000 0.50402  0.22939  0.89918  Biso   1.000  C
  H166     1.0000 0.62699  0.26990  0.97908  Biso   1.000  H
  N87      1.0000 0.31840  0.15873  0.89129  Biso   1.000  N
  O45      1.0000 0.27157  0.11557  0.03839  Biso   1.000  O
  C151     1.0000 0.43170  0.17530  0.70659  Biso   1.000  C
  H167     1.0000 0.27093  0.19162  0.72916  Biso   1.000  H
  H168     1.0000 0.27091  0.19162  0.72908  Biso   1.000  H
  N88      1.0000 0.45572  0.21003  0.97771  Biso   1.000  N
  O46      1.0000 0.48315  0.18325  0.16944  Biso   1.000  O
  H169     1.0000 0.48705  0.27189  0.86854  Biso   1.000  H
  H170     1.0000 0.48698  0.27189  0.86854  Biso   1.000  H
  C152     1.0000 0.36223  0.21301  0.95171  Biso   1.000  C
  H171     1.0000 0.45339  0.15920  0.64531  Biso   1.000  H
  H172     1.0000 0.40445  0.21581  0.68196  Biso   1.000  H
  H173     1.0000 0.40437  0.21581  0.68187  Biso   1.000  H
  H174     1.0000 0.34207  0.25050  0.90596  Biso   1.000  H
  H175     1.0000 0.34199  0.25050  0.90588  Biso   1.000  H
  H176     1.0000 0.34699  0.21751  0.02303  Biso   1.000  H
  C153     1.0000 0.63780  0.78699  0.04834  Biso   1.000  C
  N89      1.0000 0.54425  0.78997  0.02234  Biso   1.000  N
  H177     1.0000 0.65304  0.78249  0.97702  Biso   1.000  H
  H178     1.0000 0.65298  0.78249  0.97702  Biso   1.000  H
  H179     1.0000 0.65796  0.74950  0.09409  Biso   1.000  H
  N90      1.0000 0.68156  0.84127  0.10876  Biso   1.000  N
  N91      1.0000 0.68155  0.84127  0.10868  Biso   1.000  N
  C154     1.0000 0.49200  0.80161  0.91300  Biso   1.000  C
  C155     1.0000 0.49601  0.77061  0.10087  Biso   1.000  C
  C156     1.0000 0.49593  0.77061  0.10078  Biso   1.000  C
  C157     1.0000 0.63774  0.78699  0.04834  Biso   1.000  C
  C158     1.0000 0.70245  0.84709  0.23244  Biso   1.000  C
  C159     1.0000 0.72699  0.88230  0.06165  Biso   1.000  C
  C160     1.0000 0.72693  0.88230  0.06165  Biso   1.000  C
  N92      1.0000 0.40911  0.79044  0.91171  Biso   1.000  N
  O47      1.0000 0.51682  0.81675  0.83061  Biso   1.000  O
  C161     1.0000 0.40077  0.77151  0.02363  Biso   1.000  C
  H180     1.0000 0.51298  0.72811  0.13151  Biso   1.000  H
  N93      1.0000 0.49546  0.81472  0.19090  Biso   1.000  N
  N94      1.0000 0.63188  0.86796  0.27544  Biso   1.000  N
  C162     1.0000 0.76567  0.90350  0.25956  Biso   1.000  C
  H181     1.0000 0.72904  0.80838  0.27089  Biso   1.000  H
  C163     1.0000 0.76565  0.90350  0.25947  Biso   1.000  C
  O48      1.0000 0.72840  0.88443  0.96166  Biso   1.000  O
  O49      1.0000 0.72838  0.88443  0.96158  Biso   1.000  O
  N95      1.0000 0.77388  0.92163  0.14764  Biso   1.000  N
  C164     1.0000 0.33865  0.78968  0.80769  Biso   1.000  C
  C165     1.0000 0.33859  0.78968  0.80769  Biso   1.000  C
  H182     1.0000 0.37298  0.73010  0.02097  Biso   1.000  H
  N96      1.0000 0.36166  0.81879  0.07873  Biso   1.000  N
  H183     1.0000 0.37296  0.73010  0.02088  Biso   1.000  H
  C166     1.0000 0.41770  0.84122  0.17880  Biso   1.000  C
  C167     1.0000 0.41764  0.84122  0.17880  Biso   1.000  C
  C168     1.0000 0.56827  0.82470  0.29346  Biso   1.000  C
  C169     1.0000 0.56825  0.82470  0.29337  Biso   1.000  C
  C170     1.0000 0.64585  0.92598  0.32719  Biso   1.000  C
  H184     1.0000 0.82125  0.89139  0.31217  Biso   1.000  H
  N97      1.0000 0.72125  0.94979  0.31174  Biso   1.000  N
  H185     1.0000 0.82123  0.89139  0.31208  Biso   1.000  H
  C171     1.0000 0.83687  0.96602  0.13220  Biso   1.000  C
  H186     1.0000 0.30151  0.75409  0.81078  Biso   1.000  H
  H187     1.0000 0.36175  0.78301  0.74315  Biso   1.000  H
  N98      1.0000 0.28693  0.84718  0.78735  Biso   1.000  N
  H188     1.0000 0.36167  0.78301  0.74307  Biso   1.000  H
  N99      1.0000 0.28691  0.84718  0.78727  Biso   1.000  N
  C172     1.0000 0.26966  0.83171  0.04774  Biso   1.000  C
  O50      1.0000 0.39872  0.87809  0.24617  Biso   1.000  O
  O51      1.0000 0.39864  0.87809  0.24608  Biso   1.000  O
  H189     1.0000 0.54658  0.84080  0.35474  Biso   1.000  H
  H190     1.0000 0.59558  0.78419  0.31809  Biso   1.000  H
  O52      1.0000 0.60014  0.95277  0.37679  Biso   1.000  O
  C173     1.0000 0.76237  0.00681  0.36813  Biso   1.000  C
  H191     1.0000 0.88878  0.96119  0.19519  Biso   1.000  H
  H192     1.0000 0.85118  0.95542  0.06199  Biso   1.000  H
  H193     1.0000 0.88871  0.96119  0.19519  Biso   1.000  H
  H194     1.0000 0.85112  0.95542  0.06199  Biso   1.000  H
  N100     1.0000 0.81007  0.03166  0.12636  Biso   1.000  N
  N101     1.0000 0.81006  0.03166  0.12627  Biso   1.000  N
  C174     1.0000 0.21373  0.86100  0.83250  Biso   1.000  C
  C175     1.0000 0.30035  0.89281  0.71500  Biso   1.000  C
  C176     1.0000 0.30029  0.89281  0.71500  Biso   1.000  C
  N102     1.0000 0.24033  0.87648  0.95514  Biso   1.000  N
  H195     1.0000 0.23891  0.79219  0.02586  Biso   1.000  H
  H196     1.0000 0.25531  0.84770  0.11486  Biso   1.000  H
  H197     1.0000 0.23883  0.79219  0.02577  Biso   1.000  H
  H198     1.0000 0.25523  0.84770  0.11477  Biso   1.000  H
  H199     1.0000 0.82238  0.99768  0.40606  Biso   1.000  H
  H200     1.0000 0.82236  0.99768  0.40597  Biso   1.000  H
  H201     1.0000 0.73530  0.01888  0.42674  Biso   1.000  H
  N103     1.0000 0.75779  0.05944  0.29063  Biso   1.000  N
  H202     1.0000 0.73524  0.01888  0.42674  Biso   1.000  H
  N104     1.0000 0.75773  0.05944  0.29063  Biso   1.000  N
  C177     1.0000 0.81945  0.07378  0.22566  Biso   1.000  C
  C178     1.0000 0.77256  0.06100  0.02423  Biso   1.000  C
  C179     1.0000 0.81943  0.07378  0.22557  Biso   1.000  C
  C180     1.0000 0.18052  0.92622  0.77439  Biso   1.000  C
  C181     1.0000 0.14712  0.80748  0.80160  Biso   1.000  C
  N105     1.0000 0.24224  0.94056  0.70942  Biso   1.000  N
  O53      1.0000 0.35353  0.89077  0.66102  Biso   1.000  O
  C182     1.0000 0.22741  0.93900  0.97582  Biso   1.000  C
  C183     1.0000 0.69968  0.10719  0.28505  Biso   1.000  C
  C184     1.0000 0.78630  0.13900  0.16755  Biso   1.000  C
  C185     1.0000 0.91224  0.07241  0.30590  Biso   1.000  C
  C186     1.0000 0.78624  0.13900  0.16755  Biso   1.000  C
  O54      1.0000 0.75609  0.03706  0.92879  Biso   1.000  O
  N106     1.0000 0.75964  0.12352  0.04491  Biso   1.000  N
  C187     1.0000 0.08773  0.92759  0.69415  Biso   1.000  C
  N107     1.0000 0.18996  0.96834  0.87369  Biso   1.000  N
  N108     1.0000 0.18989  0.96834  0.87369  Biso   1.000  N
  H203     1.0000 0.13202  0.79981  0.72050  Biso   1.000  H
  H204     1.0000 0.17104  0.76971  0.84202  Biso   1.000  H
  H205     1.0000 0.09664  0.81940  0.82306  Biso   1.000  H
  H206     1.0000 0.09662  0.81940  0.82297  Biso   1.000  H
  C188     1.0000 0.23766  0.99319  0.63192  Biso   1.000  C
  C189     1.0000 0.23760  0.99319  0.63192  Biso   1.000  C
  O55      1.0000 0.24387  0.96294  0.07126  Biso   1.000  O
  O56      1.0000 0.24386  0.96294  0.07117  Biso   1.000  O
  N109     1.0000 0.71304  0.15282  0.21270  Biso   1.000  N
  O57      1.0000 0.64650  0.10923  0.33903  Biso   1.000  O
  O58      1.0000 0.64644  0.10923  0.33903  Biso   1.000  O
  C190     1.0000 0.85285  0.19252  0.19845  Biso   1.000  C
  H207     1.0000 0.91656  0.10062  0.36933  Biso   1.000  H
  H208     1.0000 0.92635  0.03019  0.33414  Biso   1.000  H
  H209     1.0000 0.95158  0.08571  0.26419  Biso   1.000  H
  H210     1.0000 0.95152  0.08571  0.26419  Biso   1.000  H
  C191     1.0000 0.73031  0.16829  0.95231  Biso   1.000  C
  H211     1.0000 0.08341  0.89938  0.63072  Biso   1.000  H
  H212     1.0000 0.07361  0.96981  0.66591  Biso   1.000  H
  H213     1.0000 0.04845  0.91429  0.73586  Biso   1.000  H
  H214     1.0000 0.04843  0.91429  0.73577  Biso   1.000  H
  C192     1.0000 0.16316  0.03398  0.86786  Biso   1.000  C
  C193     1.0000 0.16308  0.03398  0.86777  Biso   1.000  C
  H215     1.0000 0.26473  0.98112  0.57331  Biso   1.000  H
  H216     1.0000 0.17765  0.00232  0.59399  Biso   1.000  H
  N110     1.0000 0.27872  0.05021  0.68831  Biso   1.000  N
  H217     1.0000 0.17759  0.00232  0.59399  Biso   1.000  H
  C194     1.0000 0.66138  0.21032  0.19236  Biso   1.000  C
  C195     1.0000 0.66136  0.21032  0.19227  Biso   1.000  C
  H218     1.0000 0.86795  0.20019  0.27956  Biso   1.000  H
  H219     1.0000 0.90333  0.18060  0.17700  Biso   1.000  H
  H220     1.0000 0.82899  0.23029  0.15803  Biso   1.000  H
  H221     1.0000 0.82893  0.23029  0.15803  Biso   1.000  H
  H222     1.0000 0.76112  0.20781  0.97419  Biso   1.000  H
  H223     1.0000 0.74472  0.15230  0.88519  Biso   1.000  H
  N111     1.0000 0.63831  0.18121  0.92132  Biso   1.000  N
  H224     1.0000 0.11125  0.03881  0.80486  Biso   1.000  H
  H225     1.0000 0.14885  0.04458  0.93806  Biso   1.000  H
  N112     1.0000 0.22615  0.07837  0.85241  Biso   1.000  N
  H226     1.0000 0.11124  0.03881  0.80478  Biso   1.000  H
  H227     1.0000 0.14883  0.04458  0.93797  Biso   1.000  H
  N113     1.0000 0.22609  0.07837  0.85241  Biso   1.000  N
  C196     1.0000 0.35412  0.07402  0.67286  Biso   1.000  C
  C197     1.0000 0.23430  0.09650  0.74049  Biso   1.000  C
  C198     1.0000 0.35410  0.07402  0.67278  Biso   1.000  C
  H228     1.0000 0.69845  0.24591  0.18927  Biso   1.000  H
  H229     1.0000 0.63828  0.21699  0.25690  Biso   1.000  H
  N114     1.0000 0.59086  0.20956  0.08834  Biso   1.000  N
  H230     1.0000 0.69844  0.24591  0.18918  Biso   1.000  H
  C199     1.0000 0.58233  0.15878  0.82125  Biso   1.000  C
  C200     1.0000 0.58231  0.15878  0.82117  Biso   1.000  C
  C201     1.0000 0.59926  0.22849  0.97642  Biso   1.000  C
  C202     1.0000 0.59919  0.22849  0.97642  Biso   1.000  C
  C203     1.0000 0.27304  0.11770  0.93840  Biso   1.000  C
  O59      1.0000 0.39983  0.04723  0.62326  Biso   1.000  O
  N115     1.0000 0.36814  0.13204  0.72462  Biso   1.000  N
  O60      1.0000 0.39981  0.04723  0.62317  Biso   1.000  O
  N116     1.0000 0.36808  0.13204  0.72462  Biso   1.000  N
  H231     1.0000 0.17872  0.10861  0.68788  Biso   1.000  H
  C204     1.0000 0.29752  0.15291  0.76761  Biso   1.000  C
  C205     1.0000 0.50797  0.19839  0.08705  Biso   1.000  C
  N117     1.0000 0.50450  0.18528  0.80915  Biso   1.000  N
  N118     1.0000 0.50449  0.18528  0.80907  Biso   1.000  N
  O61      1.0000 0.60131  0.12191  0.75388  Biso   1.000  O
  C206     1.0000 0.50402  0.22939  0.89918  Biso   1.000  C
  H232     1.0000 0.62699  0.26990  0.97908  Biso   1.000  H
  N119     1.0000 0.31840  0.15873  0.89129  Biso   1.000  N
  O62      1.0000 0.27157  0.11557  0.03839  Biso   1.000  O
  C207     1.0000 0.43170  0.17530  0.70659  Biso   1.000  C
  H233     1.0000 0.27093  0.19162  0.72916  Biso   1.000  H
  H234     1.0000 0.27091  0.19162  0.72908  Biso   1.000  H
  N120     1.0000 0.45572  0.21003  0.97771  Biso   1.000  N
  O63      1.0000 0.48315  0.18325  0.16944  Biso   1.000  O
  H235     1.0000 0.48705  0.27189  0.86854  Biso   1.000  H
  H236     1.0000 0.48698  0.27189  0.86854  Biso   1.000  H
  C208     1.0000 0.36223  0.21301  0.95171  Biso   1.000  C
  H237     1.0000 0.45339  0.15920  0.64531  Biso   1.000  H
  H238     1.0000 0.40445  0.21581  0.68196  Biso   1.000  H
  H239     1.0000 0.40437  0.21581  0.68187  Biso   1.000  H
  H240     1.0000 0.34207  0.25050  0.90596  Biso   1.000  H
  H241     1.0000 0.34199  0.25050  0.90588  Biso   1.000  H
  H242     1.0000 0.34699  0.21751  0.02303  Biso   1.000  H
  C209     1.0000 0.63780  0.78699  0.04834  Biso   1.000  C
  N121     1.0000 0.54425  0.78997  0.02234  Biso   1.000  N
  H243     1.0000 0.65304  0.78249  0.97702  Biso   1.000  H
  H244     1.0000 0.65298  0.78249  0.97702  Biso   1.000  H
  H245     1.0000 0.65796  0.74950  0.09409  Biso   1.000  H
  N122     1.0000 0.68156  0.84127  0.10876  Biso   1.000  N
  N123     1.0000 0.68155  0.84127  0.10868  Biso   1.000  N
  C210     1.0000 0.49200  0.80161  0.91300  Biso   1.000  C
  C211     1.0000 0.49601  0.77061  0.10087  Biso   1.000  C
  C212     1.0000 0.49593  0.77061  0.10078  Biso   1.000  C
  C213     1.0000 0.63774  0.78699  0.04834  Biso   1.000  C
  C214     1.0000 0.70245  0.84709  0.23244  Biso   1.000  C
  C215     1.0000 0.72699  0.88230  0.06165  Biso   1.000  C
  C216     1.0000 0.72693  0.88230  0.06165  Biso   1.000  C
  N124     1.0000 0.40911  0.79044  0.91171  Biso   1.000  N
  O64      1.0000 0.51682  0.81675  0.83061  Biso   1.000  O
  C217     1.0000 0.40077  0.77151  0.02363  Biso   1.000  C
  H246     1.0000 0.51298  0.72811  0.13151  Biso   1.000  H
  N125     1.0000 0.49546  0.81472  0.19090  Biso   1.000  N
  N126     1.0000 0.63188  0.86796  0.27544  Biso   1.000  N
  C218     1.0000 0.76567  0.90350  0.25956  Biso   1.000  C
  H247     1.0000 0.72904  0.80838  0.27089  Biso   1.000  H
  C219     1.0000 0.76565  0.90350  0.25947  Biso   1.000  C
  O65      1.0000 0.72840  0.88443  0.96166  Biso   1.000  O
  O66      1.0000 0.72838  0.88443  0.96158  Biso   1.000  O
  N127     1.0000 0.77388  0.92163  0.14764  Biso   1.000  N
  C220     1.0000 0.33865  0.78968  0.80769  Biso   1.000  C
  C221     1.0000 0.33859  0.78968  0.80769  Biso   1.000  C
  H248     1.0000 0.37298  0.73010  0.02097  Biso   1.000  H
  N128     1.0000 0.36166  0.81879  0.07873  Biso   1.000  N
  H249     1.0000 0.37296  0.73010  0.02088  Biso   1.000  H
  C222     1.0000 0.41770  0.84122  0.17880  Biso   1.000  C
  C223     1.0000 0.41764  0.84122  0.17880  Biso   1.000  C
  C224     1.0000 0.56827  0.82470  0.29346  Biso   1.000  C
  C225     1.0000 0.56825  0.82470  0.29337  Biso   1.000  C
  C226     1.0000 0.64585  0.92598  0.32719  Biso   1.000  C
  H250     1.0000 0.82125  0.89139  0.31217  Biso   1.000  H
  N129     1.0000 0.72125  0.94979  0.31174  Biso   1.000  N
  H251     1.0000 0.82123  0.89139  0.31208  Biso   1.000  H
  C227     1.0000 0.83687  0.96602  0.13220  Biso   1.000  C
  H252     1.0000 0.30151  0.75409  0.81078  Biso   1.000  H
  H253     1.0000 0.36175  0.78301  0.74315  Biso   1.000  H
  N130     1.0000 0.28693  0.84718  0.78735  Biso   1.000  N
  H254     1.0000 0.36167  0.78301  0.74307  Biso   1.000  H
  N131     1.0000 0.28691  0.84718  0.78727  Biso   1.000  N
  C228     1.0000 0.26966  0.83171  0.04774  Biso   1.000  C
  O67      1.0000 0.39872  0.87809  0.24617  Biso   1.000  O
  O68      1.0000 0.39864  0.87809  0.24608  Biso   1.000  O
  H255     1.0000 0.54658  0.84080  0.35474  Biso   1.000  H
  H256     1.0000 0.59558  0.78419  0.31809  Biso   1.000  H
  O69      1.0000 0.60014  0.95277  0.37679  Biso   1.000  O
  C229     1.0000 0.76237  0.00681  0.36813  Biso   1.000  C
  H257     1.0000 0.88878  0.96119  0.19519  Biso   1.000  H
  H258     1.0000 0.85118  0.95542  0.06199  Biso   1.000  H
  H259     1.0000 0.88871  0.96119  0.19519  Biso   1.000  H
  H260     1.0000 0.85112  0.95542  0.06199  Biso   1.000  H
  N132     1.0000 0.81007  0.03166  0.12636  Biso   1.000  N
  N133     1.0000 0.81006  0.03166  0.12627  Biso   1.000  N
  C230     1.0000 0.21373  0.86100  0.83250  Biso   1.000  C
  C231     1.0000 0.30035  0.89281  0.71500  Biso   1.000  C
  C232     1.0000 0.30029  0.89281  0.71500  Biso   1.000  C
  N134     1.0000 0.24033  0.87648  0.95514  Biso   1.000  N
  H261     1.0000 0.23891  0.79219  0.02586  Biso   1.000  H
  H262     1.0000 0.25531  0.84770  0.11486  Biso   1.000  H
  H263     1.0000 0.23883  0.79219  0.02577  Biso   1.000  H
  H264     1.0000 0.25523  0.84770  0.11477  Biso   1.000  H
  H265     1.0000 0.82238  0.99768  0.40606  Biso   1.000  H
  H266     1.0000 0.82236  0.99768  0.40597  Biso   1.000  H
  H267     1.0000 0.73530  0.01888  0.42674  Biso   1.000  H
  N135     1.0000 0.75779  0.05944  0.29063  Biso   1.000  N
  H268     1.0000 0.73524  0.01888  0.42674  Biso   1.000  H
  N136     1.0000 0.75773  0.05944  0.29063  Biso   1.000  N
  C233     1.0000 0.81945  0.07378  0.22566  Biso   1.000  C
  C234     1.0000 0.77256  0.06100  0.02423  Biso   1.000  C
  C235     1.0000 0.81943  0.07378  0.22557  Biso   1.000  C
  C236     1.0000 0.18052  0.92622  0.77439  Biso   1.000  C
  C237     1.0000 0.14712  0.80748  0.80160  Biso   1.000  C
  N137     1.0000 0.24224  0.94056  0.70942  Biso   1.000  N
  O70      1.0000 0.35353  0.89077  0.66102  Biso   1.000  O
  C238     1.0000 0.22741  0.93900  0.97582  Biso   1.000  C
  C239     1.0000 0.69968  0.10719  0.28505  Biso   1.000  C
  C240     1.0000 0.78630  0.13900  0.16755  Biso   1.000  C
  C241     1.0000 0.91224  0.07241  0.30590  Biso   1.000  C
  C242     1.0000 0.78624  0.13900  0.16755  Biso   1.000  C
  O71      1.0000 0.75609  0.03706  0.92879  Biso   1.000  O
  N138     1.0000 0.75964  0.12352  0.04491  Biso   1.000  N
  C243     1.0000 0.08773  0.92759  0.69415  Biso   1.000  C
  N139     1.0000 0.18996  0.96834  0.87369  Biso   1.000  N
  N140     1.0000 0.18989  0.96834  0.87369  Biso   1.000  N
  H269     1.0000 0.13202  0.79981  0.72050  Biso   1.000  H
  H270     1.0000 0.17104  0.76971  0.84202  Biso   1.000  H
  H271     1.0000 0.09664  0.81940  0.82306  Biso   1.000  H
  H272     1.0000 0.09662  0.81940  0.82297  Biso   1.000  H
  C244     1.0000 0.23766  0.99319  0.63192  Biso   1.000  C
  C245     1.0000 0.23760  0.99319  0.63192  Biso   1.000  C
  O72      1.0000 0.24387  0.96294  0.07126  Biso   1.000  O
  O73      1.0000 0.24386  0.96294  0.07117  Biso   1.000  O
  N141     1.0000 0.71304  0.15282  0.21270  Biso   1.000  N
  O74      1.0000 0.64650  0.10923  0.33903  Biso   1.000  O
  O75      1.0000 0.64644  0.10923  0.33903  Biso   1.000  O
  C246     1.0000 0.85285  0.19252  0.19845  Biso   1.000  C
  H273     1.0000 0.91656  0.10062  0.36933  Biso   1.000  H
  H274     1.0000 0.92635  0.03019  0.33414  Biso   1.000  H
  H275     1.0000 0.95158  0.08571  0.26419  Biso   1.000  H
  H276     1.0000 0.95152  0.08571  0.26419  Biso   1.000  H
  C247     1.0000 0.73031  0.16829  0.95231  Biso   1.000  C
  H277     1.0000 0.08341  0.89938  0.63072  Biso   1.000  H
  H278     1.0000 0.07361  0.96981  0.66591  Biso   1.000  H
  H279     1.0000 0.04845  0.91429  0.73586  Biso   1.000  H
  H280     1.0000 0.04843  0.91429  0.73577  Biso   1.000  H
  C248     1.0000 0.16316  0.03398  0.86786  Biso   1.000  C
  C249     1.0000 0.16308  0.03398  0.86777  Biso   1.000  C
  H281     1.0000 0.26473  0.98112  0.57331  Biso   1.000  H
  H282     1.0000 0.17765  0.00232  0.59399  Biso   1.000  H
  N142     1.0000 0.27872  0.05021  0.68831  Biso   1.000  N
  H283     1.0000 0.17759  0.00232  0.59399  Biso   1.000  H
  C250     1.0000 0.66138  0.21032  0.19236  Biso   1.000  C
  C251     1.0000 0.66136  0.21032  0.19227  Biso   1.000  C
  H284     1.0000 0.86795  0.20019  0.27956  Biso   1.000  H
  H285     1.0000 0.90333  0.18060  0.17700  Biso   1.000  H
  H286     1.0000 0.82899  0.23029  0.15803  Biso   1.000  H
  H287     1.0000 0.82893  0.23029  0.15803  Biso   1.000  H
  H288     1.0000 0.76112  0.20781  0.97419  Biso   1.000  H
  H289     1.0000 0.74472  0.15230  0.88519  Biso   1.000  H
  N143     1.0000 0.63831  0.18121  0.92132  Biso   1.000  N
  H290     1.0000 0.11125  0.03881  0.80486  Biso   1.000  H
  H291     1.0000 0.14885  0.04458  0.93806  Biso   1.000  H
  N144     1.0000 0.22615  0.07837  0.85241  Biso   1.000  N
  H292     1.0000 0.11124  0.03881  0.80478  Biso   1.000  H
  H293     1.0000 0.14883  0.04458  0.93797  Biso   1.000  H
  N145     1.0000 0.22609  0.07837  0.85241  Biso   1.000  N
  C252     1.0000 0.35412  0.07402  0.67286  Biso   1.000  C
  C253     1.0000 0.23430  0.09650  0.74049  Biso   1.000  C
  C254     1.0000 0.35410  0.07402  0.67278  Biso   1.000  C
  H294     1.0000 0.69845  0.24591  0.18927  Biso   1.000  H
  H295     1.0000 0.63828  0.21699  0.25690  Biso   1.000  H
  N146     1.0000 0.59086  0.20956  0.08834  Biso   1.000  N
  H296     1.0000 0.69844  0.24591  0.18918  Biso   1.000  H
  C255     1.0000 0.58233  0.15878  0.82125  Biso   1.000  C
  C256     1.0000 0.58231  0.15878  0.82117  Biso   1.000  C
  C257     1.0000 0.59926  0.22849  0.97642  Biso   1.000  C
  C258     1.0000 0.59919  0.22849  0.97642  Biso   1.000  C
  C259     1.0000 0.27304  0.11770  0.93840  Biso   1.000  C
  O76      1.0000 0.39983  0.04723  0.62326  Biso   1.000  O
  N147     1.0000 0.36814  0.13204  0.72462  Biso   1.000  N
  O77      1.0000 0.39981  0.04723  0.62317  Biso   1.000  O
  N148     1.0000 0.36808  0.13204  0.72462  Biso   1.000  N
  H297     1.0000 0.17872  0.10861  0.68788  Biso   1.000  H
  C260     1.0000 0.29752  0.15291  0.76761  Biso   1.000  C
  C261     1.0000 0.50797  0.19839  0.08705  Biso   1.000  C
  N149     1.0000 0.50450  0.18528  0.80915  Biso   1.000  N
  N150     1.0000 0.50449  0.18528  0.80907  Biso   1.000  N
  O78      1.0000 0.60131  0.12191  0.75388  Biso   1.000  O
  C262     1.0000 0.50402  0.22939  0.89918  Biso   1.000  C
  H298     1.0000 0.62699  0.26990  0.97908  Biso   1.000  H
  N151     1.0000 0.31840  0.15873  0.89129  Biso   1.000  N
  O79      1.0000 0.27157  0.11557  0.03839  Biso   1.000  O
  C263     1.0000 0.43170  0.17530  0.70659  Biso   1.000  C
  H299     1.0000 0.27093  0.19162  0.72916  Biso   1.000  H
  H300     1.0000 0.27091  0.19162  0.72908  Biso   1.000  H
  N152     1.0000 0.45572  0.21003  0.97771  Biso   1.000  N
  O80      1.0000 0.48315  0.18325  0.16944  Biso   1.000  O
  H301     1.0000 0.48705  0.27189  0.86854  Biso   1.000  H
  H302     1.0000 0.48698  0.27189  0.86854  Biso   1.000  H
  C264     1.0000 0.36223  0.21301  0.95171  Biso   1.000  C
  H303     1.0000 0.45339  0.15920  0.64531  Biso   1.000  H
  H304     1.0000 0.40445  0.21581  0.68196  Biso   1.000  H
  H305     1.0000 0.40437  0.21581  0.68187  Biso   1.000  H
  H306     1.0000 0.34207  0.25050  0.90596  Biso   1.000  H
  H307     1.0000 0.34199  0.25050  0.90588  Biso   1.000  H
  H308     1.0000 0.34699  0.21751  0.02303  Biso   1.000  H
