data_image0
_cell_length_a       17.24
_cell_length_b       17.673
_cell_length_c       15.064
_cell_angle_alpha    90
_cell_angle_beta     93.24
_cell_angle_gamma    90

_symmetry_space_group_name_H-M    "P 1"
_symmetry_int_tables_number       1

loop_
  _symmetry_equiv_pos_as_xyz
  'x, y, z'

loop_
  _atom_site_label
  _atom_site_occupancy
  _atom_site_fract_x
  _atom_site_fract_y
  _atom_site_fract_z
  _atom_site_thermal_displace_type
  _atom_site_B_iso_or_equiv
  _atom_site_type_symbol
  C1       1.0000 0.41142  0.35020  0.09508  Biso   1.000  C
  C2       1.0000 0.42815  0.26775  0.08730  Biso   1.000  C
  C3       1.0000 0.42821  0.26775  0.08737  Biso   1.000  C
  C4       1.0000 0.42815  0.26781  0.08730  Biso   1.000  C
  C5       1.0000 0.42821  0.26781  0.08737  Biso   1.000  C
  H1       1.0000 0.35787  0.35953  0.07719  Biso   1.000  H
  H2       1.0000 0.42131  0.36598  0.15559  Biso   1.000  H
  H3       1.0000 0.44419  0.37820  0.05738  Biso   1.000  H
  H4       1.0000 0.35793  0.35953  0.07719  Biso   1.000  H
  H5       1.0000 0.42132  0.36598  0.15565  Biso   1.000  H
  H6       1.0000 0.44419  0.37820  0.05745  Biso   1.000  H
  H7       1.0000 0.42131  0.36604  0.15559  Biso   1.000  H
  H8       1.0000 0.42132  0.36604  0.15565  Biso   1.000  H
  C6       1.0000 0.37702  0.22498  0.15140  Biso   1.000  C
  N1       1.0000 0.50536  0.23805  0.11097  Biso   1.000  N
  C7       1.0000 0.41143  0.35020  0.09515  Biso   1.000  C
  C8       1.0000 0.41142  0.35025  0.09508  Biso   1.000  C
  N2       1.0000 0.50536  0.23810  0.11097  Biso   1.000  N
  C9       1.0000 0.41143  0.35025  0.09515  Biso   1.000  C
  N3       1.0000 0.39660  0.24444  0.99920  Biso   1.000  N
  N4       1.0000 0.39666  0.24444  0.99927  Biso   1.000  N
  C10      1.0000 0.33832  0.27873  0.21104  Biso   1.000  C
  N5       1.0000 0.32526  0.17982  0.09215  Biso   1.000  N
  N6       1.0000 0.43174  0.17937  0.20459  Biso   1.000  N
  C11      1.0000 0.33838  0.27873  0.21104  Biso   1.000  C
  N7       1.0000 0.43180  0.17937  0.20459  Biso   1.000  N
  C12      1.0000 0.33832  0.27879  0.21104  Biso   1.000  C
  C13      1.0000 0.33838  0.27879  0.21104  Biso   1.000  C
  C14      1.0000 0.50569  0.18922  0.18212  Biso   1.000  C
  C15      1.0000 0.50569  0.18922  0.18218  Biso   1.000  C
  C16      1.0000 0.57701  0.27200  0.08305  Biso   1.000  C
  C17      1.0000 0.57701  0.27205  0.08305  Biso   1.000  C
  C18      1.0000 0.33508  0.19516  0.00439  Biso   1.000  C
  C19      1.0000 0.33514  0.19516  0.00439  Biso   1.000  C
  C20      1.0000 0.42293  0.27200  0.91689  Biso   1.000  C
  C21      1.0000 0.42293  0.27200  0.91695  Biso   1.000  C
  C22      1.0000 0.42293  0.27205  0.91689  Biso   1.000  C
  C23      1.0000 0.42293  0.27205  0.91695  Biso   1.000  C
  H9       1.0000 0.30187  0.30929  0.17640  Biso   1.000  H
  H10      1.0000 0.31147  0.25078  0.25452  Biso   1.000  H
  H11      1.0000 0.37678  0.31070  0.24049  Biso   1.000  H
  H12      1.0000 0.30192  0.30929  0.17640  Biso   1.000  H
  H13      1.0000 0.31153  0.25078  0.25452  Biso   1.000  H
  H14      1.0000 0.30187  0.30934  0.17640  Biso   1.000  H
  H15      1.0000 0.31147  0.25083  0.25452  Biso   1.000  H
  H16      1.0000 0.37678  0.31076  0.24049  Biso   1.000  H
  H17      1.0000 0.30192  0.30934  0.17640  Biso   1.000  H
  H18      1.0000 0.31153  0.25083  0.25452  Biso   1.000  H
  C24      1.0000 0.26038  0.13761  0.11968  Biso   1.000  C
  C25      1.0000 0.26043  0.13761  0.11968  Biso   1.000  C
  C26      1.0000 0.41278  0.13738  0.28345  Biso   1.000  C
  C27      1.0000 0.41278  0.13744  0.28345  Biso   1.000  C
  O1       1.0000 0.56365  0.16019  0.21888  Biso   1.000  O
  O2       1.0000 0.56366  0.16019  0.21895  Biso   1.000  O
  H19      1.0000 0.61757  0.26340  0.12919  Biso   1.000  H
  H20      1.0000 0.56940  0.32632  0.07799  Biso   1.000  H
  N8       1.0000 0.60328  0.24444  0.00073  Biso   1.000  N
  H21      1.0000 0.61763  0.26340  0.12919  Biso   1.000  H
  N9       1.0000 0.60334  0.24444  0.00073  Biso   1.000  N
  H22      1.0000 0.61757  0.26345  0.12919  Biso   1.000  H
  H23      1.0000 0.61763  0.26345  0.12919  Biso   1.000  H
  O3       1.0000 0.29591  0.17105  0.94069  Biso   1.000  O
  H24      1.0000 0.38231  0.26340  0.87074  Biso   1.000  H
  H25      1.0000 0.43054  0.32632  0.92194  Biso   1.000  H
  N10      1.0000 0.49457  0.23805  0.88896  Biso   1.000  N
  H26      1.0000 0.38236  0.26340  0.87074  Biso   1.000  H
  N11      1.0000 0.49458  0.23805  0.88903  Biso   1.000  N
  H27      1.0000 0.38231  0.26345  0.87074  Biso   1.000  H
  N12      1.0000 0.49457  0.23810  0.88896  Biso   1.000  N
  H28      1.0000 0.38236  0.26345  0.87074  Biso   1.000  H
  N13      1.0000 0.49458  0.23810  0.88903  Biso   1.000  N
  H29      1.0000 0.23647  0.16551  0.16642  Biso   1.000  H
  H30      1.0000 0.22242  0.13388  0.06981  Biso   1.000  H
  N14      1.0000 0.27802  0.06252  0.15160  Biso   1.000  N
  H31      1.0000 0.23653  0.16551  0.16642  Biso   1.000  H
  N15      1.0000 0.27808  0.06252  0.15166  Biso   1.000  N
  H32      1.0000 0.22242  0.13393  0.06981  Biso   1.000  H
  H33      1.0000 0.37471  0.16590  0.31470  Biso   1.000  H
  H34      1.0000 0.45920  0.13308  0.32261  Biso   1.000  H
  N16      1.0000 0.38283  0.06349  0.26536  Biso   1.000  N
  N17      1.0000 0.38289  0.06349  0.26543  Biso   1.000  N
  H35      1.0000 0.45920  0.13314  0.32261  Biso   1.000  H
  C28      1.0000 0.66480  0.19516  0.99555  Biso   1.000  C
  C29      1.0000 0.57173  0.26775  0.91263  Biso   1.000  C
  C30      1.0000 0.66486  0.19516  0.99561  Biso   1.000  C
  C31      1.0000 0.57179  0.26775  0.91263  Biso   1.000  C
  C32      1.0000 0.57173  0.26781  0.91263  Biso   1.000  C
  C33      1.0000 0.57179  0.26781  0.91263  Biso   1.000  C
  C34      1.0000 0.49425  0.18922  0.81782  Biso   1.000  C
  C35      1.0000 0.26289  0.00000  0.10013  Biso   1.000  C
  C36      1.0000 0.30210  0.04397  0.24342  Biso   1.000  C
  C37      1.0000 0.30211  0.04397  0.24349  Biso   1.000  C
  C38      1.0000 0.42887  0.00000  0.27573  Biso   1.000  C
  C39      1.0000 0.42888  0.00000  0.27580  Biso   1.000  C
  O4       1.0000 0.70403  0.17105  0.05924  Biso   1.000  O
  O5       1.0000 0.70403  0.17105  0.05931  Biso   1.000  O
  N18      1.0000 0.67468  0.17982  0.90778  Biso   1.000  N
  C40      1.0000 0.62291  0.22498  0.84854  Biso   1.000  C
  C41      1.0000 0.58851  0.35020  0.90485  Biso   1.000  C
  C42      1.0000 0.62292  0.22498  0.84860  Biso   1.000  C
  C43      1.0000 0.58851  0.35025  0.90485  Biso   1.000  C
  N19      1.0000 0.56814  0.17937  0.79534  Biso   1.000  N
  O6       1.0000 0.43629  0.16019  0.78105  Biso   1.000  O
  N20      1.0000 0.56820  0.17937  0.79534  Biso   1.000  N
  O7       1.0000 0.23866  0.00000  0.02287  Biso   1.000  O
  O8       1.0000 0.23872  0.00000  0.02294  Biso   1.000  O
  N21      1.0000 0.27802  0.93748  0.15160  Biso   1.000  N
  N22      1.0000 0.27808  0.93748  0.15166  Biso   1.000  N
  C44      1.0000 0.25164  0.06496  0.31516  Biso   1.000  C
  C45      1.0000 0.25170  0.06496  0.31516  Biso   1.000  C
  C46      1.0000 0.30210  0.95603  0.24342  Biso   1.000  C
  C47      1.0000 0.30211  0.95603  0.24349  Biso   1.000  C
  C48      1.0000 0.30210  0.95609  0.24342  Biso   1.000  C
  C49      1.0000 0.30211  0.95609  0.24349  Biso   1.000  C
  O9       1.0000 0.49925  0.00000  0.29375  Biso   1.000  O
  N23      1.0000 0.38283  0.93651  0.26536  Biso   1.000  N
  N24      1.0000 0.38289  0.93651  0.26543  Biso   1.000  N
  N25      1.0000 0.38283  0.93657  0.26536  Biso   1.000  N
  N26      1.0000 0.38289  0.93657  0.26543  Biso   1.000  N
  C50      1.0000 0.73950  0.13761  0.88025  Biso   1.000  C
  C51      1.0000 0.73957  0.13761  0.88032  Biso   1.000  C
  C52      1.0000 0.66156  0.27873  0.78890  Biso   1.000  C
  C53      1.0000 0.66162  0.27873  0.78896  Biso   1.000  C
  C54      1.0000 0.66156  0.27879  0.78890  Biso   1.000  C
  C55      1.0000 0.66162  0.27879  0.78896  Biso   1.000  C
  H36      1.0000 0.64201  0.35953  0.92274  Biso   1.000  H
  H37      1.0000 0.57862  0.36598  0.84435  Biso   1.000  H
  H38      1.0000 0.55575  0.37820  0.94255  Biso   1.000  H
  H39      1.0000 0.64207  0.35953  0.92274  Biso   1.000  H
  H40      1.0000 0.57862  0.36604  0.84435  Biso   1.000  H
  C56      1.0000 0.58716  0.13738  0.71649  Biso   1.000  C
  C57      1.0000 0.58716  0.13744  0.71649  Biso   1.000  C
  C58      1.0000 0.26038  0.86239  0.11968  Biso   1.000  C
  C59      1.0000 0.26043  0.86239  0.11968  Biso   1.000  C
  H41      1.0000 0.19896  0.05109  0.29847  Biso   1.000  H
  H42      1.0000 0.26850  0.03882  0.36869  Biso   1.000  H
  H43      1.0000 0.25468  0.11849  0.32500  Biso   1.000  H
  H44      1.0000 0.19902  0.05109  0.29854  Biso   1.000  H
  H45      1.0000 0.25474  0.11849  0.32500  Biso   1.000  H
  H46      1.0000 0.19896  0.05115  0.29847  Biso   1.000  H
  H47      1.0000 0.25468  0.11854  0.32500  Biso   1.000  H
  H48      1.0000 0.19902  0.05115  0.29854  Biso   1.000  H
  H49      1.0000 0.25474  0.11854  0.32500  Biso   1.000  H
  C60      1.0000 0.25164  0.93504  0.31516  Biso   1.000  C
  C61      1.0000 0.25170  0.93504  0.31516  Biso   1.000  C
  C62      1.0000 0.25164  0.93510  0.31516  Biso   1.000  C
  C63      1.0000 0.25170  0.93510  0.31516  Biso   1.000  C
  C64      1.0000 0.41278  0.86262  0.28345  Biso   1.000  C
  H50      1.0000 0.76341  0.16551  0.83351  Biso   1.000  H
  H51      1.0000 0.77752  0.13388  0.93012  Biso   1.000  H
  N27      1.0000 0.72186  0.06252  0.84834  Biso   1.000  N
  H52      1.0000 0.76347  0.16551  0.83358  Biso   1.000  H
  H53      1.0000 0.77753  0.13388  0.93019  Biso   1.000  H
  N28      1.0000 0.72192  0.06252  0.84834  Biso   1.000  N
  H54      1.0000 0.77752  0.13393  0.93012  Biso   1.000  H
  H55      1.0000 0.77753  0.13393  0.93019  Biso   1.000  H
  H56      1.0000 0.69801  0.30929  0.82354  Biso   1.000  H
  H57      1.0000 0.68841  0.25078  0.74541  Biso   1.000  H
  H58      1.0000 0.62315  0.31070  0.75944  Biso   1.000  H
  H59      1.0000 0.69807  0.30929  0.82354  Biso   1.000  H
  H60      1.0000 0.68847  0.25078  0.74548  Biso   1.000  H
  H61      1.0000 0.69801  0.30934  0.82354  Biso   1.000  H
  H62      1.0000 0.68841  0.25083  0.74541  Biso   1.000  H
  H63      1.0000 0.62315  0.31076  0.75944  Biso   1.000  H
  H64      1.0000 0.69807  0.30934  0.82354  Biso   1.000  H
  H65      1.0000 0.68847  0.25083  0.74548  Biso   1.000  H
  H66      1.0000 0.62523  0.16590  0.68524  Biso   1.000  H
  H67      1.0000 0.54074  0.13308  0.67733  Biso   1.000  H
  N29      1.0000 0.61705  0.06349  0.73457  Biso   1.000  N
  H68      1.0000 0.62524  0.16590  0.68530  Biso   1.000  H
  H69      1.0000 0.54074  0.13308  0.67739  Biso   1.000  H
  N30      1.0000 0.61711  0.06349  0.73457  Biso   1.000  N
  H70      1.0000 0.54074  0.13314  0.67733  Biso   1.000  H
  H71      1.0000 0.54074  0.13314  0.67739  Biso   1.000  H
  H72      1.0000 0.23647  0.83449  0.16642  Biso   1.000  H
  H73      1.0000 0.22242  0.86612  0.06981  Biso   1.000  H
  N31      1.0000 0.32526  0.82018  0.09215  Biso   1.000  N
  H74      1.0000 0.23653  0.83449  0.16642  Biso   1.000  H
  N32      1.0000 0.32526  0.82023  0.09215  Biso   1.000  N
  H75      1.0000 0.19896  0.94891  0.29847  Biso   1.000  H
  H76      1.0000 0.26850  0.96118  0.36869  Biso   1.000  H
  H77      1.0000 0.25468  0.88151  0.32500  Biso   1.000  H
  H78      1.0000 0.19902  0.94891  0.29854  Biso   1.000  H
  H79      1.0000 0.25474  0.88151  0.32500  Biso   1.000  H
  H80      1.0000 0.26850  0.96124  0.36869  Biso   1.000  H
  H81      1.0000 0.37471  0.83410  0.31470  Biso   1.000  H
  H82      1.0000 0.45920  0.86692  0.32261  Biso   1.000  H
  N33      1.0000 0.43174  0.82063  0.20459  Biso   1.000  N
  N34      1.0000 0.43180  0.82063  0.20459  Biso   1.000  N
  C65      1.0000 0.73705  0.00000  0.89980  Biso   1.000  C
  C66      1.0000 0.73705  0.00000  0.89987  Biso   1.000  C
  C67      1.0000 0.69784  0.04397  0.75651  Biso   1.000  C
  C68      1.0000 0.57107  0.00000  0.72420  Biso   1.000  C
  C69      1.0000 0.33508  0.80484  0.00439  Biso   1.000  C
  C70      1.0000 0.37702  0.77502  0.15140  Biso   1.000  C
  C71      1.0000 0.33514  0.80484  0.00439  Biso   1.000  C
  C72      1.0000 0.33508  0.80490  0.00439  Biso   1.000  C
  C73      1.0000 0.33514  0.80490  0.00439  Biso   1.000  C
  C74      1.0000 0.50569  0.81078  0.18212  Biso   1.000  C
  C75      1.0000 0.50569  0.81078  0.18218  Biso   1.000  C
  N35      1.0000 0.72186  0.93748  0.84834  Biso   1.000  N
  N36      1.0000 0.72192  0.93748  0.84834  Biso   1.000  N
  O10      1.0000 0.76122  0.00000  0.97706  Biso   1.000  O
  O11      1.0000 0.76128  0.00000  0.97706  Biso   1.000  O
  C76      1.0000 0.69784  0.95603  0.75651  Biso   1.000  C
  C77      1.0000 0.69784  0.95609  0.75651  Biso   1.000  C
  C78      1.0000 0.74824  0.06496  0.68477  Biso   1.000  C
  C79      1.0000 0.74824  0.06496  0.68484  Biso   1.000  C
  N37      1.0000 0.61705  0.93651  0.73457  Biso   1.000  N
  N38      1.0000 0.61711  0.93651  0.73457  Biso   1.000  N
  N39      1.0000 0.61705  0.93657  0.73457  Biso   1.000  N
  O12      1.0000 0.50069  0.00000  0.70618  Biso   1.000  O
  N40      1.0000 0.61711  0.93657  0.73457  Biso   1.000  N
  O13      1.0000 0.50069  0.00000  0.70625  Biso   1.000  O
  N41      1.0000 0.39660  0.75556  0.99920  Biso   1.000  N
  O14      1.0000 0.29591  0.82895  0.94069  Biso   1.000  O
  N42      1.0000 0.39666  0.75556  0.99927  Biso   1.000  N
  N43      1.0000 0.39660  0.75562  0.99920  Biso   1.000  N
  N44      1.0000 0.39666  0.75562  0.99927  Biso   1.000  N
  C80      1.0000 0.42815  0.73225  0.08730  Biso   1.000  C
  C81      1.0000 0.33832  0.72127  0.21104  Biso   1.000  C
  C82      1.0000 0.42821  0.73225  0.08737  Biso   1.000  C
  C83      1.0000 0.33838  0.72127  0.21104  Biso   1.000  C
  N45      1.0000 0.50536  0.76195  0.11097  Biso   1.000  N
  O15      1.0000 0.56365  0.83981  0.21888  Biso   1.000  O
  O16      1.0000 0.56366  0.83981  0.21895  Biso   1.000  O
  O17      1.0000 0.56365  0.83987  0.21888  Biso   1.000  O
  O18      1.0000 0.56366  0.83987  0.21895  Biso   1.000  O
  C84      1.0000 0.73950  0.86239  0.88025  Biso   1.000  C
  C85      1.0000 0.73957  0.86239  0.88032  Biso   1.000  C
  C86      1.0000 0.74824  0.93504  0.68477  Biso   1.000  C
  C87      1.0000 0.74824  0.93504  0.68484  Biso   1.000  C
  C88      1.0000 0.74824  0.93510  0.68477  Biso   1.000  C
  C89      1.0000 0.74824  0.93510  0.68484  Biso   1.000  C
  H83      1.0000 0.80092  0.05109  0.70146  Biso   1.000  H
  H84      1.0000 0.73144  0.03882  0.63125  Biso   1.000  H
  H85      1.0000 0.74520  0.11849  0.67493  Biso   1.000  H
  H86      1.0000 0.80098  0.05109  0.70146  Biso   1.000  H
  H87      1.0000 0.74526  0.11849  0.67500  Biso   1.000  H
  H88      1.0000 0.80092  0.05115  0.70146  Biso   1.000  H
  H89      1.0000 0.74520  0.11854  0.67493  Biso   1.000  H
  H90      1.0000 0.80098  0.05115  0.70146  Biso   1.000  H
  H91      1.0000 0.74526  0.11854  0.67500  Biso   1.000  H
  C90      1.0000 0.58716  0.86262  0.71649  Biso   1.000  C
  C91      1.0000 0.42293  0.72800  0.91689  Biso   1.000  C
  C92      1.0000 0.42293  0.72800  0.91695  Biso   1.000  C
  C93      1.0000 0.41142  0.64980  0.09508  Biso   1.000  C
  C94      1.0000 0.41143  0.64980  0.09515  Biso   1.000  C
  H92      1.0000 0.30187  0.69071  0.17640  Biso   1.000  H
  H93      1.0000 0.31147  0.74922  0.25452  Biso   1.000  H
  H94      1.0000 0.37678  0.68930  0.24049  Biso   1.000  H
  H95      1.0000 0.30192  0.69071  0.17640  Biso   1.000  H
  H96      1.0000 0.31153  0.74922  0.25452  Biso   1.000  H
  C95      1.0000 0.57701  0.72800  0.08305  Biso   1.000  C
  H97      1.0000 0.76341  0.83449  0.83351  Biso   1.000  H
  H98      1.0000 0.77752  0.86612  0.93012  Biso   1.000  H
  N46      1.0000 0.67468  0.82018  0.90778  Biso   1.000  N
  H99      1.0000 0.76347  0.83449  0.83358  Biso   1.000  H
  H100     1.0000 0.77753  0.86612  0.93019  Biso   1.000  H
  N47      1.0000 0.67468  0.82023  0.90778  Biso   1.000  N
  H101     1.0000 0.80092  0.94891  0.70146  Biso   1.000  H
  H102     1.0000 0.73144  0.96118  0.63125  Biso   1.000  H
  H103     1.0000 0.74520  0.88151  0.67493  Biso   1.000  H
  H104     1.0000 0.80098  0.94891  0.70146  Biso   1.000  H
  H105     1.0000 0.74526  0.88151  0.67500  Biso   1.000  H
  H106     1.0000 0.73144  0.96124  0.63125  Biso   1.000  H
  H107     1.0000 0.62523  0.83410  0.68524  Biso   1.000  H
  H108     1.0000 0.54074  0.86692  0.67733  Biso   1.000  H
  N48      1.0000 0.56814  0.82063  0.79534  Biso   1.000  N
  H109     1.0000 0.62524  0.83410  0.68530  Biso   1.000  H
  H110     1.0000 0.54074  0.86692  0.67739  Biso   1.000  H
  N49      1.0000 0.56820  0.82063  0.79534  Biso   1.000  N
  H111     1.0000 0.38231  0.73660  0.87074  Biso   1.000  H
  H112     1.0000 0.43054  0.67368  0.92194  Biso   1.000  H
  N50      1.0000 0.49457  0.76195  0.88896  Biso   1.000  N
  H113     1.0000 0.38236  0.73660  0.87074  Biso   1.000  H
  N51      1.0000 0.49458  0.76195  0.88903  Biso   1.000  N
  H114     1.0000 0.43054  0.67374  0.92194  Biso   1.000  H
  H115     1.0000 0.35787  0.64047  0.07719  Biso   1.000  H
  H116     1.0000 0.42131  0.63402  0.15559  Biso   1.000  H
  H117     1.0000 0.44419  0.62180  0.05738  Biso   1.000  H
  H118     1.0000 0.35793  0.64047  0.07719  Biso   1.000  H
  H119     1.0000 0.42132  0.63402  0.15565  Biso   1.000  H
  H120     1.0000 0.44419  0.62180  0.05745  Biso   1.000  H
  H121     1.0000 0.35787  0.64053  0.07719  Biso   1.000  H
  H122     1.0000 0.35793  0.64053  0.07719  Biso   1.000  H
  H123     1.0000 0.61757  0.73660  0.12919  Biso   1.000  H
  H124     1.0000 0.56940  0.67368  0.07799  Biso   1.000  H
  N52      1.0000 0.60328  0.75556  0.00073  Biso   1.000  N
  H125     1.0000 0.61763  0.73660  0.12919  Biso   1.000  H
  N53      1.0000 0.60334  0.75556  0.00073  Biso   1.000  N
  H126     1.0000 0.56940  0.67374  0.07799  Biso   1.000  H
  N54      1.0000 0.60328  0.75562  0.00073  Biso   1.000  N
  N55      1.0000 0.60334  0.75562  0.00073  Biso   1.000  N
  C96      1.0000 0.66480  0.80484  0.99555  Biso   1.000  C
  C97      1.0000 0.66486  0.80484  0.99561  Biso   1.000  C
  C98      1.0000 0.66480  0.80490  0.99555  Biso   1.000  C
  C99      1.0000 0.66486  0.80490  0.99561  Biso   1.000  C
  C100     1.0000 0.62291  0.77502  0.84854  Biso   1.000  C
  C101     1.0000 0.62292  0.77502  0.84860  Biso   1.000  C
  C102     1.0000 0.49425  0.81078  0.81782  Biso   1.000  C
  C103     1.0000 0.57173  0.73225  0.91263  Biso   1.000  C
  C104     1.0000 0.57179  0.73225  0.91263  Biso   1.000  C
  O19      1.0000 0.70403  0.82895  0.05924  Biso   1.000  O
  O20      1.0000 0.70403  0.82895  0.05931  Biso   1.000  O
  C105     1.0000 0.66156  0.72127  0.78890  Biso   1.000  C
  C106     1.0000 0.66162  0.72127  0.78896  Biso   1.000  C
  O21      1.0000 0.43629  0.83981  0.78105  Biso   1.000  O
  O22      1.0000 0.43629  0.83987  0.78105  Biso   1.000  O
  C107     1.0000 0.58851  0.64980  0.90485  Biso   1.000  C
  H127     1.0000 0.69801  0.69071  0.82354  Biso   1.000  H
  H128     1.0000 0.68841  0.74922  0.74541  Biso   1.000  H
  H129     1.0000 0.62315  0.68930  0.75944  Biso   1.000  H
  H130     1.0000 0.69807  0.69071  0.82354  Biso   1.000  H
  H131     1.0000 0.68847  0.74922  0.74548  Biso   1.000  H
  H132     1.0000 0.64201  0.64047  0.92274  Biso   1.000  H
  H133     1.0000 0.57862  0.63402  0.84435  Biso   1.000  H
  H134     1.0000 0.55575  0.62180  0.94255  Biso   1.000  H
  H135     1.0000 0.64207  0.64047  0.92274  Biso   1.000  H
  H136     1.0000 0.64201  0.64053  0.92274  Biso   1.000  H
  H137     1.0000 0.64207  0.64053  0.92274  Biso   1.000  H
  C108     1.0000 0.41142  0.35020  0.09508  Biso   1.000  C
  C109     1.0000 0.42815  0.26775  0.08730  Biso   1.000  C
  C110     1.0000 0.42821  0.26775  0.08737  Biso   1.000  C
  C111     1.0000 0.42815  0.26781  0.08730  Biso   1.000  C
  C112     1.0000 0.42821  0.26781  0.08737  Biso   1.000  C
  H138     1.0000 0.35787  0.35953  0.07719  Biso   1.000  H
  H139     1.0000 0.44419  0.37820  0.05738  Biso   1.000  H
  H140     1.0000 0.35793  0.35953  0.07719  Biso   1.000  H
  H141     1.0000 0.44419  0.37820  0.05745  Biso   1.000  H
  H142     1.0000 0.42131  0.36598  0.15559  Biso   1.000  H
  H143     1.0000 0.42132  0.36598  0.15565  Biso   1.000  H
  H144     1.0000 0.42131  0.36604  0.15559  Biso   1.000  H
  H145     1.0000 0.42132  0.36604  0.15565  Biso   1.000  H
  C113     1.0000 0.37702  0.22498  0.15140  Biso   1.000  C
  N56      1.0000 0.50536  0.23805  0.11097  Biso   1.000  N
  N57      1.0000 0.50536  0.23810  0.11097  Biso   1.000  N
  N58      1.0000 0.39660  0.24444  0.99920  Biso   1.000  N
  N59      1.0000 0.39666  0.24444  0.99927  Biso   1.000  N
  C114     1.0000 0.41143  0.35020  0.09515  Biso   1.000  C
  C115     1.0000 0.41142  0.35025  0.09508  Biso   1.000  C
  C116     1.0000 0.41143  0.35025  0.09515  Biso   1.000  C
  N60      1.0000 0.32526  0.17982  0.09215  Biso   1.000  N
  N61      1.0000 0.43174  0.17937  0.20459  Biso   1.000  N
  N62      1.0000 0.43180  0.17937  0.20459  Biso   1.000  N
  C117     1.0000 0.33832  0.27873  0.21104  Biso   1.000  C
  C118     1.0000 0.33838  0.27873  0.21104  Biso   1.000  C
  C119     1.0000 0.33832  0.27879  0.21104  Biso   1.000  C
  C120     1.0000 0.33838  0.27879  0.21104  Biso   1.000  C
  C121     1.0000 0.50569  0.18922  0.18212  Biso   1.000  C
  C122     1.0000 0.50569  0.18922  0.18218  Biso   1.000  C
  C123     1.0000 0.57701  0.27200  0.08305  Biso   1.000  C
  C124     1.0000 0.57701  0.27205  0.08305  Biso   1.000  C
  C125     1.0000 0.33508  0.19516  0.00439  Biso   1.000  C
  C126     1.0000 0.33514  0.19516  0.00439  Biso   1.000  C
  C127     1.0000 0.42293  0.27200  0.91689  Biso   1.000  C
  C128     1.0000 0.42293  0.27200  0.91695  Biso   1.000  C
  C129     1.0000 0.42293  0.27205  0.91689  Biso   1.000  C
  C130     1.0000 0.42293  0.27205  0.91695  Biso   1.000  C
  C131     1.0000 0.26038  0.13761  0.11968  Biso   1.000  C
  C132     1.0000 0.26043  0.13761  0.11968  Biso   1.000  C
  C133     1.0000 0.41278  0.13738  0.28345  Biso   1.000  C
  C134     1.0000 0.41278  0.13744  0.28345  Biso   1.000  C
  H146     1.0000 0.37678  0.31070  0.24049  Biso   1.000  H
  H147     1.0000 0.37678  0.31076  0.24049  Biso   1.000  H
  H148     1.0000 0.30187  0.30929  0.17640  Biso   1.000  H
  H149     1.0000 0.31147  0.25078  0.25452  Biso   1.000  H
  H150     1.0000 0.30192  0.30929  0.17640  Biso   1.000  H
  H151     1.0000 0.31153  0.25078  0.25452  Biso   1.000  H
  H152     1.0000 0.30187  0.30934  0.17640  Biso   1.000  H
  H153     1.0000 0.31147  0.25083  0.25452  Biso   1.000  H
  H154     1.0000 0.30192  0.30934  0.17640  Biso   1.000  H
  H155     1.0000 0.31153  0.25083  0.25452  Biso   1.000  H
  O23      1.0000 0.56365  0.16019  0.21888  Biso   1.000  O
  O24      1.0000 0.56366  0.16019  0.21895  Biso   1.000  O
  H156     1.0000 0.56940  0.32632  0.07799  Biso   1.000  H
  N63      1.0000 0.60328  0.24444  0.00073  Biso   1.000  N
  N64      1.0000 0.60334  0.24444  0.00073  Biso   1.000  N
  H157     1.0000 0.61757  0.26340  0.12919  Biso   1.000  H
  H158     1.0000 0.61763  0.26340  0.12919  Biso   1.000  H
  H159     1.0000 0.61757  0.26345  0.12919  Biso   1.000  H
  H160     1.0000 0.61763  0.26345  0.12919  Biso   1.000  H
  O25      1.0000 0.29591  0.17105  0.94069  Biso   1.000  O
  H161     1.0000 0.38231  0.26340  0.87074  Biso   1.000  H
  H162     1.0000 0.43054  0.32632  0.92194  Biso   1.000  H
  N65      1.0000 0.49457  0.23805  0.88896  Biso   1.000  N
  H163     1.0000 0.38236  0.26340  0.87074  Biso   1.000  H
  N66      1.0000 0.49458  0.23805  0.88903  Biso   1.000  N
  H164     1.0000 0.38231  0.26345  0.87074  Biso   1.000  H
  N67      1.0000 0.49457  0.23810  0.88896  Biso   1.000  N
  H165     1.0000 0.38236  0.26345  0.87074  Biso   1.000  H
  N68      1.0000 0.49458  0.23810  0.88903  Biso   1.000  N
  H166     1.0000 0.22242  0.13388  0.06981  Biso   1.000  H
  H167     1.0000 0.23647  0.16551  0.16642  Biso   1.000  H
  N69      1.0000 0.27802  0.06252  0.15160  Biso   1.000  N
  H168     1.0000 0.23653  0.16551  0.16642  Biso   1.000  H
  H169     1.0000 0.22242  0.13393  0.06981  Biso   1.000  H
  N70      1.0000 0.27808  0.06252  0.15166  Biso   1.000  N
  H170     1.0000 0.37471  0.16590  0.31470  Biso   1.000  H
  H171     1.0000 0.45920  0.13308  0.32261  Biso   1.000  H
  N71      1.0000 0.38283  0.06349  0.26536  Biso   1.000  N
  H172     1.0000 0.45920  0.13314  0.32261  Biso   1.000  H
  N72      1.0000 0.38289  0.06349  0.26543  Biso   1.000  N
  C135     1.0000 0.66480  0.19516  0.99555  Biso   1.000  C
  C136     1.0000 0.57173  0.26775  0.91263  Biso   1.000  C
  C137     1.0000 0.66486  0.19516  0.99561  Biso   1.000  C
  C138     1.0000 0.57179  0.26775  0.91263  Biso   1.000  C
  C139     1.0000 0.57173  0.26781  0.91263  Biso   1.000  C
  C140     1.0000 0.57179  0.26781  0.91263  Biso   1.000  C
  C141     1.0000 0.49425  0.18922  0.81782  Biso   1.000  C
  C142     1.0000 0.26289  0.00000  0.10013  Biso   1.000  C
  C143     1.0000 0.30210  0.04397  0.24342  Biso   1.000  C
  C144     1.0000 0.30211  0.04397  0.24349  Biso   1.000  C
  C145     1.0000 0.42887  0.00000  0.27573  Biso   1.000  C
  C146     1.0000 0.42888  0.00000  0.27580  Biso   1.000  C
  O26      1.0000 0.70403  0.17105  0.05924  Biso   1.000  O
  O27      1.0000 0.70403  0.17105  0.05931  Biso   1.000  O
  N73      1.0000 0.67468  0.17982  0.90778  Biso   1.000  N
  C147     1.0000 0.62291  0.22498  0.84854  Biso   1.000  C
  C148     1.0000 0.58851  0.35020  0.90485  Biso   1.000  C
  C149     1.0000 0.62292  0.22498  0.84860  Biso   1.000  C
  C150     1.0000 0.58851  0.35025  0.90485  Biso   1.000  C
  N74      1.0000 0.56814  0.17937  0.79534  Biso   1.000  N
  O28      1.0000 0.43629  0.16019  0.78105  Biso   1.000  O
  N75      1.0000 0.56820  0.17937  0.79534  Biso   1.000  N
  N76      1.0000 0.27802  0.93748  0.15160  Biso   1.000  N
  N77      1.0000 0.27808  0.93748  0.15166  Biso   1.000  N
  O29      1.0000 0.23866  0.00000  0.02287  Biso   1.000  O
  O30      1.0000 0.23872  0.00000  0.02294  Biso   1.000  O
  C151     1.0000 0.25164  0.06496  0.31516  Biso   1.000  C
  C152     1.0000 0.25170  0.06496  0.31516  Biso   1.000  C
  C153     1.0000 0.30210  0.95603  0.24342  Biso   1.000  C
  C154     1.0000 0.30211  0.95603  0.24349  Biso   1.000  C
  C155     1.0000 0.30210  0.95609  0.24342  Biso   1.000  C
  C156     1.0000 0.30211  0.95609  0.24349  Biso   1.000  C
  O31      1.0000 0.49925  0.00000  0.29375  Biso   1.000  O
  N78      1.0000 0.38283  0.93651  0.26536  Biso   1.000  N
  N79      1.0000 0.38289  0.93651  0.26543  Biso   1.000  N
  N80      1.0000 0.38283  0.93657  0.26536  Biso   1.000  N
  N81      1.0000 0.38289  0.93657  0.26543  Biso   1.000  N
  C157     1.0000 0.73950  0.13761  0.88025  Biso   1.000  C
  C158     1.0000 0.73957  0.13761  0.88032  Biso   1.000  C
  C159     1.0000 0.66156  0.27873  0.78890  Biso   1.000  C
  C160     1.0000 0.66162  0.27873  0.78896  Biso   1.000  C
  C161     1.0000 0.66156  0.27879  0.78890  Biso   1.000  C
  C162     1.0000 0.66162  0.27879  0.78896  Biso   1.000  C
  H173     1.0000 0.64201  0.35953  0.92274  Biso   1.000  H
  H174     1.0000 0.57862  0.36598  0.84435  Biso   1.000  H
  H175     1.0000 0.55575  0.37820  0.94255  Biso   1.000  H
  H176     1.0000 0.64207  0.35953  0.92274  Biso   1.000  H
  H177     1.0000 0.57862  0.36604  0.84435  Biso   1.000  H
  C163     1.0000 0.58716  0.13738  0.71649  Biso   1.000  C
  C164     1.0000 0.58716  0.13744  0.71649  Biso   1.000  C
  C165     1.0000 0.26038  0.86239  0.11968  Biso   1.000  C
  C166     1.0000 0.26043  0.86239  0.11968  Biso   1.000  C
  H178     1.0000 0.26850  0.03882  0.36869  Biso   1.000  H
  H179     1.0000 0.19896  0.05109  0.29847  Biso   1.000  H
  H180     1.0000 0.25468  0.11849  0.32500  Biso   1.000  H
  H181     1.0000 0.19902  0.05109  0.29854  Biso   1.000  H
  H182     1.0000 0.25474  0.11849  0.32500  Biso   1.000  H
  H183     1.0000 0.19896  0.05115  0.29847  Biso   1.000  H
  H184     1.0000 0.25468  0.11854  0.32500  Biso   1.000  H
  H185     1.0000 0.19902  0.05115  0.29854  Biso   1.000  H
  H186     1.0000 0.25474  0.11854  0.32500  Biso   1.000  H
  C167     1.0000 0.25164  0.93504  0.31516  Biso   1.000  C
  C168     1.0000 0.25170  0.93504  0.31516  Biso   1.000  C
  C169     1.0000 0.25164  0.93510  0.31516  Biso   1.000  C
  C170     1.0000 0.25170  0.93510  0.31516  Biso   1.000  C
  C171     1.0000 0.41278  0.86262  0.28345  Biso   1.000  C
  H187     1.0000 0.76341  0.16551  0.83351  Biso   1.000  H
  H188     1.0000 0.77752  0.13388  0.93012  Biso   1.000  H
  N82      1.0000 0.72186  0.06252  0.84834  Biso   1.000  N
  H189     1.0000 0.76347  0.16551  0.83358  Biso   1.000  H
  H190     1.0000 0.77753  0.13388  0.93019  Biso   1.000  H
  N83      1.0000 0.72192  0.06252  0.84834  Biso   1.000  N
  H191     1.0000 0.77752  0.13393  0.93012  Biso   1.000  H
  H192     1.0000 0.77753  0.13393  0.93019  Biso   1.000  H
  H193     1.0000 0.69801  0.30929  0.82354  Biso   1.000  H
  H194     1.0000 0.68841  0.25078  0.74541  Biso   1.000  H
  H195     1.0000 0.62315  0.31070  0.75944  Biso   1.000  H
  H196     1.0000 0.69807  0.30929  0.82354  Biso   1.000  H
  H197     1.0000 0.68847  0.25078  0.74548  Biso   1.000  H
  H198     1.0000 0.69801  0.30934  0.82354  Biso   1.000  H
  H199     1.0000 0.68841  0.25083  0.74541  Biso   1.000  H
  H200     1.0000 0.62315  0.31076  0.75944  Biso   1.000  H
  H201     1.0000 0.69807  0.30934  0.82354  Biso   1.000  H
  H202     1.0000 0.68847  0.25083  0.74548  Biso   1.000  H
  H203     1.0000 0.62523  0.16590  0.68524  Biso   1.000  H
  H204     1.0000 0.54074  0.13308  0.67733  Biso   1.000  H
  N84      1.0000 0.61705  0.06349  0.73457  Biso   1.000  N
  H205     1.0000 0.62524  0.16590  0.68530  Biso   1.000  H
  H206     1.0000 0.54074  0.13308  0.67739  Biso   1.000  H
  N85      1.0000 0.61711  0.06349  0.73457  Biso   1.000  N
  H207     1.0000 0.54074  0.13314  0.67733  Biso   1.000  H
  H208     1.0000 0.54074  0.13314  0.67739  Biso   1.000  H
  H209     1.0000 0.23647  0.83449  0.16642  Biso   1.000  H
  H210     1.0000 0.22242  0.86612  0.06981  Biso   1.000  H
  N86      1.0000 0.32526  0.82018  0.09215  Biso   1.000  N
  H211     1.0000 0.23653  0.83449  0.16642  Biso   1.000  H
  N87      1.0000 0.32526  0.82023  0.09215  Biso   1.000  N
  H212     1.0000 0.19896  0.94891  0.29847  Biso   1.000  H
  H213     1.0000 0.26850  0.96118  0.36869  Biso   1.000  H
  H214     1.0000 0.25468  0.88151  0.32500  Biso   1.000  H
  H215     1.0000 0.19902  0.94891  0.29854  Biso   1.000  H
  H216     1.0000 0.25474  0.88151  0.32500  Biso   1.000  H
  H217     1.0000 0.26850  0.96124  0.36869  Biso   1.000  H
  H218     1.0000 0.37471  0.83410  0.31470  Biso   1.000  H
  H219     1.0000 0.45920  0.86692  0.32261  Biso   1.000  H
  N88      1.0000 0.43174  0.82063  0.20459  Biso   1.000  N
  N89      1.0000 0.43180  0.82063  0.20459  Biso   1.000  N
  C172     1.0000 0.73705  0.00000  0.89980  Biso   1.000  C
  C173     1.0000 0.73705  0.00000  0.89987  Biso   1.000  C
  C174     1.0000 0.69784  0.04397  0.75651  Biso   1.000  C
  C175     1.0000 0.57107  0.00000  0.72420  Biso   1.000  C
  C176     1.0000 0.33508  0.80484  0.00439  Biso   1.000  C
  C177     1.0000 0.37702  0.77502  0.15140  Biso   1.000  C
  C178     1.0000 0.33514  0.80484  0.00439  Biso   1.000  C
  C179     1.0000 0.33508  0.80490  0.00439  Biso   1.000  C
  C180     1.0000 0.33514  0.80490  0.00439  Biso   1.000  C
  C181     1.0000 0.50569  0.81078  0.18212  Biso   1.000  C
  C182     1.0000 0.50569  0.81078  0.18218  Biso   1.000  C
  N90      1.0000 0.72186  0.93748  0.84834  Biso   1.000  N
  N91      1.0000 0.72192  0.93748  0.84834  Biso   1.000  N
  O32      1.0000 0.76122  0.00000  0.97706  Biso   1.000  O
  O33      1.0000 0.76128  0.00000  0.97706  Biso   1.000  O
  C183     1.0000 0.69784  0.95603  0.75651  Biso   1.000  C
  C184     1.0000 0.69784  0.95609  0.75651  Biso   1.000  C
  C185     1.0000 0.74824  0.06496  0.68477  Biso   1.000  C
  C186     1.0000 0.74824  0.06496  0.68484  Biso   1.000  C
  N92      1.0000 0.61705  0.93651  0.73457  Biso   1.000  N
  N93      1.0000 0.61711  0.93651  0.73457  Biso   1.000  N
  N94      1.0000 0.61705  0.93657  0.73457  Biso   1.000  N
  O34      1.0000 0.50069  0.00000  0.70618  Biso   1.000  O
  N95      1.0000 0.61711  0.93657  0.73457  Biso   1.000  N
  O35      1.0000 0.50069  0.00000  0.70625  Biso   1.000  O
  N96      1.0000 0.39660  0.75556  0.99920  Biso   1.000  N
  O36      1.0000 0.29591  0.82895  0.94069  Biso   1.000  O
  N97      1.0000 0.39666  0.75556  0.99927  Biso   1.000  N
  N98      1.0000 0.39660  0.75562  0.99920  Biso   1.000  N
  N99      1.0000 0.39666  0.75562  0.99927  Biso   1.000  N
  C187     1.0000 0.42815  0.73225  0.08730  Biso   1.000  C
  C188     1.0000 0.33832  0.72127  0.21104  Biso   1.000  C
  C189     1.0000 0.42821  0.73225  0.08737  Biso   1.000  C
  C190     1.0000 0.33838  0.72127  0.21104  Biso   1.000  C
  N100     1.0000 0.50536  0.76195  0.11097  Biso   1.000  N
  O37      1.0000 0.56365  0.83981  0.21888  Biso   1.000  O
  O38      1.0000 0.56366  0.83981  0.21895  Biso   1.000  O
  O39      1.0000 0.56365  0.83987  0.21888  Biso   1.000  O
  O40      1.0000 0.56366  0.83987  0.21895  Biso   1.000  O
  C191     1.0000 0.73950  0.86239  0.88025  Biso   1.000  C
  C192     1.0000 0.73957  0.86239  0.88032  Biso   1.000  C
  C193     1.0000 0.74824  0.93504  0.68477  Biso   1.000  C
  C194     1.0000 0.74824  0.93504  0.68484  Biso   1.000  C
  C195     1.0000 0.74824  0.93510  0.68477  Biso   1.000  C
  C196     1.0000 0.74824  0.93510  0.68484  Biso   1.000  C
  H220     1.0000 0.80092  0.05109  0.70146  Biso   1.000  H
  H221     1.0000 0.73144  0.03882  0.63125  Biso   1.000  H
  H222     1.0000 0.74520  0.11849  0.67493  Biso   1.000  H
  H223     1.0000 0.80098  0.05109  0.70146  Biso   1.000  H
  H224     1.0000 0.74526  0.11849  0.67500  Biso   1.000  H
  H225     1.0000 0.80092  0.05115  0.70146  Biso   1.000  H
  H226     1.0000 0.74520  0.11854  0.67493  Biso   1.000  H
  H227     1.0000 0.80098  0.05115  0.70146  Biso   1.000  H
  H228     1.0000 0.74526  0.11854  0.67500  Biso   1.000  H
  C197     1.0000 0.58716  0.86262  0.71649  Biso   1.000  C
  C198     1.0000 0.42293  0.72800  0.91689  Biso   1.000  C
  C199     1.0000 0.42293  0.72800  0.91695  Biso   1.000  C
  C200     1.0000 0.41142  0.64980  0.09508  Biso   1.000  C
  C201     1.0000 0.41143  0.64980  0.09515  Biso   1.000  C
  H229     1.0000 0.30187  0.69071  0.17640  Biso   1.000  H
  H230     1.0000 0.31147  0.74922  0.25452  Biso   1.000  H
  H231     1.0000 0.37678  0.68930  0.24049  Biso   1.000  H
  H232     1.0000 0.30192  0.69071  0.17640  Biso   1.000  H
  H233     1.0000 0.31153  0.74922  0.25452  Biso   1.000  H
  C202     1.0000 0.57701  0.72800  0.08305  Biso   1.000  C
  H234     1.0000 0.76341  0.83449  0.83351  Biso   1.000  H
  H235     1.0000 0.77752  0.86612  0.93012  Biso   1.000  H
  N101     1.0000 0.67468  0.82018  0.90778  Biso   1.000  N
  H236     1.0000 0.76347  0.83449  0.83358  Biso   1.000  H
  H237     1.0000 0.77753  0.86612  0.93019  Biso   1.000  H
  N102     1.0000 0.67468  0.82023  0.90778  Biso   1.000  N
  H238     1.0000 0.80092  0.94891  0.70146  Biso   1.000  H
  H239     1.0000 0.73144  0.96118  0.63125  Biso   1.000  H
  H240     1.0000 0.74520  0.88151  0.67493  Biso   1.000  H
  H241     1.0000 0.80098  0.94891  0.70146  Biso   1.000  H
  H242     1.0000 0.74526  0.88151  0.67500  Biso   1.000  H
  H243     1.0000 0.73144  0.96124  0.63125  Biso   1.000  H
  H244     1.0000 0.62523  0.83410  0.68524  Biso   1.000  H
  H245     1.0000 0.54074  0.86692  0.67733  Biso   1.000  H
  N103     1.0000 0.56814  0.82063  0.79534  Biso   1.000  N
  H246     1.0000 0.62524  0.83410  0.68530  Biso   1.000  H
  H247     1.0000 0.54074  0.86692  0.67739  Biso   1.000  H
  N104     1.0000 0.56820  0.82063  0.79534  Biso   1.000  N
  H248     1.0000 0.38231  0.73660  0.87074  Biso   1.000  H
  H249     1.0000 0.43054  0.67368  0.92194  Biso   1.000  H
  N105     1.0000 0.49457  0.76195  0.88896  Biso   1.000  N
  H250     1.0000 0.38236  0.73660  0.87074  Biso   1.000  H
  N106     1.0000 0.49458  0.76195  0.88903  Biso   1.000  N
  H251     1.0000 0.43054  0.67374  0.92194  Biso   1.000  H
  H252     1.0000 0.35787  0.64047  0.07719  Biso   1.000  H
  H253     1.0000 0.42131  0.63402  0.15559  Biso   1.000  H
  H254     1.0000 0.44419  0.62180  0.05738  Biso   1.000  H
  H255     1.0000 0.35793  0.64047  0.07719  Biso   1.000  H
  H256     1.0000 0.42132  0.63402  0.15565  Biso   1.000  H
  H257     1.0000 0.44419  0.62180  0.05745  Biso   1.000  H
  H258     1.0000 0.35787  0.64053  0.07719  Biso   1.000  H
  H259     1.0000 0.35793  0.64053  0.07719  Biso   1.000  H
  H260     1.0000 0.61757  0.73660  0.12919  Biso   1.000  H
  H261     1.0000 0.56940  0.67368  0.07799  Biso   1.000  H
  N107     1.0000 0.60328  0.75556  0.00073  Biso   1.000  N
  H262     1.0000 0.61763  0.73660  0.12919  Biso   1.000  H
  N108     1.0000 0.60334  0.75556  0.00073  Biso   1.000  N
  H263     1.0000 0.56940  0.67374  0.07799  Biso   1.000  H
  N109     1.0000 0.60328  0.75562  0.00073  Biso   1.000  N
  N110     1.0000 0.60334  0.75562  0.00073  Biso   1.000  N
  C203     1.0000 0.66480  0.80484  0.99555  Biso   1.000  C
  C204     1.0000 0.66486  0.80484  0.99561  Biso   1.000  C
  C205     1.0000 0.66480  0.80490  0.99555  Biso   1.000  C
  C206     1.0000 0.66486  0.80490  0.99561  Biso   1.000  C
  C207     1.0000 0.62291  0.77502  0.84854  Biso   1.000  C
  C208     1.0000 0.62292  0.77502  0.84860  Biso   1.000  C
  C209     1.0000 0.49425  0.81078  0.81782  Biso   1.000  C
  C210     1.0000 0.57173  0.73225  0.91263  Biso   1.000  C
  C211     1.0000 0.57179  0.73225  0.91263  Biso   1.000  C
  O41      1.0000 0.70403  0.82895  0.05924  Biso   1.000  O
  O42      1.0000 0.70403  0.82895  0.05931  Biso   1.000  O
  C212     1.0000 0.66156  0.72127  0.78890  Biso   1.000  C
  C213     1.0000 0.66162  0.72127  0.78896  Biso   1.000  C
  O43      1.0000 0.43629  0.83981  0.78105  Biso   1.000  O
  O44      1.0000 0.43629  0.83987  0.78105  Biso   1.000  O
  C214     1.0000 0.58851  0.64980  0.90485  Biso   1.000  C
  H264     1.0000 0.69801  0.69071  0.82354  Biso   1.000  H
  H265     1.0000 0.68841  0.74922  0.74541  Biso   1.000  H
  H266     1.0000 0.62315  0.68930  0.75944  Biso   1.000  H
  H267     1.0000 0.69807  0.69071  0.82354  Biso   1.000  H
  H268     1.0000 0.68847  0.74922  0.74548  Biso   1.000  H
  H269     1.0000 0.64201  0.64047  0.92274  Biso   1.000  H
  H270     1.0000 0.57862  0.63402  0.84435  Biso   1.000  H
  H271     1.0000 0.55575  0.62180  0.94255  Biso   1.000  H
  H272     1.0000 0.64207  0.64047  0.92274  Biso   1.000  H
  H273     1.0000 0.64201  0.64053  0.92274  Biso   1.000  H
  H274     1.0000 0.64207  0.64053  0.92274  Biso   1.000  H
  C215     1.0000 0.41142  0.35020  0.09508  Biso   1.000  C
  C216     1.0000 0.42815  0.26775  0.08730  Biso   1.000  C
  C217     1.0000 0.42821  0.26775  0.08737  Biso   1.000  C
  C218     1.0000 0.42815  0.26781  0.08730  Biso   1.000  C
  C219     1.0000 0.42821  0.26781  0.08737  Biso   1.000  C
  H275     1.0000 0.35787  0.35953  0.07719  Biso   1.000  H
  H276     1.0000 0.42131  0.36598  0.15559  Biso   1.000  H
  H277     1.0000 0.44419  0.37820  0.05738  Biso   1.000  H
  H278     1.0000 0.35793  0.35953  0.07719  Biso   1.000  H
  H279     1.0000 0.42132  0.36598  0.15565  Biso   1.000  H
  H280     1.0000 0.44419  0.37820  0.05745  Biso   1.000  H
  H281     1.0000 0.42131  0.36604  0.15559  Biso   1.000  H
  H282     1.0000 0.42132  0.36604  0.15565  Biso   1.000  H
  C220     1.0000 0.37702  0.22498  0.15140  Biso   1.000  C
  N111     1.0000 0.39660  0.24444  0.99920  Biso   1.000  N
  N112     1.0000 0.39666  0.24444  0.99927  Biso   1.000  N
  N113     1.0000 0.50536  0.23805  0.11097  Biso   1.000  N
  C221     1.0000 0.41143  0.35020  0.09515  Biso   1.000  C
  C222     1.0000 0.41142  0.35025  0.09508  Biso   1.000  C
  N114     1.0000 0.50536  0.23810  0.11097  Biso   1.000  N
  C223     1.0000 0.41143  0.35025  0.09515  Biso   1.000  C
  N115     1.0000 0.32526  0.17982  0.09215  Biso   1.000  N
  C224     1.0000 0.33832  0.27873  0.21104  Biso   1.000  C
  N116     1.0000 0.43174  0.17937  0.20459  Biso   1.000  N
  C225     1.0000 0.33838  0.27873  0.21104  Biso   1.000  C
  N117     1.0000 0.43180  0.17937  0.20459  Biso   1.000  N
  C226     1.0000 0.33832  0.27879  0.21104  Biso   1.000  C
  C227     1.0000 0.33838  0.27879  0.21104  Biso   1.000  C
  C228     1.0000 0.33508  0.19516  0.00439  Biso   1.000  C
  C229     1.0000 0.33514  0.19516  0.00439  Biso   1.000  C
  C230     1.0000 0.42293  0.27200  0.91689  Biso   1.000  C
  C231     1.0000 0.42293  0.27200  0.91695  Biso   1.000  C
  C232     1.0000 0.42293  0.27205  0.91689  Biso   1.000  C
  C233     1.0000 0.42293  0.27205  0.91695  Biso   1.000  C
  C234     1.0000 0.50569  0.18922  0.18212  Biso   1.000  C
  C235     1.0000 0.50569  0.18922  0.18218  Biso   1.000  C
  C236     1.0000 0.57701  0.27200  0.08305  Biso   1.000  C
  C237     1.0000 0.57701  0.27205  0.08305  Biso   1.000  C
  C238     1.0000 0.26038  0.13761  0.11968  Biso   1.000  C
  C239     1.0000 0.26043  0.13761  0.11968  Biso   1.000  C
  H283     1.0000 0.30187  0.30929  0.17640  Biso   1.000  H
  H284     1.0000 0.31147  0.25078  0.25452  Biso   1.000  H
  H285     1.0000 0.37678  0.31070  0.24049  Biso   1.000  H
  H286     1.0000 0.30192  0.30929  0.17640  Biso   1.000  H
  H287     1.0000 0.31153  0.25078  0.25452  Biso   1.000  H
  H288     1.0000 0.30187  0.30934  0.17640  Biso   1.000  H
  H289     1.0000 0.31147  0.25083  0.25452  Biso   1.000  H
  H290     1.0000 0.37678  0.31076  0.24049  Biso   1.000  H
  H291     1.0000 0.30192  0.30934  0.17640  Biso   1.000  H
  H292     1.0000 0.31153  0.25083  0.25452  Biso   1.000  H
  C240     1.0000 0.41278  0.13738  0.28345  Biso   1.000  C
  C241     1.0000 0.41278  0.13744  0.28345  Biso   1.000  C
  O45      1.0000 0.29591  0.17105  0.94069  Biso   1.000  O
  H293     1.0000 0.38231  0.26340  0.87074  Biso   1.000  H
  H294     1.0000 0.43054  0.32632  0.92194  Biso   1.000  H
  N118     1.0000 0.49457  0.23805  0.88896  Biso   1.000  N
  H295     1.0000 0.38236  0.26340  0.87074  Biso   1.000  H
  N119     1.0000 0.49458  0.23805  0.88903  Biso   1.000  N
  H296     1.0000 0.38231  0.26345  0.87074  Biso   1.000  H
  N120     1.0000 0.49457  0.23810  0.88896  Biso   1.000  N
  H297     1.0000 0.38236  0.26345  0.87074  Biso   1.000  H
  N121     1.0000 0.49458  0.23810  0.88903  Biso   1.000  N
  O46      1.0000 0.56365  0.16019  0.21888  Biso   1.000  O
  O47      1.0000 0.56366  0.16019  0.21895  Biso   1.000  O
  H298     1.0000 0.56940  0.32632  0.07799  Biso   1.000  H
  H299     1.0000 0.61757  0.26340  0.12919  Biso   1.000  H
  N122     1.0000 0.60328  0.24444  0.00073  Biso   1.000  N
  H300     1.0000 0.61763  0.26340  0.12919  Biso   1.000  H
  N123     1.0000 0.60334  0.24444  0.00073  Biso   1.000  N
  H301     1.0000 0.61757  0.26345  0.12919  Biso   1.000  H
  H302     1.0000 0.61763  0.26345  0.12919  Biso   1.000  H
  H303     1.0000 0.23647  0.16551  0.16642  Biso   1.000  H
  H304     1.0000 0.22242  0.13388  0.06981  Biso   1.000  H
  N124     1.0000 0.27802  0.06252  0.15160  Biso   1.000  N
  H305     1.0000 0.23653  0.16551  0.16642  Biso   1.000  H
  N125     1.0000 0.27808  0.06252  0.15166  Biso   1.000  N
  H306     1.0000 0.22242  0.13393  0.06981  Biso   1.000  H
  H307     1.0000 0.37471  0.16590  0.31470  Biso   1.000  H
  H308     1.0000 0.45920  0.13308  0.32261  Biso   1.000  H
  N126     1.0000 0.38283  0.06349  0.26536  Biso   1.000  N
  N127     1.0000 0.38289  0.06349  0.26543  Biso   1.000  N
  H309     1.0000 0.45920  0.13314  0.32261  Biso   1.000  H
  C242     1.0000 0.57173  0.26775  0.91263  Biso   1.000  C
  C243     1.0000 0.49425  0.18922  0.81782  Biso   1.000  C
  C244     1.0000 0.57179  0.26775  0.91263  Biso   1.000  C
  C245     1.0000 0.57173  0.26781  0.91263  Biso   1.000  C
  C246     1.0000 0.57179  0.26781  0.91263  Biso   1.000  C
  C247     1.0000 0.66480  0.19516  0.99555  Biso   1.000  C
  C248     1.0000 0.66486  0.19516  0.99561  Biso   1.000  C
  C249     1.0000 0.26289  0.00000  0.10013  Biso   1.000  C
  C250     1.0000 0.30210  0.04397  0.24342  Biso   1.000  C
  C251     1.0000 0.30211  0.04397  0.24349  Biso   1.000  C
  C252     1.0000 0.42887  0.00000  0.27573  Biso   1.000  C
  C253     1.0000 0.42888  0.00000  0.27580  Biso   1.000  C
  C254     1.0000 0.62291  0.22498  0.84854  Biso   1.000  C
  C255     1.0000 0.58851  0.35020  0.90485  Biso   1.000  C
  C256     1.0000 0.62292  0.22498  0.84860  Biso   1.000  C
  C257     1.0000 0.58851  0.35025  0.90485  Biso   1.000  C
  N128     1.0000 0.56814  0.17937  0.79534  Biso   1.000  N
  O48      1.0000 0.43629  0.16019  0.78105  Biso   1.000  O
  N129     1.0000 0.56820  0.17937  0.79534  Biso   1.000  N
  N130     1.0000 0.67468  0.17982  0.90778  Biso   1.000  N
  O49      1.0000 0.70403  0.17105  0.05924  Biso   1.000  O
  O50      1.0000 0.70403  0.17105  0.05931  Biso   1.000  O
  N131     1.0000 0.27802  0.93748  0.15160  Biso   1.000  N
  N132     1.0000 0.27808  0.93748  0.15166  Biso   1.000  N
  O51      1.0000 0.23866  0.00000  0.02287  Biso   1.000  O
  O52      1.0000 0.23872  0.00000  0.02294  Biso   1.000  O
  C258     1.0000 0.30210  0.95603  0.24342  Biso   1.000  C
  C259     1.0000 0.30211  0.95603  0.24349  Biso   1.000  C
  C260     1.0000 0.30210  0.95609  0.24342  Biso   1.000  C
  C261     1.0000 0.30211  0.95609  0.24349  Biso   1.000  C
  C262     1.0000 0.25164  0.06496  0.31516  Biso   1.000  C
  C263     1.0000 0.25170  0.06496  0.31516  Biso   1.000  C
  N133     1.0000 0.38283  0.93651  0.26536  Biso   1.000  N
  N134     1.0000 0.38289  0.93651  0.26543  Biso   1.000  N
  O53      1.0000 0.49925  0.00000  0.29375  Biso   1.000  O
  N135     1.0000 0.38283  0.93657  0.26536  Biso   1.000  N
  N136     1.0000 0.38289  0.93657  0.26543  Biso   1.000  N
  C264     1.0000 0.66156  0.27873  0.78890  Biso   1.000  C
  C265     1.0000 0.66162  0.27873  0.78896  Biso   1.000  C
  C266     1.0000 0.66156  0.27879  0.78890  Biso   1.000  C
  C267     1.0000 0.66162  0.27879  0.78896  Biso   1.000  C
  H310     1.0000 0.64201  0.35953  0.92274  Biso   1.000  H
  H311     1.0000 0.57862  0.36598  0.84435  Biso   1.000  H
  H312     1.0000 0.55575  0.37820  0.94255  Biso   1.000  H
  H313     1.0000 0.64207  0.35953  0.92274  Biso   1.000  H
  H314     1.0000 0.57862  0.36604  0.84435  Biso   1.000  H
  C268     1.0000 0.58716  0.13738  0.71649  Biso   1.000  C
  C269     1.0000 0.58716  0.13744  0.71649  Biso   1.000  C
  C270     1.0000 0.73950  0.13761  0.88025  Biso   1.000  C
  C271     1.0000 0.73957  0.13761  0.88032  Biso   1.000  C
  C272     1.0000 0.26038  0.86239  0.11968  Biso   1.000  C
  C273     1.0000 0.26043  0.86239  0.11968  Biso   1.000  C
  C274     1.0000 0.25164  0.93504  0.31516  Biso   1.000  C
  C275     1.0000 0.25170  0.93504  0.31516  Biso   1.000  C
  C276     1.0000 0.25164  0.93510  0.31516  Biso   1.000  C
  C277     1.0000 0.25170  0.93510  0.31516  Biso   1.000  C
  H315     1.0000 0.26850  0.03882  0.36869  Biso   1.000  H
  H316     1.0000 0.19896  0.05109  0.29847  Biso   1.000  H
  H317     1.0000 0.25468  0.11849  0.32500  Biso   1.000  H
  H318     1.0000 0.19902  0.05109  0.29854  Biso   1.000  H
  H319     1.0000 0.25474  0.11849  0.32500  Biso   1.000  H
  H320     1.0000 0.19896  0.05115  0.29847  Biso   1.000  H
  H321     1.0000 0.25468  0.11854  0.32500  Biso   1.000  H
  H322     1.0000 0.19902  0.05115  0.29854  Biso   1.000  H
  H323     1.0000 0.25474  0.11854  0.32500  Biso   1.000  H
  C278     1.0000 0.41278  0.86262  0.28345  Biso   1.000  C
  H324     1.0000 0.69801  0.30929  0.82354  Biso   1.000  H
  H325     1.0000 0.68841  0.25078  0.74541  Biso   1.000  H
  H326     1.0000 0.62315  0.31070  0.75944  Biso   1.000  H
  H327     1.0000 0.69807  0.30929  0.82354  Biso   1.000  H
  H328     1.0000 0.68847  0.25078  0.74548  Biso   1.000  H
  H329     1.0000 0.69801  0.30934  0.82354  Biso   1.000  H
  H330     1.0000 0.68841  0.25083  0.74541  Biso   1.000  H
  H331     1.0000 0.62315  0.31076  0.75944  Biso   1.000  H
  H332     1.0000 0.69807  0.30934  0.82354  Biso   1.000  H
  H333     1.0000 0.68847  0.25083  0.74548  Biso   1.000  H
  H334     1.0000 0.62523  0.16590  0.68524  Biso   1.000  H
  H335     1.0000 0.54074  0.13308  0.67733  Biso   1.000  H
  N137     1.0000 0.61705  0.06349  0.73457  Biso   1.000  N
  H336     1.0000 0.62524  0.16590  0.68530  Biso   1.000  H
  H337     1.0000 0.54074  0.13308  0.67739  Biso   1.000  H
  N138     1.0000 0.61711  0.06349  0.73457  Biso   1.000  N
  H338     1.0000 0.54074  0.13314  0.67733  Biso   1.000  H
  H339     1.0000 0.54074  0.13314  0.67739  Biso   1.000  H
  H340     1.0000 0.76341  0.16551  0.83351  Biso   1.000  H
  H341     1.0000 0.77752  0.13388  0.93012  Biso   1.000  H
  N139     1.0000 0.72186  0.06252  0.84834  Biso   1.000  N
  H342     1.0000 0.76347  0.16551  0.83358  Biso   1.000  H
  H343     1.0000 0.77753  0.13388  0.93019  Biso   1.000  H
  N140     1.0000 0.72192  0.06252  0.84834  Biso   1.000  N
  H344     1.0000 0.77752  0.13393  0.93012  Biso   1.000  H
  H345     1.0000 0.77753  0.13393  0.93019  Biso   1.000  H
  H346     1.0000 0.23647  0.83449  0.16642  Biso   1.000  H
  H347     1.0000 0.22242  0.86612  0.06981  Biso   1.000  H
  N141     1.0000 0.32526  0.82018  0.09215  Biso   1.000  N
  H348     1.0000 0.23653  0.83449  0.16642  Biso   1.000  H
  N142     1.0000 0.32526  0.82023  0.09215  Biso   1.000  N
  H349     1.0000 0.19896  0.94891  0.29847  Biso   1.000  H
  H350     1.0000 0.26850  0.96118  0.36869  Biso   1.000  H
  H351     1.0000 0.25468  0.88151  0.32500  Biso   1.000  H
  H352     1.0000 0.19902  0.94891  0.29854  Biso   1.000  H
  H353     1.0000 0.25474  0.88151  0.32500  Biso   1.000  H
  H354     1.0000 0.26850  0.96124  0.36869  Biso   1.000  H
  H355     1.0000 0.37471  0.83410  0.31470  Biso   1.000  H
  H356     1.0000 0.45920  0.86692  0.32261  Biso   1.000  H
  N143     1.0000 0.43174  0.82063  0.20459  Biso   1.000  N
  N144     1.0000 0.43180  0.82063  0.20459  Biso   1.000  N
  C279     1.0000 0.57107  0.00000  0.72420  Biso   1.000  C
  C280     1.0000 0.69784  0.04397  0.75651  Biso   1.000  C
  C281     1.0000 0.73705  0.00000  0.89980  Biso   1.000  C
  C282     1.0000 0.73705  0.00000  0.89987  Biso   1.000  C
  C283     1.0000 0.33508  0.80484  0.00439  Biso   1.000  C
  C284     1.0000 0.37702  0.77502  0.15140  Biso   1.000  C
  C285     1.0000 0.33514  0.80484  0.00439  Biso   1.000  C
  C286     1.0000 0.33508  0.80490  0.00439  Biso   1.000  C
  C287     1.0000 0.33514  0.80490  0.00439  Biso   1.000  C
  C288     1.0000 0.50569  0.81078  0.18212  Biso   1.000  C
  C289     1.0000 0.50569  0.81078  0.18218  Biso   1.000  C
  N145     1.0000 0.61705  0.93651  0.73457  Biso   1.000  N
  N146     1.0000 0.61711  0.93651  0.73457  Biso   1.000  N
  N147     1.0000 0.61705  0.93657  0.73457  Biso   1.000  N
  O54      1.0000 0.50069  0.00000  0.70618  Biso   1.000  O
  N148     1.0000 0.61711  0.93657  0.73457  Biso   1.000  N
  O55      1.0000 0.50069  0.00000  0.70625  Biso   1.000  O
  C290     1.0000 0.69784  0.95603  0.75651  Biso   1.000  C
  C291     1.0000 0.69784  0.95609  0.75651  Biso   1.000  C
  C292     1.0000 0.74824  0.06496  0.68477  Biso   1.000  C
  C293     1.0000 0.74824  0.06496  0.68484  Biso   1.000  C
  N149     1.0000 0.72186  0.93748  0.84834  Biso   1.000  N
  N150     1.0000 0.72192  0.93748  0.84834  Biso   1.000  N
  O56      1.0000 0.76122  0.00000  0.97706  Biso   1.000  O
  O57      1.0000 0.76128  0.00000  0.97706  Biso   1.000  O
  N151     1.0000 0.39660  0.75556  0.99920  Biso   1.000  N
  O58      1.0000 0.29591  0.82895  0.94069  Biso   1.000  O
  N152     1.0000 0.39666  0.75556  0.99927  Biso   1.000  N
  N153     1.0000 0.39660  0.75562  0.99920  Biso   1.000  N
  N154     1.0000 0.39666  0.75562  0.99927  Biso   1.000  N
  C294     1.0000 0.42815  0.73225  0.08730  Biso   1.000  C
  C295     1.0000 0.33832  0.72127  0.21104  Biso   1.000  C
  C296     1.0000 0.42821  0.73225  0.08737  Biso   1.000  C
  C297     1.0000 0.33838  0.72127  0.21104  Biso   1.000  C
  N155     1.0000 0.50536  0.76195  0.11097  Biso   1.000  N
  O59      1.0000 0.56365  0.83981  0.21888  Biso   1.000  O
  O60      1.0000 0.56366  0.83981  0.21895  Biso   1.000  O
  O61      1.0000 0.56365  0.83987  0.21888  Biso   1.000  O
  O62      1.0000 0.56366  0.83987  0.21895  Biso   1.000  O
  C298     1.0000 0.58716  0.86262  0.71649  Biso   1.000  C
  C299     1.0000 0.74824  0.93504  0.68477  Biso   1.000  C
  C300     1.0000 0.74824  0.93504  0.68484  Biso   1.000  C
  C301     1.0000 0.74824  0.93510  0.68477  Biso   1.000  C
  C302     1.0000 0.74824  0.93510  0.68484  Biso   1.000  C
  H357     1.0000 0.80092  0.05109  0.70146  Biso   1.000  H
  H358     1.0000 0.73144  0.03882  0.63125  Biso   1.000  H
  H359     1.0000 0.74520  0.11849  0.67493  Biso   1.000  H
  H360     1.0000 0.80098  0.05109  0.70146  Biso   1.000  H
  H361     1.0000 0.74526  0.11849  0.67500  Biso   1.000  H
  H362     1.0000 0.80092  0.05115  0.70146  Biso   1.000  H
  H363     1.0000 0.74520  0.11854  0.67493  Biso   1.000  H
  H364     1.0000 0.80098  0.05115  0.70146  Biso   1.000  H
  H365     1.0000 0.74526  0.11854  0.67500  Biso   1.000  H
  C303     1.0000 0.73950  0.86239  0.88025  Biso   1.000  C
  C304     1.0000 0.73957  0.86239  0.88032  Biso   1.000  C
  C305     1.0000 0.42293  0.72800  0.91689  Biso   1.000  C
  C306     1.0000 0.42293  0.72800  0.91695  Biso   1.000  C
  C307     1.0000 0.41142  0.64980  0.09508  Biso   1.000  C
  C308     1.0000 0.41143  0.64980  0.09515  Biso   1.000  C
  H366     1.0000 0.30187  0.69071  0.17640  Biso   1.000  H
  H367     1.0000 0.31147  0.74922  0.25452  Biso   1.000  H
  H368     1.0000 0.37678  0.68930  0.24049  Biso   1.000  H
  H369     1.0000 0.30192  0.69071  0.17640  Biso   1.000  H
  H370     1.0000 0.31153  0.74922  0.25452  Biso   1.000  H
  C309     1.0000 0.57701  0.72800  0.08305  Biso   1.000  C
  H371     1.0000 0.62523  0.83410  0.68524  Biso   1.000  H
  H372     1.0000 0.54074  0.86692  0.67733  Biso   1.000  H
  N156     1.0000 0.56814  0.82063  0.79534  Biso   1.000  N
  H373     1.0000 0.62524  0.83410  0.68530  Biso   1.000  H
  H374     1.0000 0.54074  0.86692  0.67739  Biso   1.000  H
  N157     1.0000 0.56820  0.82063  0.79534  Biso   1.000  N
  H375     1.0000 0.80092  0.94891  0.70146  Biso   1.000  H
  H376     1.0000 0.73144  0.96118  0.63125  Biso   1.000  H
  H377     1.0000 0.74520  0.88151  0.67493  Biso   1.000  H
  H378     1.0000 0.80098  0.94891  0.70146  Biso   1.000  H
  H379     1.0000 0.74526  0.88151  0.67500  Biso   1.000  H
  H380     1.0000 0.73144  0.96124  0.63125  Biso   1.000  H
  H381     1.0000 0.76341  0.83449  0.83351  Biso   1.000  H
  H382     1.0000 0.77752  0.86612  0.93012  Biso   1.000  H
  N158     1.0000 0.67468  0.82018  0.90778  Biso   1.000  N
  H383     1.0000 0.76347  0.83449  0.83358  Biso   1.000  H
  H384     1.0000 0.77753  0.86612  0.93019  Biso   1.000  H
  N159     1.0000 0.67468  0.82023  0.90778  Biso   1.000  N
  H385     1.0000 0.38231  0.73660  0.87074  Biso   1.000  H
  H386     1.0000 0.43054  0.67368  0.92194  Biso   1.000  H
  N160     1.0000 0.49457  0.76195  0.88896  Biso   1.000  N
  H387     1.0000 0.38236  0.73660  0.87074  Biso   1.000  H
  N161     1.0000 0.49458  0.76195  0.88903  Biso   1.000  N
  H388     1.0000 0.43054  0.67374  0.92194  Biso   1.000  H
  H389     1.0000 0.35787  0.64047  0.07719  Biso   1.000  H
  H390     1.0000 0.42131  0.63402  0.15559  Biso   1.000  H
  H391     1.0000 0.44419  0.62180  0.05738  Biso   1.000  H
  H392     1.0000 0.35793  0.64047  0.07719  Biso   1.000  H
  H393     1.0000 0.42132  0.63402  0.15565  Biso   1.000  H
  H394     1.0000 0.44419  0.62180  0.05745  Biso   1.000  H
  H395     1.0000 0.35787  0.64053  0.07719  Biso   1.000  H
  H396     1.0000 0.35793  0.64053  0.07719  Biso   1.000  H
  H397     1.0000 0.61757  0.73660  0.12919  Biso   1.000  H
  H398     1.0000 0.56940  0.67368  0.07799  Biso   1.000  H
  N162     1.0000 0.60328  0.75556  0.00073  Biso   1.000  N
  H399     1.0000 0.61763  0.73660  0.12919  Biso   1.000  H
  N163     1.0000 0.60334  0.75556  0.00073  Biso   1.000  N
  H400     1.0000 0.56940  0.67374  0.07799  Biso   1.000  H
  N164     1.0000 0.60328  0.75562  0.00073  Biso   1.000  N
  N165     1.0000 0.60334  0.75562  0.00073  Biso   1.000  N
  C310     1.0000 0.49425  0.81078  0.81782  Biso   1.000  C
  C311     1.0000 0.62291  0.77502  0.84854  Biso   1.000  C
  C312     1.0000 0.62292  0.77502  0.84860  Biso   1.000  C
  C313     1.0000 0.66480  0.80484  0.99555  Biso   1.000  C
  C314     1.0000 0.66486  0.80484  0.99561  Biso   1.000  C
  C315     1.0000 0.66480  0.80490  0.99555  Biso   1.000  C
  C316     1.0000 0.66486  0.80490  0.99561  Biso   1.000  C
  C317     1.0000 0.57173  0.73225  0.91263  Biso   1.000  C
  C318     1.0000 0.57179  0.73225  0.91263  Biso   1.000  C
  O63      1.0000 0.43629  0.83981  0.78105  Biso   1.000  O
  O64      1.0000 0.43629  0.83987  0.78105  Biso   1.000  O
  C319     1.0000 0.66156  0.72127  0.78890  Biso   1.000  C
  C320     1.0000 0.66162  0.72127  0.78896  Biso   1.000  C
  O65      1.0000 0.70403  0.82895  0.05924  Biso   1.000  O
  O66      1.0000 0.70403  0.82895  0.05931  Biso   1.000  O
  C321     1.0000 0.58851  0.64980  0.90485  Biso   1.000  C
  H401     1.0000 0.69801  0.69071  0.82354  Biso   1.000  H
  H402     1.0000 0.68841  0.74922  0.74541  Biso   1.000  H
  H403     1.0000 0.62315  0.68930  0.75944  Biso   1.000  H
  H404     1.0000 0.69807  0.69071  0.82354  Biso   1.000  H
  H405     1.0000 0.68847  0.74922  0.74548  Biso   1.000  H
  H406     1.0000 0.64201  0.64047  0.92274  Biso   1.000  H
  H407     1.0000 0.57862  0.63402  0.84435  Biso   1.000  H
  H408     1.0000 0.55575  0.62180  0.94255  Biso   1.000  H
  H409     1.0000 0.64207  0.64047  0.92274  Biso   1.000  H
  H410     1.0000 0.64201  0.64053  0.92274  Biso   1.000  H
  H411     1.0000 0.64207  0.64053  0.92274  Biso   1.000  H
  C322     1.0000 0.41142  0.35020  0.09508  Biso   1.000  C
  C323     1.0000 0.42815  0.26775  0.08730  Biso   1.000  C
  C324     1.0000 0.42821  0.26775  0.08737  Biso   1.000  C
  C325     1.0000 0.42815  0.26781  0.08730  Biso   1.000  C
  C326     1.0000 0.42821  0.26781  0.08737  Biso   1.000  C
  H412     1.0000 0.35787  0.35953  0.07719  Biso   1.000  H
  H413     1.0000 0.42131  0.36598  0.15559  Biso   1.000  H
  H414     1.0000 0.44419  0.37820  0.05738  Biso   1.000  H
  H415     1.0000 0.35793  0.35953  0.07719  Biso   1.000  H
  H416     1.0000 0.42132  0.36598  0.15565  Biso   1.000  H
  H417     1.0000 0.44419  0.37820  0.05745  Biso   1.000  H
  H418     1.0000 0.42131  0.36604  0.15559  Biso   1.000  H
  H419     1.0000 0.42132  0.36604  0.15565  Biso   1.000  H
  C327     1.0000 0.37702  0.22498  0.15140  Biso   1.000  C
  N166     1.0000 0.39660  0.24444  0.99920  Biso   1.000  N
  N167     1.0000 0.39666  0.24444  0.99927  Biso   1.000  N
  N168     1.0000 0.50536  0.23805  0.11097  Biso   1.000  N
  C328     1.0000 0.41143  0.35020  0.09515  Biso   1.000  C
  C329     1.0000 0.41142  0.35025  0.09508  Biso   1.000  C
  N169     1.0000 0.50536  0.23810  0.11097  Biso   1.000  N
  C330     1.0000 0.41143  0.35025  0.09515  Biso   1.000  C
  N170     1.0000 0.32526  0.17982  0.09215  Biso   1.000  N
  C331     1.0000 0.33832  0.27873  0.21104  Biso   1.000  C
  N171     1.0000 0.43174  0.17937  0.20459  Biso   1.000  N
  C332     1.0000 0.33838  0.27873  0.21104  Biso   1.000  C
  N172     1.0000 0.43180  0.17937  0.20459  Biso   1.000  N
  C333     1.0000 0.33832  0.27879  0.21104  Biso   1.000  C
  C334     1.0000 0.33838  0.27879  0.21104  Biso   1.000  C
  C335     1.0000 0.33508  0.19516  0.00439  Biso   1.000  C
  C336     1.0000 0.33514  0.19516  0.00439  Biso   1.000  C
  C337     1.0000 0.42293  0.27200  0.91689  Biso   1.000  C
  C338     1.0000 0.42293  0.27200  0.91695  Biso   1.000  C
  C339     1.0000 0.42293  0.27205  0.91689  Biso   1.000  C
  C340     1.0000 0.42293  0.27205  0.91695  Biso   1.000  C
  C341     1.0000 0.50569  0.18922  0.18212  Biso   1.000  C
  C342     1.0000 0.50569  0.18922  0.18218  Biso   1.000  C
  C343     1.0000 0.57701  0.27200  0.08305  Biso   1.000  C
  C344     1.0000 0.57701  0.27205  0.08305  Biso   1.000  C
  C345     1.0000 0.26038  0.13761  0.11968  Biso   1.000  C
  C346     1.0000 0.26043  0.13761  0.11968  Biso   1.000  C
  H420     1.0000 0.30187  0.30929  0.17640  Biso   1.000  H
  H421     1.0000 0.31147  0.25078  0.25452  Biso   1.000  H
  H422     1.0000 0.37678  0.31070  0.24049  Biso   1.000  H
  H423     1.0000 0.30192  0.30929  0.17640  Biso   1.000  H
  H424     1.0000 0.31153  0.25078  0.25452  Biso   1.000  H
  H425     1.0000 0.30187  0.30934  0.17640  Biso   1.000  H
  H426     1.0000 0.31147  0.25083  0.25452  Biso   1.000  H
  H427     1.0000 0.37678  0.31076  0.24049  Biso   1.000  H
  H428     1.0000 0.30192  0.30934  0.17640  Biso   1.000  H
  H429     1.0000 0.31153  0.25083  0.25452  Biso   1.000  H
  C347     1.0000 0.41278  0.13738  0.28345  Biso   1.000  C
  C348     1.0000 0.41278  0.13744  0.28345  Biso   1.000  C
  O67      1.0000 0.29591  0.17105  0.94069  Biso   1.000  O
  H430     1.0000 0.38231  0.26340  0.87074  Biso   1.000  H
  H431     1.0000 0.43054  0.32632  0.92194  Biso   1.000  H
  N173     1.0000 0.49457  0.23805  0.88896  Biso   1.000  N
  H432     1.0000 0.38236  0.26340  0.87074  Biso   1.000  H
  N174     1.0000 0.49458  0.23805  0.88903  Biso   1.000  N
  H433     1.0000 0.38231  0.26345  0.87074  Biso   1.000  H
  N175     1.0000 0.49457  0.23810  0.88896  Biso   1.000  N
  H434     1.0000 0.38236  0.26345  0.87074  Biso   1.000  H
  N176     1.0000 0.49458  0.23810  0.88903  Biso   1.000  N
  O68      1.0000 0.56365  0.16019  0.21888  Biso   1.000  O
  O69      1.0000 0.56366  0.16019  0.21895  Biso   1.000  O
  H435     1.0000 0.56940  0.32632  0.07799  Biso   1.000  H
  H436     1.0000 0.61757  0.26340  0.12919  Biso   1.000  H
  N177     1.0000 0.60328  0.24444  0.00073  Biso   1.000  N
  H437     1.0000 0.61763  0.26340  0.12919  Biso   1.000  H
  N178     1.0000 0.60334  0.24444  0.00073  Biso   1.000  N
  H438     1.0000 0.61757  0.26345  0.12919  Biso   1.000  H
  H439     1.0000 0.61763  0.26345  0.12919  Biso   1.000  H
  H440     1.0000 0.23647  0.16551  0.16642  Biso   1.000  H
  H441     1.0000 0.22242  0.13388  0.06981  Biso   1.000  H
  N179     1.0000 0.27802  0.06252  0.15160  Biso   1.000  N
  H442     1.0000 0.23653  0.16551  0.16642  Biso   1.000  H
  N180     1.0000 0.27808  0.06252  0.15166  Biso   1.000  N
  H443     1.0000 0.22242  0.13393  0.06981  Biso   1.000  H
  H444     1.0000 0.37471  0.16590  0.31470  Biso   1.000  H
  H445     1.0000 0.45920  0.13308  0.32261  Biso   1.000  H
  N181     1.0000 0.38283  0.06349  0.26536  Biso   1.000  N
  N182     1.0000 0.38289  0.06349  0.26543  Biso   1.000  N
  H446     1.0000 0.45920  0.13314  0.32261  Biso   1.000  H
  C349     1.0000 0.57173  0.26775  0.91263  Biso   1.000  C
  C350     1.0000 0.49425  0.18922  0.81782  Biso   1.000  C
  C351     1.0000 0.57179  0.26775  0.91263  Biso   1.000  C
  C352     1.0000 0.57173  0.26781  0.91263  Biso   1.000  C
  C353     1.0000 0.57179  0.26781  0.91263  Biso   1.000  C
  C354     1.0000 0.66480  0.19516  0.99555  Biso   1.000  C
  C355     1.0000 0.66486  0.19516  0.99561  Biso   1.000  C
  C356     1.0000 0.26289  0.00000  0.10013  Biso   1.000  C
  C357     1.0000 0.30210  0.04397  0.24342  Biso   1.000  C
  C358     1.0000 0.30211  0.04397  0.24349  Biso   1.000  C
  C359     1.0000 0.42887  0.00000  0.27573  Biso   1.000  C
  C360     1.0000 0.42888  0.00000  0.27580  Biso   1.000  C
  C361     1.0000 0.62291  0.22498  0.84854  Biso   1.000  C
  C362     1.0000 0.58851  0.35020  0.90485  Biso   1.000  C
  C363     1.0000 0.62292  0.22498  0.84860  Biso   1.000  C
  C364     1.0000 0.58851  0.35025  0.90485  Biso   1.000  C
  N183     1.0000 0.56814  0.17937  0.79534  Biso   1.000  N
  O70      1.0000 0.43629  0.16019  0.78105  Biso   1.000  O
  N184     1.0000 0.56820  0.17937  0.79534  Biso   1.000  N
  N185     1.0000 0.67468  0.17982  0.90778  Biso   1.000  N
  O71      1.0000 0.70403  0.17105  0.05924  Biso   1.000  O
  O72      1.0000 0.70403  0.17105  0.05931  Biso   1.000  O
  N186     1.0000 0.27802  0.93748  0.15160  Biso   1.000  N
  N187     1.0000 0.27808  0.93748  0.15166  Biso   1.000  N
  O73      1.0000 0.23866  0.00000  0.02287  Biso   1.000  O
  O74      1.0000 0.23872  0.00000  0.02294  Biso   1.000  O
  C365     1.0000 0.30210  0.95603  0.24342  Biso   1.000  C
  C366     1.0000 0.30211  0.95603  0.24349  Biso   1.000  C
  C367     1.0000 0.30210  0.95609  0.24342  Biso   1.000  C
  C368     1.0000 0.30211  0.95609  0.24349  Biso   1.000  C
  C369     1.0000 0.25164  0.06496  0.31516  Biso   1.000  C
  C370     1.0000 0.25170  0.06496  0.31516  Biso   1.000  C
  N188     1.0000 0.38283  0.93651  0.26536  Biso   1.000  N
  N189     1.0000 0.38289  0.93651  0.26543  Biso   1.000  N
  O75      1.0000 0.49925  0.00000  0.29375  Biso   1.000  O
  N190     1.0000 0.38283  0.93657  0.26536  Biso   1.000  N
  N191     1.0000 0.38289  0.93657  0.26543  Biso   1.000  N
  C371     1.0000 0.66156  0.27873  0.78890  Biso   1.000  C
  C372     1.0000 0.66162  0.27873  0.78896  Biso   1.000  C
  C373     1.0000 0.66156  0.27879  0.78890  Biso   1.000  C
  C374     1.0000 0.66162  0.27879  0.78896  Biso   1.000  C
  H447     1.0000 0.64201  0.35953  0.92274  Biso   1.000  H
  H448     1.0000 0.57862  0.36598  0.84435  Biso   1.000  H
  H449     1.0000 0.55575  0.37820  0.94255  Biso   1.000  H
  H450     1.0000 0.64207  0.35953  0.92274  Biso   1.000  H
  H451     1.0000 0.57862  0.36604  0.84435  Biso   1.000  H
  C375     1.0000 0.58716  0.13738  0.71649  Biso   1.000  C
  C376     1.0000 0.58716  0.13744  0.71649  Biso   1.000  C
  C377     1.0000 0.73950  0.13761  0.88025  Biso   1.000  C
  C378     1.0000 0.73957  0.13761  0.88032  Biso   1.000  C
  C379     1.0000 0.26038  0.86239  0.11968  Biso   1.000  C
  C380     1.0000 0.26043  0.86239  0.11968  Biso   1.000  C
  C381     1.0000 0.25164  0.93504  0.31516  Biso   1.000  C
  C382     1.0000 0.25170  0.93504  0.31516  Biso   1.000  C
  C383     1.0000 0.25164  0.93510  0.31516  Biso   1.000  C
  C384     1.0000 0.25170  0.93510  0.31516  Biso   1.000  C
  H452     1.0000 0.26850  0.03882  0.36869  Biso   1.000  H
  H453     1.0000 0.19896  0.05109  0.29847  Biso   1.000  H
  H454     1.0000 0.25468  0.11849  0.32500  Biso   1.000  H
  H455     1.0000 0.19902  0.05109  0.29854  Biso   1.000  H
  H456     1.0000 0.25474  0.11849  0.32500  Biso   1.000  H
  H457     1.0000 0.19896  0.05115  0.29847  Biso   1.000  H
  H458     1.0000 0.25468  0.11854  0.32500  Biso   1.000  H
  H459     1.0000 0.19902  0.05115  0.29854  Biso   1.000  H
  H460     1.0000 0.25474  0.11854  0.32500  Biso   1.000  H
  C385     1.0000 0.41278  0.86262  0.28345  Biso   1.000  C
  H461     1.0000 0.69801  0.30929  0.82354  Biso   1.000  H
  H462     1.0000 0.68841  0.25078  0.74541  Biso   1.000  H
  H463     1.0000 0.62315  0.31070  0.75944  Biso   1.000  H
  H464     1.0000 0.69807  0.30929  0.82354  Biso   1.000  H
  H465     1.0000 0.68847  0.25078  0.74548  Biso   1.000  H
  H466     1.0000 0.69801  0.30934  0.82354  Biso   1.000  H
  H467     1.0000 0.68841  0.25083  0.74541  Biso   1.000  H
  H468     1.0000 0.62315  0.31076  0.75944  Biso   1.000  H
  H469     1.0000 0.69807  0.30934  0.82354  Biso   1.000  H
  H470     1.0000 0.68847  0.25083  0.74548  Biso   1.000  H
  H471     1.0000 0.62523  0.16590  0.68524  Biso   1.000  H
  H472     1.0000 0.54074  0.13308  0.67733  Biso   1.000  H
  N192     1.0000 0.61705  0.06349  0.73457  Biso   1.000  N
  H473     1.0000 0.62524  0.16590  0.68530  Biso   1.000  H
  H474     1.0000 0.54074  0.13308  0.67739  Biso   1.000  H
  N193     1.0000 0.61711  0.06349  0.73457  Biso   1.000  N
  H475     1.0000 0.54074  0.13314  0.67733  Biso   1.000  H
  H476     1.0000 0.54074  0.13314  0.67739  Biso   1.000  H
  H477     1.0000 0.76341  0.16551  0.83351  Biso   1.000  H
  H478     1.0000 0.77752  0.13388  0.93012  Biso   1.000  H
  N194     1.0000 0.72186  0.06252  0.84834  Biso   1.000  N
  H479     1.0000 0.76347  0.16551  0.83358  Biso   1.000  H
  H480     1.0000 0.77753  0.13388  0.93019  Biso   1.000  H
  N195     1.0000 0.72192  0.06252  0.84834  Biso   1.000  N
  H481     1.0000 0.77752  0.13393  0.93012  Biso   1.000  H
  H482     1.0000 0.77753  0.13393  0.93019  Biso   1.000  H
  H483     1.0000 0.23647  0.83449  0.16642  Biso   1.000  H
  H484     1.0000 0.22242  0.86612  0.06981  Biso   1.000  H
  N196     1.0000 0.32526  0.82018  0.09215  Biso   1.000  N
  H485     1.0000 0.23653  0.83449  0.16642  Biso   1.000  H
  N197     1.0000 0.32526  0.82023  0.09215  Biso   1.000  N
  H486     1.0000 0.19896  0.94891  0.29847  Biso   1.000  H
  H487     1.0000 0.26850  0.96118  0.36869  Biso   1.000  H
  H488     1.0000 0.25468  0.88151  0.32500  Biso   1.000  H
  H489     1.0000 0.19902  0.94891  0.29854  Biso   1.000  H
  H490     1.0000 0.25474  0.88151  0.32500  Biso   1.000  H
  H491     1.0000 0.26850  0.96124  0.36869  Biso   1.000  H
  H492     1.0000 0.37471  0.83410  0.31470  Biso   1.000  H
  H493     1.0000 0.45920  0.86692  0.32261  Biso   1.000  H
  N198     1.0000 0.43174  0.82063  0.20459  Biso   1.000  N
  N199     1.0000 0.43180  0.82063  0.20459  Biso   1.000  N
  C386     1.0000 0.57107  0.00000  0.72420  Biso   1.000  C
  C387     1.0000 0.69784  0.04397  0.75651  Biso   1.000  C
  C388     1.0000 0.73705  0.00000  0.89980  Biso   1.000  C
  C389     1.0000 0.73705  0.00000  0.89987  Biso   1.000  C
  C390     1.0000 0.33508  0.80484  0.00439  Biso   1.000  C
  C391     1.0000 0.37702  0.77502  0.15140  Biso   1.000  C
  C392     1.0000 0.33514  0.80484  0.00439  Biso   1.000  C
  C393     1.0000 0.33508  0.80490  0.00439  Biso   1.000  C
  C394     1.0000 0.33514  0.80490  0.00439  Biso   1.000  C
  C395     1.0000 0.50569  0.81078  0.18212  Biso   1.000  C
  C396     1.0000 0.50569  0.81078  0.18218  Biso   1.000  C
  N200     1.0000 0.61705  0.93651  0.73457  Biso   1.000  N
  N201     1.0000 0.61711  0.93651  0.73457  Biso   1.000  N
  N202     1.0000 0.61705  0.93657  0.73457  Biso   1.000  N
  O76      1.0000 0.50069  0.00000  0.70618  Biso   1.000  O
  N203     1.0000 0.61711  0.93657  0.73457  Biso   1.000  N
  O77      1.0000 0.50069  0.00000  0.70625  Biso   1.000  O
  C397     1.0000 0.69784  0.95603  0.75651  Biso   1.000  C
  C398     1.0000 0.69784  0.95609  0.75651  Biso   1.000  C
  C399     1.0000 0.74824  0.06496  0.68477  Biso   1.000  C
  C400     1.0000 0.74824  0.06496  0.68484  Biso   1.000  C
  N204     1.0000 0.72186  0.93748  0.84834  Biso   1.000  N
  N205     1.0000 0.72192  0.93748  0.84834  Biso   1.000  N
  O78      1.0000 0.76122  0.00000  0.97706  Biso   1.000  O
  O79      1.0000 0.76128  0.00000  0.97706  Biso   1.000  O
  N206     1.0000 0.39660  0.75556  0.99920  Biso   1.000  N
  O80      1.0000 0.29591  0.82895  0.94069  Biso   1.000  O
  N207     1.0000 0.39666  0.75556  0.99927  Biso   1.000  N
  N208     1.0000 0.39660  0.75562  0.99920  Biso   1.000  N
  N209     1.0000 0.39666  0.75562  0.99927  Biso   1.000  N
  C401     1.0000 0.42815  0.73225  0.08730  Biso   1.000  C
  C402     1.0000 0.33832  0.72127  0.21104  Biso   1.000  C
  C403     1.0000 0.42821  0.73225  0.08737  Biso   1.000  C
  C404     1.0000 0.33838  0.72127  0.21104  Biso   1.000  C
  N210     1.0000 0.50536  0.76195  0.11097  Biso   1.000  N
  O81      1.0000 0.56365  0.83981  0.21888  Biso   1.000  O
  O82      1.0000 0.56366  0.83981  0.21895  Biso   1.000  O
  O83      1.0000 0.56365  0.83987  0.21888  Biso   1.000  O
  O84      1.0000 0.56366  0.83987  0.21895  Biso   1.000  O
  C405     1.0000 0.58716  0.86262  0.71649  Biso   1.000  C
  C406     1.0000 0.74824  0.93504  0.68477  Biso   1.000  C
  C407     1.0000 0.74824  0.93504  0.68484  Biso   1.000  C
  C408     1.0000 0.74824  0.93510  0.68477  Biso   1.000  C
  C409     1.0000 0.74824  0.93510  0.68484  Biso   1.000  C
  H494     1.0000 0.80092  0.05109  0.70146  Biso   1.000  H
  H495     1.0000 0.73144  0.03882  0.63125  Biso   1.000  H
  H496     1.0000 0.74520  0.11849  0.67493  Biso   1.000  H
  H497     1.0000 0.80098  0.05109  0.70146  Biso   1.000  H
  H498     1.0000 0.74526  0.11849  0.67500  Biso   1.000  H
  H499     1.0000 0.80092  0.05115  0.70146  Biso   1.000  H
  H500     1.0000 0.74520  0.11854  0.67493  Biso   1.000  H
  H501     1.0000 0.80098  0.05115  0.70146  Biso   1.000  H
  H502     1.0000 0.74526  0.11854  0.67500  Biso   1.000  H
  C410     1.0000 0.73950  0.86239  0.88025  Biso   1.000  C
  C411     1.0000 0.73957  0.86239  0.88032  Biso   1.000  C
  C412     1.0000 0.42293  0.72800  0.91689  Biso   1.000  C
  C413     1.0000 0.42293  0.72800  0.91695  Biso   1.000  C
  C414     1.0000 0.41142  0.64980  0.09508  Biso   1.000  C
  C415     1.0000 0.41143  0.64980  0.09515  Biso   1.000  C
  H503     1.0000 0.30187  0.69071  0.17640  Biso   1.000  H
  H504     1.0000 0.31147  0.74922  0.25452  Biso   1.000  H
  H505     1.0000 0.37678  0.68930  0.24049  Biso   1.000  H
  H506     1.0000 0.30192  0.69071  0.17640  Biso   1.000  H
  H507     1.0000 0.31153  0.74922  0.25452  Biso   1.000  H
  C416     1.0000 0.57701  0.72800  0.08305  Biso   1.000  C
  H508     1.0000 0.62523  0.83410  0.68524  Biso   1.000  H
  H509     1.0000 0.54074  0.86692  0.67733  Biso   1.000  H
  N211     1.0000 0.56814  0.82063  0.79534  Biso   1.000  N
  H510     1.0000 0.62524  0.83410  0.68530  Biso   1.000  H
  H511     1.0000 0.54074  0.86692  0.67739  Biso   1.000  H
  N212     1.0000 0.56820  0.82063  0.79534  Biso   1.000  N
  H512     1.0000 0.80092  0.94891  0.70146  Biso   1.000  H
  H513     1.0000 0.73144  0.96118  0.63125  Biso   1.000  H
  H514     1.0000 0.74520  0.88151  0.67493  Biso   1.000  H
  H515     1.0000 0.80098  0.94891  0.70146  Biso   1.000  H
  H516     1.0000 0.74526  0.88151  0.67500  Biso   1.000  H
  H517     1.0000 0.73144  0.96124  0.63125  Biso   1.000  H
  H518     1.0000 0.76341  0.83449  0.83351  Biso   1.000  H
  H519     1.0000 0.77752  0.86612  0.93012  Biso   1.000  H
  N213     1.0000 0.67468  0.82018  0.90778  Biso   1.000  N
  H520     1.0000 0.76347  0.83449  0.83358  Biso   1.000  H
  H521     1.0000 0.77753  0.86612  0.93019  Biso   1.000  H
  N214     1.0000 0.67468  0.82023  0.90778  Biso   1.000  N
  H522     1.0000 0.38231  0.73660  0.87074  Biso   1.000  H
  H523     1.0000 0.43054  0.67368  0.92194  Biso   1.000  H
  N215     1.0000 0.49457  0.76195  0.88896  Biso   1.000  N
  H524     1.0000 0.38236  0.73660  0.87074  Biso   1.000  H
  N216     1.0000 0.49458  0.76195  0.88903  Biso   1.000  N
  H525     1.0000 0.43054  0.67374  0.92194  Biso   1.000  H
  H526     1.0000 0.35787  0.64047  0.07719  Biso   1.000  H
  H527     1.0000 0.42131  0.63402  0.15559  Biso   1.000  H
  H528     1.0000 0.44419  0.62180  0.05738  Biso   1.000  H
  H529     1.0000 0.35793  0.64047  0.07719  Biso   1.000  H
  H530     1.0000 0.42132  0.63402  0.15565  Biso   1.000  H
  H531     1.0000 0.44419  0.62180  0.05745  Biso   1.000  H
  H532     1.0000 0.35787  0.64053  0.07719  Biso   1.000  H
  H533     1.0000 0.35793  0.64053  0.07719  Biso   1.000  H
  H534     1.0000 0.61757  0.73660  0.12919  Biso   1.000  H
  H535     1.0000 0.56940  0.67368  0.07799  Biso   1.000  H
  N217     1.0000 0.60328  0.75556  0.00073  Biso   1.000  N
  H536     1.0000 0.61763  0.73660  0.12919  Biso   1.000  H
  N218     1.0000 0.60334  0.75556  0.00073  Biso   1.000  N
  H537     1.0000 0.56940  0.67374  0.07799  Biso   1.000  H
  N219     1.0000 0.60328  0.75562  0.00073  Biso   1.000  N
  N220     1.0000 0.60334  0.75562  0.00073  Biso   1.000  N
  C417     1.0000 0.49425  0.81078  0.81782  Biso   1.000  C
  C418     1.0000 0.62291  0.77502  0.84854  Biso   1.000  C
  C419     1.0000 0.62292  0.77502  0.84860  Biso   1.000  C
  C420     1.0000 0.66480  0.80484  0.99555  Biso   1.000  C
  C421     1.0000 0.66486  0.80484  0.99561  Biso   1.000  C
  C422     1.0000 0.66480  0.80490  0.99555  Biso   1.000  C
  C423     1.0000 0.66486  0.80490  0.99561  Biso   1.000  C
  C424     1.0000 0.57173  0.73225  0.91263  Biso   1.000  C
  C425     1.0000 0.57179  0.73225  0.91263  Biso   1.000  C
  O85      1.0000 0.43629  0.83981  0.78105  Biso   1.000  O
  O86      1.0000 0.43629  0.83987  0.78105  Biso   1.000  O
  C426     1.0000 0.66156  0.72127  0.78890  Biso   1.000  C
  C427     1.0000 0.66162  0.72127  0.78896  Biso   1.000  C
  O87      1.0000 0.70403  0.82895  0.05924  Biso   1.000  O
  O88      1.0000 0.70403  0.82895  0.05931  Biso   1.000  O
  C428     1.0000 0.58851  0.64980  0.90485  Biso   1.000  C
  H538     1.0000 0.69801  0.69071  0.82354  Biso   1.000  H
  H539     1.0000 0.68841  0.74922  0.74541  Biso   1.000  H
  H540     1.0000 0.62315  0.68930  0.75944  Biso   1.000  H
  H541     1.0000 0.69807  0.69071  0.82354  Biso   1.000  H
  H542     1.0000 0.68847  0.74922  0.74548  Biso   1.000  H
  H543     1.0000 0.64201  0.64047  0.92274  Biso   1.000  H
  H544     1.0000 0.57862  0.63402  0.84435  Biso   1.000  H
  H545     1.0000 0.55575  0.62180  0.94255  Biso   1.000  H
  H546     1.0000 0.64207  0.64047  0.92274  Biso   1.000  H
  H547     1.0000 0.64201  0.64053  0.92274  Biso   1.000  H
  H548     1.0000 0.64207  0.64053  0.92274  Biso   1.000  H
  O89      1.0000 0.20409  0.32898  0.05931  Biso   1.000  O
  C429     1.0000 0.16480  0.30487  0.99555  Biso   1.000  C
  C430     1.0000 0.16486  0.30487  0.99561  Biso   1.000  C
  C431     1.0000 0.16486  0.30487  0.99555  Biso   1.000  C
  C432     1.0000 0.16481  0.30487  0.99561  Biso   1.000  C
  N221     1.0000 0.10334  0.25559  0.00073  Biso   1.000  N
  O90      1.0000 0.20403  0.32898  0.05924  Biso   1.000  O
  N222     1.0000 0.10328  0.25559  0.00073  Biso   1.000  N
  O91      1.0000 0.20403  0.32898  0.05931  Biso   1.000  O
  N223     1.0000 0.17468  0.32021  0.90778  Biso   1.000  N
  C433     1.0000 0.07701  0.22797  0.08305  Biso   1.000  C
  C434     1.0000 0.07173  0.23222  0.91263  Biso   1.000  C
  C435     1.0000 0.07179  0.23222  0.91263  Biso   1.000  C
  C436     1.0000 0.23956  0.36242  0.88025  Biso   1.000  C
  C437     1.0000 0.12291  0.27505  0.84854  Biso   1.000  C
  C438     1.0000 0.23957  0.36242  0.88032  Biso   1.000  C
  C439     1.0000 0.12292  0.27505  0.84860  Biso   1.000  C
  C440     1.0000 0.23951  0.36242  0.88032  Biso   1.000  C
  H549     1.0000 0.11757  0.23663  0.12919  Biso   1.000  H
  H550     1.0000 0.06940  0.17371  0.07799  Biso   1.000  H
  N224     1.0000 0.00536  0.26192  0.11097  Biso   1.000  N
  H551     1.0000 0.11763  0.23663  0.12919  Biso   1.000  H
  N225     1.0000 0.00542  0.26192  0.11097  Biso   1.000  N
  N226     1.0000 0.99457  0.26192  0.88896  Biso   1.000  N
  N227     1.0000 0.99458  0.26192  0.88903  Biso   1.000  N
  N228     1.0000 0.99452  0.26192  0.88896  Biso   1.000  N
  C441     1.0000 0.08851  0.14978  0.90485  Biso   1.000  C
  C442     1.0000 0.08857  0.14978  0.90485  Biso   1.000  C
  H552     1.0000 0.26341  0.33452  0.83351  Biso   1.000  H
  H553     1.0000 0.27752  0.36610  0.93012  Biso   1.000  H
  N229     1.0000 0.22192  0.43750  0.84834  Biso   1.000  N
  H554     1.0000 0.26347  0.33452  0.83358  Biso   1.000  H
  H555     1.0000 0.27758  0.36610  0.93019  Biso   1.000  H
  H556     1.0000 0.26347  0.33452  0.83351  Biso   1.000  H
  H557     1.0000 0.27758  0.36610  0.93012  Biso   1.000  H
  H558     1.0000 0.26342  0.33452  0.83358  Biso   1.000  H
  H559     1.0000 0.27753  0.36610  0.93019  Biso   1.000  H
  C443     1.0000 0.16162  0.22124  0.78890  Biso   1.000  C
  N230     1.0000 0.06814  0.32066  0.79534  Biso   1.000  N
  C444     1.0000 0.16162  0.22124  0.78896  Biso   1.000  C
  N231     1.0000 0.06820  0.32066  0.79534  Biso   1.000  N
  C445     1.0000 0.00569  0.31081  0.18212  Biso   1.000  C
  C446     1.0000 0.00569  0.31081  0.18218  Biso   1.000  C
  C447     1.0000 0.92821  0.23222  0.08730  Biso   1.000  C
  C448     1.0000 0.92815  0.23222  0.08737  Biso   1.000  C
  C449     1.0000 0.92815  0.23222  0.08730  Biso   1.000  C
  C450     1.0000 0.92821  0.23222  0.08737  Biso   1.000  C
  C451     1.0000 0.99425  0.31081  0.81782  Biso   1.000  C
  C452     1.0000 0.92293  0.22797  0.91689  Biso   1.000  C
  C453     1.0000 0.92293  0.22797  0.91695  Biso   1.000  C
  H560     1.0000 0.14201  0.14050  0.92274  Biso   1.000  H
  H561     1.0000 0.07862  0.13399  0.84435  Biso   1.000  H
  H562     1.0000 0.05575  0.12182  0.94255  Biso   1.000  H
  H563     1.0000 0.14207  0.14050  0.92274  Biso   1.000  H
  H564     1.0000 0.07868  0.13399  0.84435  Biso   1.000  H
  C454     1.0000 0.23705  0.50003  0.89980  Biso   1.000  C
  C455     1.0000 0.19784  0.45606  0.75651  Biso   1.000  C
  C456     1.0000 0.23705  0.50003  0.89987  Biso   1.000  C
  C457     1.0000 0.19789  0.45606  0.75651  Biso   1.000  C
  C458     1.0000 0.23711  0.50003  0.89980  Biso   1.000  C
  H565     1.0000 0.19801  0.19069  0.82354  Biso   1.000  H
  H566     1.0000 0.18841  0.24919  0.74541  Biso   1.000  H
  H567     1.0000 0.12315  0.18933  0.75944  Biso   1.000  H
  H568     1.0000 0.19807  0.19069  0.82354  Biso   1.000  H
  H569     1.0000 0.18847  0.24919  0.74548  Biso   1.000  H
  H570     1.0000 0.18847  0.24919  0.74541  Biso   1.000  H
  H571     1.0000 0.18842  0.24919  0.74548  Biso   1.000  H
  C459     1.0000 0.08716  0.36264  0.71649  Biso   1.000  C
  C460     1.0000 0.08722  0.36264  0.71649  Biso   1.000  C
  O92      1.0000 0.06365  0.33984  0.21888  Biso   1.000  O
  O93      1.0000 0.06371  0.33984  0.21895  Biso   1.000  O
  O94      1.0000 0.06366  0.33984  0.21895  Biso   1.000  O
  N232     1.0000 0.93180  0.32066  0.20459  Biso   1.000  N
  N233     1.0000 0.93174  0.32066  0.20459  Biso   1.000  N
  N234     1.0000 0.89660  0.25559  0.99920  Biso   1.000  N
  N235     1.0000 0.89666  0.25559  0.99927  Biso   1.000  N
  N236     1.0000 0.89660  0.25559  0.99927  Biso   1.000  N
  C461     1.0000 0.87702  0.27505  0.15140  Biso   1.000  C
  C462     1.0000 0.91142  0.14978  0.09508  Biso   1.000  C
  C463     1.0000 0.91137  0.14978  0.09515  Biso   1.000  C
  C464     1.0000 0.91137  0.14978  0.09508  Biso   1.000  C
  C465     1.0000 0.91143  0.14978  0.09515  Biso   1.000  C
  O95      1.0000 0.93629  0.33984  0.78105  Biso   1.000  O
  O96      1.0000 0.93623  0.33984  0.78105  Biso   1.000  O
  H572     1.0000 0.88236  0.23663  0.87074  Biso   1.000  H
  H573     1.0000 0.93054  0.17371  0.92194  Biso   1.000  H
  H574     1.0000 0.88231  0.23663  0.87074  Biso   1.000  H
  N237     1.0000 0.22192  0.56255  0.84834  Biso   1.000  N
  O97      1.0000 0.26128  0.50003  0.97706  Biso   1.000  O
  C466     1.0000 0.19784  0.54394  0.75651  Biso   1.000  C
  C467     1.0000 0.24824  0.43507  0.68477  Biso   1.000  C
  N238     1.0000 0.11711  0.43654  0.73457  Biso   1.000  N
  C468     1.0000 0.19789  0.54394  0.75651  Biso   1.000  C
  C469     1.0000 0.24830  0.43507  0.68484  Biso   1.000  C
  C470     1.0000 0.24830  0.43507  0.68477  Biso   1.000  C
  C471     1.0000 0.24824  0.43507  0.68484  Biso   1.000  C
  H575     1.0000 0.12523  0.33413  0.68524  Biso   1.000  H
  H576     1.0000 0.04074  0.36689  0.67733  Biso   1.000  H
  H577     1.0000 0.12529  0.33413  0.68530  Biso   1.000  H
  H578     1.0000 0.04074  0.36689  0.67739  Biso   1.000  H
  H579     1.0000 0.12529  0.33413  0.68524  Biso   1.000  H
  H580     1.0000 0.04079  0.36689  0.67733  Biso   1.000  H
  H581     1.0000 0.12524  0.33413  0.68530  Biso   1.000  H
  C472     1.0000 0.91278  0.36264  0.28345  Biso   1.000  C
  C473     1.0000 0.91272  0.36264  0.28345  Biso   1.000  C
  C474     1.0000 0.83514  0.30487  0.00439  Biso   1.000  C
  C475     1.0000 0.83508  0.30487  0.00439  Biso   1.000  C
  C476     1.0000 0.83832  0.22124  0.21104  Biso   1.000  C
  N239     1.0000 0.82526  0.32021  0.09215  Biso   1.000  N
  H582     1.0000 0.85793  0.14050  0.07719  Biso   1.000  H
  H583     1.0000 0.92131  0.13399  0.15559  Biso   1.000  H
  H584     1.0000 0.94419  0.12182  0.05738  Biso   1.000  H
  H585     1.0000 0.85787  0.14050  0.07719  Biso   1.000  H
  H586     1.0000 0.92126  0.13399  0.15565  Biso   1.000  H
  H587     1.0000 0.94419  0.12182  0.05745  Biso   1.000  H
  H588     1.0000 0.92126  0.13399  0.15559  Biso   1.000  H
  H589     1.0000 0.92132  0.13399  0.15565  Biso   1.000  H
  C477     1.0000 0.23956  0.63764  0.88025  Biso   1.000  C
  C478     1.0000 0.23957  0.63764  0.88032  Biso   1.000  C
  C479     1.0000 0.23951  0.63764  0.88032  Biso   1.000  C
  C480     1.0000 0.24824  0.56493  0.68477  Biso   1.000  C
  N240     1.0000 0.11711  0.56346  0.73457  Biso   1.000  N
  C481     1.0000 0.24830  0.56493  0.68484  Biso   1.000  C
  C482     1.0000 0.24830  0.56493  0.68477  Biso   1.000  C
  C483     1.0000 0.24824  0.56493  0.68484  Biso   1.000  C
  H590     1.0000 0.30092  0.44893  0.70146  Biso   1.000  H
  H591     1.0000 0.23144  0.46121  0.63125  Biso   1.000  H
  H592     1.0000 0.24526  0.38149  0.67493  Biso   1.000  H
  H593     1.0000 0.30098  0.44893  0.70146  Biso   1.000  H
  H594     1.0000 0.24526  0.38149  0.67500  Biso   1.000  H
  H595     1.0000 0.23150  0.46121  0.63125  Biso   1.000  H
  C484     1.0000 0.07107  0.50003  0.72420  Biso   1.000  C
  H596     1.0000 0.87471  0.33413  0.31470  Biso   1.000  H
  H597     1.0000 0.95920  0.36689  0.32261  Biso   1.000  H
  N241     1.0000 0.88283  0.43654  0.26536  Biso   1.000  N
  H598     1.0000 0.87465  0.33413  0.31470  Biso   1.000  H
  H599     1.0000 0.95915  0.36689  0.32261  Biso   1.000  H
  N242     1.0000 0.88283  0.43654  0.26543  Biso   1.000  N
  O98      1.0000 0.79591  0.32898  0.94069  Biso   1.000  O
  O99      1.0000 0.79585  0.32898  0.94069  Biso   1.000  O
  H600     1.0000 0.80192  0.19069  0.17640  Biso   1.000  H
  H601     1.0000 0.81153  0.24919  0.25452  Biso   1.000  H
  H602     1.0000 0.87678  0.18933  0.24049  Biso   1.000  H
  H603     1.0000 0.80187  0.19069  0.17640  Biso   1.000  H
  H604     1.0000 0.81147  0.24919  0.25452  Biso   1.000  H
  C485     1.0000 0.76038  0.36242  0.11968  Biso   1.000  C
  H605     1.0000 0.26341  0.66553  0.83351  Biso   1.000  H
  H606     1.0000 0.27752  0.63390  0.93012  Biso   1.000  H
  N243     1.0000 0.17468  0.67985  0.90778  Biso   1.000  N
  H607     1.0000 0.26347  0.66553  0.83358  Biso   1.000  H
  H608     1.0000 0.27758  0.63390  0.93019  Biso   1.000  H
  H609     1.0000 0.26347  0.66553  0.83351  Biso   1.000  H
  H610     1.0000 0.27758  0.63390  0.93012  Biso   1.000  H
  H611     1.0000 0.26342  0.66553  0.83358  Biso   1.000  H
  H612     1.0000 0.27753  0.63390  0.93019  Biso   1.000  H
  H613     1.0000 0.30092  0.55112  0.70146  Biso   1.000  H
  H614     1.0000 0.23144  0.53879  0.63125  Biso   1.000  H
  H615     1.0000 0.24526  0.61851  0.67493  Biso   1.000  H
  H616     1.0000 0.30098  0.55112  0.70146  Biso   1.000  H
  H617     1.0000 0.24526  0.61851  0.67500  Biso   1.000  H
  H618     1.0000 0.23150  0.53879  0.63125  Biso   1.000  H
  C486     1.0000 0.08716  0.63741  0.71649  Biso   1.000  C
  C487     1.0000 0.08722  0.63741  0.71649  Biso   1.000  C
  O100     1.0000 0.00069  0.50003  0.70618  Biso   1.000  O
  O101     1.0000 0.00075  0.50003  0.70625  Biso   1.000  O
  O102     1.0000 0.00075  0.50003  0.70618  Biso   1.000  O
  O103     1.0000 0.00069  0.50003  0.70625  Biso   1.000  O
  C488     1.0000 0.92887  0.50003  0.27573  Biso   1.000  C
  C489     1.0000 0.80210  0.45606  0.24342  Biso   1.000  C
  C490     1.0000 0.92888  0.50003  0.27580  Biso   1.000  C
  C491     1.0000 0.80205  0.45606  0.24349  Biso   1.000  C
  C492     1.0000 0.80204  0.45606  0.24342  Biso   1.000  C
  C493     1.0000 0.80211  0.45606  0.24349  Biso   1.000  C
  H619     1.0000 0.73653  0.33452  0.16642  Biso   1.000  H
  H620     1.0000 0.72242  0.36610  0.06981  Biso   1.000  H
  N244     1.0000 0.77802  0.43750  0.15160  Biso   1.000  N
  H621     1.0000 0.73647  0.33452  0.16642  Biso   1.000  H
  H622     1.0000 0.72236  0.36610  0.06981  Biso   1.000  H
  N245     1.0000 0.77802  0.43750  0.15166  Biso   1.000  N
  C494     1.0000 0.16480  0.69513  0.99555  Biso   1.000  C
  C495     1.0000 0.12291  0.72500  0.84854  Biso   1.000  C
  C496     1.0000 0.16486  0.69513  0.99561  Biso   1.000  C
  C497     1.0000 0.12292  0.72500  0.84860  Biso   1.000  C
  C498     1.0000 0.16486  0.69513  0.99555  Biso   1.000  C
  C499     1.0000 0.16481  0.69513  0.99561  Biso   1.000  C
  H623     1.0000 0.12523  0.66593  0.68524  Biso   1.000  H
  H624     1.0000 0.04074  0.63311  0.67733  Biso   1.000  H
  N246     1.0000 0.06814  0.67940  0.79534  Biso   1.000  N
  H625     1.0000 0.12529  0.66593  0.68530  Biso   1.000  H
  H626     1.0000 0.04074  0.63311  0.67739  Biso   1.000  H
  N247     1.0000 0.06820  0.67940  0.79534  Biso   1.000  N
  H627     1.0000 0.12529  0.66593  0.68524  Biso   1.000  H
  H628     1.0000 0.04079  0.63311  0.67733  Biso   1.000  H
  H629     1.0000 0.12524  0.66593  0.68530  Biso   1.000  H
  N248     1.0000 0.88283  0.56346  0.26536  Biso   1.000  N
  O104     1.0000 0.99925  0.50003  0.29375  Biso   1.000  O
  N249     1.0000 0.88283  0.56346  0.26543  Biso   1.000  N
  O105     1.0000 0.99919  0.50003  0.29375  Biso   1.000  O
  C500     1.0000 0.80210  0.54394  0.24342  Biso   1.000  C
  C501     1.0000 0.75170  0.43507  0.31516  Biso   1.000  C
  C502     1.0000 0.80205  0.54394  0.24349  Biso   1.000  C
  C503     1.0000 0.75164  0.43507  0.31516  Biso   1.000  C
  C504     1.0000 0.80204  0.54394  0.24342  Biso   1.000  C
  C505     1.0000 0.80211  0.54394  0.24349  Biso   1.000  C
  C506     1.0000 0.76289  0.50003  0.10013  Biso   1.000  C
  C507     1.0000 0.76283  0.50003  0.10013  Biso   1.000  C
  N250     1.0000 0.10334  0.74441  0.00073  Biso   1.000  N
  O106     1.0000 0.20403  0.67108  0.05924  Biso   1.000  O
  O107     1.0000 0.20409  0.67108  0.05931  Biso   1.000  O
  N251     1.0000 0.10328  0.74441  0.00073  Biso   1.000  N
  O108     1.0000 0.20403  0.67108  0.05931  Biso   1.000  O
  C508     1.0000 0.07173  0.76778  0.91263  Biso   1.000  C
  C509     1.0000 0.16162  0.77876  0.78890  Biso   1.000  C
  C510     1.0000 0.07179  0.76778  0.91263  Biso   1.000  C
  C511     1.0000 0.16162  0.77876  0.78896  Biso   1.000  C
  C512     1.0000 0.99425  0.68924  0.81782  Biso   1.000  C
  C513     1.0000 0.91278  0.63741  0.28345  Biso   1.000  C
  C514     1.0000 0.91272  0.63741  0.28345  Biso   1.000  C
  C515     1.0000 0.75170  0.56493  0.31516  Biso   1.000  C
  N252     1.0000 0.77802  0.56255  0.15160  Biso   1.000  N
  C516     1.0000 0.75164  0.56493  0.31516  Biso   1.000  C
  N253     1.0000 0.77802  0.56255  0.15166  Biso   1.000  N
  H630     1.0000 0.69902  0.44893  0.29847  Biso   1.000  H
  H631     1.0000 0.76850  0.46121  0.36869  Biso   1.000  H
  H632     1.0000 0.75468  0.38149  0.32500  Biso   1.000  H
  H633     1.0000 0.69897  0.44893  0.29854  Biso   1.000  H
  H634     1.0000 0.76844  0.46121  0.36869  Biso   1.000  H
  H635     1.0000 0.69896  0.44893  0.29847  Biso   1.000  H
  H636     1.0000 0.69902  0.44893  0.29854  Biso   1.000  H
  O109     1.0000 0.73866  0.50003  0.02287  Biso   1.000  O
  O110     1.0000 0.73866  0.50003  0.02294  Biso   1.000  O
  C517     1.0000 0.07701  0.77203  0.08305  Biso   1.000  C
  N254     1.0000 0.99457  0.73808  0.88896  Biso   1.000  N
  N255     1.0000 0.99458  0.73808  0.88903  Biso   1.000  N
  N256     1.0000 0.99452  0.73808  0.88896  Biso   1.000  N
  C518     1.0000 0.08851  0.85022  0.90485  Biso   1.000  C
  C519     1.0000 0.08857  0.85022  0.90485  Biso   1.000  C
  H637     1.0000 0.19801  0.80931  0.82354  Biso   1.000  H
  H638     1.0000 0.18841  0.75081  0.74541  Biso   1.000  H
  H639     1.0000 0.12315  0.81073  0.75944  Biso   1.000  H
  H640     1.0000 0.19807  0.80931  0.82354  Biso   1.000  H
  H641     1.0000 0.18847  0.75081  0.74548  Biso   1.000  H
  H642     1.0000 0.18847  0.75081  0.74541  Biso   1.000  H
  H643     1.0000 0.18842  0.75081  0.74548  Biso   1.000  H
  O111     1.0000 0.93629  0.66016  0.78105  Biso   1.000  O
  O112     1.0000 0.93623  0.66016  0.78105  Biso   1.000  O
  H644     1.0000 0.87471  0.66593  0.31470  Biso   1.000  H
  H645     1.0000 0.95920  0.63311  0.32261  Biso   1.000  H
  N257     1.0000 0.93180  0.67940  0.20459  Biso   1.000  N
  H646     1.0000 0.87465  0.66593  0.31470  Biso   1.000  H
  H647     1.0000 0.95915  0.63311  0.32261  Biso   1.000  H
  N258     1.0000 0.93174  0.67940  0.20459  Biso   1.000  N
  H648     1.0000 0.69902  0.55112  0.29847  Biso   1.000  H
  H649     1.0000 0.76850  0.53879  0.36869  Biso   1.000  H
  H650     1.0000 0.75468  0.61851  0.32500  Biso   1.000  H
  H651     1.0000 0.69897  0.55112  0.29854  Biso   1.000  H
  H652     1.0000 0.76844  0.53879  0.36869  Biso   1.000  H
  H653     1.0000 0.69896  0.55112  0.29847  Biso   1.000  H
  H654     1.0000 0.69902  0.55112  0.29854  Biso   1.000  H
  C520     1.0000 0.76038  0.63764  0.11968  Biso   1.000  C
  N259     1.0000 0.00536  0.73808  0.11097  Biso   1.000  N
  H655     1.0000 0.11757  0.76342  0.12919  Biso   1.000  H
  H656     1.0000 0.06940  0.82635  0.07799  Biso   1.000  H
  N260     1.0000 0.00542  0.73808  0.11097  Biso   1.000  N
  H657     1.0000 0.11763  0.76342  0.12919  Biso   1.000  H
  C521     1.0000 0.92293  0.77203  0.91689  Biso   1.000  C
  C522     1.0000 0.92293  0.77203  0.91695  Biso   1.000  C
  H658     1.0000 0.14201  0.85950  0.92274  Biso   1.000  H
  H659     1.0000 0.07862  0.86601  0.84435  Biso   1.000  H
  H660     1.0000 0.05575  0.87823  0.94255  Biso   1.000  H
  H661     1.0000 0.14207  0.85950  0.92274  Biso   1.000  H
  H662     1.0000 0.07868  0.86601  0.84435  Biso   1.000  H
  C523     1.0000 0.00569  0.68924  0.18212  Biso   1.000  C
  C524     1.0000 0.00569  0.68924  0.18218  Biso   1.000  C
  C525     1.0000 0.87702  0.72500  0.15140  Biso   1.000  C
  H663     1.0000 0.73653  0.66553  0.16642  Biso   1.000  H
  H664     1.0000 0.72242  0.63390  0.06981  Biso   1.000  H
  N261     1.0000 0.82526  0.67985  0.09215  Biso   1.000  N
  H665     1.0000 0.73647  0.66553  0.16642  Biso   1.000  H
  H666     1.0000 0.72236  0.63390  0.06981  Biso   1.000  H
  C526     1.0000 0.92821  0.76778  0.08730  Biso   1.000  C
  C527     1.0000 0.92815  0.76778  0.08737  Biso   1.000  C
  C528     1.0000 0.92815  0.76778  0.08730  Biso   1.000  C
  C529     1.0000 0.92821  0.76778  0.08737  Biso   1.000  C
  H667     1.0000 0.88236  0.76342  0.87074  Biso   1.000  H
  H668     1.0000 0.93054  0.82635  0.92194  Biso   1.000  H
  N262     1.0000 0.89660  0.74441  0.99920  Biso   1.000  N
  N263     1.0000 0.89666  0.74441  0.99927  Biso   1.000  N
  H669     1.0000 0.88231  0.76342  0.87074  Biso   1.000  H
  N264     1.0000 0.89660  0.74441  0.99927  Biso   1.000  N
  O113     1.0000 0.06365  0.66016  0.21888  Biso   1.000  O
  O114     1.0000 0.06371  0.66016  0.21895  Biso   1.000  O
  O115     1.0000 0.06366  0.66016  0.21895  Biso   1.000  O
  C530     1.0000 0.83832  0.77876  0.21104  Biso   1.000  C
  C531     1.0000 0.83514  0.69513  0.00439  Biso   1.000  C
  C532     1.0000 0.83508  0.69513  0.00439  Biso   1.000  C
  C533     1.0000 0.91142  0.85022  0.09508  Biso   1.000  C
  C534     1.0000 0.91137  0.85022  0.09515  Biso   1.000  C
  C535     1.0000 0.91137  0.85022  0.09508  Biso   1.000  C
  C536     1.0000 0.91143  0.85022  0.09515  Biso   1.000  C
  H670     1.0000 0.80192  0.80931  0.17640  Biso   1.000  H
  H671     1.0000 0.81153  0.75081  0.25452  Biso   1.000  H
  H672     1.0000 0.87678  0.81073  0.24049  Biso   1.000  H
  H673     1.0000 0.80187  0.80931  0.17640  Biso   1.000  H
  H674     1.0000 0.81147  0.75081  0.25452  Biso   1.000  H
  O116     1.0000 0.79591  0.67108  0.94069  Biso   1.000  O
  O117     1.0000 0.79585  0.67108  0.94069  Biso   1.000  O
  H675     1.0000 0.85793  0.85950  0.07719  Biso   1.000  H
  H676     1.0000 0.92131  0.86601  0.15559  Biso   1.000  H
  H677     1.0000 0.94419  0.87823  0.05738  Biso   1.000  H
  H678     1.0000 0.85787  0.85950  0.07719  Biso   1.000  H
  H679     1.0000 0.92126  0.86601  0.15565  Biso   1.000  H
  H680     1.0000 0.94419  0.87823  0.05745  Biso   1.000  H
  H681     1.0000 0.92126  0.86601  0.15559  Biso   1.000  H
  H682     1.0000 0.92132  0.86601  0.15565  Biso   1.000  H
  O118     1.0000 0.20409  0.32898  0.05931  Biso   1.000  O
  C537     1.0000 0.16480  0.30487  0.99555  Biso   1.000  C
  C538     1.0000 0.16486  0.30487  0.99561  Biso   1.000  C
  C539     1.0000 0.16486  0.30487  0.99555  Biso   1.000  C
  C540     1.0000 0.16481  0.30487  0.99561  Biso   1.000  C
  O119     1.0000 0.20403  0.32898  0.05924  Biso   1.000  O
  N265     1.0000 0.10334  0.25559  0.00073  Biso   1.000  N
  N266     1.0000 0.17468  0.32021  0.90778  Biso   1.000  N
  N267     1.0000 0.10328  0.25559  0.00073  Biso   1.000  N
  O120     1.0000 0.20403  0.32898  0.05931  Biso   1.000  O
  C541     1.0000 0.07701  0.22797  0.08305  Biso   1.000  C
  C542     1.0000 0.07173  0.23222  0.91263  Biso   1.000  C
  C543     1.0000 0.07179  0.23222  0.91263  Biso   1.000  C
  C544     1.0000 0.23956  0.36242  0.88025  Biso   1.000  C
  C545     1.0000 0.12291  0.27505  0.84854  Biso   1.000  C
  C546     1.0000 0.23957  0.36242  0.88032  Biso   1.000  C
  C547     1.0000 0.12292  0.27505  0.84860  Biso   1.000  C
  C548     1.0000 0.23951  0.36242  0.88032  Biso   1.000  C
  H683     1.0000 0.06940  0.17371  0.07799  Biso   1.000  H
  H684     1.0000 0.11757  0.23663  0.12919  Biso   1.000  H
  N268     1.0000 0.00536  0.26192  0.11097  Biso   1.000  N
  H685     1.0000 0.11763  0.23663  0.12919  Biso   1.000  H
  N269     1.0000 0.00542  0.26192  0.11097  Biso   1.000  N
  N270     1.0000 0.99457  0.26192  0.88896  Biso   1.000  N
  N271     1.0000 0.99458  0.26192  0.88903  Biso   1.000  N
  N272     1.0000 0.99452  0.26192  0.88896  Biso   1.000  N
  C549     1.0000 0.08851  0.14978  0.90485  Biso   1.000  C
  C550     1.0000 0.08857  0.14978  0.90485  Biso   1.000  C
  H686     1.0000 0.26341  0.33452  0.83351  Biso   1.000  H
  H687     1.0000 0.27752  0.36610  0.93012  Biso   1.000  H
  N273     1.0000 0.22192  0.43750  0.84834  Biso   1.000  N
  H688     1.0000 0.26347  0.33452  0.83358  Biso   1.000  H
  H689     1.0000 0.27758  0.36610  0.93019  Biso   1.000  H
  H690     1.0000 0.26347  0.33452  0.83351  Biso   1.000  H
  H691     1.0000 0.27758  0.36610  0.93012  Biso   1.000  H
  H692     1.0000 0.26342  0.33452  0.83358  Biso   1.000  H
  H693     1.0000 0.27753  0.36610  0.93019  Biso   1.000  H
  C551     1.0000 0.16162  0.22124  0.78890  Biso   1.000  C
  N274     1.0000 0.06814  0.32066  0.79534  Biso   1.000  N
  C552     1.0000 0.16162  0.22124  0.78896  Biso   1.000  C
  N275     1.0000 0.06820  0.32066  0.79534  Biso   1.000  N
  C553     1.0000 0.00569  0.31081  0.18212  Biso   1.000  C
  C554     1.0000 0.00569  0.31081  0.18218  Biso   1.000  C
  C555     1.0000 0.92821  0.23222  0.08730  Biso   1.000  C
  C556     1.0000 0.92815  0.23222  0.08737  Biso   1.000  C
  C557     1.0000 0.92815  0.23222  0.08730  Biso   1.000  C
  C558     1.0000 0.92821  0.23222  0.08737  Biso   1.000  C
  C559     1.0000 0.99425  0.31081  0.81782  Biso   1.000  C
  C560     1.0000 0.92293  0.22797  0.91689  Biso   1.000  C
  C561     1.0000 0.92293  0.22797  0.91695  Biso   1.000  C
  H694     1.0000 0.14201  0.14050  0.92274  Biso   1.000  H
  H695     1.0000 0.07862  0.13399  0.84435  Biso   1.000  H
  H696     1.0000 0.05575  0.12182  0.94255  Biso   1.000  H
  H697     1.0000 0.14207  0.14050  0.92274  Biso   1.000  H
  H698     1.0000 0.07868  0.13399  0.84435  Biso   1.000  H
  C562     1.0000 0.23705  0.50003  0.89980  Biso   1.000  C
  C563     1.0000 0.19784  0.45606  0.75651  Biso   1.000  C
  C564     1.0000 0.23705  0.50003  0.89987  Biso   1.000  C
  C565     1.0000 0.19789  0.45606  0.75651  Biso   1.000  C
  C566     1.0000 0.23711  0.50003  0.89980  Biso   1.000  C
  H699     1.0000 0.19801  0.19069  0.82354  Biso   1.000  H
  H700     1.0000 0.18841  0.24919  0.74541  Biso   1.000  H
  H701     1.0000 0.12315  0.18933  0.75944  Biso   1.000  H
  H702     1.0000 0.19807  0.19069  0.82354  Biso   1.000  H
  H703     1.0000 0.18847  0.24919  0.74548  Biso   1.000  H
  H704     1.0000 0.18847  0.24919  0.74541  Biso   1.000  H
  H705     1.0000 0.18842  0.24919  0.74548  Biso   1.000  H
  C567     1.0000 0.08716  0.36264  0.71649  Biso   1.000  C
  C568     1.0000 0.08722  0.36264  0.71649  Biso   1.000  C
  O121     1.0000 0.06365  0.33984  0.21888  Biso   1.000  O
  N276     1.0000 0.93180  0.32066  0.20459  Biso   1.000  N
  N277     1.0000 0.93174  0.32066  0.20459  Biso   1.000  N
  O122     1.0000 0.06371  0.33984  0.21895  Biso   1.000  O
  O123     1.0000 0.06366  0.33984  0.21895  Biso   1.000  O
  N278     1.0000 0.89660  0.25559  0.99920  Biso   1.000  N
  N279     1.0000 0.89666  0.25559  0.99927  Biso   1.000  N
  N280     1.0000 0.89660  0.25559  0.99927  Biso   1.000  N
  C569     1.0000 0.87702  0.27505  0.15140  Biso   1.000  C
  C570     1.0000 0.91142  0.14978  0.09508  Biso   1.000  C
  C571     1.0000 0.91137  0.14978  0.09515  Biso   1.000  C
  C572     1.0000 0.91137  0.14978  0.09508  Biso   1.000  C
  C573     1.0000 0.91143  0.14978  0.09515  Biso   1.000  C
  O124     1.0000 0.93629  0.33984  0.78105  Biso   1.000  O
  O125     1.0000 0.93623  0.33984  0.78105  Biso   1.000  O
  H706     1.0000 0.88236  0.23663  0.87074  Biso   1.000  H
  H707     1.0000 0.93054  0.17371  0.92194  Biso   1.000  H
  H708     1.0000 0.88231  0.23663  0.87074  Biso   1.000  H
  N281     1.0000 0.22192  0.56255  0.84834  Biso   1.000  N
  O126     1.0000 0.26128  0.50003  0.97706  Biso   1.000  O
  C574     1.0000 0.19784  0.54394  0.75651  Biso   1.000  C
  C575     1.0000 0.24824  0.43507  0.68477  Biso   1.000  C
  N282     1.0000 0.11711  0.43654  0.73457  Biso   1.000  N
  C576     1.0000 0.19789  0.54394  0.75651  Biso   1.000  C
  C577     1.0000 0.24830  0.43507  0.68484  Biso   1.000  C
  C578     1.0000 0.24830  0.43507  0.68477  Biso   1.000  C
  C579     1.0000 0.24824  0.43507  0.68484  Biso   1.000  C
  H709     1.0000 0.12523  0.33413  0.68524  Biso   1.000  H
  H710     1.0000 0.04074  0.36689  0.67733  Biso   1.000  H
  H711     1.0000 0.12529  0.33413  0.68530  Biso   1.000  H
  H712     1.0000 0.04074  0.36689  0.67739  Biso   1.000  H
  H713     1.0000 0.12529  0.33413  0.68524  Biso   1.000  H
  H714     1.0000 0.04079  0.36689  0.67733  Biso   1.000  H
  H715     1.0000 0.12524  0.33413  0.68530  Biso   1.000  H
  C580     1.0000 0.91278  0.36264  0.28345  Biso   1.000  C
  C581     1.0000 0.91272  0.36264  0.28345  Biso   1.000  C
  C582     1.0000 0.83514  0.30487  0.00439  Biso   1.000  C
  C583     1.0000 0.83508  0.30487  0.00439  Biso   1.000  C
  C584     1.0000 0.83832  0.22124  0.21104  Biso   1.000  C
  N283     1.0000 0.82526  0.32021  0.09215  Biso   1.000  N
  H716     1.0000 0.85793  0.14050  0.07719  Biso   1.000  H
  H717     1.0000 0.92131  0.13399  0.15559  Biso   1.000  H
  H718     1.0000 0.94419  0.12182  0.05738  Biso   1.000  H
  H719     1.0000 0.85787  0.14050  0.07719  Biso   1.000  H
  H720     1.0000 0.92126  0.13399  0.15565  Biso   1.000  H
  H721     1.0000 0.94419  0.12182  0.05745  Biso   1.000  H
  H722     1.0000 0.92126  0.13399  0.15559  Biso   1.000  H
  H723     1.0000 0.92132  0.13399  0.15565  Biso   1.000  H
  C585     1.0000 0.23956  0.63764  0.88025  Biso   1.000  C
  C586     1.0000 0.23957  0.63764  0.88032  Biso   1.000  C
  C587     1.0000 0.23951  0.63764  0.88032  Biso   1.000  C
  C588     1.0000 0.24824  0.56493  0.68477  Biso   1.000  C
  N284     1.0000 0.11711  0.56346  0.73457  Biso   1.000  N
  C589     1.0000 0.24830  0.56493  0.68484  Biso   1.000  C
  C590     1.0000 0.24830  0.56493  0.68477  Biso   1.000  C
  C591     1.0000 0.24824  0.56493  0.68484  Biso   1.000  C
  H724     1.0000 0.30092  0.44893  0.70146  Biso   1.000  H
  H725     1.0000 0.23144  0.46121  0.63125  Biso   1.000  H
  H726     1.0000 0.24526  0.38149  0.67493  Biso   1.000  H
  H727     1.0000 0.30098  0.44893  0.70146  Biso   1.000  H
  H728     1.0000 0.24526  0.38149  0.67500  Biso   1.000  H
  H729     1.0000 0.23150  0.46121  0.63125  Biso   1.000  H
  C592     1.0000 0.07107  0.50003  0.72420  Biso   1.000  C
  H730     1.0000 0.87471  0.33413  0.31470  Biso   1.000  H
  H731     1.0000 0.95920  0.36689  0.32261  Biso   1.000  H
  N285     1.0000 0.88283  0.43654  0.26536  Biso   1.000  N
  H732     1.0000 0.87465  0.33413  0.31470  Biso   1.000  H
  H733     1.0000 0.95915  0.36689  0.32261  Biso   1.000  H
  N286     1.0000 0.88283  0.43654  0.26543  Biso   1.000  N
  O127     1.0000 0.79591  0.32898  0.94069  Biso   1.000  O
  O128     1.0000 0.79585  0.32898  0.94069  Biso   1.000  O
  H734     1.0000 0.80192  0.19069  0.17640  Biso   1.000  H
  H735     1.0000 0.81153  0.24919  0.25452  Biso   1.000  H
  H736     1.0000 0.87678  0.18933  0.24049  Biso   1.000  H
  H737     1.0000 0.80187  0.19069  0.17640  Biso   1.000  H
  H738     1.0000 0.81147  0.24919  0.25452  Biso   1.000  H
  C593     1.0000 0.76038  0.36242  0.11968  Biso   1.000  C
  H739     1.0000 0.26341  0.66553  0.83351  Biso   1.000  H
  H740     1.0000 0.27752  0.63390  0.93012  Biso   1.000  H
  N287     1.0000 0.17468  0.67985  0.90778  Biso   1.000  N
  H741     1.0000 0.26347  0.66553  0.83358  Biso   1.000  H
  H742     1.0000 0.27758  0.63390  0.93019  Biso   1.000  H
  H743     1.0000 0.26347  0.66553  0.83351  Biso   1.000  H
  H744     1.0000 0.27758  0.63390  0.93012  Biso   1.000  H
  H745     1.0000 0.26342  0.66553  0.83358  Biso   1.000  H
  H746     1.0000 0.27753  0.63390  0.93019  Biso   1.000  H
  H747     1.0000 0.30092  0.55112  0.70146  Biso   1.000  H
  H748     1.0000 0.23144  0.53879  0.63125  Biso   1.000  H
  H749     1.0000 0.24526  0.61851  0.67493  Biso   1.000  H
  H750     1.0000 0.30098  0.55112  0.70146  Biso   1.000  H
  H751     1.0000 0.24526  0.61851  0.67500  Biso   1.000  H
  H752     1.0000 0.23150  0.53879  0.63125  Biso   1.000  H
  C594     1.0000 0.08716  0.63741  0.71649  Biso   1.000  C
  C595     1.0000 0.08722  0.63741  0.71649  Biso   1.000  C
  O129     1.0000 0.00069  0.50003  0.70618  Biso   1.000  O
  O130     1.0000 0.00075  0.50003  0.70625  Biso   1.000  O
  O131     1.0000 0.00075  0.50003  0.70618  Biso   1.000  O
  O132     1.0000 0.00069  0.50003  0.70625  Biso   1.000  O
  C596     1.0000 0.92887  0.50003  0.27573  Biso   1.000  C
  C597     1.0000 0.80210  0.45606  0.24342  Biso   1.000  C
  C598     1.0000 0.92888  0.50003  0.27580  Biso   1.000  C
  C599     1.0000 0.80205  0.45606  0.24349  Biso   1.000  C
  C600     1.0000 0.80204  0.45606  0.24342  Biso   1.000  C
  C601     1.0000 0.80211  0.45606  0.24349  Biso   1.000  C
  H753     1.0000 0.73653  0.33452  0.16642  Biso   1.000  H
  H754     1.0000 0.72242  0.36610  0.06981  Biso   1.000  H
  N288     1.0000 0.77802  0.43750  0.15160  Biso   1.000  N
  H755     1.0000 0.73647  0.33452  0.16642  Biso   1.000  H
  H756     1.0000 0.72236  0.36610  0.06981  Biso   1.000  H
  N289     1.0000 0.77802  0.43750  0.15166  Biso   1.000  N
  C602     1.0000 0.16480  0.69513  0.99555  Biso   1.000  C
  C603     1.0000 0.12291  0.72500  0.84854  Biso   1.000  C
  C604     1.0000 0.16486  0.69513  0.99561  Biso   1.000  C
  C605     1.0000 0.12292  0.72500  0.84860  Biso   1.000  C
  C606     1.0000 0.16486  0.69513  0.99555  Biso   1.000  C
  C607     1.0000 0.16481  0.69513  0.99561  Biso   1.000  C
  H757     1.0000 0.12523  0.66593  0.68524  Biso   1.000  H
  H758     1.0000 0.04074  0.63311  0.67733  Biso   1.000  H
  N290     1.0000 0.06814  0.67940  0.79534  Biso   1.000  N
  H759     1.0000 0.12529  0.66593  0.68530  Biso   1.000  H
  H760     1.0000 0.04074  0.63311  0.67739  Biso   1.000  H
  N291     1.0000 0.06820  0.67940  0.79534  Biso   1.000  N
  H761     1.0000 0.12529  0.66593  0.68524  Biso   1.000  H
  H762     1.0000 0.04079  0.63311  0.67733  Biso   1.000  H
  H763     1.0000 0.12524  0.66593  0.68530  Biso   1.000  H
  N292     1.0000 0.88283  0.56346  0.26536  Biso   1.000  N
  O133     1.0000 0.99925  0.50003  0.29375  Biso   1.000  O
  N293     1.0000 0.88283  0.56346  0.26543  Biso   1.000  N
  O134     1.0000 0.99919  0.50003  0.29375  Biso   1.000  O
  C608     1.0000 0.80210  0.54394  0.24342  Biso   1.000  C
  C609     1.0000 0.75170  0.43507  0.31516  Biso   1.000  C
  C610     1.0000 0.80205  0.54394  0.24349  Biso   1.000  C
  C611     1.0000 0.75164  0.43507  0.31516  Biso   1.000  C
  C612     1.0000 0.80204  0.54394  0.24342  Biso   1.000  C
  C613     1.0000 0.80211  0.54394  0.24349  Biso   1.000  C
  C614     1.0000 0.76289  0.50003  0.10013  Biso   1.000  C
  C615     1.0000 0.76283  0.50003  0.10013  Biso   1.000  C
  N294     1.0000 0.10334  0.74441  0.00073  Biso   1.000  N
  O135     1.0000 0.20403  0.67108  0.05924  Biso   1.000  O
  O136     1.0000 0.20409  0.67108  0.05931  Biso   1.000  O
  N295     1.0000 0.10328  0.74441  0.00073  Biso   1.000  N
  O137     1.0000 0.20403  0.67108  0.05931  Biso   1.000  O
  C616     1.0000 0.07173  0.76778  0.91263  Biso   1.000  C
  C617     1.0000 0.16162  0.77876  0.78890  Biso   1.000  C
  C618     1.0000 0.07179  0.76778  0.91263  Biso   1.000  C
  C619     1.0000 0.16162  0.77876  0.78896  Biso   1.000  C
  C620     1.0000 0.99425  0.68924  0.81782  Biso   1.000  C
  C621     1.0000 0.91278  0.63741  0.28345  Biso   1.000  C
  C622     1.0000 0.91272  0.63741  0.28345  Biso   1.000  C
  C623     1.0000 0.75170  0.56493  0.31516  Biso   1.000  C
  N296     1.0000 0.77802  0.56255  0.15160  Biso   1.000  N
  C624     1.0000 0.75164  0.56493  0.31516  Biso   1.000  C
  N297     1.0000 0.77802  0.56255  0.15166  Biso   1.000  N
  H764     1.0000 0.69902  0.44893  0.29847  Biso   1.000  H
  H765     1.0000 0.76850  0.46121  0.36869  Biso   1.000  H
  H766     1.0000 0.75468  0.38149  0.32500  Biso   1.000  H
  H767     1.0000 0.69897  0.44893  0.29854  Biso   1.000  H
  H768     1.0000 0.76844  0.46121  0.36869  Biso   1.000  H
  H769     1.0000 0.69896  0.44893  0.29847  Biso   1.000  H
  H770     1.0000 0.69902  0.44893  0.29854  Biso   1.000  H
  O138     1.0000 0.73866  0.50003  0.02287  Biso   1.000  O
  O139     1.0000 0.73866  0.50003  0.02294  Biso   1.000  O
  C625     1.0000 0.07701  0.77203  0.08305  Biso   1.000  C
  N298     1.0000 0.99457  0.73808  0.88896  Biso   1.000  N
  N299     1.0000 0.99458  0.73808  0.88903  Biso   1.000  N
  N300     1.0000 0.99452  0.73808  0.88896  Biso   1.000  N
  C626     1.0000 0.08851  0.85022  0.90485  Biso   1.000  C
  C627     1.0000 0.08857  0.85022  0.90485  Biso   1.000  C
  H771     1.0000 0.19801  0.80931  0.82354  Biso   1.000  H
  H772     1.0000 0.18841  0.75081  0.74541  Biso   1.000  H
  H773     1.0000 0.12315  0.81073  0.75944  Biso   1.000  H
  H774     1.0000 0.19807  0.80931  0.82354  Biso   1.000  H
  H775     1.0000 0.18847  0.75081  0.74548  Biso   1.000  H
  H776     1.0000 0.18847  0.75081  0.74541  Biso   1.000  H
  H777     1.0000 0.18842  0.75081  0.74548  Biso   1.000  H
  O140     1.0000 0.93629  0.66016  0.78105  Biso   1.000  O
  O141     1.0000 0.93623  0.66016  0.78105  Biso   1.000  O
  H778     1.0000 0.87471  0.66593  0.31470  Biso   1.000  H
  H779     1.0000 0.95920  0.63311  0.32261  Biso   1.000  H
  N301     1.0000 0.93180  0.67940  0.20459  Biso   1.000  N
  H780     1.0000 0.87465  0.66593  0.31470  Biso   1.000  H
  H781     1.0000 0.95915  0.63311  0.32261  Biso   1.000  H
  N302     1.0000 0.93174  0.67940  0.20459  Biso   1.000  N
  H782     1.0000 0.69902  0.55112  0.29847  Biso   1.000  H
  H783     1.0000 0.76850  0.53879  0.36869  Biso   1.000  H
  H784     1.0000 0.75468  0.61851  0.32500  Biso   1.000  H
  H785     1.0000 0.69897  0.55112  0.29854  Biso   1.000  H
  H786     1.0000 0.76844  0.53879  0.36869  Biso   1.000  H
  H787     1.0000 0.69896  0.55112  0.29847  Biso   1.000  H
  H788     1.0000 0.69902  0.55112  0.29854  Biso   1.000  H
  C628     1.0000 0.76038  0.63764  0.11968  Biso   1.000  C
  H789     1.0000 0.06940  0.82635  0.07799  Biso   1.000  H
  N303     1.0000 0.00536  0.73808  0.11097  Biso   1.000  N
  H790     1.0000 0.11757  0.76342  0.12919  Biso   1.000  H
  N304     1.0000 0.00542  0.73808  0.11097  Biso   1.000  N
  H791     1.0000 0.11763  0.76342  0.12919  Biso   1.000  H
  C629     1.0000 0.92293  0.77203  0.91689  Biso   1.000  C
  C630     1.0000 0.92293  0.77203  0.91695  Biso   1.000  C
  H792     1.0000 0.14201  0.85950  0.92274  Biso   1.000  H
  H793     1.0000 0.07862  0.86601  0.84435  Biso   1.000  H
  H794     1.0000 0.05575  0.87823  0.94255  Biso   1.000  H
  H795     1.0000 0.14207  0.85950  0.92274  Biso   1.000  H
  H796     1.0000 0.07868  0.86601  0.84435  Biso   1.000  H
  C631     1.0000 0.00569  0.68924  0.18212  Biso   1.000  C
  C632     1.0000 0.00569  0.68924  0.18218  Biso   1.000  C
  C633     1.0000 0.87702  0.72500  0.15140  Biso   1.000  C
  H797     1.0000 0.73653  0.66553  0.16642  Biso   1.000  H
  H798     1.0000 0.72242  0.63390  0.06981  Biso   1.000  H
  N305     1.0000 0.82526  0.67985  0.09215  Biso   1.000  N
  H799     1.0000 0.73647  0.66553  0.16642  Biso   1.000  H
  H800     1.0000 0.72236  0.63390  0.06981  Biso   1.000  H
  C634     1.0000 0.92821  0.76778  0.08730  Biso   1.000  C
  C635     1.0000 0.92815  0.76778  0.08737  Biso   1.000  C
  C636     1.0000 0.92815  0.76778  0.08730  Biso   1.000  C
  C637     1.0000 0.92821  0.76778  0.08737  Biso   1.000  C
  H801     1.0000 0.88236  0.76342  0.87074  Biso   1.000  H
  H802     1.0000 0.93054  0.82635  0.92194  Biso   1.000  H
  N306     1.0000 0.89660  0.74441  0.99920  Biso   1.000  N
  N307     1.0000 0.89666  0.74441  0.99927  Biso   1.000  N
  H803     1.0000 0.88231  0.76342  0.87074  Biso   1.000  H
  N308     1.0000 0.89660  0.74441  0.99927  Biso   1.000  N
  O142     1.0000 0.06365  0.66016  0.21888  Biso   1.000  O
  O143     1.0000 0.06371  0.66016  0.21895  Biso   1.000  O
  O144     1.0000 0.06366  0.66016  0.21895  Biso   1.000  O
  C638     1.0000 0.83832  0.77876  0.21104  Biso   1.000  C
  C639     1.0000 0.83514  0.69513  0.00439  Biso   1.000  C
  C640     1.0000 0.83508  0.69513  0.00439  Biso   1.000  C
  C641     1.0000 0.91142  0.85022  0.09508  Biso   1.000  C
  C642     1.0000 0.91137  0.85022  0.09515  Biso   1.000  C
  C643     1.0000 0.91137  0.85022  0.09508  Biso   1.000  C
  C644     1.0000 0.91143  0.85022  0.09515  Biso   1.000  C
  H804     1.0000 0.80192  0.80931  0.17640  Biso   1.000  H
  H805     1.0000 0.81153  0.75081  0.25452  Biso   1.000  H
  H806     1.0000 0.87678  0.81073  0.24049  Biso   1.000  H
  H807     1.0000 0.80187  0.80931  0.17640  Biso   1.000  H
  H808     1.0000 0.81147  0.75081  0.25452  Biso   1.000  H
  O145     1.0000 0.79591  0.67108  0.94069  Biso   1.000  O
  O146     1.0000 0.79585  0.67108  0.94069  Biso   1.000  O
  H809     1.0000 0.85793  0.85950  0.07719  Biso   1.000  H
  H810     1.0000 0.92131  0.86601  0.15559  Biso   1.000  H
  H811     1.0000 0.94419  0.87823  0.05738  Biso   1.000  H
  H812     1.0000 0.85787  0.85950  0.07719  Biso   1.000  H
  H813     1.0000 0.92126  0.86601  0.15565  Biso   1.000  H
  H814     1.0000 0.94419  0.87823  0.05745  Biso   1.000  H
  H815     1.0000 0.92126  0.86601  0.15559  Biso   1.000  H
  H816     1.0000 0.92132  0.86601  0.15565  Biso   1.000  H
  O147     1.0000 0.20409  0.32898  0.05931  Biso   1.000  O
  C645     1.0000 0.16480  0.30487  0.99555  Biso   1.000  C
  C646     1.0000 0.16486  0.30487  0.99561  Biso   1.000  C
  C647     1.0000 0.16486  0.30487  0.99555  Biso   1.000  C
  C648     1.0000 0.16481  0.30487  0.99561  Biso   1.000  C
  N309     1.0000 0.10334  0.25559  0.00073  Biso   1.000  N
  N310     1.0000 0.10328  0.25559  0.00073  Biso   1.000  N
  N311     1.0000 0.17468  0.32021  0.90778  Biso   1.000  N
  O148     1.0000 0.20403  0.32898  0.05924  Biso   1.000  O
  O149     1.0000 0.20403  0.32898  0.05931  Biso   1.000  O
  C649     1.0000 0.07701  0.22797  0.08305  Biso   1.000  C
  C650     1.0000 0.07173  0.23222  0.91263  Biso   1.000  C
  C651     1.0000 0.07179  0.23222  0.91263  Biso   1.000  C
  C652     1.0000 0.12291  0.27505  0.84854  Biso   1.000  C
  C653     1.0000 0.12292  0.27505  0.84860  Biso   1.000  C
  C654     1.0000 0.23956  0.36242  0.88025  Biso   1.000  C
  C655     1.0000 0.23957  0.36242  0.88032  Biso   1.000  C
  C656     1.0000 0.23951  0.36242  0.88032  Biso   1.000  C
  H817     1.0000 0.06940  0.17371  0.07799  Biso   1.000  H
  H818     1.0000 0.11757  0.23663  0.12919  Biso   1.000  H
  N312     1.0000 0.00536  0.26192  0.11097  Biso   1.000  N
  H819     1.0000 0.11763  0.23663  0.12919  Biso   1.000  H
  N313     1.0000 0.00542  0.26192  0.11097  Biso   1.000  N
  N314     1.0000 0.99457  0.26192  0.88896  Biso   1.000  N
  N315     1.0000 0.99458  0.26192  0.88903  Biso   1.000  N
  N316     1.0000 0.99452  0.26192  0.88896  Biso   1.000  N
  C657     1.0000 0.08851  0.14978  0.90485  Biso   1.000  C
  C658     1.0000 0.08857  0.14978  0.90485  Biso   1.000  C
  C659     1.0000 0.16162  0.22124  0.78890  Biso   1.000  C
  N317     1.0000 0.06814  0.32066  0.79534  Biso   1.000  N
  C660     1.0000 0.16162  0.22124  0.78896  Biso   1.000  C
  N318     1.0000 0.06820  0.32066  0.79534  Biso   1.000  N
  H820     1.0000 0.26341  0.33452  0.83351  Biso   1.000  H
  H821     1.0000 0.27752  0.36610  0.93012  Biso   1.000  H
  N319     1.0000 0.22192  0.43750  0.84834  Biso   1.000  N
  H822     1.0000 0.26347  0.33452  0.83358  Biso   1.000  H
  H823     1.0000 0.27758  0.36610  0.93019  Biso   1.000  H
  H824     1.0000 0.26347  0.33452  0.83351  Biso   1.000  H
  H825     1.0000 0.27758  0.36610  0.93012  Biso   1.000  H
  H826     1.0000 0.26342  0.33452  0.83358  Biso   1.000  H
  H827     1.0000 0.27753  0.36610  0.93019  Biso   1.000  H
  C661     1.0000 0.92821  0.23222  0.08730  Biso   1.000  C
  C662     1.0000 0.92815  0.23222  0.08737  Biso   1.000  C
  C663     1.0000 0.92815  0.23222  0.08730  Biso   1.000  C
  C664     1.0000 0.92821  0.23222  0.08737  Biso   1.000  C
  C665     1.0000 0.00569  0.31081  0.18212  Biso   1.000  C
  C666     1.0000 0.00569  0.31081  0.18218  Biso   1.000  C
  C667     1.0000 0.99425  0.31081  0.81782  Biso   1.000  C
  C668     1.0000 0.92293  0.22797  0.91689  Biso   1.000  C
  C669     1.0000 0.92293  0.22797  0.91695  Biso   1.000  C
  H828     1.0000 0.14201  0.14050  0.92274  Biso   1.000  H
  H829     1.0000 0.07862  0.13399  0.84435  Biso   1.000  H
  H830     1.0000 0.05575  0.12182  0.94255  Biso   1.000  H
  H831     1.0000 0.14207  0.14050  0.92274  Biso   1.000  H
  H832     1.0000 0.07868  0.13399  0.84435  Biso   1.000  H
  H833     1.0000 0.19801  0.19069  0.82354  Biso   1.000  H
  H834     1.0000 0.18841  0.24919  0.74541  Biso   1.000  H
  H835     1.0000 0.12315  0.18933  0.75944  Biso   1.000  H
  H836     1.0000 0.19807  0.19069  0.82354  Biso   1.000  H
  H837     1.0000 0.18847  0.24919  0.74548  Biso   1.000  H
  H838     1.0000 0.18847  0.24919  0.74541  Biso   1.000  H
  H839     1.0000 0.18842  0.24919  0.74548  Biso   1.000  H
  C670     1.0000 0.08716  0.36264  0.71649  Biso   1.000  C
  C671     1.0000 0.08722  0.36264  0.71649  Biso   1.000  C
  C672     1.0000 0.23705  0.50003  0.89980  Biso   1.000  C
  C673     1.0000 0.19784  0.45606  0.75651  Biso   1.000  C
  C674     1.0000 0.23705  0.50003  0.89987  Biso   1.000  C
  C675     1.0000 0.19789  0.45606  0.75651  Biso   1.000  C
  C676     1.0000 0.23711  0.50003  0.89980  Biso   1.000  C
  N320     1.0000 0.89660  0.25559  0.99920  Biso   1.000  N
  N321     1.0000 0.89666  0.25559  0.99927  Biso   1.000  N
  N322     1.0000 0.89660  0.25559  0.99927  Biso   1.000  N
  C677     1.0000 0.87702  0.27505  0.15140  Biso   1.000  C
  C678     1.0000 0.91142  0.14978  0.09508  Biso   1.000  C
  C679     1.0000 0.91137  0.14978  0.09515  Biso   1.000  C
  C680     1.0000 0.91137  0.14978  0.09508  Biso   1.000  C
  C681     1.0000 0.91143  0.14978  0.09515  Biso   1.000  C
  N323     1.0000 0.93180  0.32066  0.20459  Biso   1.000  N
  N324     1.0000 0.93174  0.32066  0.20459  Biso   1.000  N
  O150     1.0000 0.06365  0.33984  0.21888  Biso   1.000  O
  O151     1.0000 0.06371  0.33984  0.21895  Biso   1.000  O
  O152     1.0000 0.06366  0.33984  0.21895  Biso   1.000  O
  O153     1.0000 0.93629  0.33984  0.78105  Biso   1.000  O
  O154     1.0000 0.93623  0.33984  0.78105  Biso   1.000  O
  H840     1.0000 0.88236  0.23663  0.87074  Biso   1.000  H
  H841     1.0000 0.93054  0.17371  0.92194  Biso   1.000  H
  H842     1.0000 0.88231  0.23663  0.87074  Biso   1.000  H
  H843     1.0000 0.12523  0.33413  0.68524  Biso   1.000  H
  H844     1.0000 0.04074  0.36689  0.67733  Biso   1.000  H
  N325     1.0000 0.11711  0.43654  0.73457  Biso   1.000  N
  H845     1.0000 0.12529  0.33413  0.68530  Biso   1.000  H
  H846     1.0000 0.04074  0.36689  0.67739  Biso   1.000  H
  H847     1.0000 0.12529  0.33413  0.68524  Biso   1.000  H
  H848     1.0000 0.04079  0.36689  0.67733  Biso   1.000  H
  H849     1.0000 0.12524  0.33413  0.68530  Biso   1.000  H
  N326     1.0000 0.22192  0.56255  0.84834  Biso   1.000  N
  O155     1.0000 0.26128  0.50003  0.97706  Biso   1.000  O
  C682     1.0000 0.19784  0.54394  0.75651  Biso   1.000  C
  C683     1.0000 0.24824  0.43507  0.68477  Biso   1.000  C
  C684     1.0000 0.19789  0.54394  0.75651  Biso   1.000  C
  C685     1.0000 0.24830  0.43507  0.68484  Biso   1.000  C
  C686     1.0000 0.24830  0.43507  0.68477  Biso   1.000  C
  C687     1.0000 0.24824  0.43507  0.68484  Biso   1.000  C
  C688     1.0000 0.83514  0.30487  0.00439  Biso   1.000  C
  C689     1.0000 0.83508  0.30487  0.00439  Biso   1.000  C
  C690     1.0000 0.83832  0.22124  0.21104  Biso   1.000  C
  N327     1.0000 0.82526  0.32021  0.09215  Biso   1.000  N
  H850     1.0000 0.85793  0.14050  0.07719  Biso   1.000  H
  H851     1.0000 0.92131  0.13399  0.15559  Biso   1.000  H
  H852     1.0000 0.94419  0.12182  0.05738  Biso   1.000  H
  H853     1.0000 0.85787  0.14050  0.07719  Biso   1.000  H
  H854     1.0000 0.92126  0.13399  0.15565  Biso   1.000  H
  H855     1.0000 0.94419  0.12182  0.05745  Biso   1.000  H
  H856     1.0000 0.92126  0.13399  0.15559  Biso   1.000  H
  H857     1.0000 0.92132  0.13399  0.15565  Biso   1.000  H
  C691     1.0000 0.91278  0.36264  0.28345  Biso   1.000  C
  C692     1.0000 0.91272  0.36264  0.28345  Biso   1.000  C
  C693     1.0000 0.07107  0.50003  0.72420  Biso   1.000  C
  C694     1.0000 0.23956  0.63764  0.88025  Biso   1.000  C
  C695     1.0000 0.23957  0.63764  0.88032  Biso   1.000  C
  C696     1.0000 0.23951  0.63764  0.88032  Biso   1.000  C
  C697     1.0000 0.24824  0.56493  0.68477  Biso   1.000  C
  N328     1.0000 0.11711  0.56346  0.73457  Biso   1.000  N
  C698     1.0000 0.24830  0.56493  0.68484  Biso   1.000  C
  C699     1.0000 0.24830  0.56493  0.68477  Biso   1.000  C
  C700     1.0000 0.24824  0.56493  0.68484  Biso   1.000  C
  H858     1.0000 0.30092  0.44893  0.70146  Biso   1.000  H
  H859     1.0000 0.23144  0.46121  0.63125  Biso   1.000  H
  H860     1.0000 0.24526  0.38149  0.67493  Biso   1.000  H
  H861     1.0000 0.30098  0.44893  0.70146  Biso   1.000  H
  H862     1.0000 0.24526  0.38149  0.67500  Biso   1.000  H
  H863     1.0000 0.23150  0.46121  0.63125  Biso   1.000  H
  O156     1.0000 0.79591  0.32898  0.94069  Biso   1.000  O
  O157     1.0000 0.79585  0.32898  0.94069  Biso   1.000  O
  H864     1.0000 0.80192  0.19069  0.17640  Biso   1.000  H
  H865     1.0000 0.81153  0.24919  0.25452  Biso   1.000  H
  H866     1.0000 0.87678  0.18933  0.24049  Biso   1.000  H
  H867     1.0000 0.80187  0.19069  0.17640  Biso   1.000  H
  H868     1.0000 0.81147  0.24919  0.25452  Biso   1.000  H
  C701     1.0000 0.76038  0.36242  0.11968  Biso   1.000  C
  H869     1.0000 0.87471  0.33413  0.31470  Biso   1.000  H
  H870     1.0000 0.95920  0.36689  0.32261  Biso   1.000  H
  N329     1.0000 0.88283  0.43654  0.26536  Biso   1.000  N
  H871     1.0000 0.87465  0.33413  0.31470  Biso   1.000  H
  H872     1.0000 0.95915  0.36689  0.32261  Biso   1.000  H
  N330     1.0000 0.88283  0.43654  0.26543  Biso   1.000  N
  O158     1.0000 0.00069  0.50003  0.70618  Biso   1.000  O
  O159     1.0000 0.00075  0.50003  0.70625  Biso   1.000  O
  O160     1.0000 0.00075  0.50003  0.70618  Biso   1.000  O
  O161     1.0000 0.00069  0.50003  0.70625  Biso   1.000  O
  H873     1.0000 0.26341  0.66553  0.83351  Biso   1.000  H
  H874     1.0000 0.27752  0.63390  0.93012  Biso   1.000  H
  N331     1.0000 0.17468  0.67985  0.90778  Biso   1.000  N
  H875     1.0000 0.26347  0.66553  0.83358  Biso   1.000  H
  H876     1.0000 0.27758  0.63390  0.93019  Biso   1.000  H
  H877     1.0000 0.26347  0.66553  0.83351  Biso   1.000  H
  H878     1.0000 0.27758  0.63390  0.93012  Biso   1.000  H
  H879     1.0000 0.26342  0.66553  0.83358  Biso   1.000  H
  H880     1.0000 0.27753  0.63390  0.93019  Biso   1.000  H
  H881     1.0000 0.30092  0.55112  0.70146  Biso   1.000  H
  H882     1.0000 0.23144  0.53879  0.63125  Biso   1.000  H
  H883     1.0000 0.24526  0.61851  0.67493  Biso   1.000  H
  H884     1.0000 0.30098  0.55112  0.70146  Biso   1.000  H
  H885     1.0000 0.24526  0.61851  0.67500  Biso   1.000  H
  H886     1.0000 0.23150  0.53879  0.63125  Biso   1.000  H
  C702     1.0000 0.08716  0.63741  0.71649  Biso   1.000  C
  C703     1.0000 0.08722  0.63741  0.71649  Biso   1.000  C
  H887     1.0000 0.73653  0.33452  0.16642  Biso   1.000  H
  H888     1.0000 0.72242  0.36610  0.06981  Biso   1.000  H
  N332     1.0000 0.77802  0.43750  0.15160  Biso   1.000  N
  H889     1.0000 0.73647  0.33452  0.16642  Biso   1.000  H
  H890     1.0000 0.72236  0.36610  0.06981  Biso   1.000  H
  N333     1.0000 0.77802  0.43750  0.15166  Biso   1.000  N
  C704     1.0000 0.92887  0.50003  0.27573  Biso   1.000  C
  C705     1.0000 0.80210  0.45606  0.24342  Biso   1.000  C
  C706     1.0000 0.92888  0.50003  0.27580  Biso   1.000  C
  C707     1.0000 0.80205  0.45606  0.24349  Biso   1.000  C
  C708     1.0000 0.80204  0.45606  0.24342  Biso   1.000  C
  C709     1.0000 0.80211  0.45606  0.24349  Biso   1.000  C
  C710     1.0000 0.16480  0.69513  0.99555  Biso   1.000  C
  C711     1.0000 0.12291  0.72500  0.84854  Biso   1.000  C
  C712     1.0000 0.16486  0.69513  0.99561  Biso   1.000  C
  C713     1.0000 0.12292  0.72500  0.84860  Biso   1.000  C
  C714     1.0000 0.16486  0.69513  0.99555  Biso   1.000  C
  C715     1.0000 0.16481  0.69513  0.99561  Biso   1.000  C
  H891     1.0000 0.12523  0.66593  0.68524  Biso   1.000  H
  H892     1.0000 0.04074  0.63311  0.67733  Biso   1.000  H
  N334     1.0000 0.06814  0.67940  0.79534  Biso   1.000  N
  H893     1.0000 0.12529  0.66593  0.68530  Biso   1.000  H
  H894     1.0000 0.04074  0.63311  0.67739  Biso   1.000  H
  N335     1.0000 0.06820  0.67940  0.79534  Biso   1.000  N
  H895     1.0000 0.12529  0.66593  0.68524  Biso   1.000  H
  H896     1.0000 0.04079  0.63311  0.67733  Biso   1.000  H
  H897     1.0000 0.12524  0.66593  0.68530  Biso   1.000  H
  C716     1.0000 0.76289  0.50003  0.10013  Biso   1.000  C
  C717     1.0000 0.76283  0.50003  0.10013  Biso   1.000  C
  N336     1.0000 0.88283  0.56346  0.26536  Biso   1.000  N
  O162     1.0000 0.99925  0.50003  0.29375  Biso   1.000  O
  N337     1.0000 0.88283  0.56346  0.26543  Biso   1.000  N
  O163     1.0000 0.99919  0.50003  0.29375  Biso   1.000  O
  C718     1.0000 0.80210  0.54394  0.24342  Biso   1.000  C
  C719     1.0000 0.75170  0.43507  0.31516  Biso   1.000  C
  C720     1.0000 0.80205  0.54394  0.24349  Biso   1.000  C
  C721     1.0000 0.75164  0.43507  0.31516  Biso   1.000  C
  C722     1.0000 0.80204  0.54394  0.24342  Biso   1.000  C
  C723     1.0000 0.80211  0.54394  0.24349  Biso   1.000  C
  N338     1.0000 0.10334  0.74441  0.00073  Biso   1.000  N
  O164     1.0000 0.20403  0.67108  0.05924  Biso   1.000  O
  O165     1.0000 0.20409  0.67108  0.05931  Biso   1.000  O
  N339     1.0000 0.10328  0.74441  0.00073  Biso   1.000  N
  O166     1.0000 0.20403  0.67108  0.05931  Biso   1.000  O
  C724     1.0000 0.07173  0.76778  0.91263  Biso   1.000  C
  C725     1.0000 0.16162  0.77876  0.78890  Biso   1.000  C
  C726     1.0000 0.07179  0.76778  0.91263  Biso   1.000  C
  C727     1.0000 0.16162  0.77876  0.78896  Biso   1.000  C
  C728     1.0000 0.99425  0.68924  0.81782  Biso   1.000  C
  N340     1.0000 0.77802  0.56255  0.15160  Biso   1.000  N
  O167     1.0000 0.73866  0.50003  0.02287  Biso   1.000  O
  N341     1.0000 0.77802  0.56255  0.15166  Biso   1.000  N
  O168     1.0000 0.73866  0.50003  0.02294  Biso   1.000  O
  C729     1.0000 0.91278  0.63741  0.28345  Biso   1.000  C
  C730     1.0000 0.91272  0.63741  0.28345  Biso   1.000  C
  C731     1.0000 0.75170  0.56493  0.31516  Biso   1.000  C
  C732     1.0000 0.75164  0.56493  0.31516  Biso   1.000  C
  H898     1.0000 0.69902  0.44893  0.29847  Biso   1.000  H
  H899     1.0000 0.76850  0.46121  0.36869  Biso   1.000  H
  H900     1.0000 0.75468  0.38149  0.32500  Biso   1.000  H
  H901     1.0000 0.69897  0.44893  0.29854  Biso   1.000  H
  H902     1.0000 0.76844  0.46121  0.36869  Biso   1.000  H
  H903     1.0000 0.69896  0.44893  0.29847  Biso   1.000  H
  H904     1.0000 0.69902  0.44893  0.29854  Biso   1.000  H
  C733     1.0000 0.07701  0.77203  0.08305  Biso   1.000  C
  N342     1.0000 0.99457  0.73808  0.88896  Biso   1.000  N
  N343     1.0000 0.99458  0.73808  0.88903  Biso   1.000  N
  N344     1.0000 0.99452  0.73808  0.88896  Biso   1.000  N
  C734     1.0000 0.08851  0.85022  0.90485  Biso   1.000  C
  C735     1.0000 0.08857  0.85022  0.90485  Biso   1.000  C
  H905     1.0000 0.19801  0.80931  0.82354  Biso   1.000  H
  H906     1.0000 0.18841  0.75081  0.74541  Biso   1.000  H
  H907     1.0000 0.12315  0.81073  0.75944  Biso   1.000  H
  H908     1.0000 0.19807  0.80931  0.82354  Biso   1.000  H
  H909     1.0000 0.18847  0.75081  0.74548  Biso   1.000  H
  H910     1.0000 0.18847  0.75081  0.74541  Biso   1.000  H
  H911     1.0000 0.18842  0.75081  0.74548  Biso   1.000  H
  O169     1.0000 0.93629  0.66016  0.78105  Biso   1.000  O
  O170     1.0000 0.93623  0.66016  0.78105  Biso   1.000  O
  C736     1.0000 0.76038  0.63764  0.11968  Biso   1.000  C
  H912     1.0000 0.87471  0.66593  0.31470  Biso   1.000  H
  H913     1.0000 0.95920  0.63311  0.32261  Biso   1.000  H
  N345     1.0000 0.93180  0.67940  0.20459  Biso   1.000  N
  H914     1.0000 0.87465  0.66593  0.31470  Biso   1.000  H
  H915     1.0000 0.95915  0.63311  0.32261  Biso   1.000  H
  N346     1.0000 0.93174  0.67940  0.20459  Biso   1.000  N
  H916     1.0000 0.69902  0.55112  0.29847  Biso   1.000  H
  H917     1.0000 0.76850  0.53879  0.36869  Biso   1.000  H
  H918     1.0000 0.75468  0.61851  0.32500  Biso   1.000  H
  H919     1.0000 0.69897  0.55112  0.29854  Biso   1.000  H
  H920     1.0000 0.76844  0.53879  0.36869  Biso   1.000  H
  H921     1.0000 0.69896  0.55112  0.29847  Biso   1.000  H
  H922     1.0000 0.69902  0.55112  0.29854  Biso   1.000  H
  N347     1.0000 0.00536  0.73808  0.11097  Biso   1.000  N
  N348     1.0000 0.00542  0.73808  0.11097  Biso   1.000  N
  H923     1.0000 0.06940  0.82635  0.07799  Biso   1.000  H
  H924     1.0000 0.11757  0.76342  0.12919  Biso   1.000  H
  H925     1.0000 0.11763  0.76342  0.12919  Biso   1.000  H
  C737     1.0000 0.92293  0.77203  0.91689  Biso   1.000  C
  C738     1.0000 0.92293  0.77203  0.91695  Biso   1.000  C
  H926     1.0000 0.14201  0.85950  0.92274  Biso   1.000  H
  H927     1.0000 0.07862  0.86601  0.84435  Biso   1.000  H
  H928     1.0000 0.05575  0.87823  0.94255  Biso   1.000  H
  H929     1.0000 0.14207  0.85950  0.92274  Biso   1.000  H
  H930     1.0000 0.07868  0.86601  0.84435  Biso   1.000  H
  H931     1.0000 0.73653  0.66553  0.16642  Biso   1.000  H
  H932     1.0000 0.72242  0.63390  0.06981  Biso   1.000  H
  N349     1.0000 0.82526  0.67985  0.09215  Biso   1.000  N
  H933     1.0000 0.73647  0.66553  0.16642  Biso   1.000  H
  H934     1.0000 0.72236  0.63390  0.06981  Biso   1.000  H
  C739     1.0000 0.87702  0.72500  0.15140  Biso   1.000  C
  C740     1.0000 0.00569  0.68924  0.18212  Biso   1.000  C
  C741     1.0000 0.00569  0.68924  0.18218  Biso   1.000  C
  C742     1.0000 0.92821  0.76778  0.08730  Biso   1.000  C
  C743     1.0000 0.92815  0.76778  0.08737  Biso   1.000  C
  C744     1.0000 0.92815  0.76778  0.08730  Biso   1.000  C
  C745     1.0000 0.92821  0.76778  0.08737  Biso   1.000  C
  N350     1.0000 0.89660  0.74441  0.99920  Biso   1.000  N
  N351     1.0000 0.89666  0.74441  0.99927  Biso   1.000  N
  N352     1.0000 0.89660  0.74441  0.99927  Biso   1.000  N
  H935     1.0000 0.88236  0.76342  0.87074  Biso   1.000  H
  H936     1.0000 0.93054  0.82635  0.92194  Biso   1.000  H
  H937     1.0000 0.88231  0.76342  0.87074  Biso   1.000  H
  C746     1.0000 0.83514  0.69513  0.00439  Biso   1.000  C
  C747     1.0000 0.83508  0.69513  0.00439  Biso   1.000  C
  C748     1.0000 0.83832  0.77876  0.21104  Biso   1.000  C
  O171     1.0000 0.06365  0.66016  0.21888  Biso   1.000  O
  O172     1.0000 0.06371  0.66016  0.21895  Biso   1.000  O
  O173     1.0000 0.06366  0.66016  0.21895  Biso   1.000  O
  C749     1.0000 0.91142  0.85022  0.09508  Biso   1.000  C
  C750     1.0000 0.91137  0.85022  0.09515  Biso   1.000  C
  C751     1.0000 0.91137  0.85022  0.09508  Biso   1.000  C
  C752     1.0000 0.91143  0.85022  0.09515  Biso   1.000  C
  O174     1.0000 0.79591  0.67108  0.94069  Biso   1.000  O
  O175     1.0000 0.79585  0.67108  0.94069  Biso   1.000  O
  H938     1.0000 0.80192  0.80931  0.17640  Biso   1.000  H
  H939     1.0000 0.81153  0.75081  0.25452  Biso   1.000  H
  H940     1.0000 0.87678  0.81073  0.24049  Biso   1.000  H
  H941     1.0000 0.80187  0.80931  0.17640  Biso   1.000  H
  H942     1.0000 0.81147  0.75081  0.25452  Biso   1.000  H
  H943     1.0000 0.85793  0.85950  0.07719  Biso   1.000  H
  H944     1.0000 0.92131  0.86601  0.15559  Biso   1.000  H
  H945     1.0000 0.94419  0.87823  0.05738  Biso   1.000  H
  H946     1.0000 0.85787  0.85950  0.07719  Biso   1.000  H
  H947     1.0000 0.92126  0.86601  0.15565  Biso   1.000  H
  H948     1.0000 0.94419  0.87823  0.05745  Biso   1.000  H
  H949     1.0000 0.92126  0.86601  0.15559  Biso   1.000  H
  H950     1.0000 0.92132  0.86601  0.15565  Biso   1.000  H
  O176     1.0000 0.20409  0.32898  0.05931  Biso   1.000  O
  C753     1.0000 0.16480  0.30487  0.99555  Biso   1.000  C
  C754     1.0000 0.16486  0.30487  0.99561  Biso   1.000  C
  C755     1.0000 0.16486  0.30487  0.99555  Biso   1.000  C
  C756     1.0000 0.16481  0.30487  0.99561  Biso   1.000  C
  N353     1.0000 0.10334  0.25559  0.00073  Biso   1.000  N
  N354     1.0000 0.10328  0.25559  0.00073  Biso   1.000  N
  N355     1.0000 0.17468  0.32021  0.90778  Biso   1.000  N
  O177     1.0000 0.20403  0.32898  0.05924  Biso   1.000  O
  O178     1.0000 0.20403  0.32898  0.05931  Biso   1.000  O
  C757     1.0000 0.07701  0.22797  0.08305  Biso   1.000  C
  C758     1.0000 0.07173  0.23222  0.91263  Biso   1.000  C
  C759     1.0000 0.07179  0.23222  0.91263  Biso   1.000  C
  C760     1.0000 0.12291  0.27505  0.84854  Biso   1.000  C
  C761     1.0000 0.12292  0.27505  0.84860  Biso   1.000  C
  C762     1.0000 0.23956  0.36242  0.88025  Biso   1.000  C
  C763     1.0000 0.23957  0.36242  0.88032  Biso   1.000  C
  C764     1.0000 0.23951  0.36242  0.88032  Biso   1.000  C
  H951     1.0000 0.06940  0.17371  0.07799  Biso   1.000  H
  H952     1.0000 0.11757  0.23663  0.12919  Biso   1.000  H
  N356     1.0000 0.00536  0.26192  0.11097  Biso   1.000  N
  H953     1.0000 0.11763  0.23663  0.12919  Biso   1.000  H
  N357     1.0000 0.00542  0.26192  0.11097  Biso   1.000  N
  N358     1.0000 0.99457  0.26192  0.88896  Biso   1.000  N
  N359     1.0000 0.99458  0.26192  0.88903  Biso   1.000  N
  N360     1.0000 0.99452  0.26192  0.88896  Biso   1.000  N
  C765     1.0000 0.08851  0.14978  0.90485  Biso   1.000  C
  C766     1.0000 0.08857  0.14978  0.90485  Biso   1.000  C
  C767     1.0000 0.16162  0.22124  0.78890  Biso   1.000  C
  N361     1.0000 0.06814  0.32066  0.79534  Biso   1.000  N
  C768     1.0000 0.16162  0.22124  0.78896  Biso   1.000  C
  N362     1.0000 0.06820  0.32066  0.79534  Biso   1.000  N
  H954     1.0000 0.26341  0.33452  0.83351  Biso   1.000  H
  H955     1.0000 0.27752  0.36610  0.93012  Biso   1.000  H
  N363     1.0000 0.22192  0.43750  0.84834  Biso   1.000  N
  H956     1.0000 0.26347  0.33452  0.83358  Biso   1.000  H
  H957     1.0000 0.27758  0.36610  0.93019  Biso   1.000  H
  H958     1.0000 0.26347  0.33452  0.83351  Biso   1.000  H
  H959     1.0000 0.27758  0.36610  0.93012  Biso   1.000  H
  H960     1.0000 0.26342  0.33452  0.83358  Biso   1.000  H
  H961     1.0000 0.27753  0.36610  0.93019  Biso   1.000  H
  C769     1.0000 0.92821  0.23222  0.08730  Biso   1.000  C
  C770     1.0000 0.92815  0.23222  0.08737  Biso   1.000  C
  C771     1.0000 0.92815  0.23222  0.08730  Biso   1.000  C
  C772     1.0000 0.92821  0.23222  0.08737  Biso   1.000  C
  C773     1.0000 0.00569  0.31081  0.18212  Biso   1.000  C
  C774     1.0000 0.00569  0.31081  0.18218  Biso   1.000  C
  C775     1.0000 0.99425  0.31081  0.81782  Biso   1.000  C
  C776     1.0000 0.92293  0.22797  0.91689  Biso   1.000  C
  C777     1.0000 0.92293  0.22797  0.91695  Biso   1.000  C
  H962     1.0000 0.14201  0.14050  0.92274  Biso   1.000  H
  H963     1.0000 0.07862  0.13399  0.84435  Biso   1.000  H
  H964     1.0000 0.05575  0.12182  0.94255  Biso   1.000  H
  H965     1.0000 0.14207  0.14050  0.92274  Biso   1.000  H
  H966     1.0000 0.07868  0.13399  0.84435  Biso   1.000  H
  H967     1.0000 0.19801  0.19069  0.82354  Biso   1.000  H
  H968     1.0000 0.18841  0.24919  0.74541  Biso   1.000  H
  H969     1.0000 0.12315  0.18933  0.75944  Biso   1.000  H
  H970     1.0000 0.19807  0.19069  0.82354  Biso   1.000  H
  H971     1.0000 0.18847  0.24919  0.74548  Biso   1.000  H
  H972     1.0000 0.18847  0.24919  0.74541  Biso   1.000  H
  H973     1.0000 0.18842  0.24919  0.74548  Biso   1.000  H
  C778     1.0000 0.08716  0.36264  0.71649  Biso   1.000  C
  C779     1.0000 0.08722  0.36264  0.71649  Biso   1.000  C
  C780     1.0000 0.23705  0.50003  0.89980  Biso   1.000  C
  C781     1.0000 0.19784  0.45606  0.75651  Biso   1.000  C
  C782     1.0000 0.23705  0.50003  0.89987  Biso   1.000  C
  C783     1.0000 0.19789  0.45606  0.75651  Biso   1.000  C
  C784     1.0000 0.23711  0.50003  0.89980  Biso   1.000  C
  N364     1.0000 0.89660  0.25559  0.99920  Biso   1.000  N
  N365     1.0000 0.89666  0.25559  0.99927  Biso   1.000  N
  N366     1.0000 0.89660  0.25559  0.99927  Biso   1.000  N
  C785     1.0000 0.87702  0.27505  0.15140  Biso   1.000  C
  C786     1.0000 0.91142  0.14978  0.09508  Biso   1.000  C
  C787     1.0000 0.91137  0.14978  0.09515  Biso   1.000  C
  C788     1.0000 0.91137  0.14978  0.09508  Biso   1.000  C
  C789     1.0000 0.91143  0.14978  0.09515  Biso   1.000  C
  N367     1.0000 0.93180  0.32066  0.20459  Biso   1.000  N
  N368     1.0000 0.93174  0.32066  0.20459  Biso   1.000  N
  O179     1.0000 0.06365  0.33984  0.21888  Biso   1.000  O
  O180     1.0000 0.06371  0.33984  0.21895  Biso   1.000  O
  O181     1.0000 0.06366  0.33984  0.21895  Biso   1.000  O
  O182     1.0000 0.93629  0.33984  0.78105  Biso   1.000  O
  O183     1.0000 0.93623  0.33984  0.78105  Biso   1.000  O
  H974     1.0000 0.88236  0.23663  0.87074  Biso   1.000  H
  H975     1.0000 0.93054  0.17371  0.92194  Biso   1.000  H
  H976     1.0000 0.88231  0.23663  0.87074  Biso   1.000  H
  H977     1.0000 0.12523  0.33413  0.68524  Biso   1.000  H
  H978     1.0000 0.04074  0.36689  0.67733  Biso   1.000  H
  N369     1.0000 0.11711  0.43654  0.73457  Biso   1.000  N
  H979     1.0000 0.12529  0.33413  0.68530  Biso   1.000  H
  H980     1.0000 0.04074  0.36689  0.67739  Biso   1.000  H
  H981     1.0000 0.12529  0.33413  0.68524  Biso   1.000  H
  H982     1.0000 0.04079  0.36689  0.67733  Biso   1.000  H
  H983     1.0000 0.12524  0.33413  0.68530  Biso   1.000  H
  N370     1.0000 0.22192  0.56255  0.84834  Biso   1.000  N
  O184     1.0000 0.26128  0.50003  0.97706  Biso   1.000  O
  C790     1.0000 0.19784  0.54394  0.75651  Biso   1.000  C
  C791     1.0000 0.24824  0.43507  0.68477  Biso   1.000  C
  C792     1.0000 0.19789  0.54394  0.75651  Biso   1.000  C
  C793     1.0000 0.24830  0.43507  0.68484  Biso   1.000  C
  C794     1.0000 0.24830  0.43507  0.68477  Biso   1.000  C
  C795     1.0000 0.24824  0.43507  0.68484  Biso   1.000  C
  C796     1.0000 0.83514  0.30487  0.00439  Biso   1.000  C
  C797     1.0000 0.83508  0.30487  0.00439  Biso   1.000  C
  C798     1.0000 0.83832  0.22124  0.21104  Biso   1.000  C
  N371     1.0000 0.82526  0.32021  0.09215  Biso   1.000  N
  H984     1.0000 0.85793  0.14050  0.07719  Biso   1.000  H
  H985     1.0000 0.92131  0.13399  0.15559  Biso   1.000  H
  H986     1.0000 0.94419  0.12182  0.05738  Biso   1.000  H
  H987     1.0000 0.85787  0.14050  0.07719  Biso   1.000  H
  H988     1.0000 0.92126  0.13399  0.15565  Biso   1.000  H
  H989     1.0000 0.94419  0.12182  0.05745  Biso   1.000  H
  H990     1.0000 0.92126  0.13399  0.15559  Biso   1.000  H
  H991     1.0000 0.92132  0.13399  0.15565  Biso   1.000  H
  C799     1.0000 0.91278  0.36264  0.28345  Biso   1.000  C
  C800     1.0000 0.91272  0.36264  0.28345  Biso   1.000  C
  C801     1.0000 0.07107  0.50003  0.72420  Biso   1.000  C
  C802     1.0000 0.23956  0.63764  0.88025  Biso   1.000  C
  C803     1.0000 0.23957  0.63764  0.88032  Biso   1.000  C
  C804     1.0000 0.23951  0.63764  0.88032  Biso   1.000  C
  C805     1.0000 0.24824  0.56493  0.68477  Biso   1.000  C
  N372     1.0000 0.11711  0.56346  0.73457  Biso   1.000  N
  C806     1.0000 0.24830  0.56493  0.68484  Biso   1.000  C
  C807     1.0000 0.24830  0.56493  0.68477  Biso   1.000  C
  C808     1.0000 0.24824  0.56493  0.68484  Biso   1.000  C
  H992     1.0000 0.30092  0.44893  0.70146  Biso   1.000  H
  H993     1.0000 0.23144  0.46121  0.63125  Biso   1.000  H
  H994     1.0000 0.24526  0.38149  0.67493  Biso   1.000  H
  H995     1.0000 0.30098  0.44893  0.70146  Biso   1.000  H
  H996     1.0000 0.24526  0.38149  0.67500  Biso   1.000  H
  H997     1.0000 0.23150  0.46121  0.63125  Biso   1.000  H
  O185     1.0000 0.79591  0.32898  0.94069  Biso   1.000  O
  O186     1.0000 0.79585  0.32898  0.94069  Biso   1.000  O
  H998     1.0000 0.80192  0.19069  0.17640  Biso   1.000  H
  H999     1.0000 0.81153  0.24919  0.25452  Biso   1.000  H
  H1000    1.0000 0.87678  0.18933  0.24049  Biso   1.000  H
  H1001    1.0000 0.80187  0.19069  0.17640  Biso   1.000  H
  H1002    1.0000 0.81147  0.24919  0.25452  Biso   1.000  H
  C809     1.0000 0.76038  0.36242  0.11968  Biso   1.000  C
  H1003    1.0000 0.87471  0.33413  0.31470  Biso   1.000  H
  H1004    1.0000 0.95920  0.36689  0.32261  Biso   1.000  H
  N373     1.0000 0.88283  0.43654  0.26536  Biso   1.000  N
  H1005    1.0000 0.87465  0.33413  0.31470  Biso   1.000  H
  H1006    1.0000 0.95915  0.36689  0.32261  Biso   1.000  H
  N374     1.0000 0.88283  0.43654  0.26543  Biso   1.000  N
  O187     1.0000 0.00069  0.50003  0.70618  Biso   1.000  O
  O188     1.0000 0.00075  0.50003  0.70625  Biso   1.000  O
  O189     1.0000 0.00075  0.50003  0.70618  Biso   1.000  O
  O190     1.0000 0.00069  0.50003  0.70625  Biso   1.000  O
  H1007    1.0000 0.26341  0.66553  0.83351  Biso   1.000  H
  H1008    1.0000 0.27752  0.63390  0.93012  Biso   1.000  H
  N375     1.0000 0.17468  0.67985  0.90778  Biso   1.000  N
  H1009    1.0000 0.26347  0.66553  0.83358  Biso   1.000  H
  H1010    1.0000 0.27758  0.63390  0.93019  Biso   1.000  H
  H1011    1.0000 0.26347  0.66553  0.83351  Biso   1.000  H
  H1012    1.0000 0.27758  0.63390  0.93012  Biso   1.000  H
  H1013    1.0000 0.26342  0.66553  0.83358  Biso   1.000  H
  H1014    1.0000 0.27753  0.63390  0.93019  Biso   1.000  H
  H1015    1.0000 0.30092  0.55112  0.70146  Biso   1.000  H
  H1016    1.0000 0.23144  0.53879  0.63125  Biso   1.000  H
  H1017    1.0000 0.24526  0.61851  0.67493  Biso   1.000  H
  H1018    1.0000 0.30098  0.55112  0.70146  Biso   1.000  H
  H1019    1.0000 0.24526  0.61851  0.67500  Biso   1.000  H
  H1020    1.0000 0.23150  0.53879  0.63125  Biso   1.000  H
  C810     1.0000 0.08716  0.63741  0.71649  Biso   1.000  C
  C811     1.0000 0.08722  0.63741  0.71649  Biso   1.000  C
  H1021    1.0000 0.73653  0.33452  0.16642  Biso   1.000  H
  H1022    1.0000 0.72242  0.36610  0.06981  Biso   1.000  H
  N376     1.0000 0.77802  0.43750  0.15160  Biso   1.000  N
  H1023    1.0000 0.73647  0.33452  0.16642  Biso   1.000  H
  H1024    1.0000 0.72236  0.36610  0.06981  Biso   1.000  H
  N377     1.0000 0.77802  0.43750  0.15166  Biso   1.000  N
  C812     1.0000 0.92887  0.50003  0.27573  Biso   1.000  C
  C813     1.0000 0.80210  0.45606  0.24342  Biso   1.000  C
  C814     1.0000 0.92888  0.50003  0.27580  Biso   1.000  C
  C815     1.0000 0.80205  0.45606  0.24349  Biso   1.000  C
  C816     1.0000 0.80204  0.45606  0.24342  Biso   1.000  C
  C817     1.0000 0.80211  0.45606  0.24349  Biso   1.000  C
  C818     1.0000 0.16480  0.69513  0.99555  Biso   1.000  C
  C819     1.0000 0.12291  0.72500  0.84854  Biso   1.000  C
  C820     1.0000 0.16486  0.69513  0.99561  Biso   1.000  C
  C821     1.0000 0.12292  0.72500  0.84860  Biso   1.000  C
  C822     1.0000 0.16486  0.69513  0.99555  Biso   1.000  C
  C823     1.0000 0.16481  0.69513  0.99561  Biso   1.000  C
  H1025    1.0000 0.12523  0.66593  0.68524  Biso   1.000  H
  H1026    1.0000 0.04074  0.63311  0.67733  Biso   1.000  H
  N378     1.0000 0.06814  0.67940  0.79534  Biso   1.000  N
  H1027    1.0000 0.12529  0.66593  0.68530  Biso   1.000  H
  H1028    1.0000 0.04074  0.63311  0.67739  Biso   1.000  H
  N379     1.0000 0.06820  0.67940  0.79534  Biso   1.000  N
  H1029    1.0000 0.12529  0.66593  0.68524  Biso   1.000  H
  H1030    1.0000 0.04079  0.63311  0.67733  Biso   1.000  H
  H1031    1.0000 0.12524  0.66593  0.68530  Biso   1.000  H
  C824     1.0000 0.76289  0.50003  0.10013  Biso   1.000  C
  C825     1.0000 0.76283  0.50003  0.10013  Biso   1.000  C
  N380     1.0000 0.88283  0.56346  0.26536  Biso   1.000  N
  O191     1.0000 0.99925  0.50003  0.29375  Biso   1.000  O
  N381     1.0000 0.88283  0.56346  0.26543  Biso   1.000  N
  O192     1.0000 0.99919  0.50003  0.29375  Biso   1.000  O
  C826     1.0000 0.80210  0.54394  0.24342  Biso   1.000  C
  C827     1.0000 0.75170  0.43507  0.31516  Biso   1.000  C
  C828     1.0000 0.80205  0.54394  0.24349  Biso   1.000  C
  C829     1.0000 0.75164  0.43507  0.31516  Biso   1.000  C
  C830     1.0000 0.80204  0.54394  0.24342  Biso   1.000  C
  C831     1.0000 0.80211  0.54394  0.24349  Biso   1.000  C
  N382     1.0000 0.10334  0.74441  0.00073  Biso   1.000  N
  O193     1.0000 0.20403  0.67108  0.05924  Biso   1.000  O
  O194     1.0000 0.20409  0.67108  0.05931  Biso   1.000  O
  N383     1.0000 0.10328  0.74441  0.00073  Biso   1.000  N
  O195     1.0000 0.20403  0.67108  0.05931  Biso   1.000  O
  C832     1.0000 0.07173  0.76778  0.91263  Biso   1.000  C
  C833     1.0000 0.16162  0.77876  0.78890  Biso   1.000  C
  C834     1.0000 0.07179  0.76778  0.91263  Biso   1.000  C
  C835     1.0000 0.16162  0.77876  0.78896  Biso   1.000  C
  C836     1.0000 0.99425  0.68924  0.81782  Biso   1.000  C
  N384     1.0000 0.77802  0.56255  0.15160  Biso   1.000  N
  O196     1.0000 0.73866  0.50003  0.02287  Biso   1.000  O
  N385     1.0000 0.77802  0.56255  0.15166  Biso   1.000  N
  O197     1.0000 0.73866  0.50003  0.02294  Biso   1.000  O
  C837     1.0000 0.91278  0.63741  0.28345  Biso   1.000  C
  C838     1.0000 0.91272  0.63741  0.28345  Biso   1.000  C
  C839     1.0000 0.75170  0.56493  0.31516  Biso   1.000  C
  C840     1.0000 0.75164  0.56493  0.31516  Biso   1.000  C
  H1032    1.0000 0.69902  0.44893  0.29847  Biso   1.000  H
  H1033    1.0000 0.76850  0.46121  0.36869  Biso   1.000  H
  H1034    1.0000 0.75468  0.38149  0.32500  Biso   1.000  H
  H1035    1.0000 0.69897  0.44893  0.29854  Biso   1.000  H
  H1036    1.0000 0.76844  0.46121  0.36869  Biso   1.000  H
  H1037    1.0000 0.69896  0.44893  0.29847  Biso   1.000  H
  H1038    1.0000 0.69902  0.44893  0.29854  Biso   1.000  H
  C841     1.0000 0.07701  0.77203  0.08305  Biso   1.000  C
  N386     1.0000 0.99457  0.73808  0.88896  Biso   1.000  N
  N387     1.0000 0.99458  0.73808  0.88903  Biso   1.000  N
  N388     1.0000 0.99452  0.73808  0.88896  Biso   1.000  N
  C842     1.0000 0.08851  0.85022  0.90485  Biso   1.000  C
  C843     1.0000 0.08857  0.85022  0.90485  Biso   1.000  C
  H1039    1.0000 0.19801  0.80931  0.82354  Biso   1.000  H
  H1040    1.0000 0.18841  0.75081  0.74541  Biso   1.000  H
  H1041    1.0000 0.12315  0.81073  0.75944  Biso   1.000  H
  H1042    1.0000 0.19807  0.80931  0.82354  Biso   1.000  H
  H1043    1.0000 0.18847  0.75081  0.74548  Biso   1.000  H
  H1044    1.0000 0.18847  0.75081  0.74541  Biso   1.000  H
  H1045    1.0000 0.18842  0.75081  0.74548  Biso   1.000  H
  O198     1.0000 0.93629  0.66016  0.78105  Biso   1.000  O
  O199     1.0000 0.93623  0.66016  0.78105  Biso   1.000  O
  C844     1.0000 0.76038  0.63764  0.11968  Biso   1.000  C
  H1046    1.0000 0.87471  0.66593  0.31470  Biso   1.000  H
  H1047    1.0000 0.95920  0.63311  0.32261  Biso   1.000  H
  N389     1.0000 0.93180  0.67940  0.20459  Biso   1.000  N
  H1048    1.0000 0.87465  0.66593  0.31470  Biso   1.000  H
  H1049    1.0000 0.95915  0.63311  0.32261  Biso   1.000  H
  N390     1.0000 0.93174  0.67940  0.20459  Biso   1.000  N
  H1050    1.0000 0.69902  0.55112  0.29847  Biso   1.000  H
  H1051    1.0000 0.76850  0.53879  0.36869  Biso   1.000  H
  H1052    1.0000 0.75468  0.61851  0.32500  Biso   1.000  H
  H1053    1.0000 0.69897  0.55112  0.29854  Biso   1.000  H
  H1054    1.0000 0.76844  0.53879  0.36869  Biso   1.000  H
  H1055    1.0000 0.69896  0.55112  0.29847  Biso   1.000  H
  H1056    1.0000 0.69902  0.55112  0.29854  Biso   1.000  H
  N391     1.0000 0.00536  0.73808  0.11097  Biso   1.000  N
  N392     1.0000 0.00542  0.73808  0.11097  Biso   1.000  N
  H1057    1.0000 0.06940  0.82635  0.07799  Biso   1.000  H
  H1058    1.0000 0.11757  0.76342  0.12919  Biso   1.000  H
  H1059    1.0000 0.11763  0.76342  0.12919  Biso   1.000  H
  C845     1.0000 0.92293  0.77203  0.91689  Biso   1.000  C
  C846     1.0000 0.92293  0.77203  0.91695  Biso   1.000  C
  H1060    1.0000 0.14201  0.85950  0.92274  Biso   1.000  H
  H1061    1.0000 0.07862  0.86601  0.84435  Biso   1.000  H
  H1062    1.0000 0.05575  0.87823  0.94255  Biso   1.000  H
  H1063    1.0000 0.14207  0.85950  0.92274  Biso   1.000  H
  H1064    1.0000 0.07868  0.86601  0.84435  Biso   1.000  H
  H1065    1.0000 0.73653  0.66553  0.16642  Biso   1.000  H
  H1066    1.0000 0.72242  0.63390  0.06981  Biso   1.000  H
  N393     1.0000 0.82526  0.67985  0.09215  Biso   1.000  N
  H1067    1.0000 0.73647  0.66553  0.16642  Biso   1.000  H
  H1068    1.0000 0.72236  0.63390  0.06981  Biso   1.000  H
  C847     1.0000 0.87702  0.72500  0.15140  Biso   1.000  C
  C848     1.0000 0.00569  0.68924  0.18212  Biso   1.000  C
  C849     1.0000 0.00569  0.68924  0.18218  Biso   1.000  C
  C850     1.0000 0.92821  0.76778  0.08730  Biso   1.000  C
  C851     1.0000 0.92815  0.76778  0.08737  Biso   1.000  C
  C852     1.0000 0.92815  0.76778  0.08730  Biso   1.000  C
  C853     1.0000 0.92821  0.76778  0.08737  Biso   1.000  C
  N394     1.0000 0.89660  0.74441  0.99920  Biso   1.000  N
  N395     1.0000 0.89666  0.74441  0.99927  Biso   1.000  N
  N396     1.0000 0.89660  0.74441  0.99927  Biso   1.000  N
  H1069    1.0000 0.88236  0.76342  0.87074  Biso   1.000  H
  H1070    1.0000 0.93054  0.82635  0.92194  Biso   1.000  H
  H1071    1.0000 0.88231  0.76342  0.87074  Biso   1.000  H
  C854     1.0000 0.83514  0.69513  0.00439  Biso   1.000  C
  C855     1.0000 0.83508  0.69513  0.00439  Biso   1.000  C
  C856     1.0000 0.83832  0.77876  0.21104  Biso   1.000  C
  O200     1.0000 0.06365  0.66016  0.21888  Biso   1.000  O
  O201     1.0000 0.06371  0.66016  0.21895  Biso   1.000  O
  O202     1.0000 0.06366  0.66016  0.21895  Biso   1.000  O
  C857     1.0000 0.91142  0.85022  0.09508  Biso   1.000  C
  C858     1.0000 0.91137  0.85022  0.09515  Biso   1.000  C
  C859     1.0000 0.91137  0.85022  0.09508  Biso   1.000  C
  C860     1.0000 0.91143  0.85022  0.09515  Biso   1.000  C
  O203     1.0000 0.79591  0.67108  0.94069  Biso   1.000  O
  O204     1.0000 0.79585  0.67108  0.94069  Biso   1.000  O
  H1072    1.0000 0.80192  0.80931  0.17640  Biso   1.000  H
  H1073    1.0000 0.81153  0.75081  0.25452  Biso   1.000  H
  H1074    1.0000 0.87678  0.81073  0.24049  Biso   1.000  H
  H1075    1.0000 0.80187  0.80931  0.17640  Biso   1.000  H
  H1076    1.0000 0.81147  0.75081  0.25452  Biso   1.000  H
  H1077    1.0000 0.85793  0.85950  0.07719  Biso   1.000  H
  H1078    1.0000 0.92131  0.86601  0.15559  Biso   1.000  H
  H1079    1.0000 0.94419  0.87823  0.05738  Biso   1.000  H
  H1080    1.0000 0.85787  0.85950  0.07719  Biso   1.000  H
  H1081    1.0000 0.92126  0.86601  0.15565  Biso   1.000  H
  H1082    1.0000 0.94419  0.87823  0.05745  Biso   1.000  H
  H1083    1.0000 0.92126  0.86601  0.15559  Biso   1.000  H
  H1084    1.0000 0.92132  0.86601  0.15565  Biso   1.000  H
