data_image0
_cell_length_a       26.127
_cell_length_b       26.127
_cell_length_c       43.923
_cell_angle_alpha    90
_cell_angle_beta     90
_cell_angle_gamma    90

_symmetry_space_group_name_H-M    "P 1"
_symmetry_int_tables_number       1

loop_
  _symmetry_equiv_pos_as_xyz
  'x, y, z'

loop_
  _atom_site_label
  _atom_site_occupancy
  _atom_site_fract_x
  _atom_site_fract_y
  _atom_site_fract_z
  _atom_site_thermal_displace_type
  _atom_site_B_iso_or_equiv
  _atom_site_type_symbol
  C1       1.0000 0.16607  0.91717  0.40521  Biso   1.000  C
  C2       1.0000 0.19558  0.91128  0.43130  Biso   1.000  C
  C3       1.0000 0.19558  0.91132  0.43130  Biso   1.000  C
  H1       1.0000 0.14950  0.88835  0.39640  Biso   1.000  H
  C4       1.0000 0.16091  0.96525  0.39196  Biso   1.000  C
  H2       1.0000 0.14950  0.88839  0.39640  Biso   1.000  H
  C5       1.0000 0.16091  0.96528  0.39196  Biso   1.000  C
  C6       1.0000 0.16087  0.96525  0.39196  Biso   1.000  C
  C7       1.0000 0.16087  0.96528  0.39196  Biso   1.000  C
  C8       1.0000 0.19949  0.85988  0.44530  Biso   1.000  C
  C9       1.0000 0.16611  0.91717  0.40521  Biso   1.000  C
  C10      1.0000 0.21989  0.95338  0.44414  Biso   1.000  C
  C11      1.0000 0.12539  0.97566  0.36400  Biso   1.000  C
  C12      1.0000 0.12539  0.97570  0.36400  Biso   1.000  C
  C13      1.0000 0.18521  0.00739  0.40480  Biso   1.000  C
  C14      1.0000 0.18521  0.00735  0.40480  Biso   1.000  C
  C15      1.0000 0.18517  0.00739  0.40480  Biso   1.000  C
  C16      1.0000 0.18517  0.00735  0.40480  Biso   1.000  C
  O1       1.0000 0.17430  0.82267  0.43328  Biso   1.000  O
  O2       1.0000 0.17426  0.82267  0.43328  Biso   1.000  O
  O3       1.0000 0.22559  0.85586  0.47046  Biso   1.000  O
  O4       1.0000 0.22559  0.85590  0.47046  Biso   1.000  O
  H3       1.0000 0.24010  0.94936  0.46199  Biso   1.000  H
  H4       1.0000 0.24006  0.94936  0.46199  Biso   1.000  H
  C17      1.0000 0.21468  0.00149  0.43089  Biso   1.000  C
  C18      1.0000 0.21472  0.00149  0.43089  Biso   1.000  C
  O5       1.0000 0.10411  0.93424  0.35487  Biso   1.000  O
  O6       1.0000 0.10411  0.93428  0.35487  Biso   1.000  O
  O7       1.0000 0.12041  0.01830  0.35446  Biso   1.000  O
  O8       1.0000 0.12037  0.01830  0.35446  Biso   1.000  O
  H5       1.0000 0.18161  0.04019  0.39569  Biso   1.000  H
  H6       1.0000 0.18157  0.04019  0.39569  Biso   1.000  H
  Mg1      1.0000 0.15983  0.75458  0.45131  Biso   1.000  Mg
  Mg2      1.0000 0.15983  0.75462  0.45131  Biso   1.000  Mg
  Mg3      1.0000 0.22854  0.79883  0.50001  Biso   1.000  Mg
  Mg4      1.0000 0.22854  0.79887  0.50001  Biso   1.000  Mg
  Mg5      1.0000 0.22850  0.79883  0.50001  Biso   1.000  Mg
  Mg6      1.0000 0.22850  0.79887  0.50001  Biso   1.000  Mg
  C19      1.0000 0.23799  0.04800  0.44501  Biso   1.000  C
  C20      1.0000 0.23799  0.04803  0.44501  Biso   1.000  C
  Mg7      1.0000 0.04444  0.93126  0.32511  Biso   1.000  Mg
  Mg8      1.0000 0.04440  0.93126  0.32511  Biso   1.000  Mg
  Mg9      1.0000 0.06874  0.04444  0.32511  Biso   1.000  Mg
  Mg10     1.0000 0.06874  0.04440  0.32511  Biso   1.000  Mg
  Mg11     1.0000 0.06870  0.04444  0.32511  Biso   1.000  Mg
  Mg12     1.0000 0.06870  0.04440  0.32511  Biso   1.000  Mg
  O9       1.0000 0.13878  0.68217  0.46604  Biso   1.000  O
  O10      1.0000 0.18100  0.72098  0.41097  Biso   1.000  O
  O11      1.0000 0.18096  0.72098  0.41097  Biso   1.000  O
  Mg13     1.0000 0.09113  0.70973  0.50001  Biso   1.000  Mg
  O12      1.0000 0.14881  0.77296  0.50001  Biso   1.000  O
  O13      1.0000 0.14881  0.77299  0.50001  Biso   1.000  O
  O14      1.0000 0.14877  0.77296  0.50001  Biso   1.000  O
  O15      1.0000 0.14877  0.77299  0.50001  Biso   1.000  O
  O16      1.0000 0.23458  0.74207  0.46618  Biso   1.000  O
  O17      1.0000 0.08991  0.76878  0.43342  Biso   1.000  O
  Mg14     1.0000 0.15983  0.75458  0.54869  Biso   1.000  Mg
  Mg15     1.0000 0.15983  0.75462  0.54869  Biso   1.000  Mg
  O18      1.0000 0.23458  0.74207  0.53382  Biso   1.000  O
  O19      1.0000 0.30608  0.80055  0.50001  Biso   1.000  O
  O20      1.0000 0.22559  0.85586  0.52954  Biso   1.000  O
  O21      1.0000 0.30608  0.80059  0.50001  Biso   1.000  O
  O22      1.0000 0.22559  0.85590  0.52954  Biso   1.000  O
  O23      1.0000 0.30612  0.80055  0.50001  Biso   1.000  O
  O24      1.0000 0.30612  0.80059  0.50001  Biso   1.000  O
  O25      1.0000 0.26291  0.04011  0.46932  Biso   1.000  O
  O26      1.0000 0.23118  0.08991  0.43342  Biso   1.000  O
  O27      1.0000 0.26291  0.04007  0.46932  Biso   1.000  O
  O28      1.0000 0.26287  0.04011  0.46932  Biso   1.000  O
  O29      1.0000 0.26287  0.04007  0.46932  Biso   1.000  O
  O30      1.0000 0.01830  0.87955  0.35446  Biso   1.000  O
  O31      1.0000 0.01830  0.87959  0.35446  Biso   1.000  O
  Mg16     1.0000 0.93126  0.95552  0.32511  Biso   1.000  Mg
  Mg17     1.0000 0.93126  0.95556  0.32511  Biso   1.000  Mg
  O32      1.0000 0.07831  0.98316  0.29497  Biso   1.000  O
  O33      1.0000 0.08149  0.87465  0.30032  Biso   1.000  O
  O34      1.0000 0.07831  0.98320  0.29497  Biso   1.000  O
  O35      1.0000 0.08149  0.87469  0.30032  Biso   1.000  O
  O36      1.0000 0.07827  0.98316  0.29497  Biso   1.000  O
  O37      1.0000 0.07827  0.98320  0.29497  Biso   1.000  O
  O38      1.0000 0.98316  0.92165  0.29497  Biso   1.000  O
  O39      1.0000 0.98316  0.92169  0.29497  Biso   1.000  O
  O40      1.0000 0.98320  0.92165  0.29497  Biso   1.000  O
  O41      1.0000 0.98320  0.92169  0.29497  Biso   1.000  O
  O42      1.0000 0.00000  1.00000  0.33850  Biso   1.000  O
  Mg18     1.0000 0.95552  0.06874  0.32511  Biso   1.000  Mg
  Mg19     1.0000 0.95552  0.06870  0.32511  Biso   1.000  Mg
  Mg20     1.0000 0.95556  0.06874  0.32511  Biso   1.000  Mg
  Mg21     1.0000 0.95556  0.06870  0.32511  Biso   1.000  Mg
  O43      1.0000 0.12531  0.08149  0.30032  Biso   1.000  O
  O44      1.0000 0.06572  0.10411  0.35487  Biso   1.000  O
  O45      1.0000 0.01680  0.07831  0.29497  Biso   1.000  O
  O46      1.0000 0.01680  0.07827  0.29497  Biso   1.000  O
  O47      1.0000 0.12527  0.08149  0.30032  Biso   1.000  O
  O48      1.0000 0.06568  0.10411  0.35487  Biso   1.000  O
  C21      1.0000 0.14529  0.63628  0.45521  Biso   1.000  C
  S1       1.0000 0.21047  0.67367  0.40999  Biso   1.000  S
  S2       1.0000 0.21047  0.67363  0.40999  Biso   1.000  S
  S3       1.0000 0.21051  0.67367  0.40999  Biso   1.000  S
  S4       1.0000 0.21051  0.67363  0.40999  Biso   1.000  S
  O49      1.0000 0.05699  0.64098  0.50001  Biso   1.000  O
  O50      1.0000 0.05703  0.64098  0.50001  Biso   1.000  O
  O51      1.0000 0.04011  0.73709  0.53068  Biso   1.000  O
  O52      1.0000 0.13878  0.68217  0.53396  Biso   1.000  O
  O53      1.0000 0.04011  0.73709  0.46932  Biso   1.000  O
  O54      1.0000 0.04007  0.73709  0.53068  Biso   1.000  O
  O55      1.0000 0.04007  0.73709  0.46932  Biso   1.000  O
  C22      1.0000 0.27229  0.71642  0.45530  Biso   1.000  C
  C23      1.0000 0.27229  0.71639  0.45530  Biso   1.000  C
  C24      1.0000 0.04800  0.76197  0.44501  Biso   1.000  C
  C25      1.0000 0.04803  0.76197  0.44501  Biso   1.000  C
  O56      1.0000 0.08991  0.76878  0.56658  Biso   1.000  O
  O57      1.0000 0.18100  0.72098  0.58903  Biso   1.000  O
  O58      1.0000 0.17430  0.82267  0.56672  Biso   1.000  O
  O59      1.0000 0.18096  0.72098  0.58903  Biso   1.000  O
  O60      1.0000 0.17426  0.82267  0.56672  Biso   1.000  O
  C26      1.0000 0.27229  0.71642  0.54470  Biso   1.000  C
  C27      1.0000 0.27229  0.71639  0.54470  Biso   1.000  C
  S5       1.0000 0.33865  0.75477  0.50001  Biso   1.000  S
  S6       1.0000 0.33865  0.75481  0.50001  Biso   1.000  S
  C28      1.0000 0.19949  0.85988  0.55470  Biso   1.000  C
  Mg22     1.0000 0.29024  0.09113  0.50001  Biso   1.000  Mg
  Mg23     1.0000 0.24538  0.15983  0.45131  Biso   1.000  Mg
  Mg24     1.0000 0.24534  0.15983  0.45131  Biso   1.000  Mg
  C29      1.0000 0.97566  0.87457  0.36400  Biso   1.000  C
  C30      1.0000 0.97570  0.87457  0.36400  Biso   1.000  C
  O61      1.0000 0.93424  0.89585  0.35487  Biso   1.000  O
  O62      1.0000 0.93424  0.89589  0.35487  Biso   1.000  O
  O63      1.0000 0.93428  0.89585  0.35487  Biso   1.000  O
  O64      1.0000 0.93428  0.89589  0.35487  Biso   1.000  O
  O65      1.0000 0.87465  0.91848  0.30032  Biso   1.000  O
  O66      1.0000 0.87955  0.98167  0.35446  Biso   1.000  O
  O67      1.0000 0.87469  0.91848  0.30032  Biso   1.000  O
  O68      1.0000 0.87959  0.98167  0.35446  Biso   1.000  O
  O69      1.0000 0.92165  0.01680  0.29497  Biso   1.000  O
  O70      1.0000 0.92169  0.01680  0.29497  Biso   1.000  O
  C31      1.0000 0.10598  0.97895  0.26990  Biso   1.000  C
  C32      1.0000 0.10598  0.97899  0.26990  Biso   1.000  C
  S7       1.0000 0.08263  0.87274  0.26824  Biso   1.000  S
  S8       1.0000 0.08263  0.87278  0.26824  Biso   1.000  S
  C33      1.0000 0.97895  0.89398  0.26990  Biso   1.000  C
  C34      1.0000 0.97899  0.89398  0.26990  Biso   1.000  C
  O71      1.0000 0.98167  0.12041  0.35446  Biso   1.000  O
  O72      1.0000 0.91848  0.12531  0.30032  Biso   1.000  O
  O73      1.0000 0.89585  0.06572  0.35487  Biso   1.000  O
  O74      1.0000 0.98167  0.12037  0.35446  Biso   1.000  O
  O75      1.0000 0.91848  0.12527  0.30032  Biso   1.000  O
  O76      1.0000 0.89585  0.06568  0.35487  Biso   1.000  O
  O77      1.0000 0.89589  0.06572  0.35487  Biso   1.000  O
  O78      1.0000 0.89589  0.06568  0.35487  Biso   1.000  O
  S9       1.0000 0.12722  0.08263  0.26824  Biso   1.000  S
  S10      1.0000 0.12719  0.08263  0.26824  Biso   1.000  S
  C35      1.0000 0.02430  0.12539  0.36400  Biso   1.000  C
  C36      1.0000 0.02101  0.10598  0.26990  Biso   1.000  C
  C37      1.0000 0.02097  0.10598  0.26990  Biso   1.000  C
  C38      1.0000 0.12370  0.58912  0.46841  Biso   1.000  C
  C39      1.0000 0.12370  0.58908  0.46841  Biso   1.000  C
  C40      1.0000 0.17809  0.62499  0.42921  Biso   1.000  C
  O79      1.0000 0.22448  0.65450  0.38026  Biso   1.000  O
  C41      1.0000 0.26861  0.68301  0.43100  Biso   1.000  C
  C42      1.0000 0.26861  0.68297  0.43100  Biso   1.000  C
  O80      1.0000 0.22452  0.65450  0.38026  Biso   1.000  O
  C43      1.0000 0.26857  0.68301  0.43100  Biso   1.000  C
  C44      1.0000 0.26857  0.68297  0.43100  Biso   1.000  C
  S11      1.0000 0.08348  0.59257  0.50001  Biso   1.000  S
  C45      1.0000 0.04800  0.76197  0.55499  Biso   1.000  C
  C46      1.0000 0.04803  0.76197  0.55499  Biso   1.000  C
  C47      1.0000 0.14529  0.63628  0.54479  Biso   1.000  C
  C48      1.0000 0.32151  0.71838  0.46750  Biso   1.000  C
  C49      1.0000 0.00149  0.78528  0.43089  Biso   1.000  C
  S12      1.0000 0.21047  0.67367  0.59001  Biso   1.000  S
  S13      1.0000 0.21047  0.67363  0.59001  Biso   1.000  S
  S14      1.0000 0.21051  0.67367  0.59001  Biso   1.000  S
  S15      1.0000 0.21051  0.67363  0.59001  Biso   1.000  S
  C50      1.0000 0.26861  0.68301  0.56900  Biso   1.000  C
  C51      1.0000 0.26861  0.68297  0.56900  Biso   1.000  C
  C52      1.0000 0.26857  0.68301  0.56900  Biso   1.000  C
  C53      1.0000 0.26857  0.68297  0.56900  Biso   1.000  C
  C54      1.0000 0.32151  0.71838  0.53250  Biso   1.000  C
  O81      1.0000 0.39220  0.76247  0.50001  Biso   1.000  O
  O82      1.0000 0.39216  0.76247  0.50001  Biso   1.000  O
  C55      1.0000 0.19558  0.91128  0.56870  Biso   1.000  C
  C56      1.0000 0.19558  0.91132  0.56870  Biso   1.000  C
  O83      1.0000 0.26291  0.04011  0.53068  Biso   1.000  O
  O84      1.0000 0.26291  0.04007  0.53068  Biso   1.000  O
  O85      1.0000 0.26287  0.04011  0.53068  Biso   1.000  O
  O86      1.0000 0.26287  0.04007  0.53068  Biso   1.000  O
  Mg25     1.0000 0.24538  0.15983  0.54869  Biso   1.000  Mg
  Mg26     1.0000 0.24534  0.15983  0.54869  Biso   1.000  Mg
  O87      1.0000 0.22701  0.14881  0.50001  Biso   1.000  O
  O88      1.0000 0.35898  0.05699  0.50001  Biso   1.000  O
  O89      1.0000 0.31779  0.13878  0.53396  Biso   1.000  O
  O90      1.0000 0.31779  0.13878  0.46604  Biso   1.000  O
  O91      1.0000 0.22701  0.14877  0.50001  Biso   1.000  O
  O92      1.0000 0.35898  0.05703  0.50001  Biso   1.000  O
  Mg27     1.0000 0.20113  0.22854  0.50001  Biso   1.000  Mg
  O93      1.0000 0.27898  0.18100  0.41097  Biso   1.000  O
  O94      1.0000 0.25789  0.23458  0.46618  Biso   1.000  O
  O95      1.0000 0.17729  0.17430  0.43328  Biso   1.000  O
  Mg28     1.0000 0.20113  0.22850  0.50001  Biso   1.000  Mg
  O96      1.0000 0.27898  0.18096  0.41097  Biso   1.000  O
  O97      1.0000 0.17729  0.17426  0.43328  Biso   1.000  O
  Mg29     1.0000 0.20109  0.22854  0.50001  Biso   1.000  Mg
  Mg30     1.0000 0.20109  0.22850  0.50001  Biso   1.000  Mg
  C57      1.0000 0.96525  0.83906  0.39196  Biso   1.000  C
  C58      1.0000 0.96525  0.83909  0.39196  Biso   1.000  C
  C59      1.0000 0.96528  0.83906  0.39196  Biso   1.000  C
  C60      1.0000 0.96528  0.83909  0.39196  Biso   1.000  C
  S16      1.0000 0.87274  0.91733  0.26824  Biso   1.000  S
  S17      1.0000 0.87274  0.91737  0.26824  Biso   1.000  S
  S18      1.0000 0.87278  0.91733  0.26824  Biso   1.000  S
  S19      1.0000 0.87278  0.91737  0.26824  Biso   1.000  S
  C61      1.0000 0.87457  0.02430  0.36400  Biso   1.000  C
  C62      1.0000 0.89398  0.02101  0.26990  Biso   1.000  C
  C63      1.0000 0.89398  0.02097  0.26990  Biso   1.000  C
  C64      1.0000 0.11012  0.92946  0.25481  Biso   1.000  C
  C65      1.0000 0.11012  0.92950  0.25481  Biso   1.000  C
  C66      1.0000 0.12960  0.02009  0.25561  Biso   1.000  C
  C67      1.0000 0.12960  0.02013  0.25561  Biso   1.000  C
  C68      1.0000 0.12956  0.02009  0.25561  Biso   1.000  C
  C69      1.0000 0.12956  0.02013  0.25561  Biso   1.000  C
  O98      1.0000 0.10981  0.83117  0.25538  Biso   1.000  O
  C70      1.0000 0.02009  0.87040  0.25561  Biso   1.000  C
  O99      1.0000 0.10977  0.83117  0.25538  Biso   1.000  O
  C71      1.0000 0.02013  0.87040  0.25561  Biso   1.000  C
  C72      1.0000 0.92946  0.88988  0.25481  Biso   1.000  C
  C73      1.0000 0.92950  0.88988  0.25481  Biso   1.000  C
  S20      1.0000 0.91733  0.12722  0.26824  Biso   1.000  S
  S21      1.0000 0.91733  0.12719  0.26824  Biso   1.000  S
  S22      1.0000 0.91737  0.12722  0.26824  Biso   1.000  S
  S23      1.0000 0.91737  0.12719  0.26824  Biso   1.000  S
  O100     1.0000 0.16879  0.10981  0.25538  Biso   1.000  O
  C74      1.0000 0.07050  0.11012  0.25481  Biso   1.000  C
  O101     1.0000 0.16879  0.10977  0.25538  Biso   1.000  O
  C75      1.0000 0.07046  0.11012  0.25481  Biso   1.000  C
  C76      1.0000 0.03472  0.16091  0.39196  Biso   1.000  C
  C77      1.0000 0.03472  0.16087  0.39196  Biso   1.000  C
  C78      1.0000 0.97987  0.12960  0.25561  Biso   1.000  C
  C79      1.0000 0.97987  0.12956  0.25561  Biso   1.000  C
  C80      1.0000 0.12941  0.54185  0.45550  Biso   1.000  C
  C81      1.0000 0.12941  0.54189  0.45550  Biso   1.000  C
  C82      1.0000 0.12937  0.54185  0.45550  Biso   1.000  C
  C83      1.0000 0.12937  0.54189  0.45550  Biso   1.000  C
  C84      1.0000 0.18131  0.57749  0.41730  Biso   1.000  C
  C85      1.0000 0.18127  0.57749  0.41730  Biso   1.000  C
  C86      1.0000 0.30880  0.65377  0.41889  Biso   1.000  C
  C87      1.0000 0.30880  0.65381  0.41889  Biso   1.000  C
  C88      1.0000 0.30876  0.65377  0.41889  Biso   1.000  C
  C89      1.0000 0.30876  0.65381  0.41889  Biso   1.000  C
  O102     1.0000 0.05259  0.54782  0.50001  Biso   1.000  O
  C90      1.0000 0.12370  0.58912  0.53159  Biso   1.000  C
  O103     1.0000 0.05259  0.54779  0.50001  Biso   1.000  O
  C91      1.0000 0.12370  0.58908  0.53159  Biso   1.000  C
  O104     1.0000 0.05263  0.54782  0.50001  Biso   1.000  O
  O105     1.0000 0.05263  0.54779  0.50001  Biso   1.000  O
  C92      1.0000 0.00149  0.78528  0.56911  Biso   1.000  C
  C93      1.0000 0.17809  0.62499  0.57079  Biso   1.000  C
  C94      1.0000 0.36269  0.68806  0.45571  Biso   1.000  C
  C95      1.0000 0.36269  0.68810  0.45571  Biso   1.000  C
  C96      1.0000 0.00739  0.81475  0.40480  Biso   1.000  C
  C97      1.0000 0.00739  0.81479  0.40480  Biso   1.000  C
  C98      1.0000 0.00735  0.81475  0.40480  Biso   1.000  C
  C99      1.0000 0.00735  0.81479  0.40480  Biso   1.000  C
  C100     1.0000 0.95338  0.78007  0.44414  Biso   1.000  C
  O106     1.0000 0.22448  0.65450  0.61974  Biso   1.000  O
  O107     1.0000 0.22452  0.65450  0.61974  Biso   1.000  O
  C101     1.0000 0.30880  0.65377  0.58111  Biso   1.000  C
  C102     1.0000 0.30880  0.65381  0.58111  Biso   1.000  C
  C103     1.0000 0.30876  0.65377  0.58111  Biso   1.000  C
  C104     1.0000 0.30876  0.65381  0.58111  Biso   1.000  C
  C105     1.0000 0.36269  0.68806  0.54429  Biso   1.000  C
  C106     1.0000 0.36269  0.68810  0.54429  Biso   1.000  C
  C107     1.0000 0.16611  0.91717  0.59479  Biso   1.000  C
  C108     1.0000 0.21989  0.95338  0.55586  Biso   1.000  C
  C109     1.0000 0.16607  0.91717  0.59479  Biso   1.000  C
  C110     1.0000 0.23799  0.04800  0.55499  Biso   1.000  C
  C111     1.0000 0.23799  0.04803  0.55499  Biso   1.000  C
  O108     1.0000 0.23118  0.08991  0.56658  Biso   1.000  O
  O109     1.0000 0.27898  0.18100  0.58903  Biso   1.000  O
  O110     1.0000 0.25789  0.23458  0.53382  Biso   1.000  O
  O111     1.0000 0.17729  0.17430  0.56672  Biso   1.000  O
  O112     1.0000 0.27898  0.18096  0.58903  Biso   1.000  O
  O113     1.0000 0.17729  0.17426  0.56672  Biso   1.000  O
  S24      1.0000 0.40739  0.08348  0.50001  Biso   1.000  S
  S25      1.0000 0.40743  0.08348  0.50001  Biso   1.000  S
  C112     1.0000 0.36369  0.14529  0.54479  Biso   1.000  C
  C113     1.0000 0.36369  0.14529  0.45521  Biso   1.000  C
  O114     1.0000 0.19941  0.30608  0.50001  Biso   1.000  O
  O115     1.0000 0.14410  0.22559  0.52954  Biso   1.000  O
  O116     1.0000 0.14410  0.22559  0.47046  Biso   1.000  O
  O117     1.0000 0.19941  0.30612  0.50001  Biso   1.000  O
  O118     1.0000 0.19937  0.30608  0.50001  Biso   1.000  O
  O119     1.0000 0.14407  0.22559  0.52954  Biso   1.000  O
  O120     1.0000 0.14407  0.22559  0.47046  Biso   1.000  O
  O121     1.0000 0.19937  0.30612  0.50001  Biso   1.000  O
  S26      1.0000 0.32633  0.21047  0.40999  Biso   1.000  S
  S27      1.0000 0.32633  0.21051  0.40999  Biso   1.000  S
  C114     1.0000 0.28358  0.27229  0.45530  Biso   1.000  C
  C115     1.0000 0.14008  0.19949  0.44530  Biso   1.000  C
  C116     1.0000 0.91717  0.83385  0.40521  Biso   1.000  C
  C117     1.0000 0.91717  0.83389  0.40521  Biso   1.000  C
  O122     1.0000 0.83117  0.89015  0.25538  Biso   1.000  O
  C118     1.0000 0.87040  0.97987  0.25561  Biso   1.000  C
  O123     1.0000 0.83117  0.89019  0.25538  Biso   1.000  O
  C119     1.0000 0.83906  0.03472  0.39196  Biso   1.000  C
  C120     1.0000 0.83909  0.03472  0.39196  Biso   1.000  C
  C121     1.0000 0.88988  0.07050  0.25481  Biso   1.000  C
  C122     1.0000 0.88988  0.07046  0.25481  Biso   1.000  C
  C123     1.0000 0.14341  0.92314  0.23011  Biso   1.000  C
  C124     1.0000 0.14341  0.92318  0.23011  Biso   1.000  C
  C125     1.0000 0.14338  0.92314  0.23011  Biso   1.000  C
  C126     1.0000 0.14338  0.92318  0.23011  Biso   1.000  C
  C127     1.0000 0.16140  0.01160  0.22931  Biso   1.000  C
  C128     1.0000 0.16137  0.01160  0.22931  Biso   1.000  C
  C129     1.0000 0.01160  0.83856  0.22931  Biso   1.000  C
  C130     1.0000 0.01160  0.83860  0.22931  Biso   1.000  C
  C131     1.0000 0.92314  0.85659  0.23011  Biso   1.000  C
  C132     1.0000 0.92318  0.85659  0.23011  Biso   1.000  C
  O124     1.0000 0.89015  0.16879  0.25538  Biso   1.000  O
  O125     1.0000 0.89019  0.16879  0.25538  Biso   1.000  O
  C133     1.0000 0.07682  0.14341  0.23011  Biso   1.000  C
  C134     1.0000 0.07682  0.14338  0.23011  Biso   1.000  C
  C135     1.0000 0.99257  0.18521  0.40480  Biso   1.000  C
  C136     1.0000 0.99257  0.18517  0.40480  Biso   1.000  C
  C137     1.0000 0.99261  0.18521  0.40480  Biso   1.000  C
  C138     1.0000 0.99261  0.18517  0.40480  Biso   1.000  C
  C139     1.0000 0.08279  0.16611  0.40521  Biso   1.000  C
  C140     1.0000 0.08279  0.16607  0.40521  Biso   1.000  C
  C141     1.0000 0.98836  0.16140  0.22931  Biso   1.000  C
  C142     1.0000 0.98836  0.16137  0.22931  Biso   1.000  C
  C143     1.0000 0.15899  0.53370  0.42989  Biso   1.000  C
  H7       1.0000 0.11230  0.51361  0.46449  Biso   1.000  H
  H8       1.0000 0.20010  0.57358  0.39899  Biso   1.000  H
  H9       1.0000 0.20006  0.57358  0.39899  Biso   1.000  H
  H10      1.0000 0.30348  0.63341  0.40120  Biso   1.000  H
  C144     1.0000 0.35810  0.65495  0.43330  Biso   1.000  C
  C145     1.0000 0.35810  0.65499  0.43330  Biso   1.000  C
  C146     1.0000 0.35806  0.65495  0.43330  Biso   1.000  C
  C147     1.0000 0.35806  0.65499  0.43330  Biso   1.000  C
  C148     1.0000 0.12941  0.54185  0.54450  Biso   1.000  C
  C149     1.0000 0.12941  0.54189  0.54450  Biso   1.000  C
  C150     1.0000 0.12937  0.54185  0.54450  Biso   1.000  C
  C151     1.0000 0.12937  0.54189  0.54450  Biso   1.000  C
  C152     1.0000 0.00739  0.81475  0.59520  Biso   1.000  C
  C153     1.0000 0.00739  0.81479  0.59520  Biso   1.000  C
  C154     1.0000 0.00735  0.81475  0.59520  Biso   1.000  C
  C155     1.0000 0.00735  0.81479  0.59520  Biso   1.000  C
  C156     1.0000 0.95338  0.78007  0.55586  Biso   1.000  C
  C157     1.0000 0.18131  0.57749  0.58270  Biso   1.000  C
  C158     1.0000 0.18127  0.57749  0.58270  Biso   1.000  C
  H11      1.0000 0.39561  0.69227  0.46461  Biso   1.000  H
  H12      1.0000 0.39557  0.69227  0.46461  Biso   1.000  H
  H13      1.0000 0.04019  0.81835  0.39569  Biso   1.000  H
  H14      1.0000 0.04019  0.81839  0.39569  Biso   1.000  H
  C159     1.0000 0.91128  0.80438  0.43130  Biso   1.000  C
  H15      1.0000 0.94936  0.75990  0.46199  Biso   1.000  H
  C160     1.0000 0.91132  0.80438  0.43130  Biso   1.000  C
  H16      1.0000 0.30348  0.63341  0.59880  Biso   1.000  H
  C161     1.0000 0.35810  0.65495  0.56670  Biso   1.000  C
  C162     1.0000 0.35810  0.65499  0.56670  Biso   1.000  C
  C163     1.0000 0.35806  0.65495  0.56670  Biso   1.000  C
  C164     1.0000 0.35806  0.65499  0.56670  Biso   1.000  C
  H17      1.0000 0.39561  0.69227  0.53539  Biso   1.000  H
  H18      1.0000 0.39557  0.69227  0.53539  Biso   1.000  H
  H19      1.0000 0.14950  0.88835  0.60360  Biso   1.000  H
  C165     1.0000 0.16091  0.96525  0.60804  Biso   1.000  C
  H20      1.0000 0.14950  0.88839  0.60360  Biso   1.000  H
  C166     1.0000 0.16091  0.96528  0.60804  Biso   1.000  C
  C167     1.0000 0.16087  0.96525  0.60804  Biso   1.000  C
  C168     1.0000 0.16087  0.96528  0.60804  Biso   1.000  C
  H21      1.0000 0.24010  0.94936  0.53801  Biso   1.000  H
  H22      1.0000 0.24006  0.94936  0.53801  Biso   1.000  H
  C169     1.0000 0.21468  0.00149  0.56911  Biso   1.000  C
  C170     1.0000 0.21472  0.00149  0.56911  Biso   1.000  C
  S28      1.0000 0.32633  0.21047  0.59001  Biso   1.000  S
  S29      1.0000 0.32633  0.21051  0.59001  Biso   1.000  S
  C171     1.0000 0.28358  0.27229  0.54470  Biso   1.000  C
  C172     1.0000 0.14008  0.19949  0.55470  Biso   1.000  C
  O126     1.0000 0.45218  0.05259  0.50001  Biso   1.000  O
  C173     1.0000 0.41088  0.12370  0.53159  Biso   1.000  C
  C174     1.0000 0.41088  0.12370  0.46841  Biso   1.000  C
  O127     1.0000 0.45218  0.05263  0.50001  Biso   1.000  O
  O128     1.0000 0.45221  0.05259  0.50001  Biso   1.000  O
  O129     1.0000 0.45221  0.05263  0.50001  Biso   1.000  O
  C175     1.0000 0.37498  0.17809  0.57079  Biso   1.000  C
  C176     1.0000 0.37498  0.17809  0.42921  Biso   1.000  C
  S30      1.0000 0.24519  0.33865  0.50001  Biso   1.000  S
  S31      1.0000 0.24515  0.33865  0.50001  Biso   1.000  S
  O130     1.0000 0.34550  0.22448  0.38026  Biso   1.000  O
  C177     1.0000 0.31699  0.26861  0.43100  Biso   1.000  C
  O131     1.0000 0.34550  0.22452  0.38026  Biso   1.000  O
  C178     1.0000 0.31699  0.26857  0.43100  Biso   1.000  C
  O132     1.0000 0.34547  0.22448  0.38026  Biso   1.000  O
  O133     1.0000 0.34547  0.22452  0.38026  Biso   1.000  O
  C179     1.0000 0.28159  0.32151  0.46750  Biso   1.000  C
  C180     1.0000 0.08868  0.19558  0.43130  Biso   1.000  C
  H23      1.0000 0.88835  0.85046  0.39640  Biso   1.000  H
  H24      1.0000 0.88835  0.85050  0.39640  Biso   1.000  H
  H25      1.0000 0.88839  0.85046  0.39640  Biso   1.000  H
  H26      1.0000 0.88839  0.85050  0.39640  Biso   1.000  H
  C181     1.0000 0.83856  0.98836  0.22931  Biso   1.000  C
  C182     1.0000 0.83860  0.98836  0.22931  Biso   1.000  C
  C183     1.0000 0.81475  0.99257  0.40480  Biso   1.000  C
  C184     1.0000 0.81475  0.99261  0.40480  Biso   1.000  C
  C185     1.0000 0.81479  0.99257  0.40480  Biso   1.000  C
  C186     1.0000 0.81479  0.99261  0.40480  Biso   1.000  C
  C187     1.0000 0.83385  0.08279  0.40521  Biso   1.000  C
  C188     1.0000 0.83389  0.08279  0.40521  Biso   1.000  C
  C189     1.0000 0.85659  0.07682  0.23011  Biso   1.000  C
  H27      1.0000 0.14851  0.89015  0.22159  Biso   1.000  H
  C190     1.0000 0.16799  0.96337  0.21820  Biso   1.000  C
  H28      1.0000 0.14851  0.89019  0.22159  Biso   1.000  H
  H29      1.0000 0.17771  0.03969  0.21970  Biso   1.000  H
  H30      1.0000 0.17771  0.03973  0.21970  Biso   1.000  H
  H31      1.0000 0.17767  0.03969  0.21970  Biso   1.000  H
  H32      1.0000 0.17767  0.03973  0.21970  Biso   1.000  H
  H33      1.0000 0.03969  0.82225  0.21970  Biso   1.000  H
  H34      1.0000 0.03969  0.82229  0.21970  Biso   1.000  H
  H35      1.0000 0.03973  0.82225  0.21970  Biso   1.000  H
  H36      1.0000 0.03973  0.82229  0.21970  Biso   1.000  H
  C191     1.0000 0.96337  0.83197  0.21820  Biso   1.000  C
  H37      1.0000 0.89015  0.85146  0.22159  Biso   1.000  H
  H38      1.0000 0.89015  0.85149  0.22159  Biso   1.000  H
  H39      1.0000 0.89019  0.85146  0.22159  Biso   1.000  H
  H40      1.0000 0.89019  0.85149  0.22159  Biso   1.000  H
  H41      1.0000 0.10981  0.14851  0.22159  Biso   1.000  H
  C192     1.0000 0.03659  0.16799  0.21820  Biso   1.000  C
  H42      1.0000 0.10977  0.14851  0.22159  Biso   1.000  H
  C193     1.0000 0.03663  0.16799  0.21820  Biso   1.000  C
  H43      1.0000 0.95977  0.18161  0.39569  Biso   1.000  H
  C194     1.0000 0.99847  0.21468  0.43089  Biso   1.000  C
  H44      1.0000 0.95977  0.18157  0.39569  Biso   1.000  H
  C195     1.0000 0.99847  0.21472  0.43089  Biso   1.000  C
  H45      1.0000 0.11161  0.14950  0.39640  Biso   1.000  H
  H46      1.0000 0.96031  0.17771  0.21970  Biso   1.000  H
  H47      1.0000 0.96031  0.17767  0.21970  Biso   1.000  H
  H48      1.0000 0.96027  0.17771  0.21970  Biso   1.000  H
  H49      1.0000 0.96027  0.17767  0.21970  Biso   1.000  H
  C196     1.0000 0.16251  0.48015  0.41441  Biso   1.000  C
  C197     1.0000 0.16251  0.48019  0.41441  Biso   1.000  C
  C198     1.0000 0.16248  0.48015  0.41441  Biso   1.000  C
  C199     1.0000 0.16248  0.48019  0.41441  Biso   1.000  C
  C200     1.0000 0.40399  0.61909  0.42340  Biso   1.000  C
  H50      1.0000 0.11230  0.51361  0.53551  Biso   1.000  H
  C201     1.0000 0.15899  0.53370  0.57011  Biso   1.000  C
  H51      1.0000 0.04019  0.81835  0.60431  Biso   1.000  H
  H52      1.0000 0.04019  0.81839  0.60431  Biso   1.000  H
  C202     1.0000 0.96525  0.83906  0.60804  Biso   1.000  C
  C203     1.0000 0.96525  0.83909  0.60804  Biso   1.000  C
  C204     1.0000 0.96528  0.83906  0.60804  Biso   1.000  C
  C205     1.0000 0.96528  0.83909  0.60804  Biso   1.000  C
  C206     1.0000 0.91128  0.80438  0.56870  Biso   1.000  C
  H53      1.0000 0.94936  0.75990  0.53801  Biso   1.000  H
  C207     1.0000 0.91132  0.80438  0.56870  Biso   1.000  C
  H54      1.0000 0.20010  0.57358  0.60101  Biso   1.000  H
  H55      1.0000 0.20006  0.57358  0.60101  Biso   1.000  H
  C208     1.0000 0.85988  0.80051  0.44530  Biso   1.000  C
  C209     1.0000 0.85988  0.80047  0.44530  Biso   1.000  C
  C210     1.0000 0.40399  0.61909  0.57660  Biso   1.000  C
  C211     1.0000 0.12539  0.97566  0.63600  Biso   1.000  C
  C212     1.0000 0.12539  0.97570  0.63600  Biso   1.000  C
  C213     1.0000 0.18521  0.00739  0.59520  Biso   1.000  C
  C214     1.0000 0.18521  0.00735  0.59520  Biso   1.000  C
  C215     1.0000 0.18517  0.00739  0.59520  Biso   1.000  C
  C216     1.0000 0.18517  0.00735  0.59520  Biso   1.000  C
  O134     1.0000 0.34550  0.22448  0.61974  Biso   1.000  O
  C217     1.0000 0.31699  0.26861  0.56900  Biso   1.000  C
  O135     1.0000 0.34550  0.22452  0.61974  Biso   1.000  O
  C218     1.0000 0.31699  0.26857  0.56900  Biso   1.000  C
  O136     1.0000 0.34547  0.22448  0.61974  Biso   1.000  O
  O137     1.0000 0.34547  0.22452  0.61974  Biso   1.000  O
  C219     1.0000 0.28159  0.32151  0.53250  Biso   1.000  C
  C220     1.0000 0.08868  0.19558  0.56870  Biso   1.000  C
  C221     1.0000 0.45811  0.12941  0.54450  Biso   1.000  C
  C222     1.0000 0.45811  0.12937  0.54450  Biso   1.000  C
  C223     1.0000 0.45807  0.12941  0.54450  Biso   1.000  C
  C224     1.0000 0.45807  0.12937  0.54450  Biso   1.000  C
  C225     1.0000 0.45811  0.12941  0.45550  Biso   1.000  C
  C226     1.0000 0.45811  0.12937  0.45550  Biso   1.000  C
  C227     1.0000 0.45807  0.12941  0.45550  Biso   1.000  C
  C228     1.0000 0.45807  0.12937  0.45550  Biso   1.000  C
  C229     1.0000 0.42247  0.18131  0.58270  Biso   1.000  C
  C230     1.0000 0.42247  0.18127  0.58270  Biso   1.000  C
  C231     1.0000 0.42247  0.18131  0.41730  Biso   1.000  C
  C232     1.0000 0.42247  0.18127  0.41730  Biso   1.000  C
  O138     1.0000 0.23749  0.39220  0.50001  Biso   1.000  O
  O139     1.0000 0.23749  0.39216  0.50001  Biso   1.000  O
  C233     1.0000 0.34619  0.30880  0.41889  Biso   1.000  C
  C234     1.0000 0.34619  0.30876  0.41889  Biso   1.000  C
  C235     1.0000 0.34616  0.30880  0.41889  Biso   1.000  C
  C236     1.0000 0.34616  0.30876  0.41889  Biso   1.000  C
  C237     1.0000 0.31190  0.36269  0.45571  Biso   1.000  C
  C238     1.0000 0.31186  0.36269  0.45571  Biso   1.000  C
  C239     1.0000 0.04658  0.21989  0.44414  Biso   1.000  C
  C240     1.0000 0.04662  0.21989  0.44414  Biso   1.000  C
  H56      1.0000 0.82225  0.96031  0.21970  Biso   1.000  H
  H57      1.0000 0.82225  0.96027  0.21970  Biso   1.000  H
  H58      1.0000 0.82229  0.96031  0.21970  Biso   1.000  H
  H59      1.0000 0.82229  0.96027  0.21970  Biso   1.000  H
  C241     1.0000 0.83197  0.03659  0.21820  Biso   1.000  C
  C242     1.0000 0.83197  0.03663  0.21820  Biso   1.000  C
  C243     1.0000 0.78528  0.99847  0.43089  Biso   1.000  C
  H60      1.0000 0.81835  0.95977  0.39569  Biso   1.000  H
  H61      1.0000 0.81839  0.95977  0.39569  Biso   1.000  H
  C244     1.0000 0.80438  0.08868  0.43130  Biso   1.000  C
  H62      1.0000 0.85046  0.11161  0.39640  Biso   1.000  H
  H63      1.0000 0.85050  0.11161  0.39640  Biso   1.000  H
  H64      1.0000 0.85146  0.10981  0.22159  Biso   1.000  H
  H65      1.0000 0.85146  0.10977  0.22159  Biso   1.000  H
  H66      1.0000 0.85149  0.10981  0.22159  Biso   1.000  H
  H67      1.0000 0.85149  0.10977  0.22159  Biso   1.000  H
  C245     1.0000 0.19780  0.95388  0.18601  Biso   1.000  C
  C246     1.0000 0.19776  0.95388  0.18601  Biso   1.000  C
  C247     1.0000 0.95388  0.80216  0.18601  Biso   1.000  C
  C248     1.0000 0.95388  0.80220  0.18601  Biso   1.000  C
  C249     1.0000 0.04608  0.19780  0.18601  Biso   1.000  C
  C250     1.0000 0.04608  0.19776  0.18601  Biso   1.000  C
  C251     1.0000 0.95197  0.23799  0.44501  Biso   1.000  C
  C252     1.0000 0.20129  0.48398  0.38841  Biso   1.000  C
  C253     1.0000 0.17821  0.44157  0.43911  Biso   1.000  C
  C254     1.0000 0.10702  0.46978  0.40300  Biso   1.000  C
  C255     1.0000 0.17817  0.44157  0.43911  Biso   1.000  C
  C256     1.0000 0.39109  0.58740  0.39631  Biso   1.000  C
  C257     1.0000 0.41861  0.58212  0.45120  Biso   1.000  C
  C258     1.0000 0.44950  0.65545  0.41871  Biso   1.000  C
  C259     1.0000 0.41861  0.58208  0.45120  Biso   1.000  C
  C260     1.0000 0.44950  0.65549  0.41871  Biso   1.000  C
  C261     1.0000 0.41857  0.58212  0.45120  Biso   1.000  C
  C262     1.0000 0.44946  0.65545  0.41871  Biso   1.000  C
  C263     1.0000 0.41857  0.58208  0.45120  Biso   1.000  C
  C264     1.0000 0.44946  0.65549  0.41871  Biso   1.000  C
  C265     1.0000 0.16251  0.48015  0.58559  Biso   1.000  C
  C266     1.0000 0.16251  0.48019  0.58559  Biso   1.000  C
  C267     1.0000 0.16248  0.48015  0.58559  Biso   1.000  C
  C268     1.0000 0.16248  0.48019  0.58559  Biso   1.000  C
  C269     1.0000 0.91717  0.83385  0.59479  Biso   1.000  C
  C270     1.0000 0.97566  0.87457  0.63600  Biso   1.000  C
  C271     1.0000 0.91717  0.83389  0.59479  Biso   1.000  C
  C272     1.0000 0.97570  0.87457  0.63600  Biso   1.000  C
  C273     1.0000 0.85988  0.80051  0.55470  Biso   1.000  C
  C274     1.0000 0.85988  0.80047  0.55470  Biso   1.000  C
  O140     1.0000 0.82267  0.82566  0.43328  Biso   1.000  O
  O141     1.0000 0.85586  0.77437  0.47046  Biso   1.000  O
  O142     1.0000 0.82267  0.82570  0.43328  Biso   1.000  O
  O143     1.0000 0.85590  0.77437  0.47046  Biso   1.000  O
  C275     1.0000 0.39109  0.58740  0.60369  Biso   1.000  C
  C276     1.0000 0.41861  0.58212  0.54880  Biso   1.000  C
  C277     1.0000 0.44950  0.65545  0.58129  Biso   1.000  C
  C278     1.0000 0.41861  0.58208  0.54880  Biso   1.000  C
  C279     1.0000 0.44950  0.65549  0.58129  Biso   1.000  C
  C280     1.0000 0.41857  0.58212  0.54880  Biso   1.000  C
  C281     1.0000 0.44946  0.65545  0.58129  Biso   1.000  C
  C282     1.0000 0.41857  0.58208  0.54880  Biso   1.000  C
  C283     1.0000 0.44946  0.65549  0.58129  Biso   1.000  C
  O144     1.0000 0.10411  0.93424  0.64513  Biso   1.000  O
  O145     1.0000 0.10411  0.93428  0.64513  Biso   1.000  O
  O146     1.0000 0.12041  0.01830  0.64554  Biso   1.000  O
  O147     1.0000 0.12037  0.01830  0.64554  Biso   1.000  O
  H68      1.0000 0.18161  0.04019  0.60431  Biso   1.000  H
  H69      1.0000 0.18157  0.04019  0.60431  Biso   1.000  H
  C284     1.0000 0.34619  0.30880  0.58111  Biso   1.000  C
  C285     1.0000 0.34619  0.30876  0.58111  Biso   1.000  C
  C286     1.0000 0.34616  0.30880  0.58111  Biso   1.000  C
  C287     1.0000 0.34616  0.30876  0.58111  Biso   1.000  C
  C288     1.0000 0.31190  0.36269  0.54429  Biso   1.000  C
  C289     1.0000 0.31186  0.36269  0.54429  Biso   1.000  C
  C290     1.0000 0.08279  0.16611  0.59479  Biso   1.000  C
  C291     1.0000 0.08279  0.16607  0.59479  Biso   1.000  C
  C292     1.0000 0.04658  0.21989  0.55586  Biso   1.000  C
  C293     1.0000 0.04662  0.21989  0.55586  Biso   1.000  C
  H70      1.0000 0.48639  0.11230  0.53551  Biso   1.000  H
  C294     1.0000 0.46630  0.15899  0.57011  Biso   1.000  C
  H71      1.0000 0.48636  0.11230  0.53551  Biso   1.000  H
  C295     1.0000 0.46626  0.15899  0.57011  Biso   1.000  C
  H72      1.0000 0.48639  0.11230  0.46449  Biso   1.000  H
  C296     1.0000 0.46630  0.15899  0.42989  Biso   1.000  C
  H73      1.0000 0.48636  0.11230  0.46449  Biso   1.000  H
  C297     1.0000 0.46626  0.15899  0.42989  Biso   1.000  C
  H74      1.0000 0.42638  0.20010  0.60101  Biso   1.000  H
  H75      1.0000 0.42638  0.20006  0.60101  Biso   1.000  H
  H76      1.0000 0.42638  0.20010  0.39899  Biso   1.000  H
  H77      1.0000 0.42638  0.20006  0.39899  Biso   1.000  H
  H78      1.0000 0.36659  0.30348  0.40120  Biso   1.000  H
  C298     1.0000 0.34501  0.35810  0.43330  Biso   1.000  C
  C299     1.0000 0.34501  0.35806  0.43330  Biso   1.000  C
  H79      1.0000 0.36656  0.30348  0.40120  Biso   1.000  H
  C300     1.0000 0.34497  0.35810  0.43330  Biso   1.000  C
  C301     1.0000 0.34497  0.35806  0.43330  Biso   1.000  C
  H80      1.0000 0.30769  0.39561  0.46461  Biso   1.000  H
  H81      1.0000 0.30769  0.39557  0.46461  Biso   1.000  H
  H82      1.0000 0.05060  0.24010  0.46199  Biso   1.000  H
  H83      1.0000 0.05060  0.24006  0.46199  Biso   1.000  H
  C302     1.0000 0.80216  0.04608  0.18601  Biso   1.000  C
  C303     1.0000 0.80220  0.04608  0.18601  Biso   1.000  C
  C304     1.0000 0.76197  0.95197  0.44501  Biso   1.000  C
  C305     1.0000 0.78007  0.04658  0.44414  Biso   1.000  C
  C306     1.0000 0.78007  0.04662  0.44414  Biso   1.000  C
  C307     1.0000 0.80051  0.14008  0.44530  Biso   1.000  C
  C308     1.0000 0.80047  0.14008  0.44530  Biso   1.000  C
  C309     1.0000 0.19799  0.89987  0.17560  Biso   1.000  C
  C310     1.0000 0.16910  0.98607  0.16269  Biso   1.000  C
  C311     1.0000 0.24829  0.97696  0.19420  Biso   1.000  C
  C312     1.0000 0.24829  0.97700  0.19420  Biso   1.000  C
  C313     1.0000 0.19803  0.89987  0.17560  Biso   1.000  C
  C314     1.0000 0.89987  0.80197  0.17560  Biso   1.000  C
  C315     1.0000 0.98607  0.83086  0.16269  Biso   1.000  C
  C316     1.0000 0.97696  0.75167  0.19420  Biso   1.000  C
  C317     1.0000 0.98607  0.83090  0.16269  Biso   1.000  C
  C318     1.0000 0.97700  0.75167  0.19420  Biso   1.000  C
  C319     1.0000 0.10009  0.19799  0.17560  Biso   1.000  C
  C320     1.0000 0.01389  0.16910  0.16269  Biso   1.000  C
  C321     1.0000 0.02300  0.24829  0.19420  Biso   1.000  C
  C322     1.0000 0.10009  0.19803  0.17560  Biso   1.000  C
  C323     1.0000 0.10013  0.19799  0.17560  Biso   1.000  C
  C324     1.0000 0.02296  0.24829  0.19420  Biso   1.000  C
  C325     1.0000 0.10013  0.19803  0.17560  Biso   1.000  C
  O148     1.0000 0.95985  0.26291  0.46932  Biso   1.000  O
  O149     1.0000 0.91005  0.23118  0.43342  Biso   1.000  O
  O150     1.0000 0.95985  0.26287  0.46932  Biso   1.000  O
  O151     1.0000 0.95989  0.26291  0.46932  Biso   1.000  O
  O152     1.0000 0.91009  0.23118  0.43342  Biso   1.000  O
  O153     1.0000 0.95989  0.26287  0.46932  Biso   1.000  O
  H84      1.0000 0.18360  0.49328  0.36960  Biso   1.000  H
  H85      1.0000 0.22678  0.51028  0.39330  Biso   1.000  H
  H86      1.0000 0.21851  0.45099  0.38579  Biso   1.000  H
  H87      1.0000 0.18356  0.49328  0.36960  Biso   1.000  H
  H88      1.0000 0.21847  0.45099  0.38579  Biso   1.000  H
  H89      1.0000 0.18758  0.40896  0.42950  Biso   1.000  H
  H90      1.0000 0.20760  0.45497  0.45049  Biso   1.000  H
  H91      1.0000 0.14950  0.43606  0.45311  Biso   1.000  H
  H92      1.0000 0.18758  0.40900  0.42950  Biso   1.000  H
  H93      1.0000 0.20760  0.45501  0.45049  Biso   1.000  H
  H94      1.0000 0.14950  0.43610  0.45311  Biso   1.000  H
  H95      1.0000 0.20756  0.45497  0.45049  Biso   1.000  H
  H96      1.0000 0.20756  0.45501  0.45049  Biso   1.000  H
  H97      1.0000 0.08248  0.47908  0.41889  Biso   1.000  H
  H98      1.0000 0.10039  0.49026  0.38470  Biso   1.000  H
  H99      1.0000 0.10330  0.43338  0.39799  Biso   1.000  H
  H100     1.0000 0.10039  0.49030  0.38470  Biso   1.000  H
  H101     1.0000 0.10326  0.43338  0.39799  Biso   1.000  H
  H102     1.0000 0.41478  0.55843  0.39501  Biso   1.000  H
  H103     1.0000 0.35588  0.57465  0.39831  Biso   1.000  H
  H104     1.0000 0.39400  0.60830  0.37791  Biso   1.000  H
  H105     1.0000 0.41478  0.55839  0.39501  Biso   1.000  H
  H106     1.0000 0.35588  0.57469  0.39831  Biso   1.000  H
  H107     1.0000 0.39396  0.60830  0.37791  Biso   1.000  H
  H108     1.0000 0.43698  0.55211  0.44350  Biso   1.000  H
  H109     1.0000 0.44039  0.60060  0.46570  Biso   1.000  H
  H110     1.0000 0.38719  0.57102  0.46149  Biso   1.000  H
  H111     1.0000 0.43698  0.55207  0.44350  Biso   1.000  H
  H112     1.0000 0.38719  0.57098  0.46149  Biso   1.000  H
  H113     1.0000 0.38722  0.57102  0.46149  Biso   1.000  H
  H114     1.0000 0.38722  0.57098  0.46149  Biso   1.000  H
  H115     1.0000 0.43989  0.68228  0.40409  Biso   1.000  H
  H116     1.0000 0.45868  0.67122  0.43820  Biso   1.000  H
  H117     1.0000 0.47870  0.63620  0.41070  Biso   1.000  H
  H118     1.0000 0.45868  0.67118  0.43820  Biso   1.000  H
  H119     1.0000 0.47866  0.63620  0.41070  Biso   1.000  H
  C326     1.0000 0.17821  0.44157  0.56089  Biso   1.000  C
  C327     1.0000 0.10702  0.46978  0.59700  Biso   1.000  C
  C328     1.0000 0.20129  0.48398  0.61159  Biso   1.000  C
  C329     1.0000 0.17817  0.44157  0.56089  Biso   1.000  C
  H120     1.0000 0.88835  0.85046  0.60360  Biso   1.000  H
  H121     1.0000 0.88835  0.85050  0.60360  Biso   1.000  H
  H122     1.0000 0.88839  0.85046  0.60360  Biso   1.000  H
  H123     1.0000 0.88839  0.85050  0.60360  Biso   1.000  H
  O154     1.0000 0.01830  0.87955  0.64554  Biso   1.000  O
  O155     1.0000 0.01830  0.87959  0.64554  Biso   1.000  O
  O156     1.0000 0.93424  0.89585  0.64513  Biso   1.000  O
  O157     1.0000 0.93424  0.89589  0.64513  Biso   1.000  O
  O158     1.0000 0.93428  0.89585  0.64513  Biso   1.000  O
  O159     1.0000 0.93428  0.89589  0.64513  Biso   1.000  O
  O160     1.0000 0.82267  0.82566  0.56672  Biso   1.000  O
  O161     1.0000 0.85586  0.77437  0.52954  Biso   1.000  O
  O162     1.0000 0.82267  0.82570  0.56672  Biso   1.000  O
  O163     1.0000 0.85590  0.77437  0.52954  Biso   1.000  O
  Mg31     1.0000 0.75458  0.84013  0.45131  Biso   1.000  Mg
  Mg32     1.0000 0.75462  0.84013  0.45131  Biso   1.000  Mg
  Mg33     1.0000 0.79883  0.77142  0.50001  Biso   1.000  Mg
  Mg34     1.0000 0.79883  0.77146  0.50001  Biso   1.000  Mg
  Mg35     1.0000 0.79887  0.77142  0.50001  Biso   1.000  Mg
  Mg36     1.0000 0.79887  0.77146  0.50001  Biso   1.000  Mg
  H124     1.0000 0.41478  0.55843  0.60499  Biso   1.000  H
  H125     1.0000 0.35588  0.57465  0.60169  Biso   1.000  H
  H126     1.0000 0.39400  0.60830  0.62209  Biso   1.000  H
  H127     1.0000 0.41478  0.55839  0.60499  Biso   1.000  H
  H128     1.0000 0.35588  0.57469  0.60169  Biso   1.000  H
  H129     1.0000 0.39396  0.60830  0.62209  Biso   1.000  H
  H130     1.0000 0.43698  0.55211  0.55650  Biso   1.000  H
  H131     1.0000 0.44039  0.60060  0.53430  Biso   1.000  H
  H132     1.0000 0.38719  0.57102  0.53851  Biso   1.000  H
  H133     1.0000 0.43698  0.55207  0.55650  Biso   1.000  H
  H134     1.0000 0.38719  0.57098  0.53851  Biso   1.000  H
  H135     1.0000 0.38722  0.57102  0.53851  Biso   1.000  H
  H136     1.0000 0.38722  0.57098  0.53851  Biso   1.000  H
  H137     1.0000 0.43989  0.68228  0.59591  Biso   1.000  H
  H138     1.0000 0.45868  0.67122  0.56180  Biso   1.000  H
  H139     1.0000 0.47870  0.63620  0.58930  Biso   1.000  H
  H140     1.0000 0.45868  0.67118  0.56180  Biso   1.000  H
  H141     1.0000 0.47866  0.63620  0.58930  Biso   1.000  H
  Mg37     1.0000 0.04444  0.93126  0.67489  Biso   1.000  Mg
  Mg38     1.0000 0.04440  0.93126  0.67489  Biso   1.000  Mg
  Mg39     1.0000 0.06874  0.04444  0.67489  Biso   1.000  Mg
  Mg40     1.0000 0.06874  0.04440  0.67489  Biso   1.000  Mg
  Mg41     1.0000 0.06870  0.04444  0.67489  Biso   1.000  Mg
  Mg42     1.0000 0.06870  0.04440  0.67489  Biso   1.000  Mg
  H142     1.0000 0.36659  0.30348  0.59880  Biso   1.000  H
  C330     1.0000 0.34501  0.35810  0.56670  Biso   1.000  C
  C331     1.0000 0.34501  0.35806  0.56670  Biso   1.000  C
  H143     1.0000 0.36656  0.30348  0.59880  Biso   1.000  H
  C332     1.0000 0.34497  0.35810  0.56670  Biso   1.000  C
  C333     1.0000 0.34497  0.35806  0.56670  Biso   1.000  C
  H144     1.0000 0.30769  0.39561  0.53539  Biso   1.000  H
  H145     1.0000 0.30769  0.39557  0.53539  Biso   1.000  H
  C334     1.0000 0.03472  0.16091  0.60804  Biso   1.000  C
  C335     1.0000 0.03472  0.16087  0.60804  Biso   1.000  C
  H146     1.0000 0.11161  0.14950  0.60360  Biso   1.000  H
  C336     1.0000 0.99847  0.21468  0.56911  Biso   1.000  C
  C337     1.0000 0.99847  0.21472  0.56911  Biso   1.000  C
  H147     1.0000 0.05060  0.24010  0.53801  Biso   1.000  H
  H148     1.0000 0.05060  0.24006  0.53801  Biso   1.000  H
  C338     1.0000 0.51981  0.16251  0.58559  Biso   1.000  C
  C339     1.0000 0.51981  0.16248  0.58559  Biso   1.000  C
  C340     1.0000 0.51977  0.16251  0.58559  Biso   1.000  C
  C341     1.0000 0.51977  0.16248  0.58559  Biso   1.000  C
  C342     1.0000 0.51981  0.16251  0.41441  Biso   1.000  C
  C343     1.0000 0.51981  0.16248  0.41441  Biso   1.000  C
  C344     1.0000 0.51977  0.16251  0.41441  Biso   1.000  C
  C345     1.0000 0.51977  0.16248  0.41441  Biso   1.000  C
  C346     1.0000 0.38091  0.40399  0.42340  Biso   1.000  C
  C347     1.0000 0.80197  0.10009  0.17560  Biso   1.000  C
  C348     1.0000 0.83086  0.01389  0.16269  Biso   1.000  C
  C349     1.0000 0.75167  0.02300  0.19420  Biso   1.000  C
  C350     1.0000 0.80197  0.10013  0.17560  Biso   1.000  C
  C351     1.0000 0.75167  0.02296  0.19420  Biso   1.000  C
  C352     1.0000 0.83090  0.01389  0.16269  Biso   1.000  C
  O164     1.0000 0.76878  0.91005  0.43342  Biso   1.000  O
  O165     1.0000 0.76878  0.91009  0.43342  Biso   1.000  O
  O166     1.0000 0.73709  0.95985  0.46932  Biso   1.000  O
  O167     1.0000 0.73709  0.95989  0.46932  Biso   1.000  O
  H149     1.0000 0.75990  0.05060  0.46199  Biso   1.000  H
  O168     1.0000 0.82566  0.17729  0.43328  Biso   1.000  O
  O169     1.0000 0.77437  0.14410  0.47046  Biso   1.000  O
  O170     1.0000 0.77437  0.14407  0.47046  Biso   1.000  O
  O171     1.0000 0.82570  0.17729  0.43328  Biso   1.000  O
  H150     1.0000 0.21170  0.89796  0.15491  Biso   1.000  H
  H151     1.0000 0.21958  0.87940  0.18931  Biso   1.000  H
  H152     1.0000 0.16301  0.88636  0.17590  Biso   1.000  H
  H153     1.0000 0.21170  0.89800  0.15491  Biso   1.000  H
  H154     1.0000 0.16301  0.88640  0.17590  Biso   1.000  H
  H155     1.0000 0.21166  0.89796  0.15491  Biso   1.000  H
  H156     1.0000 0.21166  0.89800  0.15491  Biso   1.000  H
  H157     1.0000 0.13220  0.98098  0.16520  Biso   1.000  H
  H158     1.0000 0.17920  0.97558  0.14209  Biso   1.000  H
  H159     1.0000 0.13216  0.98098  0.16520  Biso   1.000  H
  H160     1.0000 0.17916  0.97558  0.14209  Biso   1.000  H
  H161     1.0000 0.17740  0.02231  0.16570  Biso   1.000  H
  H162     1.0000 0.17740  0.02228  0.16570  Biso   1.000  H
  H163     1.0000 0.17736  0.02231  0.16570  Biso   1.000  H
  H164     1.0000 0.17736  0.02228  0.16570  Biso   1.000  H
  H165     1.0000 0.24859  0.98546  0.21590  Biso   1.000  H
  H166     1.0000 0.27569  0.95250  0.18981  Biso   1.000  H
  H167     1.0000 0.24859  0.98549  0.21590  Biso   1.000  H
  H168     1.0000 0.27569  0.95246  0.18981  Biso   1.000  H
  H169     1.0000 0.25368  0.00819  0.18221  Biso   1.000  H
  H170     1.0000 0.25368  0.00823  0.18221  Biso   1.000  H
  H171     1.0000 0.89796  0.78830  0.15491  Biso   1.000  H
  H172     1.0000 0.87940  0.78038  0.18931  Biso   1.000  H
  H173     1.0000 0.88636  0.83695  0.17590  Biso   1.000  H
  H174     1.0000 0.88636  0.83699  0.17590  Biso   1.000  H
  H175     1.0000 0.89800  0.78830  0.15491  Biso   1.000  H
  H176     1.0000 0.88640  0.83695  0.17590  Biso   1.000  H
  H177     1.0000 0.88640  0.83699  0.17590  Biso   1.000  H
  H178     1.0000 0.02231  0.82256  0.16570  Biso   1.000  H
  H179     1.0000 0.02231  0.82260  0.16570  Biso   1.000  H
  H180     1.0000 0.02228  0.82256  0.16570  Biso   1.000  H
  H181     1.0000 0.02228  0.82260  0.16570  Biso   1.000  H
  H182     1.0000 0.98098  0.86776  0.16520  Biso   1.000  H
  H183     1.0000 0.97558  0.82076  0.14209  Biso   1.000  H
  H184     1.0000 0.98098  0.86780  0.16520  Biso   1.000  H
  H185     1.0000 0.97558  0.82080  0.14209  Biso   1.000  H
  H186     1.0000 0.00819  0.74628  0.18221  Biso   1.000  H
  H187     1.0000 0.00823  0.74628  0.18221  Biso   1.000  H
  H188     1.0000 0.98546  0.75137  0.21590  Biso   1.000  H
  H189     1.0000 0.95250  0.72427  0.18981  Biso   1.000  H
  H190     1.0000 0.98549  0.75137  0.21590  Biso   1.000  H
  H191     1.0000 0.95246  0.72427  0.18981  Biso   1.000  H
  H192     1.0000 0.10200  0.21170  0.15491  Biso   1.000  H
  H193     1.0000 0.12060  0.21958  0.18931  Biso   1.000  H
  H194     1.0000 0.11360  0.16301  0.17590  Biso   1.000  H
  H195     1.0000 0.10200  0.21166  0.15491  Biso   1.000  H
  H196     1.0000 0.12056  0.21958  0.18931  Biso   1.000  H
  H197     1.0000 0.11356  0.16301  0.17590  Biso   1.000  H
  H198     1.0000 0.97765  0.17740  0.16570  Biso   1.000  H
  H199     1.0000 0.97765  0.17736  0.16570  Biso   1.000  H
  H200     1.0000 0.97769  0.17740  0.16570  Biso   1.000  H
  H201     1.0000 0.97769  0.17736  0.16570  Biso   1.000  H
  H202     1.0000 0.01898  0.13220  0.16520  Biso   1.000  H
  H203     1.0000 0.02438  0.17920  0.14209  Biso   1.000  H
  H204     1.0000 0.01898  0.13216  0.16520  Biso   1.000  H
  H205     1.0000 0.02438  0.17916  0.14209  Biso   1.000  H
  H206     1.0000 0.01902  0.13220  0.16520  Biso   1.000  H
  H207     1.0000 0.01902  0.13216  0.16520  Biso   1.000  H
  H208     1.0000 0.99177  0.25368  0.18221  Biso   1.000  H
  H209     1.0000 0.01451  0.24859  0.21590  Biso   1.000  H
  H210     1.0000 0.04750  0.27569  0.18981  Biso   1.000  H
  H211     1.0000 0.01447  0.24859  0.21590  Biso   1.000  H
  Mg43     1.0000 0.90883  0.29024  0.50001  Biso   1.000  Mg
  Mg44     1.0000 0.84013  0.24538  0.45131  Biso   1.000  Mg
  Mg45     1.0000 0.84013  0.24534  0.45131  Biso   1.000  Mg
  H212     1.0000 0.18758  0.40896  0.57050  Biso   1.000  H
  H213     1.0000 0.20760  0.45497  0.54951  Biso   1.000  H
  H214     1.0000 0.14950  0.43606  0.54689  Biso   1.000  H
  H215     1.0000 0.18758  0.40900  0.57050  Biso   1.000  H
  H216     1.0000 0.20760  0.45501  0.54951  Biso   1.000  H
  H217     1.0000 0.14950  0.43610  0.54689  Biso   1.000  H
  H218     1.0000 0.20756  0.45497  0.54951  Biso   1.000  H
  H219     1.0000 0.20756  0.45501  0.54951  Biso   1.000  H
  H220     1.0000 0.08248  0.47908  0.58111  Biso   1.000  H
  H221     1.0000 0.10039  0.49026  0.61530  Biso   1.000  H
  H222     1.0000 0.10330  0.43338  0.60201  Biso   1.000  H
  H223     1.0000 0.10039  0.49030  0.61530  Biso   1.000  H
  H224     1.0000 0.10326  0.43338  0.60201  Biso   1.000  H
  H225     1.0000 0.18360  0.49328  0.63040  Biso   1.000  H
  H226     1.0000 0.22678  0.51028  0.60670  Biso   1.000  H
  H227     1.0000 0.21851  0.45099  0.61421  Biso   1.000  H
  H228     1.0000 0.18356  0.49328  0.63040  Biso   1.000  H
  H229     1.0000 0.21847  0.45099  0.61421  Biso   1.000  H
  Mg46     1.0000 0.93126  0.95552  0.67489  Biso   1.000  Mg
  Mg47     1.0000 0.93126  0.95556  0.67489  Biso   1.000  Mg
  Mg48     1.0000 0.75458  0.84013  0.54869  Biso   1.000  Mg
  Mg49     1.0000 0.75462  0.84013  0.54869  Biso   1.000  Mg
  Mg50     1.0000 0.70973  0.90883  0.50001  Biso   1.000  Mg
  O172     1.0000 0.77296  0.85115  0.50001  Biso   1.000  O
  O173     1.0000 0.77296  0.85119  0.50001  Biso   1.000  O
  O174     1.0000 0.77299  0.85115  0.50001  Biso   1.000  O
  O175     1.0000 0.77299  0.85119  0.50001  Biso   1.000  O
  O176     1.0000 0.74207  0.76538  0.46618  Biso   1.000  O
  O177     1.0000 0.68217  0.86118  0.46604  Biso   1.000  O
  O178     1.0000 0.72098  0.81896  0.41097  Biso   1.000  O
  O179     1.0000 0.72098  0.81900  0.41097  Biso   1.000  O
  O180     1.0000 0.74207  0.76538  0.53382  Biso   1.000  O
  O181     1.0000 0.80055  0.69392  0.50001  Biso   1.000  O
  O182     1.0000 0.80055  0.69388  0.50001  Biso   1.000  O
  O183     1.0000 0.80059  0.69392  0.50001  Biso   1.000  O
  O184     1.0000 0.80059  0.69388  0.50001  Biso   1.000  O
  O185     1.0000 0.08149  0.87465  0.69968  Biso   1.000  O
  O186     1.0000 0.07831  0.98316  0.70503  Biso   1.000  O
  O187     1.0000 0.08149  0.87469  0.69968  Biso   1.000  O
  O188     1.0000 0.07831  0.98320  0.70503  Biso   1.000  O
  O189     1.0000 0.07827  0.98316  0.70503  Biso   1.000  O
  O190     1.0000 0.07827  0.98320  0.70503  Biso   1.000  O
  O191     1.0000 0.98316  0.92165  0.70503  Biso   1.000  O
  O192     1.0000 0.98316  0.92169  0.70503  Biso   1.000  O
  O193     1.0000 0.98320  0.92165  0.70503  Biso   1.000  O
  O194     1.0000 0.98320  0.92169  0.70503  Biso   1.000  O
  O195     1.0000 0.00000  1.00000  0.66150  Biso   1.000  O
  Mg51     1.0000 0.95552  0.06874  0.67489  Biso   1.000  Mg
  Mg52     1.0000 0.95552  0.06870  0.67489  Biso   1.000  Mg
  Mg53     1.0000 0.95556  0.06874  0.67489  Biso   1.000  Mg
  Mg54     1.0000 0.95556  0.06870  0.67489  Biso   1.000  Mg
  O196     1.0000 0.01680  0.07831  0.70503  Biso   1.000  O
  O197     1.0000 0.12531  0.08149  0.69968  Biso   1.000  O
  O198     1.0000 0.06572  0.10411  0.64513  Biso   1.000  O
  O199     1.0000 0.01680  0.07827  0.70503  Biso   1.000  O
  O200     1.0000 0.12527  0.08149  0.69968  Biso   1.000  O
  O201     1.0000 0.06568  0.10411  0.64513  Biso   1.000  O
  C353     1.0000 0.38091  0.40399  0.57660  Biso   1.000  C
  C354     1.0000 0.02430  0.12539  0.63600  Biso   1.000  C
  C355     1.0000 0.99257  0.18521  0.59520  Biso   1.000  C
  C356     1.0000 0.99257  0.18517  0.59520  Biso   1.000  C
  C357     1.0000 0.99261  0.18521  0.59520  Biso   1.000  C
  C358     1.0000 0.99261  0.18517  0.59520  Biso   1.000  C
  C359     1.0000 0.95197  0.23799  0.55499  Biso   1.000  C
  C360     1.0000 0.55839  0.17821  0.56089  Biso   1.000  C
  C361     1.0000 0.53018  0.10702  0.59700  Biso   1.000  C
  C362     1.0000 0.51598  0.20129  0.61159  Biso   1.000  C
  C363     1.0000 0.55839  0.17817  0.56089  Biso   1.000  C
  C364     1.0000 0.55839  0.17821  0.43911  Biso   1.000  C
  C365     1.0000 0.53018  0.10702  0.40300  Biso   1.000  C
  C366     1.0000 0.51598  0.20129  0.38841  Biso   1.000  C
  C367     1.0000 0.55839  0.17817  0.43911  Biso   1.000  C
  C368     1.0000 0.41260  0.39109  0.39631  Biso   1.000  C
  C369     1.0000 0.41788  0.41861  0.45120  Biso   1.000  C
  C370     1.0000 0.34451  0.44950  0.41871  Biso   1.000  C
  C371     1.0000 0.41788  0.41857  0.45120  Biso   1.000  C
  C372     1.0000 0.34451  0.44946  0.41871  Biso   1.000  C
  C373     1.0000 0.41256  0.39109  0.39631  Biso   1.000  C
  H230     1.0000 0.78830  0.10200  0.15491  Biso   1.000  H
  H231     1.0000 0.78038  0.12060  0.18931  Biso   1.000  H
  H232     1.0000 0.83695  0.11360  0.17590  Biso   1.000  H
  H233     1.0000 0.78038  0.12056  0.18931  Biso   1.000  H
  H234     1.0000 0.83695  0.11356  0.17590  Biso   1.000  H
  H235     1.0000 0.83699  0.11360  0.17590  Biso   1.000  H
  H236     1.0000 0.83699  0.11356  0.17590  Biso   1.000  H
  H237     1.0000 0.82256  0.97765  0.16570  Biso   1.000  H
  H238     1.0000 0.82256  0.97769  0.16570  Biso   1.000  H
  H239     1.0000 0.82260  0.97765  0.16570  Biso   1.000  H
  H240     1.0000 0.82260  0.97769  0.16570  Biso   1.000  H
  H241     1.0000 0.86776  0.01898  0.16520  Biso   1.000  H
  H242     1.0000 0.82076  0.02438  0.14209  Biso   1.000  H
  H243     1.0000 0.86776  0.01902  0.16520  Biso   1.000  H
  H244     1.0000 0.86780  0.01898  0.16520  Biso   1.000  H
  H245     1.0000 0.82080  0.02438  0.14209  Biso   1.000  H
  H246     1.0000 0.86780  0.01902  0.16520  Biso   1.000  H
  H247     1.0000 0.74628  0.99177  0.18221  Biso   1.000  H
  H248     1.0000 0.75137  0.01451  0.21590  Biso   1.000  H
  H249     1.0000 0.72427  0.04750  0.18981  Biso   1.000  H
  H250     1.0000 0.75137  0.01447  0.21590  Biso   1.000  H
  Mg55     1.0000 0.77142  0.20113  0.50001  Biso   1.000  Mg
  Mg56     1.0000 0.77142  0.20109  0.50001  Biso   1.000  Mg
  Mg57     1.0000 0.77146  0.20113  0.50001  Biso   1.000  Mg
  Mg58     1.0000 0.77146  0.20109  0.50001  Biso   1.000  Mg
  O202     1.0000 0.95985  0.26291  0.53068  Biso   1.000  O
  O203     1.0000 0.95985  0.26287  0.53068  Biso   1.000  O
  O204     1.0000 0.95989  0.26291  0.53068  Biso   1.000  O
  O205     1.0000 0.95989  0.26287  0.53068  Biso   1.000  O
  Mg59     1.0000 0.84013  0.24538  0.54869  Biso   1.000  Mg
  Mg60     1.0000 0.84013  0.24534  0.54869  Biso   1.000  Mg
  O206     1.0000 0.85115  0.22701  0.50001  Biso   1.000  O
  O207     1.0000 0.86118  0.31779  0.53396  Biso   1.000  O
  O208     1.0000 0.85119  0.22701  0.50001  Biso   1.000  O
  O209     1.0000 0.86118  0.31779  0.46604  Biso   1.000  O
  O210     1.0000 0.94297  0.35898  0.50001  Biso   1.000  O
  O211     1.0000 0.76538  0.25789  0.46618  Biso   1.000  O
  O212     1.0000 0.81896  0.27898  0.41097  Biso   1.000  O
  O213     1.0000 0.81900  0.27898  0.41097  Biso   1.000  O
  O214     1.0000 0.87465  0.91848  0.69968  Biso   1.000  O
  O215     1.0000 0.87955  0.98167  0.64554  Biso   1.000  O
  O216     1.0000 0.87469  0.91848  0.69968  Biso   1.000  O
  O217     1.0000 0.87959  0.98167  0.64554  Biso   1.000  O
  O218     1.0000 0.92165  0.01680  0.70503  Biso   1.000  O
  O219     1.0000 0.92169  0.01680  0.70503  Biso   1.000  O
  O220     1.0000 0.68217  0.86118  0.53396  Biso   1.000  O
  O221     1.0000 0.72098  0.81896  0.58903  Biso   1.000  O
  O222     1.0000 0.76878  0.91005  0.56658  Biso   1.000  O
  O223     1.0000 0.72098  0.81900  0.58903  Biso   1.000  O
  O224     1.0000 0.76878  0.91009  0.56658  Biso   1.000  O
  O225     1.0000 0.64098  0.94297  0.50001  Biso   1.000  O
  O226     1.0000 0.73709  0.95985  0.53068  Biso   1.000  O
  O227     1.0000 0.73709  0.95989  0.53068  Biso   1.000  O
  C374     1.0000 0.71642  0.72768  0.45530  Biso   1.000  C
  C375     1.0000 0.71639  0.72768  0.45530  Biso   1.000  C
  C376     1.0000 0.63628  0.85467  0.45521  Biso   1.000  C
  S32      1.0000 0.67367  0.78953  0.40999  Biso   1.000  S
  S33      1.0000 0.67367  0.78949  0.40999  Biso   1.000  S
  S34      1.0000 0.67363  0.78953  0.40999  Biso   1.000  S
  S35      1.0000 0.67363  0.78949  0.40999  Biso   1.000  S
  C377     1.0000 0.71642  0.72768  0.54470  Biso   1.000  C
  C378     1.0000 0.71639  0.72768  0.54470  Biso   1.000  C
  S36      1.0000 0.75477  0.66131  0.50001  Biso   1.000  S
  S37      1.0000 0.75481  0.66131  0.50001  Biso   1.000  S
  S38      1.0000 0.08263  0.87274  0.73176  Biso   1.000  S
  S39      1.0000 0.08263  0.87278  0.73176  Biso   1.000  S
  C379     1.0000 0.10598  0.97895  0.73010  Biso   1.000  C
  C380     1.0000 0.10598  0.97899  0.73010  Biso   1.000  C
  C381     1.0000 0.97895  0.89398  0.73010  Biso   1.000  C
  C382     1.0000 0.97899  0.89398  0.73010  Biso   1.000  C
  O228     1.0000 0.91848  0.12531  0.69968  Biso   1.000  O
  O229     1.0000 0.98167  0.12041  0.64554  Biso   1.000  O
  O230     1.0000 0.89585  0.06572  0.64513  Biso   1.000  O
  O231     1.0000 0.91848  0.12527  0.69968  Biso   1.000  O
  O232     1.0000 0.98167  0.12037  0.64554  Biso   1.000  O
  O233     1.0000 0.89585  0.06568  0.64513  Biso   1.000  O
  O234     1.0000 0.89589  0.06572  0.64513  Biso   1.000  O
  O235     1.0000 0.89589  0.06568  0.64513  Biso   1.000  O
  C383     1.0000 0.02101  0.10598  0.73010  Biso   1.000  C
  C384     1.0000 0.02097  0.10598  0.73010  Biso   1.000  C
  S40      1.0000 0.12722  0.08263  0.73176  Biso   1.000  S
  S41      1.0000 0.12719  0.08263  0.73176  Biso   1.000  S
  C385     1.0000 0.41260  0.39109  0.60369  Biso   1.000  C
  C386     1.0000 0.41788  0.41861  0.54880  Biso   1.000  C
  C387     1.0000 0.34451  0.44950  0.58129  Biso   1.000  C
  C388     1.0000 0.41788  0.41857  0.54880  Biso   1.000  C
  C389     1.0000 0.34451  0.44946  0.58129  Biso   1.000  C
  C390     1.0000 0.41256  0.39109  0.60369  Biso   1.000  C
  H251     1.0000 0.95977  0.18161  0.60431  Biso   1.000  H
  H252     1.0000 0.95977  0.18157  0.60431  Biso   1.000  H
  O236     1.0000 0.91005  0.23118  0.56658  Biso   1.000  O
  O237     1.0000 0.91009  0.23118  0.56658  Biso   1.000  O
  H253     1.0000 0.59100  0.18758  0.57050  Biso   1.000  H
  H254     1.0000 0.54499  0.20760  0.54951  Biso   1.000  H
  H255     1.0000 0.56390  0.14950  0.54689  Biso   1.000  H
  H256     1.0000 0.54499  0.20756  0.54951  Biso   1.000  H
  H257     1.0000 0.59096  0.18758  0.57050  Biso   1.000  H
  H258     1.0000 0.52088  0.08248  0.58111  Biso   1.000  H
  H259     1.0000 0.50970  0.10039  0.61530  Biso   1.000  H
  H260     1.0000 0.56658  0.10330  0.60201  Biso   1.000  H
  H261     1.0000 0.56658  0.10326  0.60201  Biso   1.000  H
  H262     1.0000 0.50966  0.10039  0.61530  Biso   1.000  H
  H263     1.0000 0.50668  0.18360  0.63040  Biso   1.000  H
  H264     1.0000 0.48969  0.22678  0.60670  Biso   1.000  H
  H265     1.0000 0.54897  0.21851  0.61421  Biso   1.000  H
  H266     1.0000 0.50668  0.18356  0.63040  Biso   1.000  H
  H267     1.0000 0.54897  0.21847  0.61421  Biso   1.000  H
  H268     1.0000 0.59100  0.18758  0.42950  Biso   1.000  H
  H269     1.0000 0.54499  0.20760  0.45049  Biso   1.000  H
  H270     1.0000 0.56390  0.14950  0.45311  Biso   1.000  H
  H271     1.0000 0.54499  0.20756  0.45049  Biso   1.000  H
  H272     1.0000 0.59096  0.18758  0.42950  Biso   1.000  H
  H273     1.0000 0.52088  0.08248  0.41889  Biso   1.000  H
  H274     1.0000 0.50970  0.10039  0.38470  Biso   1.000  H
  H275     1.0000 0.56658  0.10330  0.39799  Biso   1.000  H
  H276     1.0000 0.56658  0.10326  0.39799  Biso   1.000  H
  H277     1.0000 0.50966  0.10039  0.38470  Biso   1.000  H
  H278     1.0000 0.50668  0.18360  0.36960  Biso   1.000  H
  H279     1.0000 0.48969  0.22678  0.39330  Biso   1.000  H
  H280     1.0000 0.54897  0.21851  0.38579  Biso   1.000  H
  H281     1.0000 0.50668  0.18356  0.36960  Biso   1.000  H
  H282     1.0000 0.54897  0.21847  0.38579  Biso   1.000  H
  H283     1.0000 0.44157  0.41478  0.39501  Biso   1.000  H
  H284     1.0000 0.42531  0.35588  0.39831  Biso   1.000  H
  H285     1.0000 0.39170  0.39400  0.37791  Biso   1.000  H
  H286     1.0000 0.39170  0.39396  0.37791  Biso   1.000  H
  H287     1.0000 0.42527  0.35588  0.39831  Biso   1.000  H
  H288     1.0000 0.39166  0.39400  0.37791  Biso   1.000  H
  H289     1.0000 0.39166  0.39396  0.37791  Biso   1.000  H
  H290     1.0000 0.44789  0.43698  0.44350  Biso   1.000  H
  H291     1.0000 0.39940  0.44039  0.46570  Biso   1.000  H
  H292     1.0000 0.42898  0.38719  0.46149  Biso   1.000  H
  H293     1.0000 0.42898  0.38722  0.46149  Biso   1.000  H
  H294     1.0000 0.39936  0.44039  0.46570  Biso   1.000  H
  H295     1.0000 0.31768  0.43989  0.40409  Biso   1.000  H
  H296     1.0000 0.32878  0.45868  0.43820  Biso   1.000  H
  H297     1.0000 0.36380  0.47870  0.41070  Biso   1.000  H
  H298     1.0000 0.36380  0.47866  0.41070  Biso   1.000  H
  H299     1.0000 0.36376  0.47870  0.41070  Biso   1.000  H
  H300     1.0000 0.36376  0.47866  0.41070  Biso   1.000  H
  O238     1.0000 0.77437  0.14410  0.52954  Biso   1.000  O
  O239     1.0000 0.77437  0.14407  0.52954  Biso   1.000  O
  O240     1.0000 0.76538  0.25789  0.53382  Biso   1.000  O
  O241     1.0000 0.69392  0.19941  0.50001  Biso   1.000  O
  O242     1.0000 0.69392  0.19937  0.50001  Biso   1.000  O
  O243     1.0000 0.69388  0.19941  0.50001  Biso   1.000  O
  O244     1.0000 0.69388  0.19937  0.50001  Biso   1.000  O
  O245     1.0000 0.82566  0.17729  0.56672  Biso   1.000  O
  O246     1.0000 0.82570  0.17729  0.56672  Biso   1.000  O
  O247     1.0000 0.81896  0.27898  0.58903  Biso   1.000  O
  O248     1.0000 0.81900  0.27898  0.58903  Biso   1.000  O
  C391     1.0000 0.85467  0.36369  0.54479  Biso   1.000  C
  C392     1.0000 0.85467  0.36369  0.45521  Biso   1.000  C
  S42      1.0000 0.91648  0.40739  0.50001  Biso   1.000  S
  S43      1.0000 0.91648  0.40743  0.50001  Biso   1.000  S
  C393     1.0000 0.72768  0.28358  0.45530  Biso   1.000  C
  S44      1.0000 0.78953  0.32633  0.40999  Biso   1.000  S
  S45      1.0000 0.78949  0.32633  0.40999  Biso   1.000  S
  S46      1.0000 0.87274  0.91733  0.73176  Biso   1.000  S
  S47      1.0000 0.87274  0.91737  0.73176  Biso   1.000  S
  S48      1.0000 0.87278  0.91733  0.73176  Biso   1.000  S
  S49      1.0000 0.87278  0.91737  0.73176  Biso   1.000  S
  C394     1.0000 0.87457  0.02430  0.63600  Biso   1.000  C
  C395     1.0000 0.89398  0.02101  0.73010  Biso   1.000  C
  C396     1.0000 0.89398  0.02097  0.73010  Biso   1.000  C
  C397     1.0000 0.63628  0.85467  0.54479  Biso   1.000  C
  S50      1.0000 0.67367  0.78953  0.59001  Biso   1.000  S
  S51      1.0000 0.67367  0.78949  0.59001  Biso   1.000  S
  S52      1.0000 0.67363  0.78953  0.59001  Biso   1.000  S
  S53      1.0000 0.67363  0.78949  0.59001  Biso   1.000  S
  C398     1.0000 0.76197  0.95197  0.55499  Biso   1.000  C
  S54      1.0000 0.59257  0.91648  0.50001  Biso   1.000  S
  C399     1.0000 0.71838  0.67849  0.46750  Biso   1.000  C
  C400     1.0000 0.68301  0.73135  0.43100  Biso   1.000  C
  C401     1.0000 0.68301  0.73139  0.43100  Biso   1.000  C
  C402     1.0000 0.68297  0.73135  0.43100  Biso   1.000  C
  C403     1.0000 0.68297  0.73139  0.43100  Biso   1.000  C
  C404     1.0000 0.58912  0.87626  0.46841  Biso   1.000  C
  C405     1.0000 0.62499  0.82187  0.42921  Biso   1.000  C
  C406     1.0000 0.58912  0.87630  0.46841  Biso   1.000  C
  C407     1.0000 0.58908  0.87626  0.46841  Biso   1.000  C
  C408     1.0000 0.58908  0.87630  0.46841  Biso   1.000  C
  O249     1.0000 0.65450  0.77548  0.38026  Biso   1.000  O
  C409     1.0000 0.68301  0.73135  0.56900  Biso   1.000  C
  C410     1.0000 0.68301  0.73139  0.56900  Biso   1.000  C
  C411     1.0000 0.68297  0.73135  0.56900  Biso   1.000  C
  C412     1.0000 0.68297  0.73139  0.56900  Biso   1.000  C
  C413     1.0000 0.71838  0.67849  0.53250  Biso   1.000  C
  O250     1.0000 0.76247  0.60780  0.50001  Biso   1.000  O
  O251     1.0000 0.10981  0.83117  0.74462  Biso   1.000  O
  C414     1.0000 0.02009  0.87040  0.74439  Biso   1.000  C
  C415     1.0000 0.11012  0.92946  0.74519  Biso   1.000  C
  C416     1.0000 0.11012  0.92950  0.74519  Biso   1.000  C
  O252     1.0000 0.10977  0.83117  0.74462  Biso   1.000  O
  C417     1.0000 0.02013  0.87040  0.74439  Biso   1.000  C
  C418     1.0000 0.12960  0.02009  0.74439  Biso   1.000  C
  C419     1.0000 0.12960  0.02013  0.74439  Biso   1.000  C
  C420     1.0000 0.12956  0.02009  0.74439  Biso   1.000  C
  C421     1.0000 0.12956  0.02013  0.74439  Biso   1.000  C
  C422     1.0000 0.92946  0.88988  0.74519  Biso   1.000  C
  C423     1.0000 0.92950  0.88988  0.74519  Biso   1.000  C
  S55      1.0000 0.91733  0.12722  0.73176  Biso   1.000  S
  S56      1.0000 0.91733  0.12719  0.73176  Biso   1.000  S
  S57      1.0000 0.91737  0.12722  0.73176  Biso   1.000  S
  S58      1.0000 0.91737  0.12719  0.73176  Biso   1.000  S
  C424     1.0000 0.97987  0.12960  0.74439  Biso   1.000  C
  C425     1.0000 0.97987  0.12956  0.74439  Biso   1.000  C
  C426     1.0000 0.07050  0.11012  0.74519  Biso   1.000  C
  C427     1.0000 0.07046  0.11012  0.74519  Biso   1.000  C
  O253     1.0000 0.16879  0.10981  0.74462  Biso   1.000  O
  O254     1.0000 0.16879  0.10977  0.74462  Biso   1.000  O
  H301     1.0000 0.44157  0.41478  0.60499  Biso   1.000  H
  H302     1.0000 0.42531  0.35588  0.60169  Biso   1.000  H
  H303     1.0000 0.39170  0.39400  0.62209  Biso   1.000  H
  H304     1.0000 0.39170  0.39396  0.62209  Biso   1.000  H
  H305     1.0000 0.42527  0.35588  0.60169  Biso   1.000  H
  H306     1.0000 0.39166  0.39400  0.62209  Biso   1.000  H
  H307     1.0000 0.39166  0.39396  0.62209  Biso   1.000  H
  H308     1.0000 0.44789  0.43698  0.55650  Biso   1.000  H
  H309     1.0000 0.39940  0.44039  0.53430  Biso   1.000  H
  H310     1.0000 0.42898  0.38719  0.53851  Biso   1.000  H
  H311     1.0000 0.42898  0.38722  0.53851  Biso   1.000  H
  H312     1.0000 0.39936  0.44039  0.53430  Biso   1.000  H
  H313     1.0000 0.31768  0.43989  0.59591  Biso   1.000  H
  H314     1.0000 0.32878  0.45868  0.56180  Biso   1.000  H
  H315     1.0000 0.36380  0.47870  0.58930  Biso   1.000  H
  H316     1.0000 0.36380  0.47866  0.58930  Biso   1.000  H
  H317     1.0000 0.36376  0.47870  0.58930  Biso   1.000  H
  H318     1.0000 0.36376  0.47866  0.58930  Biso   1.000  H
  C428     1.0000 0.80051  0.14008  0.55470  Biso   1.000  C
  C429     1.0000 0.80047  0.14008  0.55470  Biso   1.000  C
  C430     1.0000 0.72768  0.28358  0.54470  Biso   1.000  C
  S59      1.0000 0.66131  0.24519  0.50001  Biso   1.000  S
  S60      1.0000 0.66131  0.24515  0.50001  Biso   1.000  S
  S61      1.0000 0.78953  0.32633  0.59001  Biso   1.000  S
  S62      1.0000 0.78949  0.32633  0.59001  Biso   1.000  S
  C431     1.0000 0.87626  0.41088  0.53159  Biso   1.000  C
  C432     1.0000 0.82187  0.37498  0.57079  Biso   1.000  C
  C433     1.0000 0.87630  0.41088  0.53159  Biso   1.000  C
  C434     1.0000 0.87626  0.41088  0.46841  Biso   1.000  C
  C435     1.0000 0.82187  0.37498  0.42921  Biso   1.000  C
  C436     1.0000 0.87630  0.41088  0.46841  Biso   1.000  C
  O255     1.0000 0.94737  0.45218  0.50001  Biso   1.000  O
  O256     1.0000 0.94737  0.45221  0.50001  Biso   1.000  O
  C437     1.0000 0.67849  0.28159  0.46750  Biso   1.000  C
  C438     1.0000 0.73135  0.31699  0.43100  Biso   1.000  C
  C439     1.0000 0.73139  0.31699  0.43100  Biso   1.000  C
  O257     1.0000 0.77548  0.34550  0.38026  Biso   1.000  O
  O258     1.0000 0.77548  0.34547  0.38026  Biso   1.000  O
  O259     1.0000 0.83117  0.89015  0.74462  Biso   1.000  O
  C440     1.0000 0.87040  0.97987  0.74439  Biso   1.000  C
  O260     1.0000 0.83117  0.89019  0.74462  Biso   1.000  O
  C441     1.0000 0.83906  0.03472  0.60804  Biso   1.000  C
  C442     1.0000 0.83909  0.03472  0.60804  Biso   1.000  C
  C443     1.0000 0.88988  0.07050  0.74519  Biso   1.000  C
  C444     1.0000 0.88988  0.07046  0.74519  Biso   1.000  C
  C445     1.0000 0.58912  0.87626  0.53159  Biso   1.000  C
  C446     1.0000 0.62499  0.82187  0.57079  Biso   1.000  C
  C447     1.0000 0.58912  0.87630  0.53159  Biso   1.000  C
  C448     1.0000 0.58908  0.87626  0.53159  Biso   1.000  C
  C449     1.0000 0.58908  0.87630  0.53159  Biso   1.000  C
  O261     1.0000 0.65450  0.77548  0.61974  Biso   1.000  O
  C450     1.0000 0.78528  0.99847  0.56911  Biso   1.000  C
  O262     1.0000 0.54782  0.94737  0.50001  Biso   1.000  O
  O263     1.0000 0.54779  0.94737  0.50001  Biso   1.000  O
  C451     1.0000 0.68806  0.63727  0.45571  Biso   1.000  C
  C452     1.0000 0.68810  0.63727  0.45571  Biso   1.000  C
  C453     1.0000 0.65377  0.69116  0.41889  Biso   1.000  C
  C454     1.0000 0.65377  0.69120  0.41889  Biso   1.000  C
  C455     1.0000 0.65381  0.69116  0.41889  Biso   1.000  C
  C456     1.0000 0.65381  0.69120  0.41889  Biso   1.000  C
  C457     1.0000 0.54185  0.87056  0.45550  Biso   1.000  C
  C458     1.0000 0.54185  0.87059  0.45550  Biso   1.000  C
  C459     1.0000 0.54189  0.87056  0.45550  Biso   1.000  C
  C460     1.0000 0.54189  0.87059  0.45550  Biso   1.000  C
  C461     1.0000 0.57749  0.81866  0.41730  Biso   1.000  C
  C462     1.0000 0.57749  0.81869  0.41730  Biso   1.000  C
  C463     1.0000 0.65377  0.69116  0.58111  Biso   1.000  C
  C464     1.0000 0.65377  0.69120  0.58111  Biso   1.000  C
  C465     1.0000 0.65381  0.69116  0.58111  Biso   1.000  C
  C466     1.0000 0.65381  0.69120  0.58111  Biso   1.000  C
  C467     1.0000 0.68806  0.63727  0.54429  Biso   1.000  C
  C468     1.0000 0.68810  0.63727  0.54429  Biso   1.000  C
  C469     1.0000 0.01160  0.83856  0.77069  Biso   1.000  C
  C470     1.0000 0.01160  0.83860  0.77069  Biso   1.000  C
  C471     1.0000 0.14341  0.92314  0.76989  Biso   1.000  C
  C472     1.0000 0.14341  0.92318  0.76989  Biso   1.000  C
  C473     1.0000 0.14338  0.92314  0.76989  Biso   1.000  C
  C474     1.0000 0.14338  0.92318  0.76989  Biso   1.000  C
  C475     1.0000 0.16140  0.01160  0.77069  Biso   1.000  C
  C476     1.0000 0.16137  0.01160  0.77069  Biso   1.000  C
  C477     1.0000 0.92314  0.85659  0.76989  Biso   1.000  C
  C478     1.0000 0.92318  0.85659  0.76989  Biso   1.000  C
  O264     1.0000 0.89015  0.16879  0.74462  Biso   1.000  O
  O265     1.0000 0.89019  0.16879  0.74462  Biso   1.000  O
  C479     1.0000 0.98836  0.16140  0.77069  Biso   1.000  C
  C480     1.0000 0.98836  0.16137  0.77069  Biso   1.000  C
  C481     1.0000 0.07682  0.14341  0.76989  Biso   1.000  C
  C482     1.0000 0.07682  0.14338  0.76989  Biso   1.000  C
  C483     1.0000 0.80438  0.08868  0.56870  Biso   1.000  C
  C484     1.0000 0.73135  0.31699  0.56900  Biso   1.000  C
  C485     1.0000 0.73139  0.31699  0.56900  Biso   1.000  C
  C486     1.0000 0.67849  0.28159  0.53250  Biso   1.000  C
  O266     1.0000 0.60780  0.23749  0.50001  Biso   1.000  O
  O267     1.0000 0.77548  0.34550  0.61974  Biso   1.000  O
  O268     1.0000 0.77548  0.34547  0.61974  Biso   1.000  O
  C487     1.0000 0.87056  0.45811  0.54450  Biso   1.000  C
  C488     1.0000 0.87056  0.45807  0.54450  Biso   1.000  C
  C489     1.0000 0.87059  0.45811  0.54450  Biso   1.000  C
  C490     1.0000 0.87059  0.45807  0.54450  Biso   1.000  C
  C491     1.0000 0.81866  0.42247  0.58270  Biso   1.000  C
  C492     1.0000 0.81869  0.42247  0.58270  Biso   1.000  C
  C493     1.0000 0.87056  0.45811  0.45550  Biso   1.000  C
  C494     1.0000 0.87056  0.45807  0.45550  Biso   1.000  C
  C495     1.0000 0.87059  0.45811  0.45550  Biso   1.000  C
  C496     1.0000 0.87059  0.45807  0.45550  Biso   1.000  C
  C497     1.0000 0.81866  0.42247  0.41730  Biso   1.000  C
  C498     1.0000 0.81869  0.42247  0.41730  Biso   1.000  C
  C499     1.0000 0.63727  0.31190  0.45571  Biso   1.000  C
  C500     1.0000 0.63727  0.31186  0.45571  Biso   1.000  C
  C501     1.0000 0.69116  0.34619  0.41889  Biso   1.000  C
  C502     1.0000 0.69116  0.34616  0.41889  Biso   1.000  C
  C503     1.0000 0.69120  0.34619  0.41889  Biso   1.000  C
  C504     1.0000 0.69120  0.34616  0.41889  Biso   1.000  C
  C505     1.0000 0.83856  0.98836  0.77069  Biso   1.000  C
  C506     1.0000 0.83860  0.98836  0.77069  Biso   1.000  C
  C507     1.0000 0.81475  0.99257  0.59520  Biso   1.000  C
  C508     1.0000 0.81475  0.99261  0.59520  Biso   1.000  C
  C509     1.0000 0.81479  0.99257  0.59520  Biso   1.000  C
  C510     1.0000 0.81479  0.99261  0.59520  Biso   1.000  C
  C511     1.0000 0.83385  0.08279  0.59479  Biso   1.000  C
  C512     1.0000 0.83389  0.08279  0.59479  Biso   1.000  C
  C513     1.0000 0.85659  0.07682  0.76989  Biso   1.000  C
  C514     1.0000 0.54185  0.87056  0.54450  Biso   1.000  C
  C515     1.0000 0.54185  0.87059  0.54450  Biso   1.000  C
  C516     1.0000 0.54189  0.87056  0.54450  Biso   1.000  C
  C517     1.0000 0.54189  0.87059  0.54450  Biso   1.000  C
  C518     1.0000 0.57749  0.81866  0.58270  Biso   1.000  C
  C519     1.0000 0.57749  0.81869  0.58270  Biso   1.000  C
  C520     1.0000 0.78007  0.04658  0.55586  Biso   1.000  C
  C521     1.0000 0.78007  0.04662  0.55586  Biso   1.000  C
  C522     1.0000 0.65495  0.64186  0.43330  Biso   1.000  C
  H319     1.0000 0.69227  0.60436  0.46461  Biso   1.000  H
  C523     1.0000 0.65495  0.64190  0.43330  Biso   1.000  C
  H320     1.0000 0.69227  0.60439  0.46461  Biso   1.000  H
  C524     1.0000 0.65499  0.64186  0.43330  Biso   1.000  C
  C525     1.0000 0.65499  0.64190  0.43330  Biso   1.000  C
  H321     1.0000 0.63341  0.69648  0.40120  Biso   1.000  H
  H322     1.0000 0.51361  0.88766  0.46449  Biso   1.000  H
  C526     1.0000 0.53370  0.84101  0.42989  Biso   1.000  C
  C527     1.0000 0.53370  0.84097  0.42989  Biso   1.000  C
  H323     1.0000 0.57358  0.79986  0.39899  Biso   1.000  H
  H324     1.0000 0.57358  0.79990  0.39899  Biso   1.000  H
  H325     1.0000 0.63341  0.69648  0.59880  Biso   1.000  H
  C528     1.0000 0.65495  0.64186  0.56670  Biso   1.000  C
  C529     1.0000 0.65495  0.64190  0.56670  Biso   1.000  C
  C530     1.0000 0.65499  0.64186  0.56670  Biso   1.000  C
  C531     1.0000 0.65499  0.64190  0.56670  Biso   1.000  C
  H326     1.0000 0.69227  0.60436  0.53539  Biso   1.000  H
  H327     1.0000 0.69227  0.60439  0.53539  Biso   1.000  H
  H328     1.0000 0.03969  0.82225  0.78030  Biso   1.000  H
  H329     1.0000 0.03969  0.82229  0.78030  Biso   1.000  H
  H330     1.0000 0.03973  0.82225  0.78030  Biso   1.000  H
  H331     1.0000 0.03973  0.82229  0.78030  Biso   1.000  H
  C532     1.0000 0.96337  0.83197  0.78180  Biso   1.000  C
  H332     1.0000 0.14851  0.89015  0.77841  Biso   1.000  H
  C533     1.0000 0.16799  0.96337  0.78180  Biso   1.000  C
  H333     1.0000 0.14851  0.89019  0.77841  Biso   1.000  H
  H334     1.0000 0.17771  0.03969  0.78030  Biso   1.000  H
  H335     1.0000 0.17771  0.03973  0.78030  Biso   1.000  H
  H336     1.0000 0.17767  0.03969  0.78030  Biso   1.000  H
  H337     1.0000 0.17767  0.03973  0.78030  Biso   1.000  H
  H338     1.0000 0.89015  0.85146  0.77841  Biso   1.000  H
  H339     1.0000 0.89015  0.85149  0.77841  Biso   1.000  H
  H340     1.0000 0.89019  0.85146  0.77841  Biso   1.000  H
  H341     1.0000 0.89019  0.85149  0.77841  Biso   1.000  H
  H342     1.0000 0.96031  0.17771  0.78030  Biso   1.000  H
  H343     1.0000 0.96031  0.17767  0.78030  Biso   1.000  H
  H344     1.0000 0.96027  0.17771  0.78030  Biso   1.000  H
  H345     1.0000 0.96027  0.17767  0.78030  Biso   1.000  H
  C534     1.0000 0.03659  0.16799  0.78180  Biso   1.000  C
  C535     1.0000 0.03663  0.16799  0.78180  Biso   1.000  C
  H346     1.0000 0.10981  0.14851  0.77841  Biso   1.000  H
  H347     1.0000 0.10977  0.14851  0.77841  Biso   1.000  H
  C536     1.0000 0.69116  0.34619  0.58111  Biso   1.000  C
  C537     1.0000 0.69116  0.34616  0.58111  Biso   1.000  C
  C538     1.0000 0.69120  0.34619  0.58111  Biso   1.000  C
  C539     1.0000 0.69120  0.34616  0.58111  Biso   1.000  C
  C540     1.0000 0.63727  0.31190  0.54429  Biso   1.000  C
  C541     1.0000 0.63727  0.31186  0.54429  Biso   1.000  C
  H348     1.0000 0.88766  0.48639  0.53551  Biso   1.000  H
  C542     1.0000 0.84101  0.46630  0.57011  Biso   1.000  C
  H349     1.0000 0.88766  0.48636  0.53551  Biso   1.000  H
  C543     1.0000 0.84101  0.46626  0.57011  Biso   1.000  C
  C544     1.0000 0.84097  0.46630  0.57011  Biso   1.000  C
  C545     1.0000 0.84097  0.46626  0.57011  Biso   1.000  C
  H350     1.0000 0.79986  0.42638  0.60101  Biso   1.000  H
  H351     1.0000 0.79990  0.42638  0.60101  Biso   1.000  H
  H352     1.0000 0.88766  0.48639  0.46449  Biso   1.000  H
  C546     1.0000 0.84101  0.46630  0.42989  Biso   1.000  C
  H353     1.0000 0.88766  0.48636  0.46449  Biso   1.000  H
  C547     1.0000 0.84101  0.46626  0.42989  Biso   1.000  C
  C548     1.0000 0.84097  0.46630  0.42989  Biso   1.000  C
  C549     1.0000 0.84097  0.46626  0.42989  Biso   1.000  C
  H354     1.0000 0.79986  0.42638  0.39899  Biso   1.000  H
  H355     1.0000 0.79990  0.42638  0.39899  Biso   1.000  H
  C550     1.0000 0.64186  0.34501  0.43330  Biso   1.000  C
  H356     1.0000 0.60436  0.30769  0.46461  Biso   1.000  H
  C551     1.0000 0.64186  0.34497  0.43330  Biso   1.000  C
  C552     1.0000 0.64190  0.34501  0.43330  Biso   1.000  C
  H357     1.0000 0.60439  0.30769  0.46461  Biso   1.000  H
  C553     1.0000 0.64190  0.34497  0.43330  Biso   1.000  C
  H358     1.0000 0.69648  0.36659  0.40120  Biso   1.000  H
  H359     1.0000 0.69648  0.36656  0.40120  Biso   1.000  H
  H360     1.0000 0.82225  0.96031  0.78030  Biso   1.000  H
  H361     1.0000 0.82225  0.96027  0.78030  Biso   1.000  H
  H362     1.0000 0.82229  0.96031  0.78030  Biso   1.000  H
  H363     1.0000 0.82229  0.96027  0.78030  Biso   1.000  H
  C554     1.0000 0.83197  0.03659  0.78180  Biso   1.000  C
  C555     1.0000 0.83197  0.03663  0.78180  Biso   1.000  C
  H364     1.0000 0.81835  0.95977  0.60431  Biso   1.000  H
  H365     1.0000 0.81839  0.95977  0.60431  Biso   1.000  H
  H366     1.0000 0.85046  0.11161  0.60360  Biso   1.000  H
  H367     1.0000 0.85050  0.11161  0.60360  Biso   1.000  H
  H368     1.0000 0.85146  0.10981  0.77841  Biso   1.000  H
  H369     1.0000 0.85146  0.10977  0.77841  Biso   1.000  H
  H370     1.0000 0.85149  0.10981  0.77841  Biso   1.000  H
  H371     1.0000 0.85149  0.10977  0.77841  Biso   1.000  H
  H372     1.0000 0.51361  0.88766  0.53551  Biso   1.000  H
  C556     1.0000 0.53370  0.84101  0.57011  Biso   1.000  C
  C557     1.0000 0.53370  0.84097  0.57011  Biso   1.000  C
  H373     1.0000 0.57358  0.79986  0.60101  Biso   1.000  H
  H374     1.0000 0.57358  0.79990  0.60101  Biso   1.000  H
  H375     1.0000 0.75990  0.05060  0.53801  Biso   1.000  H
  C558     1.0000 0.61909  0.59601  0.42340  Biso   1.000  C
  C559     1.0000 0.61909  0.59597  0.42340  Biso   1.000  C
  C560     1.0000 0.48015  0.83745  0.41441  Biso   1.000  C
  C561     1.0000 0.48015  0.83749  0.41441  Biso   1.000  C
  C562     1.0000 0.48019  0.83745  0.41441  Biso   1.000  C
  C563     1.0000 0.48019  0.83749  0.41441  Biso   1.000  C
  C564     1.0000 0.61909  0.59601  0.57660  Biso   1.000  C
  C565     1.0000 0.61909  0.59597  0.57660  Biso   1.000  C
  C566     1.0000 0.95388  0.80216  0.81399  Biso   1.000  C
  C567     1.0000 0.95388  0.80220  0.81399  Biso   1.000  C
  C568     1.0000 0.19780  0.95388  0.81399  Biso   1.000  C
  C569     1.0000 0.19776  0.95388  0.81399  Biso   1.000  C
  C570     1.0000 0.04608  0.19780  0.81399  Biso   1.000  C
  C571     1.0000 0.04608  0.19776  0.81399  Biso   1.000  C
  H376     1.0000 0.69648  0.36659  0.59880  Biso   1.000  H
  C572     1.0000 0.64186  0.34501  0.56670  Biso   1.000  C
  H377     1.0000 0.69648  0.36656  0.59880  Biso   1.000  H
  C573     1.0000 0.64186  0.34497  0.56670  Biso   1.000  C
  C574     1.0000 0.64190  0.34501  0.56670  Biso   1.000  C
  C575     1.0000 0.64190  0.34497  0.56670  Biso   1.000  C
  H378     1.0000 0.60436  0.30769  0.53539  Biso   1.000  H
  H379     1.0000 0.60439  0.30769  0.53539  Biso   1.000  H
  C576     1.0000 0.83745  0.51981  0.58559  Biso   1.000  C
  C577     1.0000 0.83745  0.51977  0.58559  Biso   1.000  C
  C578     1.0000 0.83749  0.51981  0.58559  Biso   1.000  C
  C579     1.0000 0.83749  0.51977  0.58559  Biso   1.000  C
  C580     1.0000 0.83745  0.51981  0.41441  Biso   1.000  C
  C581     1.0000 0.83745  0.51977  0.41441  Biso   1.000  C
  C582     1.0000 0.83749  0.51981  0.41441  Biso   1.000  C
  C583     1.0000 0.83749  0.51977  0.41441  Biso   1.000  C
  C584     1.0000 0.59601  0.38091  0.42340  Biso   1.000  C
  C585     1.0000 0.59597  0.38091  0.42340  Biso   1.000  C
  C586     1.0000 0.80216  0.04608  0.81399  Biso   1.000  C
  C587     1.0000 0.80220  0.04608  0.81399  Biso   1.000  C
  C588     1.0000 0.48015  0.83745  0.58559  Biso   1.000  C
  C589     1.0000 0.48015  0.83749  0.58559  Biso   1.000  C
  C590     1.0000 0.48019  0.83745  0.58559  Biso   1.000  C
  C591     1.0000 0.48019  0.83749  0.58559  Biso   1.000  C
  C592     1.0000 0.58740  0.60891  0.39631  Biso   1.000  C
  C593     1.0000 0.58212  0.58139  0.45120  Biso   1.000  C
  C594     1.0000 0.65545  0.55050  0.41871  Biso   1.000  C
  C595     1.0000 0.58740  0.60887  0.39631  Biso   1.000  C
  C596     1.0000 0.58208  0.58139  0.45120  Biso   1.000  C
  C597     1.0000 0.65549  0.55050  0.41871  Biso   1.000  C
  C598     1.0000 0.44157  0.82176  0.43911  Biso   1.000  C
  C599     1.0000 0.46978  0.89295  0.40300  Biso   1.000  C
  C600     1.0000 0.48398  0.79868  0.38841  Biso   1.000  C
  C601     1.0000 0.44157  0.82179  0.43911  Biso   1.000  C
  C602     1.0000 0.46978  0.89298  0.40300  Biso   1.000  C
  C603     1.0000 0.58740  0.60891  0.60369  Biso   1.000  C
  C604     1.0000 0.58212  0.58139  0.54880  Biso   1.000  C
  C605     1.0000 0.65545  0.55050  0.58129  Biso   1.000  C
  C606     1.0000 0.58740  0.60887  0.60369  Biso   1.000  C
  C607     1.0000 0.58208  0.58139  0.54880  Biso   1.000  C
  C608     1.0000 0.65549  0.55050  0.58129  Biso   1.000  C
  C609     1.0000 0.89987  0.80197  0.82440  Biso   1.000  C
  C610     1.0000 0.98607  0.83086  0.83731  Biso   1.000  C
  C611     1.0000 0.97696  0.75167  0.80580  Biso   1.000  C
  C612     1.0000 0.98607  0.83090  0.83731  Biso   1.000  C
  C613     1.0000 0.97700  0.75167  0.80580  Biso   1.000  C
  C614     1.0000 0.19799  0.89987  0.82440  Biso   1.000  C
  C615     1.0000 0.16910  0.98607  0.83731  Biso   1.000  C
  C616     1.0000 0.24829  0.97696  0.80580  Biso   1.000  C
  C617     1.0000 0.24829  0.97700  0.80580  Biso   1.000  C
  C618     1.0000 0.19803  0.89987  0.82440  Biso   1.000  C
  C619     1.0000 0.10009  0.19799  0.82440  Biso   1.000  C
  C620     1.0000 0.01389  0.16910  0.83731  Biso   1.000  C
  C621     1.0000 0.02300  0.24829  0.80580  Biso   1.000  C
  C622     1.0000 0.10009  0.19803  0.82440  Biso   1.000  C
  C623     1.0000 0.10013  0.19799  0.82440  Biso   1.000  C
  C624     1.0000 0.02296  0.24829  0.80580  Biso   1.000  C
  C625     1.0000 0.10013  0.19803  0.82440  Biso   1.000  C
  C626     1.0000 0.59601  0.38091  0.57660  Biso   1.000  C
  C627     1.0000 0.59597  0.38091  0.57660  Biso   1.000  C
  C628     1.0000 0.82176  0.55839  0.56089  Biso   1.000  C
  C629     1.0000 0.89295  0.53018  0.59700  Biso   1.000  C
  C630     1.0000 0.79868  0.51598  0.61159  Biso   1.000  C
  C631     1.0000 0.82179  0.55839  0.56089  Biso   1.000  C
  C632     1.0000 0.89298  0.53018  0.59700  Biso   1.000  C
  C633     1.0000 0.82176  0.55839  0.43911  Biso   1.000  C
  C634     1.0000 0.89295  0.53018  0.40300  Biso   1.000  C
  C635     1.0000 0.79868  0.51598  0.38841  Biso   1.000  C
  C636     1.0000 0.82179  0.55839  0.43911  Biso   1.000  C
  C637     1.0000 0.89298  0.53018  0.40300  Biso   1.000  C
  C638     1.0000 0.60891  0.41260  0.39631  Biso   1.000  C
  C639     1.0000 0.58139  0.41788  0.45120  Biso   1.000  C
  C640     1.0000 0.55050  0.34451  0.41871  Biso   1.000  C
  C641     1.0000 0.60891  0.41256  0.39631  Biso   1.000  C
  C642     1.0000 0.60887  0.41260  0.39631  Biso   1.000  C
  C643     1.0000 0.60887  0.41256  0.39631  Biso   1.000  C
  C644     1.0000 0.80197  0.10009  0.82440  Biso   1.000  C
  C645     1.0000 0.83086  0.01389  0.83731  Biso   1.000  C
  C646     1.0000 0.75167  0.02300  0.80580  Biso   1.000  C
  C647     1.0000 0.80197  0.10013  0.82440  Biso   1.000  C
  C648     1.0000 0.75167  0.02296  0.80580  Biso   1.000  C
  C649     1.0000 0.83090  0.01389  0.83731  Biso   1.000  C
  C650     1.0000 0.44157  0.82176  0.56089  Biso   1.000  C
  C651     1.0000 0.46978  0.89295  0.59700  Biso   1.000  C
  C652     1.0000 0.48398  0.79868  0.61159  Biso   1.000  C
  C653     1.0000 0.44157  0.82179  0.56089  Biso   1.000  C
  C654     1.0000 0.46978  0.89298  0.59700  Biso   1.000  C
  H380     1.0000 0.55843  0.58522  0.39501  Biso   1.000  H
  H381     1.0000 0.57465  0.64408  0.39831  Biso   1.000  H
  H382     1.0000 0.60830  0.60600  0.37791  Biso   1.000  H
  H383     1.0000 0.55843  0.58518  0.39501  Biso   1.000  H
  H384     1.0000 0.55839  0.58522  0.39501  Biso   1.000  H
  H385     1.0000 0.57469  0.64408  0.39831  Biso   1.000  H
  H386     1.0000 0.55839  0.58518  0.39501  Biso   1.000  H
  H387     1.0000 0.55211  0.56302  0.44350  Biso   1.000  H
  H388     1.0000 0.60060  0.55957  0.46570  Biso   1.000  H
  H389     1.0000 0.57102  0.61281  0.46149  Biso   1.000  H
  H390     1.0000 0.55211  0.56298  0.44350  Biso   1.000  H
  H391     1.0000 0.57102  0.61278  0.46149  Biso   1.000  H
  H392     1.0000 0.55207  0.56302  0.44350  Biso   1.000  H
  H393     1.0000 0.57098  0.61281  0.46149  Biso   1.000  H
  H394     1.0000 0.55207  0.56298  0.44350  Biso   1.000  H
  H395     1.0000 0.57098  0.61278  0.46149  Biso   1.000  H
  H396     1.0000 0.68228  0.56007  0.40409  Biso   1.000  H
  H397     1.0000 0.67122  0.54132  0.43820  Biso   1.000  H
  H398     1.0000 0.63620  0.52130  0.41070  Biso   1.000  H
  H399     1.0000 0.67122  0.54128  0.43820  Biso   1.000  H
  H400     1.0000 0.67118  0.54132  0.43820  Biso   1.000  H
  H401     1.0000 0.67118  0.54128  0.43820  Biso   1.000  H
  H402     1.0000 0.40896  0.81238  0.42950  Biso   1.000  H
  H403     1.0000 0.45497  0.79240  0.45049  Biso   1.000  H
  H404     1.0000 0.43606  0.85046  0.45311  Biso   1.000  H
  H405     1.0000 0.43606  0.85050  0.45311  Biso   1.000  H
  H406     1.0000 0.40900  0.81238  0.42950  Biso   1.000  H
  H407     1.0000 0.45501  0.79240  0.45049  Biso   1.000  H
  H408     1.0000 0.43610  0.85046  0.45311  Biso   1.000  H
  H409     1.0000 0.43610  0.85050  0.45311  Biso   1.000  H
  H410     1.0000 0.47908  0.91748  0.41889  Biso   1.000  H
  H411     1.0000 0.49026  0.89957  0.38470  Biso   1.000  H
  H412     1.0000 0.43338  0.89666  0.39799  Biso   1.000  H
  H413     1.0000 0.43338  0.89670  0.39799  Biso   1.000  H
  H414     1.0000 0.49030  0.89957  0.38470  Biso   1.000  H
  H415     1.0000 0.49328  0.81636  0.36960  Biso   1.000  H
  H416     1.0000 0.51028  0.77318  0.39330  Biso   1.000  H
  H417     1.0000 0.45099  0.78145  0.38579  Biso   1.000  H
  H418     1.0000 0.49328  0.81640  0.36960  Biso   1.000  H
  H419     1.0000 0.45099  0.78149  0.38579  Biso   1.000  H
  H420     1.0000 0.55843  0.58522  0.60499  Biso   1.000  H
  H421     1.0000 0.57465  0.64408  0.60169  Biso   1.000  H
  H422     1.0000 0.60830  0.60600  0.62209  Biso   1.000  H
  H423     1.0000 0.55843  0.58518  0.60499  Biso   1.000  H
  H424     1.0000 0.55839  0.58522  0.60499  Biso   1.000  H
  H425     1.0000 0.57469  0.64408  0.60169  Biso   1.000  H
  H426     1.0000 0.55839  0.58518  0.60499  Biso   1.000  H
  H427     1.0000 0.55211  0.56302  0.55650  Biso   1.000  H
  H428     1.0000 0.60060  0.55957  0.53430  Biso   1.000  H
  H429     1.0000 0.57102  0.61281  0.53851  Biso   1.000  H
  H430     1.0000 0.55211  0.56298  0.55650  Biso   1.000  H
  H431     1.0000 0.57102  0.61278  0.53851  Biso   1.000  H
  H432     1.0000 0.55207  0.56302  0.55650  Biso   1.000  H
  H433     1.0000 0.57098  0.61281  0.53851  Biso   1.000  H
  H434     1.0000 0.55207  0.56298  0.55650  Biso   1.000  H
  H435     1.0000 0.57098  0.61278  0.53851  Biso   1.000  H
  H436     1.0000 0.68228  0.56007  0.59591  Biso   1.000  H
  H437     1.0000 0.67122  0.54132  0.56180  Biso   1.000  H
  H438     1.0000 0.63620  0.52130  0.58930  Biso   1.000  H
  H439     1.0000 0.67122  0.54128  0.56180  Biso   1.000  H
  H440     1.0000 0.67118  0.54132  0.56180  Biso   1.000  H
  H441     1.0000 0.67118  0.54128  0.56180  Biso   1.000  H
  H442     1.0000 0.89796  0.78830  0.84509  Biso   1.000  H
  H443     1.0000 0.87940  0.78038  0.81069  Biso   1.000  H
  H444     1.0000 0.88636  0.83695  0.82410  Biso   1.000  H
  H445     1.0000 0.88636  0.83699  0.82410  Biso   1.000  H
  H446     1.0000 0.89800  0.78830  0.84509  Biso   1.000  H
  H447     1.0000 0.88640  0.83695  0.82410  Biso   1.000  H
  H448     1.0000 0.88640  0.83699  0.82410  Biso   1.000  H
  H449     1.0000 0.02231  0.82256  0.83430  Biso   1.000  H
  H450     1.0000 0.02231  0.82260  0.83430  Biso   1.000  H
  H451     1.0000 0.02228  0.82256  0.83430  Biso   1.000  H
  H452     1.0000 0.02228  0.82260  0.83430  Biso   1.000  H
  H453     1.0000 0.98098  0.86776  0.83480  Biso   1.000  H
  H454     1.0000 0.97558  0.82076  0.85791  Biso   1.000  H
  H455     1.0000 0.98098  0.86780  0.83480  Biso   1.000  H
  H456     1.0000 0.97558  0.82080  0.85791  Biso   1.000  H
  H457     1.0000 0.00819  0.74628  0.81779  Biso   1.000  H
  H458     1.0000 0.00823  0.74628  0.81779  Biso   1.000  H
  H459     1.0000 0.98546  0.75137  0.78410  Biso   1.000  H
  H460     1.0000 0.95250  0.72427  0.81019  Biso   1.000  H
  H461     1.0000 0.98549  0.75137  0.78410  Biso   1.000  H
  H462     1.0000 0.95246  0.72427  0.81019  Biso   1.000  H
  H463     1.0000 0.21170  0.89796  0.84509  Biso   1.000  H
  H464     1.0000 0.21958  0.87940  0.81069  Biso   1.000  H
  H465     1.0000 0.16301  0.88636  0.82410  Biso   1.000  H
  H466     1.0000 0.21170  0.89800  0.84509  Biso   1.000  H
  H467     1.0000 0.16301  0.88640  0.82410  Biso   1.000  H
  H468     1.0000 0.21166  0.89796  0.84509  Biso   1.000  H
  H469     1.0000 0.21166  0.89800  0.84509  Biso   1.000  H
  H470     1.0000 0.13220  0.98098  0.83480  Biso   1.000  H
  H471     1.0000 0.17920  0.97558  0.85791  Biso   1.000  H
  H472     1.0000 0.13216  0.98098  0.83480  Biso   1.000  H
  H473     1.0000 0.17916  0.97558  0.85791  Biso   1.000  H
  H474     1.0000 0.17740  0.02231  0.83430  Biso   1.000  H
  H475     1.0000 0.17740  0.02228  0.83430  Biso   1.000  H
  H476     1.0000 0.17736  0.02231  0.83430  Biso   1.000  H
  H477     1.0000 0.17736  0.02228  0.83430  Biso   1.000  H
  H478     1.0000 0.24859  0.98546  0.78410  Biso   1.000  H
  H479     1.0000 0.27569  0.95250  0.81019  Biso   1.000  H
  H480     1.0000 0.24859  0.98549  0.78410  Biso   1.000  H
  H481     1.0000 0.27569  0.95246  0.81019  Biso   1.000  H
  H482     1.0000 0.25368  0.00819  0.81779  Biso   1.000  H
  H483     1.0000 0.25368  0.00823  0.81779  Biso   1.000  H
  H484     1.0000 0.10200  0.21170  0.84509  Biso   1.000  H
  H485     1.0000 0.12060  0.21958  0.81069  Biso   1.000  H
  H486     1.0000 0.11360  0.16301  0.82410  Biso   1.000  H
  H487     1.0000 0.10200  0.21166  0.84509  Biso   1.000  H
  H488     1.0000 0.12056  0.21958  0.81069  Biso   1.000  H
  H489     1.0000 0.11356  0.16301  0.82410  Biso   1.000  H
  H490     1.0000 0.97765  0.17740  0.83430  Biso   1.000  H
  H491     1.0000 0.97765  0.17736  0.83430  Biso   1.000  H
  H492     1.0000 0.97769  0.17740  0.83430  Biso   1.000  H
  H493     1.0000 0.97769  0.17736  0.83430  Biso   1.000  H
  H494     1.0000 0.01898  0.13220  0.83480  Biso   1.000  H
  H495     1.0000 0.02438  0.17920  0.85791  Biso   1.000  H
  H496     1.0000 0.01898  0.13216  0.83480  Biso   1.000  H
  H497     1.0000 0.02438  0.17916  0.85791  Biso   1.000  H
  H498     1.0000 0.01902  0.13220  0.83480  Biso   1.000  H
  H499     1.0000 0.01902  0.13216  0.83480  Biso   1.000  H
  H500     1.0000 0.99177  0.25368  0.81779  Biso   1.000  H
  H501     1.0000 0.01451  0.24859  0.78410  Biso   1.000  H
  H502     1.0000 0.04750  0.27569  0.81019  Biso   1.000  H
  H503     1.0000 0.01447  0.24859  0.78410  Biso   1.000  H
  C655     1.0000 0.60891  0.41260  0.60369  Biso   1.000  C
  C656     1.0000 0.58139  0.41788  0.54880  Biso   1.000  C
  C657     1.0000 0.55050  0.34451  0.58129  Biso   1.000  C
  C658     1.0000 0.60891  0.41256  0.60369  Biso   1.000  C
  C659     1.0000 0.60887  0.41260  0.60369  Biso   1.000  C
  C660     1.0000 0.60887  0.41256  0.60369  Biso   1.000  C
  H504     1.0000 0.81238  0.59100  0.57050  Biso   1.000  H
  H505     1.0000 0.79240  0.54499  0.54951  Biso   1.000  H
  H506     1.0000 0.85046  0.56390  0.54689  Biso   1.000  H
  H507     1.0000 0.81238  0.59096  0.57050  Biso   1.000  H
  H508     1.0000 0.85050  0.56390  0.54689  Biso   1.000  H
  H509     1.0000 0.91748  0.52088  0.58111  Biso   1.000  H
  H510     1.0000 0.89957  0.50970  0.61530  Biso   1.000  H
  H511     1.0000 0.89666  0.56658  0.60201  Biso   1.000  H
  H512     1.0000 0.89957  0.50966  0.61530  Biso   1.000  H
  H513     1.0000 0.89670  0.56658  0.60201  Biso   1.000  H
  H514     1.0000 0.81636  0.50668  0.63040  Biso   1.000  H
  H515     1.0000 0.77318  0.48969  0.60670  Biso   1.000  H
  H516     1.0000 0.78145  0.54897  0.61421  Biso   1.000  H
  H517     1.0000 0.81640  0.50668  0.63040  Biso   1.000  H
  H518     1.0000 0.78149  0.54897  0.61421  Biso   1.000  H
  H519     1.0000 0.81238  0.59100  0.42950  Biso   1.000  H
  H520     1.0000 0.79240  0.54499  0.45049  Biso   1.000  H
  H521     1.0000 0.85046  0.56390  0.45311  Biso   1.000  H
  H522     1.0000 0.81238  0.59096  0.42950  Biso   1.000  H
  H523     1.0000 0.85050  0.56390  0.45311  Biso   1.000  H
  H524     1.0000 0.91748  0.52088  0.41889  Biso   1.000  H
  H525     1.0000 0.89957  0.50970  0.38470  Biso   1.000  H
  H526     1.0000 0.89666  0.56658  0.39799  Biso   1.000  H
  H527     1.0000 0.89957  0.50966  0.38470  Biso   1.000  H
  H528     1.0000 0.89670  0.56658  0.39799  Biso   1.000  H
  H529     1.0000 0.81636  0.50668  0.36960  Biso   1.000  H
  H530     1.0000 0.77318  0.48969  0.39330  Biso   1.000  H
  H531     1.0000 0.78145  0.54897  0.38579  Biso   1.000  H
  H532     1.0000 0.81640  0.50668  0.36960  Biso   1.000  H
  H533     1.0000 0.78149  0.54897  0.38579  Biso   1.000  H
  H534     1.0000 0.58522  0.44157  0.39501  Biso   1.000  H
  H535     1.0000 0.64408  0.42531  0.39831  Biso   1.000  H
  H536     1.0000 0.60600  0.39170  0.37791  Biso   1.000  H
  H537     1.0000 0.64408  0.42527  0.39831  Biso   1.000  H
  H538     1.0000 0.60600  0.39166  0.37791  Biso   1.000  H
  H539     1.0000 0.58518  0.44157  0.39501  Biso   1.000  H
  H540     1.0000 0.56302  0.44789  0.44350  Biso   1.000  H
  H541     1.0000 0.55957  0.39940  0.46570  Biso   1.000  H
  H542     1.0000 0.61281  0.42898  0.46149  Biso   1.000  H
  H543     1.0000 0.55957  0.39936  0.46570  Biso   1.000  H
  H544     1.0000 0.56298  0.44789  0.44350  Biso   1.000  H
  H545     1.0000 0.61278  0.42898  0.46149  Biso   1.000  H
  H546     1.0000 0.56007  0.31768  0.40409  Biso   1.000  H
  H547     1.0000 0.54132  0.32878  0.43820  Biso   1.000  H
  H548     1.0000 0.52130  0.36380  0.41070  Biso   1.000  H
  H549     1.0000 0.52130  0.36376  0.41070  Biso   1.000  H
  H550     1.0000 0.54128  0.32878  0.43820  Biso   1.000  H
  H551     1.0000 0.78830  0.10200  0.84509  Biso   1.000  H
  H552     1.0000 0.78038  0.12060  0.81069  Biso   1.000  H
  H553     1.0000 0.83695  0.11360  0.82410  Biso   1.000  H
  H554     1.0000 0.78038  0.12056  0.81069  Biso   1.000  H
  H555     1.0000 0.83695  0.11356  0.82410  Biso   1.000  H
  H556     1.0000 0.83699  0.11360  0.82410  Biso   1.000  H
  H557     1.0000 0.83699  0.11356  0.82410  Biso   1.000  H
  H558     1.0000 0.82256  0.97765  0.83430  Biso   1.000  H
  H559     1.0000 0.82256  0.97769  0.83430  Biso   1.000  H
  H560     1.0000 0.82260  0.97765  0.83430  Biso   1.000  H
  H561     1.0000 0.82260  0.97769  0.83430  Biso   1.000  H
  H562     1.0000 0.86776  0.01898  0.83480  Biso   1.000  H
  H563     1.0000 0.82076  0.02438  0.85791  Biso   1.000  H
  H564     1.0000 0.86776  0.01902  0.83480  Biso   1.000  H
  H565     1.0000 0.86780  0.01898  0.83480  Biso   1.000  H
  H566     1.0000 0.82080  0.02438  0.85791  Biso   1.000  H
  H567     1.0000 0.86780  0.01902  0.83480  Biso   1.000  H
  H568     1.0000 0.74628  0.99177  0.81779  Biso   1.000  H
  H569     1.0000 0.75137  0.01451  0.78410  Biso   1.000  H
  H570     1.0000 0.72427  0.04750  0.81019  Biso   1.000  H
  H571     1.0000 0.75137  0.01447  0.78410  Biso   1.000  H
  H572     1.0000 0.40896  0.81238  0.57050  Biso   1.000  H
  H573     1.0000 0.45497  0.79240  0.54951  Biso   1.000  H
  H574     1.0000 0.43606  0.85046  0.54689  Biso   1.000  H
  H575     1.0000 0.43606  0.85050  0.54689  Biso   1.000  H
  H576     1.0000 0.40900  0.81238  0.57050  Biso   1.000  H
  H577     1.0000 0.45501  0.79240  0.54951  Biso   1.000  H
  H578     1.0000 0.43610  0.85046  0.54689  Biso   1.000  H
  H579     1.0000 0.43610  0.85050  0.54689  Biso   1.000  H
  H580     1.0000 0.47908  0.91748  0.58111  Biso   1.000  H
  H581     1.0000 0.49026  0.89957  0.61530  Biso   1.000  H
  H582     1.0000 0.43338  0.89666  0.60201  Biso   1.000  H
  H583     1.0000 0.43338  0.89670  0.60201  Biso   1.000  H
  H584     1.0000 0.49030  0.89957  0.61530  Biso   1.000  H
  H585     1.0000 0.49328  0.81636  0.63040  Biso   1.000  H
  H586     1.0000 0.51028  0.77318  0.60670  Biso   1.000  H
  H587     1.0000 0.45099  0.78145  0.61421  Biso   1.000  H
  H588     1.0000 0.49328  0.81640  0.63040  Biso   1.000  H
  H589     1.0000 0.45099  0.78149  0.61421  Biso   1.000  H
  H590     1.0000 0.58522  0.44157  0.60499  Biso   1.000  H
  H591     1.0000 0.64408  0.42531  0.60169  Biso   1.000  H
  H592     1.0000 0.60600  0.39170  0.62209  Biso   1.000  H
  H593     1.0000 0.64408  0.42527  0.60169  Biso   1.000  H
  H594     1.0000 0.60600  0.39166  0.62209  Biso   1.000  H
  H595     1.0000 0.58518  0.44157  0.60499  Biso   1.000  H
  H596     1.0000 0.56302  0.44789  0.55650  Biso   1.000  H
  H597     1.0000 0.55957  0.39940  0.53430  Biso   1.000  H
  H598     1.0000 0.61281  0.42898  0.53851  Biso   1.000  H
  H599     1.0000 0.55957  0.39936  0.53430  Biso   1.000  H
  H600     1.0000 0.56298  0.44789  0.55650  Biso   1.000  H
  H601     1.0000 0.61278  0.42898  0.53851  Biso   1.000  H
  H602     1.0000 0.56007  0.31768  0.59591  Biso   1.000  H
  H603     1.0000 0.54132  0.32878  0.56180  Biso   1.000  H
  H604     1.0000 0.52130  0.36380  0.58930  Biso   1.000  H
  H605     1.0000 0.52130  0.36376  0.58930  Biso   1.000  H
  H606     1.0000 0.54128  0.32878  0.56180  Biso   1.000  H
  C661     1.0000 0.16607  0.91717  0.40521  Biso   1.000  C
  C662     1.0000 0.19558  0.91128  0.43130  Biso   1.000  C
  C663     1.0000 0.19558  0.91132  0.43130  Biso   1.000  C
  H607     1.0000 0.14950  0.88835  0.39640  Biso   1.000  H
  H608     1.0000 0.14950  0.88839  0.39640  Biso   1.000  H
  C664     1.0000 0.16091  0.96525  0.39196  Biso   1.000  C
  C665     1.0000 0.16091  0.96528  0.39196  Biso   1.000  C
  C666     1.0000 0.16087  0.96525  0.39196  Biso   1.000  C
  C667     1.0000 0.16087  0.96528  0.39196  Biso   1.000  C
  C668     1.0000 0.19949  0.85988  0.44530  Biso   1.000  C
  C669     1.0000 0.16611  0.91717  0.40521  Biso   1.000  C
  C670     1.0000 0.21989  0.95338  0.44414  Biso   1.000  C
  C671     1.0000 0.12539  0.97566  0.36400  Biso   1.000  C
  C672     1.0000 0.12539  0.97570  0.36400  Biso   1.000  C
  C673     1.0000 0.18521  0.00739  0.40480  Biso   1.000  C
  C674     1.0000 0.18521  0.00735  0.40480  Biso   1.000  C
  C675     1.0000 0.18517  0.00739  0.40480  Biso   1.000  C
  C676     1.0000 0.18517  0.00735  0.40480  Biso   1.000  C
  O269     1.0000 0.17430  0.82267  0.43328  Biso   1.000  O
  O270     1.0000 0.17426  0.82267  0.43328  Biso   1.000  O
  O271     1.0000 0.22559  0.85586  0.47046  Biso   1.000  O
  O272     1.0000 0.22559  0.85590  0.47046  Biso   1.000  O
  H609     1.0000 0.24010  0.94936  0.46199  Biso   1.000  H
  H610     1.0000 0.24006  0.94936  0.46199  Biso   1.000  H
  C677     1.0000 0.21468  0.00149  0.43089  Biso   1.000  C
  C678     1.0000 0.21472  0.00149  0.43089  Biso   1.000  C
  O273     1.0000 0.10411  0.93424  0.35487  Biso   1.000  O
  O274     1.0000 0.10411  0.93428  0.35487  Biso   1.000  O
  O275     1.0000 0.12041  0.01830  0.35446  Biso   1.000  O
  O276     1.0000 0.12037  0.01830  0.35446  Biso   1.000  O
  H611     1.0000 0.18161  0.04019  0.39569  Biso   1.000  H
  H612     1.0000 0.18157  0.04019  0.39569  Biso   1.000  H
  Mg61     1.0000 0.15983  0.75458  0.45131  Biso   1.000  Mg
  Mg62     1.0000 0.15983  0.75462  0.45131  Biso   1.000  Mg
  Mg63     1.0000 0.22854  0.79883  0.50001  Biso   1.000  Mg
  Mg64     1.0000 0.22854  0.79887  0.50001  Biso   1.000  Mg
  Mg65     1.0000 0.22850  0.79883  0.50001  Biso   1.000  Mg
  Mg66     1.0000 0.22850  0.79887  0.50001  Biso   1.000  Mg
  C679     1.0000 0.23799  0.04800  0.44501  Biso   1.000  C
  C680     1.0000 0.23799  0.04803  0.44501  Biso   1.000  C
  Mg67     1.0000 0.04444  0.93126  0.32511  Biso   1.000  Mg
  Mg68     1.0000 0.04440  0.93126  0.32511  Biso   1.000  Mg
  Mg69     1.0000 0.06874  0.04444  0.32511  Biso   1.000  Mg
  Mg70     1.0000 0.06874  0.04440  0.32511  Biso   1.000  Mg
  Mg71     1.0000 0.06870  0.04444  0.32511  Biso   1.000  Mg
  Mg72     1.0000 0.06870  0.04440  0.32511  Biso   1.000  Mg
  O277     1.0000 0.13878  0.68217  0.46604  Biso   1.000  O
  O278     1.0000 0.18100  0.72098  0.41097  Biso   1.000  O
  O279     1.0000 0.18096  0.72098  0.41097  Biso   1.000  O
  Mg73     1.0000 0.09113  0.70973  0.50001  Biso   1.000  Mg
  O280     1.0000 0.14881  0.77296  0.50001  Biso   1.000  O
  O281     1.0000 0.14881  0.77299  0.50001  Biso   1.000  O
  O282     1.0000 0.14877  0.77296  0.50001  Biso   1.000  O
  O283     1.0000 0.14877  0.77299  0.50001  Biso   1.000  O
  O284     1.0000 0.23458  0.74207  0.46618  Biso   1.000  O
  O285     1.0000 0.08991  0.76878  0.43342  Biso   1.000  O
  Mg74     1.0000 0.15983  0.75458  0.54869  Biso   1.000  Mg
  Mg75     1.0000 0.15983  0.75462  0.54869  Biso   1.000  Mg
  O286     1.0000 0.23458  0.74207  0.53382  Biso   1.000  O
  O287     1.0000 0.22559  0.85586  0.52954  Biso   1.000  O
  O288     1.0000 0.22559  0.85590  0.52954  Biso   1.000  O
  O289     1.0000 0.30608  0.80055  0.50001  Biso   1.000  O
  O290     1.0000 0.30608  0.80059  0.50001  Biso   1.000  O
  O291     1.0000 0.30612  0.80055  0.50001  Biso   1.000  O
  O292     1.0000 0.30612  0.80059  0.50001  Biso   1.000  O
  O293     1.0000 0.26291  0.04011  0.46932  Biso   1.000  O
  O294     1.0000 0.23118  0.08991  0.43342  Biso   1.000  O
  O295     1.0000 0.26291  0.04007  0.46932  Biso   1.000  O
  O296     1.0000 0.26287  0.04011  0.46932  Biso   1.000  O
  O297     1.0000 0.26287  0.04007  0.46932  Biso   1.000  O
  O298     1.0000 0.01830  0.87955  0.35446  Biso   1.000  O
  O299     1.0000 0.01830  0.87959  0.35446  Biso   1.000  O
  Mg76     1.0000 0.93126  0.95552  0.32511  Biso   1.000  Mg
  Mg77     1.0000 0.93126  0.95556  0.32511  Biso   1.000  Mg
  O300     1.0000 0.08149  0.87465  0.30032  Biso   1.000  O
  O301     1.0000 0.08149  0.87469  0.30032  Biso   1.000  O
  O302     1.0000 0.98316  0.92165  0.29497  Biso   1.000  O
  O303     1.0000 0.98316  0.92169  0.29497  Biso   1.000  O
  O304     1.0000 0.98320  0.92165  0.29497  Biso   1.000  O
  O305     1.0000 0.98320  0.92169  0.29497  Biso   1.000  O
  O306     1.0000 0.07831  0.98316  0.29497  Biso   1.000  O
  O307     1.0000 0.07831  0.98320  0.29497  Biso   1.000  O
  O308     1.0000 0.07827  0.98316  0.29497  Biso   1.000  O
  O309     1.0000 0.07827  0.98320  0.29497  Biso   1.000  O
  O310     1.0000 0.00000  1.00000  0.33850  Biso   1.000  O
  Mg78     1.0000 0.95552  0.06874  0.32511  Biso   1.000  Mg
  Mg79     1.0000 0.95552  0.06870  0.32511  Biso   1.000  Mg
  Mg80     1.0000 0.95556  0.06874  0.32511  Biso   1.000  Mg
  Mg81     1.0000 0.95556  0.06870  0.32511  Biso   1.000  Mg
  O311     1.0000 0.12531  0.08149  0.30032  Biso   1.000  O
  O312     1.0000 0.06572  0.10411  0.35487  Biso   1.000  O
  O313     1.0000 0.01680  0.07831  0.29497  Biso   1.000  O
  O314     1.0000 0.01680  0.07827  0.29497  Biso   1.000  O
  O315     1.0000 0.12527  0.08149  0.30032  Biso   1.000  O
  O316     1.0000 0.06568  0.10411  0.35487  Biso   1.000  O
  C681     1.0000 0.14529  0.63628  0.45521  Biso   1.000  C
  S63      1.0000 0.21047  0.67367  0.40999  Biso   1.000  S
  S64      1.0000 0.21047  0.67363  0.40999  Biso   1.000  S
  S65      1.0000 0.21051  0.67367  0.40999  Biso   1.000  S
  S66      1.0000 0.21051  0.67363  0.40999  Biso   1.000  S
  O317     1.0000 0.05699  0.64098  0.50001  Biso   1.000  O
  O318     1.0000 0.05703  0.64098  0.50001  Biso   1.000  O
  O319     1.0000 0.04011  0.73709  0.53068  Biso   1.000  O
  O320     1.0000 0.13878  0.68217  0.53396  Biso   1.000  O
  O321     1.0000 0.04011  0.73709  0.46932  Biso   1.000  O
  O322     1.0000 0.04007  0.73709  0.53068  Biso   1.000  O
  O323     1.0000 0.04007  0.73709  0.46932  Biso   1.000  O
  C682     1.0000 0.27229  0.71642  0.45530  Biso   1.000  C
  C683     1.0000 0.27229  0.71639  0.45530  Biso   1.000  C
  C684     1.0000 0.04800  0.76197  0.44501  Biso   1.000  C
  C685     1.0000 0.04803  0.76197  0.44501  Biso   1.000  C
  O324     1.0000 0.08991  0.76878  0.56658  Biso   1.000  O
  O325     1.0000 0.18100  0.72098  0.58903  Biso   1.000  O
  O326     1.0000 0.17430  0.82267  0.56672  Biso   1.000  O
  O327     1.0000 0.18096  0.72098  0.58903  Biso   1.000  O
  O328     1.0000 0.17426  0.82267  0.56672  Biso   1.000  O
  C686     1.0000 0.27229  0.71642  0.54470  Biso   1.000  C
  C687     1.0000 0.27229  0.71639  0.54470  Biso   1.000  C
  C688     1.0000 0.19949  0.85988  0.55470  Biso   1.000  C
  S67      1.0000 0.33865  0.75477  0.50001  Biso   1.000  S
  S68      1.0000 0.33865  0.75481  0.50001  Biso   1.000  S
  Mg82     1.0000 0.29024  0.09113  0.50001  Biso   1.000  Mg
  Mg83     1.0000 0.24538  0.15983  0.45131  Biso   1.000  Mg
  Mg84     1.0000 0.24534  0.15983  0.45131  Biso   1.000  Mg
  C689     1.0000 0.97566  0.87457  0.36400  Biso   1.000  C
  C690     1.0000 0.97570  0.87457  0.36400  Biso   1.000  C
  O329     1.0000 0.93424  0.89585  0.35487  Biso   1.000  O
  O330     1.0000 0.93424  0.89589  0.35487  Biso   1.000  O
  O331     1.0000 0.93428  0.89585  0.35487  Biso   1.000  O
  O332     1.0000 0.93428  0.89589  0.35487  Biso   1.000  O
  O333     1.0000 0.87465  0.91848  0.30032  Biso   1.000  O
  O334     1.0000 0.87955  0.98167  0.35446  Biso   1.000  O
  O335     1.0000 0.87469  0.91848  0.30032  Biso   1.000  O
  O336     1.0000 0.87959  0.98167  0.35446  Biso   1.000  O
  O337     1.0000 0.92165  0.01680  0.29497  Biso   1.000  O
  O338     1.0000 0.92169  0.01680  0.29497  Biso   1.000  O
  S69      1.0000 0.08263  0.87274  0.26824  Biso   1.000  S
  S70      1.0000 0.08263  0.87278  0.26824  Biso   1.000  S
  C691     1.0000 0.97895  0.89398  0.26990  Biso   1.000  C
  C692     1.0000 0.97899  0.89398  0.26990  Biso   1.000  C
  C693     1.0000 0.10598  0.97895  0.26990  Biso   1.000  C
  C694     1.0000 0.10598  0.97899  0.26990  Biso   1.000  C
  O339     1.0000 0.98167  0.12041  0.35446  Biso   1.000  O
  O340     1.0000 0.91848  0.12531  0.30032  Biso   1.000  O
  O341     1.0000 0.89585  0.06572  0.35487  Biso   1.000  O
  O342     1.0000 0.98167  0.12037  0.35446  Biso   1.000  O
  O343     1.0000 0.91848  0.12527  0.30032  Biso   1.000  O
  O344     1.0000 0.89585  0.06568  0.35487  Biso   1.000  O
  O345     1.0000 0.89589  0.06572  0.35487  Biso   1.000  O
  O346     1.0000 0.89589  0.06568  0.35487  Biso   1.000  O
  S71      1.0000 0.12722  0.08263  0.26824  Biso   1.000  S
  S72      1.0000 0.12719  0.08263  0.26824  Biso   1.000  S
  C695     1.0000 0.02430  0.12539  0.36400  Biso   1.000  C
  C696     1.0000 0.02101  0.10598  0.26990  Biso   1.000  C
  C697     1.0000 0.02097  0.10598  0.26990  Biso   1.000  C
  C698     1.0000 0.17809  0.62499  0.42921  Biso   1.000  C
  C699     1.0000 0.12370  0.58912  0.46841  Biso   1.000  C
  C700     1.0000 0.12370  0.58908  0.46841  Biso   1.000  C
  O347     1.0000 0.22448  0.65450  0.38026  Biso   1.000  O
  O348     1.0000 0.22452  0.65450  0.38026  Biso   1.000  O
  C701     1.0000 0.26861  0.68301  0.43100  Biso   1.000  C
  C702     1.0000 0.26861  0.68297  0.43100  Biso   1.000  C
  C703     1.0000 0.26857  0.68301  0.43100  Biso   1.000  C
  C704     1.0000 0.26857  0.68297  0.43100  Biso   1.000  C
  S73      1.0000 0.08348  0.59257  0.50001  Biso   1.000  S
  C705     1.0000 0.04800  0.76197  0.55499  Biso   1.000  C
  C706     1.0000 0.04803  0.76197  0.55499  Biso   1.000  C
  C707     1.0000 0.14529  0.63628  0.54479  Biso   1.000  C
  C708     1.0000 0.32151  0.71838  0.46750  Biso   1.000  C
  C709     1.0000 0.00149  0.78528  0.43089  Biso   1.000  C
  S74      1.0000 0.21047  0.67367  0.59001  Biso   1.000  S
  S75      1.0000 0.21047  0.67363  0.59001  Biso   1.000  S
  S76      1.0000 0.21051  0.67367  0.59001  Biso   1.000  S
  S77      1.0000 0.21051  0.67363  0.59001  Biso   1.000  S
  C710     1.0000 0.32151  0.71838  0.53250  Biso   1.000  C
  C711     1.0000 0.26861  0.68301  0.56900  Biso   1.000  C
  C712     1.0000 0.26861  0.68297  0.56900  Biso   1.000  C
  C713     1.0000 0.26857  0.68301  0.56900  Biso   1.000  C
  C714     1.0000 0.26857  0.68297  0.56900  Biso   1.000  C
  C715     1.0000 0.19558  0.91128  0.56870  Biso   1.000  C
  C716     1.0000 0.19558  0.91132  0.56870  Biso   1.000  C
  O349     1.0000 0.39220  0.76247  0.50001  Biso   1.000  O
  O350     1.0000 0.39216  0.76247  0.50001  Biso   1.000  O
  O351     1.0000 0.26291  0.04011  0.53068  Biso   1.000  O
  O352     1.0000 0.26291  0.04007  0.53068  Biso   1.000  O
  O353     1.0000 0.26287  0.04011  0.53068  Biso   1.000  O
  O354     1.0000 0.26287  0.04007  0.53068  Biso   1.000  O
  Mg85     1.0000 0.24538  0.15983  0.54869  Biso   1.000  Mg
  Mg86     1.0000 0.24534  0.15983  0.54869  Biso   1.000  Mg
  O355     1.0000 0.22701  0.14881  0.50001  Biso   1.000  O
  O356     1.0000 0.35898  0.05699  0.50001  Biso   1.000  O
  O357     1.0000 0.31779  0.13878  0.53396  Biso   1.000  O
  O358     1.0000 0.31779  0.13878  0.46604  Biso   1.000  O
  O359     1.0000 0.22701  0.14877  0.50001  Biso   1.000  O
  O360     1.0000 0.35898  0.05703  0.50001  Biso   1.000  O
  Mg87     1.0000 0.20113  0.22854  0.50001  Biso   1.000  Mg
  O361     1.0000 0.27898  0.18100  0.41097  Biso   1.000  O
  O362     1.0000 0.25789  0.23458  0.46618  Biso   1.000  O
  O363     1.0000 0.17729  0.17430  0.43328  Biso   1.000  O
  Mg88     1.0000 0.20113  0.22850  0.50001  Biso   1.000  Mg
  O364     1.0000 0.27898  0.18096  0.41097  Biso   1.000  O
  O365     1.0000 0.17729  0.17426  0.43328  Biso   1.000  O
  Mg89     1.0000 0.20109  0.22854  0.50001  Biso   1.000  Mg
  Mg90     1.0000 0.20109  0.22850  0.50001  Biso   1.000  Mg
  C717     1.0000 0.96525  0.83906  0.39196  Biso   1.000  C
  C718     1.0000 0.96525  0.83909  0.39196  Biso   1.000  C
  C719     1.0000 0.96528  0.83906  0.39196  Biso   1.000  C
  C720     1.0000 0.96528  0.83909  0.39196  Biso   1.000  C
  S78      1.0000 0.87274  0.91733  0.26824  Biso   1.000  S
  S79      1.0000 0.87274  0.91737  0.26824  Biso   1.000  S
  S80      1.0000 0.87278  0.91733  0.26824  Biso   1.000  S
  S81      1.0000 0.87278  0.91737  0.26824  Biso   1.000  S
  C721     1.0000 0.87457  0.02430  0.36400  Biso   1.000  C
  C722     1.0000 0.89398  0.02101  0.26990  Biso   1.000  C
  C723     1.0000 0.89398  0.02097  0.26990  Biso   1.000  C
  O366     1.0000 0.10981  0.83117  0.25538  Biso   1.000  O
  C724     1.0000 0.02009  0.87040  0.25561  Biso   1.000  C
  C725     1.0000 0.11012  0.92946  0.25481  Biso   1.000  C
  C726     1.0000 0.11012  0.92950  0.25481  Biso   1.000  C
  O367     1.0000 0.10977  0.83117  0.25538  Biso   1.000  O
  C727     1.0000 0.02013  0.87040  0.25561  Biso   1.000  C
  C728     1.0000 0.92946  0.88988  0.25481  Biso   1.000  C
  C729     1.0000 0.92950  0.88988  0.25481  Biso   1.000  C
  C730     1.0000 0.12960  0.02009  0.25561  Biso   1.000  C
  C731     1.0000 0.12960  0.02013  0.25561  Biso   1.000  C
  C732     1.0000 0.12956  0.02009  0.25561  Biso   1.000  C
  C733     1.0000 0.12956  0.02013  0.25561  Biso   1.000  C
  S82      1.0000 0.91733  0.12722  0.26824  Biso   1.000  S
  S83      1.0000 0.91733  0.12719  0.26824  Biso   1.000  S
  S84      1.0000 0.91737  0.12722  0.26824  Biso   1.000  S
  S85      1.0000 0.91737  0.12719  0.26824  Biso   1.000  S
  O368     1.0000 0.16879  0.10981  0.25538  Biso   1.000  O
  C734     1.0000 0.07050  0.11012  0.25481  Biso   1.000  C
  O369     1.0000 0.16879  0.10977  0.25538  Biso   1.000  O
  C735     1.0000 0.07046  0.11012  0.25481  Biso   1.000  C
  C736     1.0000 0.03472  0.16091  0.39196  Biso   1.000  C
  C737     1.0000 0.03472  0.16087  0.39196  Biso   1.000  C
  C738     1.0000 0.97987  0.12960  0.25561  Biso   1.000  C
  C739     1.0000 0.97987  0.12956  0.25561  Biso   1.000  C
  C740     1.0000 0.18131  0.57749  0.41730  Biso   1.000  C
  C741     1.0000 0.18127  0.57749  0.41730  Biso   1.000  C
  C742     1.0000 0.12941  0.54185  0.45550  Biso   1.000  C
  C743     1.0000 0.12941  0.54189  0.45550  Biso   1.000  C
  C744     1.0000 0.12937  0.54185  0.45550  Biso   1.000  C
  C745     1.0000 0.12937  0.54189  0.45550  Biso   1.000  C
  C746     1.0000 0.30880  0.65377  0.41889  Biso   1.000  C
  C747     1.0000 0.30880  0.65381  0.41889  Biso   1.000  C
  C748     1.0000 0.30876  0.65377  0.41889  Biso   1.000  C
  C749     1.0000 0.30876  0.65381  0.41889  Biso   1.000  C
  C750     1.0000 0.12370  0.58912  0.53159  Biso   1.000  C
  C751     1.0000 0.12370  0.58908  0.53159  Biso   1.000  C
  O370     1.0000 0.05259  0.54782  0.50001  Biso   1.000  O
  O371     1.0000 0.05259  0.54779  0.50001  Biso   1.000  O
  O372     1.0000 0.05263  0.54782  0.50001  Biso   1.000  O
  O373     1.0000 0.05263  0.54779  0.50001  Biso   1.000  O
  C752     1.0000 0.00149  0.78528  0.56911  Biso   1.000  C
  C753     1.0000 0.17809  0.62499  0.57079  Biso   1.000  C
  C754     1.0000 0.36269  0.68806  0.45571  Biso   1.000  C
  C755     1.0000 0.36269  0.68810  0.45571  Biso   1.000  C
  C756     1.0000 0.95338  0.78007  0.44414  Biso   1.000  C
  C757     1.0000 0.00739  0.81475  0.40480  Biso   1.000  C
  C758     1.0000 0.00739  0.81479  0.40480  Biso   1.000  C
  C759     1.0000 0.00735  0.81475  0.40480  Biso   1.000  C
  C760     1.0000 0.00735  0.81479  0.40480  Biso   1.000  C
  O374     1.0000 0.22448  0.65450  0.61974  Biso   1.000  O
  O375     1.0000 0.22452  0.65450  0.61974  Biso   1.000  O
  C761     1.0000 0.36269  0.68806  0.54429  Biso   1.000  C
  C762     1.0000 0.36269  0.68810  0.54429  Biso   1.000  C
  C763     1.0000 0.30880  0.65377  0.58111  Biso   1.000  C
  C764     1.0000 0.30880  0.65381  0.58111  Biso   1.000  C
  C765     1.0000 0.30876  0.65377  0.58111  Biso   1.000  C
  C766     1.0000 0.30876  0.65381  0.58111  Biso   1.000  C
  C767     1.0000 0.16611  0.91717  0.59479  Biso   1.000  C
  C768     1.0000 0.21989  0.95338  0.55586  Biso   1.000  C
  C769     1.0000 0.16607  0.91717  0.59479  Biso   1.000  C
  C770     1.0000 0.23799  0.04800  0.55499  Biso   1.000  C
  C771     1.0000 0.23799  0.04803  0.55499  Biso   1.000  C
  O376     1.0000 0.23118  0.08991  0.56658  Biso   1.000  O
  O377     1.0000 0.27898  0.18100  0.58903  Biso   1.000  O
  O378     1.0000 0.25789  0.23458  0.53382  Biso   1.000  O
  O379     1.0000 0.17729  0.17430  0.56672  Biso   1.000  O
  O380     1.0000 0.27898  0.18096  0.58903  Biso   1.000  O
  O381     1.0000 0.17729  0.17426  0.56672  Biso   1.000  O
  S86      1.0000 0.40739  0.08348  0.50001  Biso   1.000  S
  S87      1.0000 0.40743  0.08348  0.50001  Biso   1.000  S
  C772     1.0000 0.36369  0.14529  0.54479  Biso   1.000  C
  C773     1.0000 0.36369  0.14529  0.45521  Biso   1.000  C
  O382     1.0000 0.19941  0.30608  0.50001  Biso   1.000  O
  O383     1.0000 0.14410  0.22559  0.52954  Biso   1.000  O
  O384     1.0000 0.14410  0.22559  0.47046  Biso   1.000  O
  O385     1.0000 0.19941  0.30612  0.50001  Biso   1.000  O
  O386     1.0000 0.19937  0.30608  0.50001  Biso   1.000  O
  O387     1.0000 0.14407  0.22559  0.52954  Biso   1.000  O
  O388     1.0000 0.14407  0.22559  0.47046  Biso   1.000  O
  O389     1.0000 0.19937  0.30612  0.50001  Biso   1.000  O
  S88      1.0000 0.32633  0.21047  0.40999  Biso   1.000  S
  S89      1.0000 0.32633  0.21051  0.40999  Biso   1.000  S
  C774     1.0000 0.28358  0.27229  0.45530  Biso   1.000  C
  C775     1.0000 0.14008  0.19949  0.44530  Biso   1.000  C
  C776     1.0000 0.91717  0.83385  0.40521  Biso   1.000  C
  C777     1.0000 0.91717  0.83389  0.40521  Biso   1.000  C
  O390     1.0000 0.83117  0.89015  0.25538  Biso   1.000  O
  C778     1.0000 0.87040  0.97987  0.25561  Biso   1.000  C
  O391     1.0000 0.83117  0.89019  0.25538  Biso   1.000  O
  C779     1.0000 0.83906  0.03472  0.39196  Biso   1.000  C
  C780     1.0000 0.83909  0.03472  0.39196  Biso   1.000  C
  C781     1.0000 0.88988  0.07050  0.25481  Biso   1.000  C
  C782     1.0000 0.88988  0.07046  0.25481  Biso   1.000  C
  C783     1.0000 0.01160  0.83856  0.22931  Biso   1.000  C
  C784     1.0000 0.01160  0.83860  0.22931  Biso   1.000  C
  C785     1.0000 0.14341  0.92314  0.23011  Biso   1.000  C
  C786     1.0000 0.14341  0.92318  0.23011  Biso   1.000  C
  C787     1.0000 0.14338  0.92314  0.23011  Biso   1.000  C
  C788     1.0000 0.14338  0.92318  0.23011  Biso   1.000  C
  C789     1.0000 0.92314  0.85659  0.23011  Biso   1.000  C
  C790     1.0000 0.92318  0.85659  0.23011  Biso   1.000  C
  C791     1.0000 0.16140  0.01160  0.22931  Biso   1.000  C
  C792     1.0000 0.16137  0.01160  0.22931  Biso   1.000  C
  O392     1.0000 0.89015  0.16879  0.25538  Biso   1.000  O
  O393     1.0000 0.89019  0.16879  0.25538  Biso   1.000  O
  C793     1.0000 0.07682  0.14341  0.23011  Biso   1.000  C
  C794     1.0000 0.07682  0.14338  0.23011  Biso   1.000  C
  C795     1.0000 0.99257  0.18521  0.40480  Biso   1.000  C
  C796     1.0000 0.99257  0.18517  0.40480  Biso   1.000  C
  C797     1.0000 0.99261  0.18521  0.40480  Biso   1.000  C
  C798     1.0000 0.99261  0.18517  0.40480  Biso   1.000  C
  C799     1.0000 0.08279  0.16611  0.40521  Biso   1.000  C
  C800     1.0000 0.08279  0.16607  0.40521  Biso   1.000  C
  C801     1.0000 0.98836  0.16140  0.22931  Biso   1.000  C
  C802     1.0000 0.98836  0.16137  0.22931  Biso   1.000  C
  C803     1.0000 0.15899  0.53370  0.42989  Biso   1.000  C
  H613     1.0000 0.20010  0.57358  0.39899  Biso   1.000  H
  H614     1.0000 0.20006  0.57358  0.39899  Biso   1.000  H
  H615     1.0000 0.11230  0.51361  0.46449  Biso   1.000  H
  H616     1.0000 0.30348  0.63341  0.40120  Biso   1.000  H
  C804     1.0000 0.35810  0.65495  0.43330  Biso   1.000  C
  C805     1.0000 0.35810  0.65499  0.43330  Biso   1.000  C
  C806     1.0000 0.35806  0.65495  0.43330  Biso   1.000  C
  C807     1.0000 0.35806  0.65499  0.43330  Biso   1.000  C
  C808     1.0000 0.12941  0.54185  0.54450  Biso   1.000  C
  C809     1.0000 0.12941  0.54189  0.54450  Biso   1.000  C
  C810     1.0000 0.12937  0.54185  0.54450  Biso   1.000  C
  C811     1.0000 0.12937  0.54189  0.54450  Biso   1.000  C
  C812     1.0000 0.95338  0.78007  0.55586  Biso   1.000  C
  C813     1.0000 0.00739  0.81475  0.59520  Biso   1.000  C
  C814     1.0000 0.00739  0.81479  0.59520  Biso   1.000  C
  C815     1.0000 0.00735  0.81475  0.59520  Biso   1.000  C
  C816     1.0000 0.00735  0.81479  0.59520  Biso   1.000  C
  C817     1.0000 0.18131  0.57749  0.58270  Biso   1.000  C
  C818     1.0000 0.18127  0.57749  0.58270  Biso   1.000  C
  H617     1.0000 0.39561  0.69227  0.46461  Biso   1.000  H
  H618     1.0000 0.39557  0.69227  0.46461  Biso   1.000  H
  C819     1.0000 0.91128  0.80438  0.43130  Biso   1.000  C
  H619     1.0000 0.94936  0.75990  0.46199  Biso   1.000  H
  C820     1.0000 0.91132  0.80438  0.43130  Biso   1.000  C
  H620     1.0000 0.04019  0.81835  0.39569  Biso   1.000  H
  H621     1.0000 0.04019  0.81839  0.39569  Biso   1.000  H
  H622     1.0000 0.39561  0.69227  0.53539  Biso   1.000  H
  H623     1.0000 0.39557  0.69227  0.53539  Biso   1.000  H
  C821     1.0000 0.35810  0.65495  0.56670  Biso   1.000  C
  C822     1.0000 0.35810  0.65499  0.56670  Biso   1.000  C
  C823     1.0000 0.35806  0.65495  0.56670  Biso   1.000  C
  C824     1.0000 0.35806  0.65499  0.56670  Biso   1.000  C
  H624     1.0000 0.30348  0.63341  0.59880  Biso   1.000  H
  H625     1.0000 0.14950  0.88835  0.60360  Biso   1.000  H
  H626     1.0000 0.14950  0.88839  0.60360  Biso   1.000  H
  C825     1.0000 0.16091  0.96525  0.60804  Biso   1.000  C
  C826     1.0000 0.16091  0.96528  0.60804  Biso   1.000  C
  C827     1.0000 0.16087  0.96525  0.60804  Biso   1.000  C
  C828     1.0000 0.16087  0.96528  0.60804  Biso   1.000  C
  H627     1.0000 0.24010  0.94936  0.53801  Biso   1.000  H
  H628     1.0000 0.24006  0.94936  0.53801  Biso   1.000  H
  C829     1.0000 0.21468  0.00149  0.56911  Biso   1.000  C
  C830     1.0000 0.21472  0.00149  0.56911  Biso   1.000  C
  S90      1.0000 0.32633  0.21047  0.59001  Biso   1.000  S
  S91      1.0000 0.32633  0.21051  0.59001  Biso   1.000  S
  C831     1.0000 0.28358  0.27229  0.54470  Biso   1.000  C
  C832     1.0000 0.14008  0.19949  0.55470  Biso   1.000  C
  O394     1.0000 0.45218  0.05259  0.50001  Biso   1.000  O
  C833     1.0000 0.41088  0.12370  0.53159  Biso   1.000  C
  C834     1.0000 0.41088  0.12370  0.46841  Biso   1.000  C
  O395     1.0000 0.45218  0.05263  0.50001  Biso   1.000  O
  O396     1.0000 0.45221  0.05259  0.50001  Biso   1.000  O
  O397     1.0000 0.45221  0.05263  0.50001  Biso   1.000  O
  C835     1.0000 0.37498  0.17809  0.57079  Biso   1.000  C
  C836     1.0000 0.37498  0.17809  0.42921  Biso   1.000  C
  S92      1.0000 0.24519  0.33865  0.50001  Biso   1.000  S
  S93      1.0000 0.24515  0.33865  0.50001  Biso   1.000  S
  O398     1.0000 0.34550  0.22448  0.38026  Biso   1.000  O
  C837     1.0000 0.31699  0.26861  0.43100  Biso   1.000  C
  O399     1.0000 0.34550  0.22452  0.38026  Biso   1.000  O
  C838     1.0000 0.31699  0.26857  0.43100  Biso   1.000  C
  O400     1.0000 0.34547  0.22448  0.38026  Biso   1.000  O
  O401     1.0000 0.34547  0.22452  0.38026  Biso   1.000  O
  C839     1.0000 0.28159  0.32151  0.46750  Biso   1.000  C
  C840     1.0000 0.08868  0.19558  0.43130  Biso   1.000  C
  H629     1.0000 0.88835  0.85046  0.39640  Biso   1.000  H
  H630     1.0000 0.88835  0.85050  0.39640  Biso   1.000  H
  H631     1.0000 0.88839  0.85046  0.39640  Biso   1.000  H
  H632     1.0000 0.88839  0.85050  0.39640  Biso   1.000  H
  C841     1.0000 0.83856  0.98836  0.22931  Biso   1.000  C
  C842     1.0000 0.83860  0.98836  0.22931  Biso   1.000  C
  C843     1.0000 0.81475  0.99257  0.40480  Biso   1.000  C
  C844     1.0000 0.81475  0.99261  0.40480  Biso   1.000  C
  C845     1.0000 0.81479  0.99257  0.40480  Biso   1.000  C
  C846     1.0000 0.81479  0.99261  0.40480  Biso   1.000  C
  C847     1.0000 0.83385  0.08279  0.40521  Biso   1.000  C
  C848     1.0000 0.83389  0.08279  0.40521  Biso   1.000  C
  C849     1.0000 0.85659  0.07682  0.23011  Biso   1.000  C
  C850     1.0000 0.96337  0.83197  0.21820  Biso   1.000  C
  H633     1.0000 0.03969  0.82225  0.21970  Biso   1.000  H
  H634     1.0000 0.03969  0.82229  0.21970  Biso   1.000  H
  H635     1.0000 0.03973  0.82225  0.21970  Biso   1.000  H
  H636     1.0000 0.03973  0.82229  0.21970  Biso   1.000  H
  C851     1.0000 0.16799  0.96337  0.21820  Biso   1.000  C
  H637     1.0000 0.14851  0.89015  0.22159  Biso   1.000  H
  H638     1.0000 0.14851  0.89019  0.22159  Biso   1.000  H
  H639     1.0000 0.89015  0.85146  0.22159  Biso   1.000  H
  H640     1.0000 0.89015  0.85149  0.22159  Biso   1.000  H
  H641     1.0000 0.89019  0.85146  0.22159  Biso   1.000  H
  H642     1.0000 0.89019  0.85149  0.22159  Biso   1.000  H
  H643     1.0000 0.17771  0.03969  0.21970  Biso   1.000  H
  H644     1.0000 0.17771  0.03973  0.21970  Biso   1.000  H
  H645     1.0000 0.17767  0.03969  0.21970  Biso   1.000  H
  H646     1.0000 0.17767  0.03973  0.21970  Biso   1.000  H
  H647     1.0000 0.10981  0.14851  0.22159  Biso   1.000  H
  C852     1.0000 0.03659  0.16799  0.21820  Biso   1.000  C
  H648     1.0000 0.10977  0.14851  0.22159  Biso   1.000  H
  C853     1.0000 0.03663  0.16799  0.21820  Biso   1.000  C
  H649     1.0000 0.95977  0.18161  0.39569  Biso   1.000  H
  C854     1.0000 0.99847  0.21468  0.43089  Biso   1.000  C
  H650     1.0000 0.95977  0.18157  0.39569  Biso   1.000  H
  C855     1.0000 0.99847  0.21472  0.43089  Biso   1.000  C
  H651     1.0000 0.11161  0.14950  0.39640  Biso   1.000  H
  H652     1.0000 0.96031  0.17771  0.21970  Biso   1.000  H
  H653     1.0000 0.96031  0.17767  0.21970  Biso   1.000  H
  H654     1.0000 0.96027  0.17771  0.21970  Biso   1.000  H
  H655     1.0000 0.96027  0.17767  0.21970  Biso   1.000  H
  C856     1.0000 0.16251  0.48015  0.41441  Biso   1.000  C
  C857     1.0000 0.16251  0.48019  0.41441  Biso   1.000  C
  C858     1.0000 0.16248  0.48015  0.41441  Biso   1.000  C
  C859     1.0000 0.16248  0.48019  0.41441  Biso   1.000  C
  C860     1.0000 0.40399  0.61909  0.42340  Biso   1.000  C
  H656     1.0000 0.11230  0.51361  0.53551  Biso   1.000  H
  C861     1.0000 0.15899  0.53370  0.57011  Biso   1.000  C
  C862     1.0000 0.91128  0.80438  0.56870  Biso   1.000  C
  H657     1.0000 0.94936  0.75990  0.53801  Biso   1.000  H
  C863     1.0000 0.91132  0.80438  0.56870  Biso   1.000  C
  H658     1.0000 0.04019  0.81835  0.60431  Biso   1.000  H
  H659     1.0000 0.04019  0.81839  0.60431  Biso   1.000  H
  C864     1.0000 0.96525  0.83906  0.60804  Biso   1.000  C
  C865     1.0000 0.96525  0.83909  0.60804  Biso   1.000  C
  C866     1.0000 0.96528  0.83906  0.60804  Biso   1.000  C
  C867     1.0000 0.96528  0.83909  0.60804  Biso   1.000  C
  H660     1.0000 0.20010  0.57358  0.60101  Biso   1.000  H
  H661     1.0000 0.20006  0.57358  0.60101  Biso   1.000  H
  C868     1.0000 0.85988  0.80051  0.44530  Biso   1.000  C
  C869     1.0000 0.85988  0.80047  0.44530  Biso   1.000  C
  C870     1.0000 0.40399  0.61909  0.57660  Biso   1.000  C
  C871     1.0000 0.12539  0.97566  0.63600  Biso   1.000  C
  C872     1.0000 0.12539  0.97570  0.63600  Biso   1.000  C
  C873     1.0000 0.18521  0.00739  0.59520  Biso   1.000  C
  C874     1.0000 0.18521  0.00735  0.59520  Biso   1.000  C
  C875     1.0000 0.18517  0.00739  0.59520  Biso   1.000  C
  C876     1.0000 0.18517  0.00735  0.59520  Biso   1.000  C
  O402     1.0000 0.34550  0.22448  0.61974  Biso   1.000  O
  C877     1.0000 0.31699  0.26861  0.56900  Biso   1.000  C
  O403     1.0000 0.34550  0.22452  0.61974  Biso   1.000  O
  C878     1.0000 0.31699  0.26857  0.56900  Biso   1.000  C
  O404     1.0000 0.34547  0.22448  0.61974  Biso   1.000  O
  O405     1.0000 0.34547  0.22452  0.61974  Biso   1.000  O
  C879     1.0000 0.28159  0.32151  0.53250  Biso   1.000  C
  C880     1.0000 0.08868  0.19558  0.56870  Biso   1.000  C
  C881     1.0000 0.45811  0.12941  0.54450  Biso   1.000  C
  C882     1.0000 0.45811  0.12937  0.54450  Biso   1.000  C
  C883     1.0000 0.45807  0.12941  0.54450  Biso   1.000  C
  C884     1.0000 0.45807  0.12937  0.54450  Biso   1.000  C
  C885     1.0000 0.45811  0.12941  0.45550  Biso   1.000  C
  C886     1.0000 0.45811  0.12937  0.45550  Biso   1.000  C
  C887     1.0000 0.45807  0.12941  0.45550  Biso   1.000  C
  C888     1.0000 0.45807  0.12937  0.45550  Biso   1.000  C
  C889     1.0000 0.42247  0.18131  0.58270  Biso   1.000  C
  C890     1.0000 0.42247  0.18127  0.58270  Biso   1.000  C
  C891     1.0000 0.42247  0.18131  0.41730  Biso   1.000  C
  C892     1.0000 0.42247  0.18127  0.41730  Biso   1.000  C
  O406     1.0000 0.23749  0.39220  0.50001  Biso   1.000  O
  O407     1.0000 0.23749  0.39216  0.50001  Biso   1.000  O
  C893     1.0000 0.34619  0.30880  0.41889  Biso   1.000  C
  C894     1.0000 0.34619  0.30876  0.41889  Biso   1.000  C
  C895     1.0000 0.34616  0.30880  0.41889  Biso   1.000  C
  C896     1.0000 0.34616  0.30876  0.41889  Biso   1.000  C
  C897     1.0000 0.31190  0.36269  0.45571  Biso   1.000  C
  C898     1.0000 0.31186  0.36269  0.45571  Biso   1.000  C
  C899     1.0000 0.04658  0.21989  0.44414  Biso   1.000  C
  C900     1.0000 0.04662  0.21989  0.44414  Biso   1.000  C
  H662     1.0000 0.82225  0.96031  0.21970  Biso   1.000  H
  H663     1.0000 0.82225  0.96027  0.21970  Biso   1.000  H
  H664     1.0000 0.82229  0.96031  0.21970  Biso   1.000  H
  H665     1.0000 0.82229  0.96027  0.21970  Biso   1.000  H
  C901     1.0000 0.83197  0.03659  0.21820  Biso   1.000  C
  C902     1.0000 0.83197  0.03663  0.21820  Biso   1.000  C
  C903     1.0000 0.78528  0.99847  0.43089  Biso   1.000  C
  H666     1.0000 0.81835  0.95977  0.39569  Biso   1.000  H
  H667     1.0000 0.81839  0.95977  0.39569  Biso   1.000  H
  C904     1.0000 0.80438  0.08868  0.43130  Biso   1.000  C
  H668     1.0000 0.85046  0.11161  0.39640  Biso   1.000  H
  H669     1.0000 0.85050  0.11161  0.39640  Biso   1.000  H
  H670     1.0000 0.85146  0.10981  0.22159  Biso   1.000  H
  H671     1.0000 0.85146  0.10977  0.22159  Biso   1.000  H
  H672     1.0000 0.85149  0.10981  0.22159  Biso   1.000  H
  H673     1.0000 0.85149  0.10977  0.22159  Biso   1.000  H
  C905     1.0000 0.95388  0.80216  0.18601  Biso   1.000  C
  C906     1.0000 0.95388  0.80220  0.18601  Biso   1.000  C
  C907     1.0000 0.19780  0.95388  0.18601  Biso   1.000  C
  C908     1.0000 0.19776  0.95388  0.18601  Biso   1.000  C
  C909     1.0000 0.04608  0.19780  0.18601  Biso   1.000  C
  C910     1.0000 0.04608  0.19776  0.18601  Biso   1.000  C
  C911     1.0000 0.95197  0.23799  0.44501  Biso   1.000  C
  C912     1.0000 0.20129  0.48398  0.38841  Biso   1.000  C
  C913     1.0000 0.17821  0.44157  0.43911  Biso   1.000  C
  C914     1.0000 0.10702  0.46978  0.40300  Biso   1.000  C
  C915     1.0000 0.17817  0.44157  0.43911  Biso   1.000  C
  C916     1.0000 0.39109  0.58740  0.39631  Biso   1.000  C
  C917     1.0000 0.41861  0.58212  0.45120  Biso   1.000  C
  C918     1.0000 0.44950  0.65545  0.41871  Biso   1.000  C
  C919     1.0000 0.41861  0.58208  0.45120  Biso   1.000  C
  C920     1.0000 0.44950  0.65549  0.41871  Biso   1.000  C
  C921     1.0000 0.41857  0.58212  0.45120  Biso   1.000  C
  C922     1.0000 0.44946  0.65545  0.41871  Biso   1.000  C
  C923     1.0000 0.41857  0.58208  0.45120  Biso   1.000  C
  C924     1.0000 0.44946  0.65549  0.41871  Biso   1.000  C
  C925     1.0000 0.16251  0.48015  0.58559  Biso   1.000  C
  C926     1.0000 0.16251  0.48019  0.58559  Biso   1.000  C
  C927     1.0000 0.16248  0.48015  0.58559  Biso   1.000  C
  C928     1.0000 0.16248  0.48019  0.58559  Biso   1.000  C
  C929     1.0000 0.91717  0.83385  0.59479  Biso   1.000  C
  C930     1.0000 0.85988  0.80051  0.55470  Biso   1.000  C
  C931     1.0000 0.91717  0.83389  0.59479  Biso   1.000  C
  C932     1.0000 0.85988  0.80047  0.55470  Biso   1.000  C
  C933     1.0000 0.97566  0.87457  0.63600  Biso   1.000  C
  C934     1.0000 0.97570  0.87457  0.63600  Biso   1.000  C
  O408     1.0000 0.82267  0.82566  0.43328  Biso   1.000  O
  O409     1.0000 0.85586  0.77437  0.47046  Biso   1.000  O
  O410     1.0000 0.82267  0.82570  0.43328  Biso   1.000  O
  O411     1.0000 0.85590  0.77437  0.47046  Biso   1.000  O
  C935     1.0000 0.39109  0.58740  0.60369  Biso   1.000  C
  C936     1.0000 0.41861  0.58212  0.54880  Biso   1.000  C
  C937     1.0000 0.44950  0.65545  0.58129  Biso   1.000  C
  C938     1.0000 0.41861  0.58208  0.54880  Biso   1.000  C
  C939     1.0000 0.44950  0.65549  0.58129  Biso   1.000  C
  C940     1.0000 0.41857  0.58212  0.54880  Biso   1.000  C
  C941     1.0000 0.44946  0.65545  0.58129  Biso   1.000  C
  C942     1.0000 0.41857  0.58208  0.54880  Biso   1.000  C
  C943     1.0000 0.44946  0.65549  0.58129  Biso   1.000  C
  O412     1.0000 0.10411  0.93424  0.64513  Biso   1.000  O
  O413     1.0000 0.10411  0.93428  0.64513  Biso   1.000  O
  O414     1.0000 0.12041  0.01830  0.64554  Biso   1.000  O
  O415     1.0000 0.12037  0.01830  0.64554  Biso   1.000  O
  H674     1.0000 0.18161  0.04019  0.60431  Biso   1.000  H
  H675     1.0000 0.18157  0.04019  0.60431  Biso   1.000  H
  C944     1.0000 0.34619  0.30880  0.58111  Biso   1.000  C
  C945     1.0000 0.34619  0.30876  0.58111  Biso   1.000  C
  C946     1.0000 0.34616  0.30880  0.58111  Biso   1.000  C
  C947     1.0000 0.34616  0.30876  0.58111  Biso   1.000  C
  C948     1.0000 0.31190  0.36269  0.54429  Biso   1.000  C
  C949     1.0000 0.31186  0.36269  0.54429  Biso   1.000  C
  C950     1.0000 0.08279  0.16611  0.59479  Biso   1.000  C
  C951     1.0000 0.08279  0.16607  0.59479  Biso   1.000  C
  C952     1.0000 0.04658  0.21989  0.55586  Biso   1.000  C
  C953     1.0000 0.04662  0.21989  0.55586  Biso   1.000  C
  H676     1.0000 0.48639  0.11230  0.53551  Biso   1.000  H
  C954     1.0000 0.46630  0.15899  0.57011  Biso   1.000  C
  H677     1.0000 0.48636  0.11230  0.53551  Biso   1.000  H
  C955     1.0000 0.46626  0.15899  0.57011  Biso   1.000  C
  H678     1.0000 0.48639  0.11230  0.46449  Biso   1.000  H
  C956     1.0000 0.46630  0.15899  0.42989  Biso   1.000  C
  H679     1.0000 0.48636  0.11230  0.46449  Biso   1.000  H
  C957     1.0000 0.46626  0.15899  0.42989  Biso   1.000  C
  H680     1.0000 0.42638  0.20010  0.60101  Biso   1.000  H
  H681     1.0000 0.42638  0.20006  0.60101  Biso   1.000  H
  H682     1.0000 0.42638  0.20010  0.39899  Biso   1.000  H
  H683     1.0000 0.42638  0.20006  0.39899  Biso   1.000  H
  H684     1.0000 0.36659  0.30348  0.40120  Biso   1.000  H
  C958     1.0000 0.34501  0.35810  0.43330  Biso   1.000  C
  C959     1.0000 0.34501  0.35806  0.43330  Biso   1.000  C
  H685     1.0000 0.36656  0.30348  0.40120  Biso   1.000  H
  C960     1.0000 0.34497  0.35810  0.43330  Biso   1.000  C
  C961     1.0000 0.34497  0.35806  0.43330  Biso   1.000  C
  H686     1.0000 0.30769  0.39561  0.46461  Biso   1.000  H
  H687     1.0000 0.30769  0.39557  0.46461  Biso   1.000  H
  H688     1.0000 0.05060  0.24010  0.46199  Biso   1.000  H
  H689     1.0000 0.05060  0.24006  0.46199  Biso   1.000  H
  C962     1.0000 0.80216  0.04608  0.18601  Biso   1.000  C
  C963     1.0000 0.80220  0.04608  0.18601  Biso   1.000  C
  C964     1.0000 0.76197  0.95197  0.44501  Biso   1.000  C
  C965     1.0000 0.78007  0.04658  0.44414  Biso   1.000  C
  C966     1.0000 0.78007  0.04662  0.44414  Biso   1.000  C
  C967     1.0000 0.80051  0.14008  0.44530  Biso   1.000  C
  C968     1.0000 0.80047  0.14008  0.44530  Biso   1.000  C
  C969     1.0000 0.89987  0.80197  0.17560  Biso   1.000  C
  C970     1.0000 0.98607  0.83086  0.16269  Biso   1.000  C
  C971     1.0000 0.97696  0.75167  0.19420  Biso   1.000  C
  C972     1.0000 0.98607  0.83090  0.16269  Biso   1.000  C
  C973     1.0000 0.97700  0.75167  0.19420  Biso   1.000  C
  C974     1.0000 0.19799  0.89987  0.17560  Biso   1.000  C
  C975     1.0000 0.16910  0.98607  0.16269  Biso   1.000  C
  C976     1.0000 0.24829  0.97696  0.19420  Biso   1.000  C
  C977     1.0000 0.19803  0.89987  0.17560  Biso   1.000  C
  C978     1.0000 0.24829  0.97700  0.19420  Biso   1.000  C
  C979     1.0000 0.10009  0.19799  0.17560  Biso   1.000  C
  C980     1.0000 0.01389  0.16910  0.16269  Biso   1.000  C
  C981     1.0000 0.02300  0.24829  0.19420  Biso   1.000  C
  C982     1.0000 0.10009  0.19803  0.17560  Biso   1.000  C
  C983     1.0000 0.10013  0.19799  0.17560  Biso   1.000  C
  C984     1.0000 0.02296  0.24829  0.19420  Biso   1.000  C
  C985     1.0000 0.10013  0.19803  0.17560  Biso   1.000  C
  O416     1.0000 0.95985  0.26291  0.46932  Biso   1.000  O
  O417     1.0000 0.91005  0.23118  0.43342  Biso   1.000  O
  O418     1.0000 0.95985  0.26287  0.46932  Biso   1.000  O
  O419     1.0000 0.95989  0.26291  0.46932  Biso   1.000  O
  O420     1.0000 0.91009  0.23118  0.43342  Biso   1.000  O
  O421     1.0000 0.95989  0.26287  0.46932  Biso   1.000  O
  H690     1.0000 0.18360  0.49328  0.36960  Biso   1.000  H
  H691     1.0000 0.22678  0.51028  0.39330  Biso   1.000  H
  H692     1.0000 0.21851  0.45099  0.38579  Biso   1.000  H
  H693     1.0000 0.18356  0.49328  0.36960  Biso   1.000  H
  H694     1.0000 0.21847  0.45099  0.38579  Biso   1.000  H
  H695     1.0000 0.18758  0.40896  0.42950  Biso   1.000  H
  H696     1.0000 0.14950  0.43606  0.45311  Biso   1.000  H
  H697     1.0000 0.18758  0.40900  0.42950  Biso   1.000  H
  H698     1.0000 0.14950  0.43610  0.45311  Biso   1.000  H
  H699     1.0000 0.20760  0.45497  0.45049  Biso   1.000  H
  H700     1.0000 0.20760  0.45501  0.45049  Biso   1.000  H
  H701     1.0000 0.20756  0.45497  0.45049  Biso   1.000  H
  H702     1.0000 0.20756  0.45501  0.45049  Biso   1.000  H
  H703     1.0000 0.08248  0.47908  0.41889  Biso   1.000  H
  H704     1.0000 0.10330  0.43338  0.39799  Biso   1.000  H
  H705     1.0000 0.10039  0.49026  0.38470  Biso   1.000  H
  H706     1.0000 0.10039  0.49030  0.38470  Biso   1.000  H
  H707     1.0000 0.10326  0.43338  0.39799  Biso   1.000  H
  H708     1.0000 0.39400  0.60830  0.37791  Biso   1.000  H
  H709     1.0000 0.41478  0.55843  0.39501  Biso   1.000  H
  H710     1.0000 0.35588  0.57465  0.39831  Biso   1.000  H
  H711     1.0000 0.41478  0.55839  0.39501  Biso   1.000  H
  H712     1.0000 0.35588  0.57469  0.39831  Biso   1.000  H
  H713     1.0000 0.39396  0.60830  0.37791  Biso   1.000  H
  H714     1.0000 0.44039  0.60060  0.46570  Biso   1.000  H
  H715     1.0000 0.43698  0.55211  0.44350  Biso   1.000  H
  H716     1.0000 0.43698  0.55207  0.44350  Biso   1.000  H
  H717     1.0000 0.38719  0.57102  0.46149  Biso   1.000  H
  H718     1.0000 0.38719  0.57098  0.46149  Biso   1.000  H
  H719     1.0000 0.38722  0.57102  0.46149  Biso   1.000  H
  H720     1.0000 0.38722  0.57098  0.46149  Biso   1.000  H
  H721     1.0000 0.43989  0.68228  0.40409  Biso   1.000  H
  H722     1.0000 0.47870  0.63620  0.41070  Biso   1.000  H
  H723     1.0000 0.45868  0.67122  0.43820  Biso   1.000  H
  H724     1.0000 0.45868  0.67118  0.43820  Biso   1.000  H
  H725     1.0000 0.47866  0.63620  0.41070  Biso   1.000  H
  C986     1.0000 0.17821  0.44157  0.56089  Biso   1.000  C
  C987     1.0000 0.10702  0.46978  0.59700  Biso   1.000  C
  C988     1.0000 0.20129  0.48398  0.61159  Biso   1.000  C
  C989     1.0000 0.17817  0.44157  0.56089  Biso   1.000  C
  H726     1.0000 0.88835  0.85046  0.60360  Biso   1.000  H
  H727     1.0000 0.88835  0.85050  0.60360  Biso   1.000  H
  H728     1.0000 0.88839  0.85046  0.60360  Biso   1.000  H
  H729     1.0000 0.88839  0.85050  0.60360  Biso   1.000  H
  O422     1.0000 0.82267  0.82566  0.56672  Biso   1.000  O
  O423     1.0000 0.85586  0.77437  0.52954  Biso   1.000  O
  O424     1.0000 0.82267  0.82570  0.56672  Biso   1.000  O
  O425     1.0000 0.85590  0.77437  0.52954  Biso   1.000  O
  O426     1.0000 0.01830  0.87955  0.64554  Biso   1.000  O
  O427     1.0000 0.01830  0.87959  0.64554  Biso   1.000  O
  O428     1.0000 0.93424  0.89585  0.64513  Biso   1.000  O
  O429     1.0000 0.93424  0.89589  0.64513  Biso   1.000  O
  O430     1.0000 0.93428  0.89585  0.64513  Biso   1.000  O
  O431     1.0000 0.93428  0.89589  0.64513  Biso   1.000  O
  Mg91     1.0000 0.75458  0.84013  0.45131  Biso   1.000  Mg
  Mg92     1.0000 0.75462  0.84013  0.45131  Biso   1.000  Mg
  Mg93     1.0000 0.79883  0.77142  0.50001  Biso   1.000  Mg
  Mg94     1.0000 0.79883  0.77146  0.50001  Biso   1.000  Mg
  Mg95     1.0000 0.79887  0.77142  0.50001  Biso   1.000  Mg
  Mg96     1.0000 0.79887  0.77146  0.50001  Biso   1.000  Mg
  H730     1.0000 0.39400  0.60830  0.62209  Biso   1.000  H
  H731     1.0000 0.41478  0.55843  0.60499  Biso   1.000  H
  H732     1.0000 0.35588  0.57465  0.60169  Biso   1.000  H
  H733     1.0000 0.41478  0.55839  0.60499  Biso   1.000  H
  H734     1.0000 0.35588  0.57469  0.60169  Biso   1.000  H
  H735     1.0000 0.39396  0.60830  0.62209  Biso   1.000  H
  H736     1.0000 0.44039  0.60060  0.53430  Biso   1.000  H
  H737     1.0000 0.43698  0.55211  0.55650  Biso   1.000  H
  H738     1.0000 0.43698  0.55207  0.55650  Biso   1.000  H
  H739     1.0000 0.38719  0.57102  0.53851  Biso   1.000  H
  H740     1.0000 0.38719  0.57098  0.53851  Biso   1.000  H
  H741     1.0000 0.38722  0.57102  0.53851  Biso   1.000  H
  H742     1.0000 0.38722  0.57098  0.53851  Biso   1.000  H
  H743     1.0000 0.43989  0.68228  0.59591  Biso   1.000  H
  H744     1.0000 0.47870  0.63620  0.58930  Biso   1.000  H
  H745     1.0000 0.45868  0.67122  0.56180  Biso   1.000  H
  H746     1.0000 0.45868  0.67118  0.56180  Biso   1.000  H
  H747     1.0000 0.47866  0.63620  0.58930  Biso   1.000  H
  Mg97     1.0000 0.04444  0.93126  0.67489  Biso   1.000  Mg
  Mg98     1.0000 0.04440  0.93126  0.67489  Biso   1.000  Mg
  Mg99     1.0000 0.06874  0.04444  0.67489  Biso   1.000  Mg
  Mg100    1.0000 0.06874  0.04440  0.67489  Biso   1.000  Mg
  Mg101    1.0000 0.06870  0.04444  0.67489  Biso   1.000  Mg
  Mg102    1.0000 0.06870  0.04440  0.67489  Biso   1.000  Mg
  H748     1.0000 0.36659  0.30348  0.59880  Biso   1.000  H
  C990     1.0000 0.34501  0.35810  0.56670  Biso   1.000  C
  C991     1.0000 0.34501  0.35806  0.56670  Biso   1.000  C
  H749     1.0000 0.36656  0.30348  0.59880  Biso   1.000  H
  C992     1.0000 0.34497  0.35810  0.56670  Biso   1.000  C
  C993     1.0000 0.34497  0.35806  0.56670  Biso   1.000  C
  H750     1.0000 0.30769  0.39561  0.53539  Biso   1.000  H
  H751     1.0000 0.30769  0.39557  0.53539  Biso   1.000  H
  C994     1.0000 0.03472  0.16091  0.60804  Biso   1.000  C
  C995     1.0000 0.03472  0.16087  0.60804  Biso   1.000  C
  H752     1.0000 0.11161  0.14950  0.60360  Biso   1.000  H
  C996     1.0000 0.99847  0.21468  0.56911  Biso   1.000  C
  C997     1.0000 0.99847  0.21472  0.56911  Biso   1.000  C
  H753     1.0000 0.05060  0.24010  0.53801  Biso   1.000  H
  H754     1.0000 0.05060  0.24006  0.53801  Biso   1.000  H
  C998     1.0000 0.51981  0.16251  0.58559  Biso   1.000  C
  C999     1.0000 0.51981  0.16248  0.58559  Biso   1.000  C
  C1000    1.0000 0.51977  0.16251  0.58559  Biso   1.000  C
  C1001    1.0000 0.51977  0.16248  0.58559  Biso   1.000  C
  C1002    1.0000 0.51981  0.16251  0.41441  Biso   1.000  C
  C1003    1.0000 0.51981  0.16248  0.41441  Biso   1.000  C
  C1004    1.0000 0.51977  0.16251  0.41441  Biso   1.000  C
  C1005    1.0000 0.51977  0.16248  0.41441  Biso   1.000  C
  C1006    1.0000 0.38091  0.40399  0.42340  Biso   1.000  C
  C1007    1.0000 0.80197  0.10009  0.17560  Biso   1.000  C
  C1008    1.0000 0.83086  0.01389  0.16269  Biso   1.000  C
  C1009    1.0000 0.75167  0.02300  0.19420  Biso   1.000  C
  C1010    1.0000 0.80197  0.10013  0.17560  Biso   1.000  C
  C1011    1.0000 0.75167  0.02296  0.19420  Biso   1.000  C
  C1012    1.0000 0.83090  0.01389  0.16269  Biso   1.000  C
  O432     1.0000 0.76878  0.91005  0.43342  Biso   1.000  O
  O433     1.0000 0.76878  0.91009  0.43342  Biso   1.000  O
  O434     1.0000 0.73709  0.95985  0.46932  Biso   1.000  O
  O435     1.0000 0.73709  0.95989  0.46932  Biso   1.000  O
  H755     1.0000 0.75990  0.05060  0.46199  Biso   1.000  H
  O436     1.0000 0.82566  0.17729  0.43328  Biso   1.000  O
  O437     1.0000 0.77437  0.14410  0.47046  Biso   1.000  O
  O438     1.0000 0.77437  0.14407  0.47046  Biso   1.000  O
  O439     1.0000 0.82570  0.17729  0.43328  Biso   1.000  O
  H756     1.0000 0.89796  0.78830  0.15491  Biso   1.000  H
  H757     1.0000 0.87940  0.78038  0.18931  Biso   1.000  H
  H758     1.0000 0.88636  0.83695  0.17590  Biso   1.000  H
  H759     1.0000 0.88636  0.83699  0.17590  Biso   1.000  H
  H760     1.0000 0.89800  0.78830  0.15491  Biso   1.000  H
  H761     1.0000 0.88640  0.83695  0.17590  Biso   1.000  H
  H762     1.0000 0.88640  0.83699  0.17590  Biso   1.000  H
  H763     1.0000 0.98098  0.86776  0.16520  Biso   1.000  H
  H764     1.0000 0.97558  0.82076  0.14209  Biso   1.000  H
  H765     1.0000 0.98098  0.86780  0.16520  Biso   1.000  H
  H766     1.0000 0.97558  0.82080  0.14209  Biso   1.000  H
  H767     1.0000 0.02231  0.82256  0.16570  Biso   1.000  H
  H768     1.0000 0.02231  0.82260  0.16570  Biso   1.000  H
  H769     1.0000 0.02228  0.82256  0.16570  Biso   1.000  H
  H770     1.0000 0.02228  0.82260  0.16570  Biso   1.000  H
  H771     1.0000 0.00819  0.74628  0.18221  Biso   1.000  H
  H772     1.0000 0.00823  0.74628  0.18221  Biso   1.000  H
  H773     1.0000 0.98546  0.75137  0.21590  Biso   1.000  H
  H774     1.0000 0.95250  0.72427  0.18981  Biso   1.000  H
  H775     1.0000 0.98549  0.75137  0.21590  Biso   1.000  H
  H776     1.0000 0.95246  0.72427  0.18981  Biso   1.000  H
  H777     1.0000 0.21958  0.87940  0.18931  Biso   1.000  H
  H778     1.0000 0.16301  0.88636  0.17590  Biso   1.000  H
  H779     1.0000 0.16301  0.88640  0.17590  Biso   1.000  H
  H780     1.0000 0.21170  0.89796  0.15491  Biso   1.000  H
  H781     1.0000 0.21170  0.89800  0.15491  Biso   1.000  H
  H782     1.0000 0.21166  0.89796  0.15491  Biso   1.000  H
  H783     1.0000 0.21166  0.89800  0.15491  Biso   1.000  H
  H784     1.0000 0.13220  0.98098  0.16520  Biso   1.000  H
  H785     1.0000 0.17920  0.97558  0.14209  Biso   1.000  H
  H786     1.0000 0.13216  0.98098  0.16520  Biso   1.000  H
  H787     1.0000 0.17916  0.97558  0.14209  Biso   1.000  H
  H788     1.0000 0.17740  0.02231  0.16570  Biso   1.000  H
  H789     1.0000 0.17740  0.02228  0.16570  Biso   1.000  H
  H790     1.0000 0.17736  0.02231  0.16570  Biso   1.000  H
  H791     1.0000 0.17736  0.02228  0.16570  Biso   1.000  H
  H792     1.0000 0.24859  0.98546  0.21590  Biso   1.000  H
  H793     1.0000 0.27569  0.95250  0.18981  Biso   1.000  H
  H794     1.0000 0.24859  0.98549  0.21590  Biso   1.000  H
  H795     1.0000 0.27569  0.95246  0.18981  Biso   1.000  H
  H796     1.0000 0.25368  0.00819  0.18221  Biso   1.000  H
  H797     1.0000 0.25368  0.00823  0.18221  Biso   1.000  H
  H798     1.0000 0.10200  0.21170  0.15491  Biso   1.000  H
  H799     1.0000 0.12060  0.21958  0.18931  Biso   1.000  H
  H800     1.0000 0.11360  0.16301  0.17590  Biso   1.000  H
  H801     1.0000 0.10200  0.21166  0.15491  Biso   1.000  H
  H802     1.0000 0.12056  0.21958  0.18931  Biso   1.000  H
  H803     1.0000 0.11356  0.16301  0.17590  Biso   1.000  H
  H804     1.0000 0.97765  0.17740  0.16570  Biso   1.000  H
  H805     1.0000 0.97765  0.17736  0.16570  Biso   1.000  H
  H806     1.0000 0.97769  0.17740  0.16570  Biso   1.000  H
  H807     1.0000 0.97769  0.17736  0.16570  Biso   1.000  H
  H808     1.0000 0.01898  0.13220  0.16520  Biso   1.000  H
  H809     1.0000 0.02438  0.17920  0.14209  Biso   1.000  H
  H810     1.0000 0.01898  0.13216  0.16520  Biso   1.000  H
  H811     1.0000 0.02438  0.17916  0.14209  Biso   1.000  H
  H812     1.0000 0.01902  0.13220  0.16520  Biso   1.000  H
  H813     1.0000 0.01902  0.13216  0.16520  Biso   1.000  H
  H814     1.0000 0.99177  0.25368  0.18221  Biso   1.000  H
  H815     1.0000 0.01451  0.24859  0.21590  Biso   1.000  H
  H816     1.0000 0.04750  0.27569  0.18981  Biso   1.000  H
  H817     1.0000 0.01447  0.24859  0.21590  Biso   1.000  H
  Mg103    1.0000 0.90883  0.29024  0.50001  Biso   1.000  Mg
  Mg104    1.0000 0.84013  0.24538  0.45131  Biso   1.000  Mg
  Mg105    1.0000 0.84013  0.24534  0.45131  Biso   1.000  Mg
  H818     1.0000 0.18758  0.40896  0.57050  Biso   1.000  H
  H819     1.0000 0.14950  0.43606  0.54689  Biso   1.000  H
  H820     1.0000 0.18758  0.40900  0.57050  Biso   1.000  H
  H821     1.0000 0.14950  0.43610  0.54689  Biso   1.000  H
  H822     1.0000 0.20760  0.45497  0.54951  Biso   1.000  H
  H823     1.0000 0.20760  0.45501  0.54951  Biso   1.000  H
  H824     1.0000 0.20756  0.45497  0.54951  Biso   1.000  H
  H825     1.0000 0.20756  0.45501  0.54951  Biso   1.000  H
  H826     1.0000 0.08248  0.47908  0.58111  Biso   1.000  H
  H827     1.0000 0.10330  0.43338  0.60201  Biso   1.000  H
  H828     1.0000 0.10039  0.49026  0.61530  Biso   1.000  H
  H829     1.0000 0.10039  0.49030  0.61530  Biso   1.000  H
  H830     1.0000 0.10326  0.43338  0.60201  Biso   1.000  H
  H831     1.0000 0.18360  0.49328  0.63040  Biso   1.000  H
  H832     1.0000 0.22678  0.51028  0.60670  Biso   1.000  H
  H833     1.0000 0.21851  0.45099  0.61421  Biso   1.000  H
  H834     1.0000 0.18356  0.49328  0.63040  Biso   1.000  H
  H835     1.0000 0.21847  0.45099  0.61421  Biso   1.000  H
  Mg106    1.0000 0.75458  0.84013  0.54869  Biso   1.000  Mg
  Mg107    1.0000 0.75462  0.84013  0.54869  Biso   1.000  Mg
  Mg108    1.0000 0.93126  0.95552  0.67489  Biso   1.000  Mg
  Mg109    1.0000 0.93126  0.95556  0.67489  Biso   1.000  Mg
  Mg110    1.0000 0.70973  0.90883  0.50001  Biso   1.000  Mg
  O440     1.0000 0.77296  0.85115  0.50001  Biso   1.000  O
  O441     1.0000 0.77296  0.85119  0.50001  Biso   1.000  O
  O442     1.0000 0.77299  0.85115  0.50001  Biso   1.000  O
  O443     1.0000 0.77299  0.85119  0.50001  Biso   1.000  O
  O444     1.0000 0.74207  0.76538  0.46618  Biso   1.000  O
  O445     1.0000 0.68217  0.86118  0.46604  Biso   1.000  O
  O446     1.0000 0.72098  0.81896  0.41097  Biso   1.000  O
  O447     1.0000 0.72098  0.81900  0.41097  Biso   1.000  O
  O448     1.0000 0.74207  0.76538  0.53382  Biso   1.000  O
  O449     1.0000 0.80055  0.69392  0.50001  Biso   1.000  O
  O450     1.0000 0.80055  0.69388  0.50001  Biso   1.000  O
  O451     1.0000 0.80059  0.69392  0.50001  Biso   1.000  O
  O452     1.0000 0.80059  0.69388  0.50001  Biso   1.000  O
  O453     1.0000 0.08149  0.87465  0.69968  Biso   1.000  O
  O454     1.0000 0.08149  0.87469  0.69968  Biso   1.000  O
  O455     1.0000 0.98316  0.92165  0.70503  Biso   1.000  O
  O456     1.0000 0.98316  0.92169  0.70503  Biso   1.000  O
  O457     1.0000 0.98320  0.92165  0.70503  Biso   1.000  O
  O458     1.0000 0.98320  0.92169  0.70503  Biso   1.000  O
  O459     1.0000 0.07831  0.98316  0.70503  Biso   1.000  O
  O460     1.0000 0.07831  0.98320  0.70503  Biso   1.000  O
  O461     1.0000 0.07827  0.98316  0.70503  Biso   1.000  O
  O462     1.0000 0.07827  0.98320  0.70503  Biso   1.000  O
  O463     1.0000 0.00000  1.00000  0.66150  Biso   1.000  O
  Mg111    1.0000 0.95552  0.06874  0.67489  Biso   1.000  Mg
  Mg112    1.0000 0.95552  0.06870  0.67489  Biso   1.000  Mg
  Mg113    1.0000 0.95556  0.06874  0.67489  Biso   1.000  Mg
  Mg114    1.0000 0.95556  0.06870  0.67489  Biso   1.000  Mg
  O464     1.0000 0.01680  0.07831  0.70503  Biso   1.000  O
  O465     1.0000 0.12531  0.08149  0.69968  Biso   1.000  O
  O466     1.0000 0.06572  0.10411  0.64513  Biso   1.000  O
  O467     1.0000 0.01680  0.07827  0.70503  Biso   1.000  O
  O468     1.0000 0.12527  0.08149  0.69968  Biso   1.000  O
  O469     1.0000 0.06568  0.10411  0.64513  Biso   1.000  O
  C1013    1.0000 0.38091  0.40399  0.57660  Biso   1.000  C
  C1014    1.0000 0.02430  0.12539  0.63600  Biso   1.000  C
  C1015    1.0000 0.99257  0.18521  0.59520  Biso   1.000  C
  C1016    1.0000 0.99257  0.18517  0.59520  Biso   1.000  C
  C1017    1.0000 0.99261  0.18521  0.59520  Biso   1.000  C
  C1018    1.0000 0.99261  0.18517  0.59520  Biso   1.000  C
  C1019    1.0000 0.95197  0.23799  0.55499  Biso   1.000  C
  C1020    1.0000 0.55839  0.17821  0.56089  Biso   1.000  C
  C1021    1.0000 0.53018  0.10702  0.59700  Biso   1.000  C
  C1022    1.0000 0.51598  0.20129  0.61159  Biso   1.000  C
  C1023    1.0000 0.55839  0.17817  0.56089  Biso   1.000  C
  C1024    1.0000 0.55839  0.17821  0.43911  Biso   1.000  C
  C1025    1.0000 0.53018  0.10702  0.40300  Biso   1.000  C
  C1026    1.0000 0.51598  0.20129  0.38841  Biso   1.000  C
  C1027    1.0000 0.55839  0.17817  0.43911  Biso   1.000  C
  C1028    1.0000 0.41260  0.39109  0.39631  Biso   1.000  C
  C1029    1.0000 0.41788  0.41861  0.45120  Biso   1.000  C
  C1030    1.0000 0.34451  0.44950  0.41871  Biso   1.000  C
  C1031    1.0000 0.41788  0.41857  0.45120  Biso   1.000  C
  C1032    1.0000 0.34451  0.44946  0.41871  Biso   1.000  C
  C1033    1.0000 0.41256  0.39109  0.39631  Biso   1.000  C
  H836     1.0000 0.78830  0.10200  0.15491  Biso   1.000  H
  H837     1.0000 0.78038  0.12060  0.18931  Biso   1.000  H
  H838     1.0000 0.83695  0.11360  0.17590  Biso   1.000  H
  H839     1.0000 0.78038  0.12056  0.18931  Biso   1.000  H
  H840     1.0000 0.83695  0.11356  0.17590  Biso   1.000  H
  H841     1.0000 0.83699  0.11360  0.17590  Biso   1.000  H
  H842     1.0000 0.83699  0.11356  0.17590  Biso   1.000  H
  H843     1.0000 0.82256  0.97765  0.16570  Biso   1.000  H
  H844     1.0000 0.82256  0.97769  0.16570  Biso   1.000  H
  H845     1.0000 0.82260  0.97765  0.16570  Biso   1.000  H
  H846     1.0000 0.82260  0.97769  0.16570  Biso   1.000  H
  H847     1.0000 0.86776  0.01898  0.16520  Biso   1.000  H
  H848     1.0000 0.82076  0.02438  0.14209  Biso   1.000  H
  H849     1.0000 0.86776  0.01902  0.16520  Biso   1.000  H
  H850     1.0000 0.86780  0.01898  0.16520  Biso   1.000  H
  H851     1.0000 0.82080  0.02438  0.14209  Biso   1.000  H
  H852     1.0000 0.86780  0.01902  0.16520  Biso   1.000  H
  H853     1.0000 0.74628  0.99177  0.18221  Biso   1.000  H
  H854     1.0000 0.75137  0.01451  0.21590  Biso   1.000  H
  H855     1.0000 0.72427  0.04750  0.18981  Biso   1.000  H
  H856     1.0000 0.75137  0.01447  0.21590  Biso   1.000  H
  Mg115    1.0000 0.77142  0.20113  0.50001  Biso   1.000  Mg
  Mg116    1.0000 0.77142  0.20109  0.50001  Biso   1.000  Mg
  Mg117    1.0000 0.77146  0.20113  0.50001  Biso   1.000  Mg
  Mg118    1.0000 0.77146  0.20109  0.50001  Biso   1.000  Mg
  Mg119    1.0000 0.84013  0.24538  0.54869  Biso   1.000  Mg
  Mg120    1.0000 0.84013  0.24534  0.54869  Biso   1.000  Mg
  O470     1.0000 0.95985  0.26291  0.53068  Biso   1.000  O
  O471     1.0000 0.95985  0.26287  0.53068  Biso   1.000  O
  O472     1.0000 0.95989  0.26291  0.53068  Biso   1.000  O
  O473     1.0000 0.95989  0.26287  0.53068  Biso   1.000  O
  O474     1.0000 0.85115  0.22701  0.50001  Biso   1.000  O
  O475     1.0000 0.86118  0.31779  0.53396  Biso   1.000  O
  O476     1.0000 0.85119  0.22701  0.50001  Biso   1.000  O
  O477     1.0000 0.86118  0.31779  0.46604  Biso   1.000  O
  O478     1.0000 0.94297  0.35898  0.50001  Biso   1.000  O
  O479     1.0000 0.76538  0.25789  0.46618  Biso   1.000  O
  O480     1.0000 0.81896  0.27898  0.41097  Biso   1.000  O
  O481     1.0000 0.81900  0.27898  0.41097  Biso   1.000  O
  O482     1.0000 0.68217  0.86118  0.53396  Biso   1.000  O
  O483     1.0000 0.72098  0.81896  0.58903  Biso   1.000  O
  O484     1.0000 0.76878  0.91005  0.56658  Biso   1.000  O
  O485     1.0000 0.72098  0.81900  0.58903  Biso   1.000  O
  O486     1.0000 0.76878  0.91009  0.56658  Biso   1.000  O
  O487     1.0000 0.87465  0.91848  0.69968  Biso   1.000  O
  O488     1.0000 0.87955  0.98167  0.64554  Biso   1.000  O
  O489     1.0000 0.87469  0.91848  0.69968  Biso   1.000  O
  O490     1.0000 0.87959  0.98167  0.64554  Biso   1.000  O
  O491     1.0000 0.92165  0.01680  0.70503  Biso   1.000  O
  O492     1.0000 0.92169  0.01680  0.70503  Biso   1.000  O
  O493     1.0000 0.64098  0.94297  0.50001  Biso   1.000  O
  O494     1.0000 0.73709  0.95985  0.53068  Biso   1.000  O
  O495     1.0000 0.73709  0.95989  0.53068  Biso   1.000  O
  C1034    1.0000 0.71642  0.72768  0.45530  Biso   1.000  C
  C1035    1.0000 0.71639  0.72768  0.45530  Biso   1.000  C
  C1036    1.0000 0.63628  0.85467  0.45521  Biso   1.000  C
  S94      1.0000 0.67367  0.78953  0.40999  Biso   1.000  S
  S95      1.0000 0.67367  0.78949  0.40999  Biso   1.000  S
  S96      1.0000 0.67363  0.78953  0.40999  Biso   1.000  S
  S97      1.0000 0.67363  0.78949  0.40999  Biso   1.000  S
  C1037    1.0000 0.71642  0.72768  0.54470  Biso   1.000  C
  C1038    1.0000 0.71639  0.72768  0.54470  Biso   1.000  C
  S98      1.0000 0.75477  0.66131  0.50001  Biso   1.000  S
  S99      1.0000 0.75481  0.66131  0.50001  Biso   1.000  S
  S100     1.0000 0.08263  0.87274  0.73176  Biso   1.000  S
  S101     1.0000 0.08263  0.87278  0.73176  Biso   1.000  S
  C1039    1.0000 0.97895  0.89398  0.73010  Biso   1.000  C
  C1040    1.0000 0.97899  0.89398  0.73010  Biso   1.000  C
  C1041    1.0000 0.10598  0.97895  0.73010  Biso   1.000  C
  C1042    1.0000 0.10598  0.97899  0.73010  Biso   1.000  C
  O496     1.0000 0.91848  0.12531  0.69968  Biso   1.000  O
  O497     1.0000 0.98167  0.12041  0.64554  Biso   1.000  O
  O498     1.0000 0.89585  0.06572  0.64513  Biso   1.000  O
  O499     1.0000 0.91848  0.12527  0.69968  Biso   1.000  O
  O500     1.0000 0.98167  0.12037  0.64554  Biso   1.000  O
  O501     1.0000 0.89585  0.06568  0.64513  Biso   1.000  O
  O502     1.0000 0.89589  0.06572  0.64513  Biso   1.000  O
  O503     1.0000 0.89589  0.06568  0.64513  Biso   1.000  O
  C1043    1.0000 0.02101  0.10598  0.73010  Biso   1.000  C
  C1044    1.0000 0.02097  0.10598  0.73010  Biso   1.000  C
  S102     1.0000 0.12722  0.08263  0.73176  Biso   1.000  S
  S103     1.0000 0.12719  0.08263  0.73176  Biso   1.000  S
  C1045    1.0000 0.41260  0.39109  0.60369  Biso   1.000  C
  C1046    1.0000 0.41788  0.41861  0.54880  Biso   1.000  C
  C1047    1.0000 0.34451  0.44950  0.58129  Biso   1.000  C
  C1048    1.0000 0.41788  0.41857  0.54880  Biso   1.000  C
  C1049    1.0000 0.34451  0.44946  0.58129  Biso   1.000  C
  C1050    1.0000 0.41256  0.39109  0.60369  Biso   1.000  C
  H857     1.0000 0.95977  0.18161  0.60431  Biso   1.000  H
  H858     1.0000 0.95977  0.18157  0.60431  Biso   1.000  H
  O504     1.0000 0.91005  0.23118  0.56658  Biso   1.000  O
  O505     1.0000 0.91009  0.23118  0.56658  Biso   1.000  O
  H859     1.0000 0.59100  0.18758  0.57050  Biso   1.000  H
  H860     1.0000 0.54499  0.20760  0.54951  Biso   1.000  H
  H861     1.0000 0.56390  0.14950  0.54689  Biso   1.000  H
  H862     1.0000 0.54499  0.20756  0.54951  Biso   1.000  H
  H863     1.0000 0.59096  0.18758  0.57050  Biso   1.000  H
  H864     1.0000 0.52088  0.08248  0.58111  Biso   1.000  H
  H865     1.0000 0.50970  0.10039  0.61530  Biso   1.000  H
  H866     1.0000 0.56658  0.10330  0.60201  Biso   1.000  H
  H867     1.0000 0.56658  0.10326  0.60201  Biso   1.000  H
  H868     1.0000 0.50966  0.10039  0.61530  Biso   1.000  H
  H869     1.0000 0.50668  0.18360  0.63040  Biso   1.000  H
  H870     1.0000 0.48969  0.22678  0.60670  Biso   1.000  H
  H871     1.0000 0.54897  0.21851  0.61421  Biso   1.000  H
  H872     1.0000 0.50668  0.18356  0.63040  Biso   1.000  H
  H873     1.0000 0.54897  0.21847  0.61421  Biso   1.000  H
  H874     1.0000 0.59100  0.18758  0.42950  Biso   1.000  H
  H875     1.0000 0.54499  0.20760  0.45049  Biso   1.000  H
  H876     1.0000 0.56390  0.14950  0.45311  Biso   1.000  H
  H877     1.0000 0.54499  0.20756  0.45049  Biso   1.000  H
  H878     1.0000 0.59096  0.18758  0.42950  Biso   1.000  H
  H879     1.0000 0.52088  0.08248  0.41889  Biso   1.000  H
  H880     1.0000 0.50970  0.10039  0.38470  Biso   1.000  H
  H881     1.0000 0.56658  0.10330  0.39799  Biso   1.000  H
  H882     1.0000 0.56658  0.10326  0.39799  Biso   1.000  H
  H883     1.0000 0.50966  0.10039  0.38470  Biso   1.000  H
  H884     1.0000 0.50668  0.18360  0.36960  Biso   1.000  H
  H885     1.0000 0.48969  0.22678  0.39330  Biso   1.000  H
  H886     1.0000 0.54897  0.21851  0.38579  Biso   1.000  H
  H887     1.0000 0.50668  0.18356  0.36960  Biso   1.000  H
  H888     1.0000 0.54897  0.21847  0.38579  Biso   1.000  H
  H889     1.0000 0.44157  0.41478  0.39501  Biso   1.000  H
  H890     1.0000 0.42531  0.35588  0.39831  Biso   1.000  H
  H891     1.0000 0.39170  0.39400  0.37791  Biso   1.000  H
  H892     1.0000 0.39170  0.39396  0.37791  Biso   1.000  H
  H893     1.0000 0.42527  0.35588  0.39831  Biso   1.000  H
  H894     1.0000 0.39166  0.39400  0.37791  Biso   1.000  H
  H895     1.0000 0.39166  0.39396  0.37791  Biso   1.000  H
  H896     1.0000 0.44789  0.43698  0.44350  Biso   1.000  H
  H897     1.0000 0.39940  0.44039  0.46570  Biso   1.000  H
  H898     1.0000 0.42898  0.38719  0.46149  Biso   1.000  H
  H899     1.0000 0.42898  0.38722  0.46149  Biso   1.000  H
  H900     1.0000 0.39936  0.44039  0.46570  Biso   1.000  H
  H901     1.0000 0.31768  0.43989  0.40409  Biso   1.000  H
  H902     1.0000 0.32878  0.45868  0.43820  Biso   1.000  H
  H903     1.0000 0.36380  0.47870  0.41070  Biso   1.000  H
  H904     1.0000 0.36380  0.47866  0.41070  Biso   1.000  H
  H905     1.0000 0.36376  0.47870  0.41070  Biso   1.000  H
  H906     1.0000 0.36376  0.47866  0.41070  Biso   1.000  H
  O506     1.0000 0.77437  0.14410  0.52954  Biso   1.000  O
  O507     1.0000 0.77437  0.14407  0.52954  Biso   1.000  O
  O508     1.0000 0.76538  0.25789  0.53382  Biso   1.000  O
  O509     1.0000 0.69392  0.19941  0.50001  Biso   1.000  O
  O510     1.0000 0.69392  0.19937  0.50001  Biso   1.000  O
  O511     1.0000 0.69388  0.19941  0.50001  Biso   1.000  O
  O512     1.0000 0.69388  0.19937  0.50001  Biso   1.000  O
  O513     1.0000 0.82566  0.17729  0.56672  Biso   1.000  O
  O514     1.0000 0.82570  0.17729  0.56672  Biso   1.000  O
  O515     1.0000 0.81896  0.27898  0.58903  Biso   1.000  O
  O516     1.0000 0.81900  0.27898  0.58903  Biso   1.000  O
  C1051    1.0000 0.85467  0.36369  0.54479  Biso   1.000  C
  C1052    1.0000 0.85467  0.36369  0.45521  Biso   1.000  C
  S104     1.0000 0.91648  0.40739  0.50001  Biso   1.000  S
  S105     1.0000 0.91648  0.40743  0.50001  Biso   1.000  S
  C1053    1.0000 0.72768  0.28358  0.45530  Biso   1.000  C
  S106     1.0000 0.78953  0.32633  0.40999  Biso   1.000  S
  S107     1.0000 0.78949  0.32633  0.40999  Biso   1.000  S
  C1054    1.0000 0.63628  0.85467  0.54479  Biso   1.000  C
  S108     1.0000 0.67367  0.78953  0.59001  Biso   1.000  S
  S109     1.0000 0.67367  0.78949  0.59001  Biso   1.000  S
  S110     1.0000 0.67363  0.78953  0.59001  Biso   1.000  S
  S111     1.0000 0.67363  0.78949  0.59001  Biso   1.000  S
  C1055    1.0000 0.76197  0.95197  0.55499  Biso   1.000  C
  S112     1.0000 0.87274  0.91733  0.73176  Biso   1.000  S
  S113     1.0000 0.87274  0.91737  0.73176  Biso   1.000  S
  S114     1.0000 0.87278  0.91733  0.73176  Biso   1.000  S
  S115     1.0000 0.87278  0.91737  0.73176  Biso   1.000  S
  C1056    1.0000 0.87457  0.02430  0.63600  Biso   1.000  C
  C1057    1.0000 0.89398  0.02101  0.73010  Biso   1.000  C
  C1058    1.0000 0.89398  0.02097  0.73010  Biso   1.000  C
  S116     1.0000 0.59257  0.91648  0.50001  Biso   1.000  S
  C1059    1.0000 0.71838  0.67849  0.46750  Biso   1.000  C
  C1060    1.0000 0.68301  0.73135  0.43100  Biso   1.000  C
  C1061    1.0000 0.68301  0.73139  0.43100  Biso   1.000  C
  C1062    1.0000 0.68297  0.73135  0.43100  Biso   1.000  C
  C1063    1.0000 0.68297  0.73139  0.43100  Biso   1.000  C
  C1064    1.0000 0.58912  0.87626  0.46841  Biso   1.000  C
  C1065    1.0000 0.62499  0.82187  0.42921  Biso   1.000  C
  C1066    1.0000 0.58912  0.87630  0.46841  Biso   1.000  C
  C1067    1.0000 0.58908  0.87626  0.46841  Biso   1.000  C
  C1068    1.0000 0.58908  0.87630  0.46841  Biso   1.000  C
  O517     1.0000 0.65450  0.77548  0.38026  Biso   1.000  O
  C1069    1.0000 0.68301  0.73135  0.56900  Biso   1.000  C
  C1070    1.0000 0.68301  0.73139  0.56900  Biso   1.000  C
  C1071    1.0000 0.68297  0.73135  0.56900  Biso   1.000  C
  C1072    1.0000 0.68297  0.73139  0.56900  Biso   1.000  C
  C1073    1.0000 0.71838  0.67849  0.53250  Biso   1.000  C
  O518     1.0000 0.76247  0.60780  0.50001  Biso   1.000  O
  O519     1.0000 0.10981  0.83117  0.74462  Biso   1.000  O
  C1074    1.0000 0.02009  0.87040  0.74439  Biso   1.000  C
  C1075    1.0000 0.11012  0.92946  0.74519  Biso   1.000  C
  O520     1.0000 0.10977  0.83117  0.74462  Biso   1.000  O
  C1076    1.0000 0.02013  0.87040  0.74439  Biso   1.000  C
  C1077    1.0000 0.11012  0.92950  0.74519  Biso   1.000  C
  C1078    1.0000 0.92946  0.88988  0.74519  Biso   1.000  C
  C1079    1.0000 0.92950  0.88988  0.74519  Biso   1.000  C
  C1080    1.0000 0.12960  0.02009  0.74439  Biso   1.000  C
  C1081    1.0000 0.12960  0.02013  0.74439  Biso   1.000  C
  C1082    1.0000 0.12956  0.02009  0.74439  Biso   1.000  C
  C1083    1.0000 0.12956  0.02013  0.74439  Biso   1.000  C
  S117     1.0000 0.91733  0.12722  0.73176  Biso   1.000  S
  S118     1.0000 0.91733  0.12719  0.73176  Biso   1.000  S
  S119     1.0000 0.91737  0.12722  0.73176  Biso   1.000  S
  S120     1.0000 0.91737  0.12719  0.73176  Biso   1.000  S
  C1084    1.0000 0.97987  0.12960  0.74439  Biso   1.000  C
  C1085    1.0000 0.97987  0.12956  0.74439  Biso   1.000  C
  C1086    1.0000 0.07050  0.11012  0.74519  Biso   1.000  C
  C1087    1.0000 0.07046  0.11012  0.74519  Biso   1.000  C
  O521     1.0000 0.16879  0.10981  0.74462  Biso   1.000  O
  O522     1.0000 0.16879  0.10977  0.74462  Biso   1.000  O
  H907     1.0000 0.44157  0.41478  0.60499  Biso   1.000  H
  H908     1.0000 0.42531  0.35588  0.60169  Biso   1.000  H
  H909     1.0000 0.39170  0.39400  0.62209  Biso   1.000  H
  H910     1.0000 0.39170  0.39396  0.62209  Biso   1.000  H
  H911     1.0000 0.42527  0.35588  0.60169  Biso   1.000  H
  H912     1.0000 0.39166  0.39400  0.62209  Biso   1.000  H
  H913     1.0000 0.39166  0.39396  0.62209  Biso   1.000  H
  H914     1.0000 0.44789  0.43698  0.55650  Biso   1.000  H
  H915     1.0000 0.39940  0.44039  0.53430  Biso   1.000  H
  H916     1.0000 0.42898  0.38719  0.53851  Biso   1.000  H
  H917     1.0000 0.42898  0.38722  0.53851  Biso   1.000  H
  H918     1.0000 0.39936  0.44039  0.53430  Biso   1.000  H
  H919     1.0000 0.31768  0.43989  0.59591  Biso   1.000  H
  H920     1.0000 0.32878  0.45868  0.56180  Biso   1.000  H
  H921     1.0000 0.36380  0.47870  0.58930  Biso   1.000  H
  H922     1.0000 0.36380  0.47866  0.58930  Biso   1.000  H
  H923     1.0000 0.36376  0.47870  0.58930  Biso   1.000  H
  H924     1.0000 0.36376  0.47866  0.58930  Biso   1.000  H
  C1088    1.0000 0.80051  0.14008  0.55470  Biso   1.000  C
  C1089    1.0000 0.80047  0.14008  0.55470  Biso   1.000  C
  C1090    1.0000 0.72768  0.28358  0.54470  Biso   1.000  C
  S121     1.0000 0.66131  0.24519  0.50001  Biso   1.000  S
  S122     1.0000 0.66131  0.24515  0.50001  Biso   1.000  S
  S123     1.0000 0.78953  0.32633  0.59001  Biso   1.000  S
  S124     1.0000 0.78949  0.32633  0.59001  Biso   1.000  S
  C1091    1.0000 0.87626  0.41088  0.53159  Biso   1.000  C
  C1092    1.0000 0.82187  0.37498  0.57079  Biso   1.000  C
  C1093    1.0000 0.87630  0.41088  0.53159  Biso   1.000  C
  C1094    1.0000 0.87626  0.41088  0.46841  Biso   1.000  C
  C1095    1.0000 0.82187  0.37498  0.42921  Biso   1.000  C
  C1096    1.0000 0.87630  0.41088  0.46841  Biso   1.000  C
  O523     1.0000 0.94737  0.45218  0.50001  Biso   1.000  O
  O524     1.0000 0.94737  0.45221  0.50001  Biso   1.000  O
  C1097    1.0000 0.67849  0.28159  0.46750  Biso   1.000  C
  C1098    1.0000 0.73135  0.31699  0.43100  Biso   1.000  C
  C1099    1.0000 0.73139  0.31699  0.43100  Biso   1.000  C
  O525     1.0000 0.77548  0.34550  0.38026  Biso   1.000  O
  O526     1.0000 0.77548  0.34547  0.38026  Biso   1.000  O
  C1100    1.0000 0.58912  0.87626  0.53159  Biso   1.000  C
  C1101    1.0000 0.62499  0.82187  0.57079  Biso   1.000  C
  C1102    1.0000 0.58912  0.87630  0.53159  Biso   1.000  C
  C1103    1.0000 0.58908  0.87626  0.53159  Biso   1.000  C
  C1104    1.0000 0.58908  0.87630  0.53159  Biso   1.000  C
  O527     1.0000 0.65450  0.77548  0.61974  Biso   1.000  O
  C1105    1.0000 0.78528  0.99847  0.56911  Biso   1.000  C
  O528     1.0000 0.83117  0.89015  0.74462  Biso   1.000  O
  C1106    1.0000 0.87040  0.97987  0.74439  Biso   1.000  C
  O529     1.0000 0.83117  0.89019  0.74462  Biso   1.000  O
  C1107    1.0000 0.83906  0.03472  0.60804  Biso   1.000  C
  C1108    1.0000 0.83909  0.03472  0.60804  Biso   1.000  C
  C1109    1.0000 0.88988  0.07050  0.74519  Biso   1.000  C
  C1110    1.0000 0.88988  0.07046  0.74519  Biso   1.000  C
  O530     1.0000 0.54782  0.94737  0.50001  Biso   1.000  O
  O531     1.0000 0.54779  0.94737  0.50001  Biso   1.000  O
  C1111    1.0000 0.68806  0.63727  0.45571  Biso   1.000  C
  C1112    1.0000 0.68810  0.63727  0.45571  Biso   1.000  C
  C1113    1.0000 0.65377  0.69116  0.41889  Biso   1.000  C
  C1114    1.0000 0.65377  0.69120  0.41889  Biso   1.000  C
  C1115    1.0000 0.65381  0.69116  0.41889  Biso   1.000  C
  C1116    1.0000 0.65381  0.69120  0.41889  Biso   1.000  C
  C1117    1.0000 0.54185  0.87056  0.45550  Biso   1.000  C
  C1118    1.0000 0.54185  0.87059  0.45550  Biso   1.000  C
  C1119    1.0000 0.54189  0.87056  0.45550  Biso   1.000  C
  C1120    1.0000 0.54189  0.87059  0.45550  Biso   1.000  C
  C1121    1.0000 0.57749  0.81866  0.41730  Biso   1.000  C
  C1122    1.0000 0.57749  0.81869  0.41730  Biso   1.000  C
  C1123    1.0000 0.65377  0.69116  0.58111  Biso   1.000  C
  C1124    1.0000 0.65377  0.69120  0.58111  Biso   1.000  C
  C1125    1.0000 0.65381  0.69116  0.58111  Biso   1.000  C
  C1126    1.0000 0.65381  0.69120  0.58111  Biso   1.000  C
  C1127    1.0000 0.68806  0.63727  0.54429  Biso   1.000  C
  C1128    1.0000 0.68810  0.63727  0.54429  Biso   1.000  C
  C1129    1.0000 0.01160  0.83856  0.77069  Biso   1.000  C
  C1130    1.0000 0.01160  0.83860  0.77069  Biso   1.000  C
  C1131    1.0000 0.14341  0.92314  0.76989  Biso   1.000  C
  C1132    1.0000 0.14341  0.92318  0.76989  Biso   1.000  C
  C1133    1.0000 0.14338  0.92314  0.76989  Biso   1.000  C
  C1134    1.0000 0.14338  0.92318  0.76989  Biso   1.000  C
  C1135    1.0000 0.92314  0.85659  0.76989  Biso   1.000  C
  C1136    1.0000 0.92318  0.85659  0.76989  Biso   1.000  C
  C1137    1.0000 0.16140  0.01160  0.77069  Biso   1.000  C
  C1138    1.0000 0.16137  0.01160  0.77069  Biso   1.000  C
  O532     1.0000 0.89015  0.16879  0.74462  Biso   1.000  O
  O533     1.0000 0.89019  0.16879  0.74462  Biso   1.000  O
  C1139    1.0000 0.98836  0.16140  0.77069  Biso   1.000  C
  C1140    1.0000 0.98836  0.16137  0.77069  Biso   1.000  C
  C1141    1.0000 0.07682  0.14341  0.76989  Biso   1.000  C
  C1142    1.0000 0.07682  0.14338  0.76989  Biso   1.000  C
  C1143    1.0000 0.80438  0.08868  0.56870  Biso   1.000  C
  C1144    1.0000 0.73135  0.31699  0.56900  Biso   1.000  C
  C1145    1.0000 0.73139  0.31699  0.56900  Biso   1.000  C
  C1146    1.0000 0.67849  0.28159  0.53250  Biso   1.000  C
  O534     1.0000 0.60780  0.23749  0.50001  Biso   1.000  O
  O535     1.0000 0.77548  0.34550  0.61974  Biso   1.000  O
  O536     1.0000 0.77548  0.34547  0.61974  Biso   1.000  O
  C1147    1.0000 0.87056  0.45811  0.54450  Biso   1.000  C
  C1148    1.0000 0.87056  0.45807  0.54450  Biso   1.000  C
  C1149    1.0000 0.87059  0.45811  0.54450  Biso   1.000  C
  C1150    1.0000 0.87059  0.45807  0.54450  Biso   1.000  C
  C1151    1.0000 0.81866  0.42247  0.58270  Biso   1.000  C
  C1152    1.0000 0.81869  0.42247  0.58270  Biso   1.000  C
  C1153    1.0000 0.87056  0.45811  0.45550  Biso   1.000  C
  C1154    1.0000 0.87056  0.45807  0.45550  Biso   1.000  C
  C1155    1.0000 0.87059  0.45811  0.45550  Biso   1.000  C
  C1156    1.0000 0.87059  0.45807  0.45550  Biso   1.000  C
  C1157    1.0000 0.81866  0.42247  0.41730  Biso   1.000  C
  C1158    1.0000 0.81869  0.42247  0.41730  Biso   1.000  C
  C1159    1.0000 0.63727  0.31190  0.45571  Biso   1.000  C
  C1160    1.0000 0.63727  0.31186  0.45571  Biso   1.000  C
  C1161    1.0000 0.69116  0.34619  0.41889  Biso   1.000  C
  C1162    1.0000 0.69116  0.34616  0.41889  Biso   1.000  C
  C1163    1.0000 0.69120  0.34619  0.41889  Biso   1.000  C
  C1164    1.0000 0.69120  0.34616  0.41889  Biso   1.000  C
  C1165    1.0000 0.54185  0.87056  0.54450  Biso   1.000  C
  C1166    1.0000 0.54185  0.87059  0.54450  Biso   1.000  C
  C1167    1.0000 0.54189  0.87056  0.54450  Biso   1.000  C
  C1168    1.0000 0.54189  0.87059  0.54450  Biso   1.000  C
  C1169    1.0000 0.57749  0.81866  0.58270  Biso   1.000  C
  C1170    1.0000 0.57749  0.81869  0.58270  Biso   1.000  C
  C1171    1.0000 0.81475  0.99257  0.59520  Biso   1.000  C
  C1172    1.0000 0.81475  0.99261  0.59520  Biso   1.000  C
  C1173    1.0000 0.81479  0.99257  0.59520  Biso   1.000  C
  C1174    1.0000 0.81479  0.99261  0.59520  Biso   1.000  C
  C1175    1.0000 0.78007  0.04658  0.55586  Biso   1.000  C
  C1176    1.0000 0.78007  0.04662  0.55586  Biso   1.000  C
  C1177    1.0000 0.83856  0.98836  0.77069  Biso   1.000  C
  C1178    1.0000 0.83860  0.98836  0.77069  Biso   1.000  C
  C1179    1.0000 0.83385  0.08279  0.59479  Biso   1.000  C
  C1180    1.0000 0.83389  0.08279  0.59479  Biso   1.000  C
  C1181    1.0000 0.85659  0.07682  0.76989  Biso   1.000  C
  C1182    1.0000 0.65495  0.64186  0.43330  Biso   1.000  C
  H925     1.0000 0.69227  0.60436  0.46461  Biso   1.000  H
  C1183    1.0000 0.65495  0.64190  0.43330  Biso   1.000  C
  H926     1.0000 0.69227  0.60439  0.46461  Biso   1.000  H
  C1184    1.0000 0.65499  0.64186  0.43330  Biso   1.000  C
  C1185    1.0000 0.65499  0.64190  0.43330  Biso   1.000  C
  H927     1.0000 0.63341  0.69648  0.40120  Biso   1.000  H
  H928     1.0000 0.51361  0.88766  0.46449  Biso   1.000  H
  C1186    1.0000 0.53370  0.84101  0.42989  Biso   1.000  C
  C1187    1.0000 0.53370  0.84097  0.42989  Biso   1.000  C
  H929     1.0000 0.57358  0.79986  0.39899  Biso   1.000  H
  H930     1.0000 0.57358  0.79990  0.39899  Biso   1.000  H
  H931     1.0000 0.63341  0.69648  0.59880  Biso   1.000  H
  C1188    1.0000 0.65495  0.64186  0.56670  Biso   1.000  C
  C1189    1.0000 0.65495  0.64190  0.56670  Biso   1.000  C
  C1190    1.0000 0.65499  0.64186  0.56670  Biso   1.000  C
  C1191    1.0000 0.65499  0.64190  0.56670  Biso   1.000  C
  H932     1.0000 0.69227  0.60436  0.53539  Biso   1.000  H
  H933     1.0000 0.69227  0.60439  0.53539  Biso   1.000  H
  C1192    1.0000 0.96337  0.83197  0.78180  Biso   1.000  C
  H934     1.0000 0.03969  0.82225  0.78030  Biso   1.000  H
  H935     1.0000 0.03969  0.82229  0.78030  Biso   1.000  H
  H936     1.0000 0.03973  0.82225  0.78030  Biso   1.000  H
  H937     1.0000 0.03973  0.82229  0.78030  Biso   1.000  H
  C1193    1.0000 0.16799  0.96337  0.78180  Biso   1.000  C
  H938     1.0000 0.14851  0.89015  0.77841  Biso   1.000  H
  H939     1.0000 0.14851  0.89019  0.77841  Biso   1.000  H
  H940     1.0000 0.89015  0.85146  0.77841  Biso   1.000  H
  H941     1.0000 0.89015  0.85149  0.77841  Biso   1.000  H
  H942     1.0000 0.89019  0.85146  0.77841  Biso   1.000  H
  H943     1.0000 0.89019  0.85149  0.77841  Biso   1.000  H
  H944     1.0000 0.17771  0.03969  0.78030  Biso   1.000  H
  H945     1.0000 0.17771  0.03973  0.78030  Biso   1.000  H
  H946     1.0000 0.17767  0.03969  0.78030  Biso   1.000  H
  H947     1.0000 0.17767  0.03973  0.78030  Biso   1.000  H
  H948     1.0000 0.96031  0.17771  0.78030  Biso   1.000  H
  H949     1.0000 0.96031  0.17767  0.78030  Biso   1.000  H
  H950     1.0000 0.96027  0.17771  0.78030  Biso   1.000  H
  H951     1.0000 0.96027  0.17767  0.78030  Biso   1.000  H
  C1194    1.0000 0.03659  0.16799  0.78180  Biso   1.000  C
  C1195    1.0000 0.03663  0.16799  0.78180  Biso   1.000  C
  H952     1.0000 0.10981  0.14851  0.77841  Biso   1.000  H
  H953     1.0000 0.10977  0.14851  0.77841  Biso   1.000  H
  C1196    1.0000 0.69116  0.34619  0.58111  Biso   1.000  C
  C1197    1.0000 0.69116  0.34616  0.58111  Biso   1.000  C
  C1198    1.0000 0.69120  0.34619  0.58111  Biso   1.000  C
  C1199    1.0000 0.69120  0.34616  0.58111  Biso   1.000  C
  C1200    1.0000 0.63727  0.31190  0.54429  Biso   1.000  C
  C1201    1.0000 0.63727  0.31186  0.54429  Biso   1.000  C
  H954     1.0000 0.88766  0.48639  0.53551  Biso   1.000  H
  C1202    1.0000 0.84101  0.46630  0.57011  Biso   1.000  C
  H955     1.0000 0.88766  0.48636  0.53551  Biso   1.000  H
  C1203    1.0000 0.84101  0.46626  0.57011  Biso   1.000  C
  C1204    1.0000 0.84097  0.46630  0.57011  Biso   1.000  C
  C1205    1.0000 0.84097  0.46626  0.57011  Biso   1.000  C
  H956     1.0000 0.79986  0.42638  0.60101  Biso   1.000  H
  H957     1.0000 0.79990  0.42638  0.60101  Biso   1.000  H
  H958     1.0000 0.88766  0.48639  0.46449  Biso   1.000  H
  C1206    1.0000 0.84101  0.46630  0.42989  Biso   1.000  C
  H959     1.0000 0.88766  0.48636  0.46449  Biso   1.000  H
  C1207    1.0000 0.84101  0.46626  0.42989  Biso   1.000  C
  C1208    1.0000 0.84097  0.46630  0.42989  Biso   1.000  C
  C1209    1.0000 0.84097  0.46626  0.42989  Biso   1.000  C
  H960     1.0000 0.79986  0.42638  0.39899  Biso   1.000  H
  H961     1.0000 0.79990  0.42638  0.39899  Biso   1.000  H
  C1210    1.0000 0.64186  0.34501  0.43330  Biso   1.000  C
  H962     1.0000 0.60436  0.30769  0.46461  Biso   1.000  H
  C1211    1.0000 0.64186  0.34497  0.43330  Biso   1.000  C
  C1212    1.0000 0.64190  0.34501  0.43330  Biso   1.000  C
  H963     1.0000 0.60439  0.30769  0.46461  Biso   1.000  H
  C1213    1.0000 0.64190  0.34497  0.43330  Biso   1.000  C
  H964     1.0000 0.69648  0.36659  0.40120  Biso   1.000  H
  H965     1.0000 0.69648  0.36656  0.40120  Biso   1.000  H
  H966     1.0000 0.51361  0.88766  0.53551  Biso   1.000  H
  C1214    1.0000 0.53370  0.84101  0.57011  Biso   1.000  C
  C1215    1.0000 0.53370  0.84097  0.57011  Biso   1.000  C
  H967     1.0000 0.57358  0.79986  0.60101  Biso   1.000  H
  H968     1.0000 0.57358  0.79990  0.60101  Biso   1.000  H
  H969     1.0000 0.81835  0.95977  0.60431  Biso   1.000  H
  H970     1.0000 0.81839  0.95977  0.60431  Biso   1.000  H
  H971     1.0000 0.75990  0.05060  0.53801  Biso   1.000  H
  H972     1.0000 0.82225  0.96031  0.78030  Biso   1.000  H
  H973     1.0000 0.82225  0.96027  0.78030  Biso   1.000  H
  H974     1.0000 0.82229  0.96031  0.78030  Biso   1.000  H
  H975     1.0000 0.82229  0.96027  0.78030  Biso   1.000  H
  C1216    1.0000 0.83197  0.03659  0.78180  Biso   1.000  C
  C1217    1.0000 0.83197  0.03663  0.78180  Biso   1.000  C
  H976     1.0000 0.85046  0.11161  0.60360  Biso   1.000  H
  H977     1.0000 0.85050  0.11161  0.60360  Biso   1.000  H
  H978     1.0000 0.85146  0.10981  0.77841  Biso   1.000  H
  H979     1.0000 0.85146  0.10977  0.77841  Biso   1.000  H
  H980     1.0000 0.85149  0.10981  0.77841  Biso   1.000  H
  H981     1.0000 0.85149  0.10977  0.77841  Biso   1.000  H
  C1218    1.0000 0.61909  0.59601  0.42340  Biso   1.000  C
  C1219    1.0000 0.61909  0.59597  0.42340  Biso   1.000  C
  C1220    1.0000 0.48015  0.83745  0.41441  Biso   1.000  C
  C1221    1.0000 0.48015  0.83749  0.41441  Biso   1.000  C
  C1222    1.0000 0.48019  0.83745  0.41441  Biso   1.000  C
  C1223    1.0000 0.48019  0.83749  0.41441  Biso   1.000  C
  C1224    1.0000 0.61909  0.59601  0.57660  Biso   1.000  C
  C1225    1.0000 0.61909  0.59597  0.57660  Biso   1.000  C
  C1226    1.0000 0.95388  0.80216  0.81399  Biso   1.000  C
  C1227    1.0000 0.95388  0.80220  0.81399  Biso   1.000  C
  C1228    1.0000 0.19780  0.95388  0.81399  Biso   1.000  C
  C1229    1.0000 0.19776  0.95388  0.81399  Biso   1.000  C
  C1230    1.0000 0.04608  0.19780  0.81399  Biso   1.000  C
  C1231    1.0000 0.04608  0.19776  0.81399  Biso   1.000  C
  H982     1.0000 0.69648  0.36659  0.59880  Biso   1.000  H
  C1232    1.0000 0.64186  0.34501  0.56670  Biso   1.000  C
  H983     1.0000 0.69648  0.36656  0.59880  Biso   1.000  H
  C1233    1.0000 0.64186  0.34497  0.56670  Biso   1.000  C
  C1234    1.0000 0.64190  0.34501  0.56670  Biso   1.000  C
  C1235    1.0000 0.64190  0.34497  0.56670  Biso   1.000  C
  H984     1.0000 0.60436  0.30769  0.53539  Biso   1.000  H
  H985     1.0000 0.60439  0.30769  0.53539  Biso   1.000  H
  C1236    1.0000 0.83745  0.51981  0.58559  Biso   1.000  C
  C1237    1.0000 0.83745  0.51977  0.58559  Biso   1.000  C
  C1238    1.0000 0.83749  0.51981  0.58559  Biso   1.000  C
  C1239    1.0000 0.83749  0.51977  0.58559  Biso   1.000  C
  C1240    1.0000 0.83745  0.51981  0.41441  Biso   1.000  C
  C1241    1.0000 0.83745  0.51977  0.41441  Biso   1.000  C
  C1242    1.0000 0.83749  0.51981  0.41441  Biso   1.000  C
  C1243    1.0000 0.83749  0.51977  0.41441  Biso   1.000  C
  C1244    1.0000 0.59601  0.38091  0.42340  Biso   1.000  C
  C1245    1.0000 0.59597  0.38091  0.42340  Biso   1.000  C
  C1246    1.0000 0.48015  0.83745  0.58559  Biso   1.000  C
  C1247    1.0000 0.48015  0.83749  0.58559  Biso   1.000  C
  C1248    1.0000 0.48019  0.83745  0.58559  Biso   1.000  C
  C1249    1.0000 0.48019  0.83749  0.58559  Biso   1.000  C
  C1250    1.0000 0.80216  0.04608  0.81399  Biso   1.000  C
  C1251    1.0000 0.80220  0.04608  0.81399  Biso   1.000  C
  C1252    1.0000 0.58740  0.60891  0.39631  Biso   1.000  C
  C1253    1.0000 0.58212  0.58139  0.45120  Biso   1.000  C
  C1254    1.0000 0.65545  0.55050  0.41871  Biso   1.000  C
  C1255    1.0000 0.58740  0.60887  0.39631  Biso   1.000  C
  C1256    1.0000 0.58208  0.58139  0.45120  Biso   1.000  C
  C1257    1.0000 0.65549  0.55050  0.41871  Biso   1.000  C
  C1258    1.0000 0.44157  0.82176  0.43911  Biso   1.000  C
  C1259    1.0000 0.46978  0.89295  0.40300  Biso   1.000  C
  C1260    1.0000 0.48398  0.79868  0.38841  Biso   1.000  C
  C1261    1.0000 0.44157  0.82179  0.43911  Biso   1.000  C
  C1262    1.0000 0.46978  0.89298  0.40300  Biso   1.000  C
  C1263    1.0000 0.58740  0.60891  0.60369  Biso   1.000  C
  C1264    1.0000 0.58212  0.58139  0.54880  Biso   1.000  C
  C1265    1.0000 0.65545  0.55050  0.58129  Biso   1.000  C
  C1266    1.0000 0.58740  0.60887  0.60369  Biso   1.000  C
  C1267    1.0000 0.58208  0.58139  0.54880  Biso   1.000  C
  C1268    1.0000 0.65549  0.55050  0.58129  Biso   1.000  C
  C1269    1.0000 0.89987  0.80197  0.82440  Biso   1.000  C
  C1270    1.0000 0.98607  0.83086  0.83731  Biso   1.000  C
  C1271    1.0000 0.97696  0.75167  0.80580  Biso   1.000  C
  C1272    1.0000 0.98607  0.83090  0.83731  Biso   1.000  C
  C1273    1.0000 0.97700  0.75167  0.80580  Biso   1.000  C
  C1274    1.0000 0.19799  0.89987  0.82440  Biso   1.000  C
  C1275    1.0000 0.16910  0.98607  0.83731  Biso   1.000  C
  C1276    1.0000 0.24829  0.97696  0.80580  Biso   1.000  C
  C1277    1.0000 0.19803  0.89987  0.82440  Biso   1.000  C
  C1278    1.0000 0.24829  0.97700  0.80580  Biso   1.000  C
  C1279    1.0000 0.10009  0.19799  0.82440  Biso   1.000  C
  C1280    1.0000 0.01389  0.16910  0.83731  Biso   1.000  C
  C1281    1.0000 0.02300  0.24829  0.80580  Biso   1.000  C
  C1282    1.0000 0.10009  0.19803  0.82440  Biso   1.000  C
  C1283    1.0000 0.10013  0.19799  0.82440  Biso   1.000  C
  C1284    1.0000 0.02296  0.24829  0.80580  Biso   1.000  C
  C1285    1.0000 0.10013  0.19803  0.82440  Biso   1.000  C
  C1286    1.0000 0.59601  0.38091  0.57660  Biso   1.000  C
  C1287    1.0000 0.59597  0.38091  0.57660  Biso   1.000  C
  C1288    1.0000 0.82176  0.55839  0.56089  Biso   1.000  C
  C1289    1.0000 0.89295  0.53018  0.59700  Biso   1.000  C
  C1290    1.0000 0.79868  0.51598  0.61159  Biso   1.000  C
  C1291    1.0000 0.82179  0.55839  0.56089  Biso   1.000  C
  C1292    1.0000 0.89298  0.53018  0.59700  Biso   1.000  C
  C1293    1.0000 0.82176  0.55839  0.43911  Biso   1.000  C
  C1294    1.0000 0.89295  0.53018  0.40300  Biso   1.000  C
  C1295    1.0000 0.79868  0.51598  0.38841  Biso   1.000  C
  C1296    1.0000 0.82179  0.55839  0.43911  Biso   1.000  C
  C1297    1.0000 0.89298  0.53018  0.40300  Biso   1.000  C
  C1298    1.0000 0.60891  0.41260  0.39631  Biso   1.000  C
  C1299    1.0000 0.58139  0.41788  0.45120  Biso   1.000  C
  C1300    1.0000 0.55050  0.34451  0.41871  Biso   1.000  C
  C1301    1.0000 0.60891  0.41256  0.39631  Biso   1.000  C
  C1302    1.0000 0.60887  0.41260  0.39631  Biso   1.000  C
  C1303    1.0000 0.60887  0.41256  0.39631  Biso   1.000  C
  C1304    1.0000 0.44157  0.82176  0.56089  Biso   1.000  C
  C1305    1.0000 0.46978  0.89295  0.59700  Biso   1.000  C
  C1306    1.0000 0.48398  0.79868  0.61159  Biso   1.000  C
  C1307    1.0000 0.44157  0.82179  0.56089  Biso   1.000  C
  C1308    1.0000 0.46978  0.89298  0.59700  Biso   1.000  C
  C1309    1.0000 0.80197  0.10009  0.82440  Biso   1.000  C
  C1310    1.0000 0.83086  0.01389  0.83731  Biso   1.000  C
  C1311    1.0000 0.75167  0.02300  0.80580  Biso   1.000  C
  C1312    1.0000 0.80197  0.10013  0.82440  Biso   1.000  C
  C1313    1.0000 0.75167  0.02296  0.80580  Biso   1.000  C
  C1314    1.0000 0.83090  0.01389  0.83731  Biso   1.000  C
  H986     1.0000 0.55843  0.58522  0.39501  Biso   1.000  H
  H987     1.0000 0.57465  0.64408  0.39831  Biso   1.000  H
  H988     1.0000 0.60830  0.60600  0.37791  Biso   1.000  H
  H989     1.0000 0.55843  0.58518  0.39501  Biso   1.000  H
  H990     1.0000 0.55839  0.58522  0.39501  Biso   1.000  H
  H991     1.0000 0.57469  0.64408  0.39831  Biso   1.000  H
  H992     1.0000 0.55839  0.58518  0.39501  Biso   1.000  H
  H993     1.0000 0.55211  0.56302  0.44350  Biso   1.000  H
  H994     1.0000 0.60060  0.55957  0.46570  Biso   1.000  H
  H995     1.0000 0.57102  0.61281  0.46149  Biso   1.000  H
  H996     1.0000 0.55211  0.56298  0.44350  Biso   1.000  H
  H997     1.0000 0.57102  0.61278  0.46149  Biso   1.000  H
  H998     1.0000 0.55207  0.56302  0.44350  Biso   1.000  H
  H999     1.0000 0.57098  0.61281  0.46149  Biso   1.000  H
  H1000    1.0000 0.55207  0.56298  0.44350  Biso   1.000  H
  H1001    1.0000 0.57098  0.61278  0.46149  Biso   1.000  H
  H1002    1.0000 0.68228  0.56007  0.40409  Biso   1.000  H
  H1003    1.0000 0.67122  0.54132  0.43820  Biso   1.000  H
  H1004    1.0000 0.63620  0.52130  0.41070  Biso   1.000  H
  H1005    1.0000 0.67122  0.54128  0.43820  Biso   1.000  H
  H1006    1.0000 0.67118  0.54132  0.43820  Biso   1.000  H
  H1007    1.0000 0.67118  0.54128  0.43820  Biso   1.000  H
  H1008    1.0000 0.40896  0.81238  0.42950  Biso   1.000  H
  H1009    1.0000 0.45497  0.79240  0.45049  Biso   1.000  H
  H1010    1.0000 0.43606  0.85046  0.45311  Biso   1.000  H
  H1011    1.0000 0.43606  0.85050  0.45311  Biso   1.000  H
  H1012    1.0000 0.40900  0.81238  0.42950  Biso   1.000  H
  H1013    1.0000 0.45501  0.79240  0.45049  Biso   1.000  H
  H1014    1.0000 0.43610  0.85046  0.45311  Biso   1.000  H
  H1015    1.0000 0.43610  0.85050  0.45311  Biso   1.000  H
  H1016    1.0000 0.47908  0.91748  0.41889  Biso   1.000  H
  H1017    1.0000 0.49026  0.89957  0.38470  Biso   1.000  H
  H1018    1.0000 0.43338  0.89666  0.39799  Biso   1.000  H
  H1019    1.0000 0.43338  0.89670  0.39799  Biso   1.000  H
  H1020    1.0000 0.49030  0.89957  0.38470  Biso   1.000  H
  H1021    1.0000 0.49328  0.81636  0.36960  Biso   1.000  H
  H1022    1.0000 0.51028  0.77318  0.39330  Biso   1.000  H
  H1023    1.0000 0.45099  0.78145  0.38579  Biso   1.000  H
  H1024    1.0000 0.49328  0.81640  0.36960  Biso   1.000  H
  H1025    1.0000 0.45099  0.78149  0.38579  Biso   1.000  H
  H1026    1.0000 0.55843  0.58522  0.60499  Biso   1.000  H
  H1027    1.0000 0.57465  0.64408  0.60169  Biso   1.000  H
  H1028    1.0000 0.60830  0.60600  0.62209  Biso   1.000  H
  H1029    1.0000 0.55843  0.58518  0.60499  Biso   1.000  H
  H1030    1.0000 0.55839  0.58522  0.60499  Biso   1.000  H
  H1031    1.0000 0.57469  0.64408  0.60169  Biso   1.000  H
  H1032    1.0000 0.55839  0.58518  0.60499  Biso   1.000  H
  H1033    1.0000 0.55211  0.56302  0.55650  Biso   1.000  H
  H1034    1.0000 0.60060  0.55957  0.53430  Biso   1.000  H
  H1035    1.0000 0.57102  0.61281  0.53851  Biso   1.000  H
  H1036    1.0000 0.55211  0.56298  0.55650  Biso   1.000  H
  H1037    1.0000 0.57102  0.61278  0.53851  Biso   1.000  H
  H1038    1.0000 0.55207  0.56302  0.55650  Biso   1.000  H
  H1039    1.0000 0.57098  0.61281  0.53851  Biso   1.000  H
  H1040    1.0000 0.55207  0.56298  0.55650  Biso   1.000  H
  H1041    1.0000 0.57098  0.61278  0.53851  Biso   1.000  H
  H1042    1.0000 0.68228  0.56007  0.59591  Biso   1.000  H
  H1043    1.0000 0.67122  0.54132  0.56180  Biso   1.000  H
  H1044    1.0000 0.63620  0.52130  0.58930  Biso   1.000  H
  H1045    1.0000 0.67122  0.54128  0.56180  Biso   1.000  H
  H1046    1.0000 0.67118  0.54132  0.56180  Biso   1.000  H
  H1047    1.0000 0.67118  0.54128  0.56180  Biso   1.000  H
  H1048    1.0000 0.89796  0.78830  0.84509  Biso   1.000  H
  H1049    1.0000 0.87940  0.78038  0.81069  Biso   1.000  H
  H1050    1.0000 0.88636  0.83695  0.82410  Biso   1.000  H
  H1051    1.0000 0.88636  0.83699  0.82410  Biso   1.000  H
  H1052    1.0000 0.89800  0.78830  0.84509  Biso   1.000  H
  H1053    1.0000 0.88640  0.83695  0.82410  Biso   1.000  H
  H1054    1.0000 0.88640  0.83699  0.82410  Biso   1.000  H
  H1055    1.0000 0.98098  0.86776  0.83480  Biso   1.000  H
  H1056    1.0000 0.97558  0.82076  0.85791  Biso   1.000  H
  H1057    1.0000 0.98098  0.86780  0.83480  Biso   1.000  H
  H1058    1.0000 0.97558  0.82080  0.85791  Biso   1.000  H
  H1059    1.0000 0.02231  0.82256  0.83430  Biso   1.000  H
  H1060    1.0000 0.02231  0.82260  0.83430  Biso   1.000  H
  H1061    1.0000 0.02228  0.82256  0.83430  Biso   1.000  H
  H1062    1.0000 0.02228  0.82260  0.83430  Biso   1.000  H
  H1063    1.0000 0.00819  0.74628  0.81779  Biso   1.000  H
  H1064    1.0000 0.00823  0.74628  0.81779  Biso   1.000  H
  H1065    1.0000 0.98546  0.75137  0.78410  Biso   1.000  H
  H1066    1.0000 0.95250  0.72427  0.81019  Biso   1.000  H
  H1067    1.0000 0.98549  0.75137  0.78410  Biso   1.000  H
  H1068    1.0000 0.95246  0.72427  0.81019  Biso   1.000  H
  H1069    1.0000 0.21958  0.87940  0.81069  Biso   1.000  H
  H1070    1.0000 0.16301  0.88636  0.82410  Biso   1.000  H
  H1071    1.0000 0.16301  0.88640  0.82410  Biso   1.000  H
  H1072    1.0000 0.21170  0.89796  0.84509  Biso   1.000  H
  H1073    1.0000 0.21170  0.89800  0.84509  Biso   1.000  H
  H1074    1.0000 0.21166  0.89796  0.84509  Biso   1.000  H
  H1075    1.0000 0.21166  0.89800  0.84509  Biso   1.000  H
  H1076    1.0000 0.13220  0.98098  0.83480  Biso   1.000  H
  H1077    1.0000 0.17920  0.97558  0.85791  Biso   1.000  H
  H1078    1.0000 0.13216  0.98098  0.83480  Biso   1.000  H
  H1079    1.0000 0.17916  0.97558  0.85791  Biso   1.000  H
  H1080    1.0000 0.17740  0.02231  0.83430  Biso   1.000  H
  H1081    1.0000 0.17740  0.02228  0.83430  Biso   1.000  H
  H1082    1.0000 0.17736  0.02231  0.83430  Biso   1.000  H
  H1083    1.0000 0.17736  0.02228  0.83430  Biso   1.000  H
  H1084    1.0000 0.24859  0.98546  0.78410  Biso   1.000  H
  H1085    1.0000 0.27569  0.95250  0.81019  Biso   1.000  H
  H1086    1.0000 0.24859  0.98549  0.78410  Biso   1.000  H
  H1087    1.0000 0.27569  0.95246  0.81019  Biso   1.000  H
  H1088    1.0000 0.25368  0.00819  0.81779  Biso   1.000  H
  H1089    1.0000 0.25368  0.00823  0.81779  Biso   1.000  H
  H1090    1.0000 0.10200  0.21170  0.84509  Biso   1.000  H
  H1091    1.0000 0.12060  0.21958  0.81069  Biso   1.000  H
  H1092    1.0000 0.11360  0.16301  0.82410  Biso   1.000  H
  H1093    1.0000 0.10200  0.21166  0.84509  Biso   1.000  H
  H1094    1.0000 0.12056  0.21958  0.81069  Biso   1.000  H
  H1095    1.0000 0.11356  0.16301  0.82410  Biso   1.000  H
  H1096    1.0000 0.97765  0.17740  0.83430  Biso   1.000  H
  H1097    1.0000 0.97765  0.17736  0.83430  Biso   1.000  H
  H1098    1.0000 0.97769  0.17740  0.83430  Biso   1.000  H
  H1099    1.0000 0.97769  0.17736  0.83430  Biso   1.000  H
  H1100    1.0000 0.01898  0.13220  0.83480  Biso   1.000  H
  H1101    1.0000 0.02438  0.17920  0.85791  Biso   1.000  H
  H1102    1.0000 0.01898  0.13216  0.83480  Biso   1.000  H
  H1103    1.0000 0.02438  0.17916  0.85791  Biso   1.000  H
  H1104    1.0000 0.01902  0.13220  0.83480  Biso   1.000  H
  H1105    1.0000 0.01902  0.13216  0.83480  Biso   1.000  H
  H1106    1.0000 0.99177  0.25368  0.81779  Biso   1.000  H
  H1107    1.0000 0.01451  0.24859  0.78410  Biso   1.000  H
  H1108    1.0000 0.04750  0.27569  0.81019  Biso   1.000  H
  H1109    1.0000 0.01447  0.24859  0.78410  Biso   1.000  H
  C1315    1.0000 0.60891  0.41260  0.60369  Biso   1.000  C
  C1316    1.0000 0.58139  0.41788  0.54880  Biso   1.000  C
  C1317    1.0000 0.55050  0.34451  0.58129  Biso   1.000  C
  C1318    1.0000 0.60891  0.41256  0.60369  Biso   1.000  C
  C1319    1.0000 0.60887  0.41260  0.60369  Biso   1.000  C
  C1320    1.0000 0.60887  0.41256  0.60369  Biso   1.000  C
  H1110    1.0000 0.81238  0.59100  0.57050  Biso   1.000  H
  H1111    1.0000 0.79240  0.54499  0.54951  Biso   1.000  H
  H1112    1.0000 0.85046  0.56390  0.54689  Biso   1.000  H
  H1113    1.0000 0.81238  0.59096  0.57050  Biso   1.000  H
  H1114    1.0000 0.85050  0.56390  0.54689  Biso   1.000  H
  H1115    1.0000 0.91748  0.52088  0.58111  Biso   1.000  H
  H1116    1.0000 0.89957  0.50970  0.61530  Biso   1.000  H
  H1117    1.0000 0.89666  0.56658  0.60201  Biso   1.000  H
  H1118    1.0000 0.89957  0.50966  0.61530  Biso   1.000  H
  H1119    1.0000 0.89670  0.56658  0.60201  Biso   1.000  H
  H1120    1.0000 0.81636  0.50668  0.63040  Biso   1.000  H
  H1121    1.0000 0.77318  0.48969  0.60670  Biso   1.000  H
  H1122    1.0000 0.78145  0.54897  0.61421  Biso   1.000  H
  H1123    1.0000 0.81640  0.50668  0.63040  Biso   1.000  H
  H1124    1.0000 0.78149  0.54897  0.61421  Biso   1.000  H
  H1125    1.0000 0.81238  0.59100  0.42950  Biso   1.000  H
  H1126    1.0000 0.79240  0.54499  0.45049  Biso   1.000  H
  H1127    1.0000 0.85046  0.56390  0.45311  Biso   1.000  H
  H1128    1.0000 0.81238  0.59096  0.42950  Biso   1.000  H
  H1129    1.0000 0.85050  0.56390  0.45311  Biso   1.000  H
  H1130    1.0000 0.91748  0.52088  0.41889  Biso   1.000  H
  H1131    1.0000 0.89957  0.50970  0.38470  Biso   1.000  H
  H1132    1.0000 0.89666  0.56658  0.39799  Biso   1.000  H
  H1133    1.0000 0.89957  0.50966  0.38470  Biso   1.000  H
  H1134    1.0000 0.89670  0.56658  0.39799  Biso   1.000  H
  H1135    1.0000 0.81636  0.50668  0.36960  Biso   1.000  H
  H1136    1.0000 0.77318  0.48969  0.39330  Biso   1.000  H
  H1137    1.0000 0.78145  0.54897  0.38579  Biso   1.000  H
  H1138    1.0000 0.81640  0.50668  0.36960  Biso   1.000  H
  H1139    1.0000 0.78149  0.54897  0.38579  Biso   1.000  H
  H1140    1.0000 0.58522  0.44157  0.39501  Biso   1.000  H
  H1141    1.0000 0.64408  0.42531  0.39831  Biso   1.000  H
  H1142    1.0000 0.60600  0.39170  0.37791  Biso   1.000  H
  H1143    1.0000 0.64408  0.42527  0.39831  Biso   1.000  H
  H1144    1.0000 0.60600  0.39166  0.37791  Biso   1.000  H
  H1145    1.0000 0.58518  0.44157  0.39501  Biso   1.000  H
  H1146    1.0000 0.56302  0.44789  0.44350  Biso   1.000  H
  H1147    1.0000 0.55957  0.39940  0.46570  Biso   1.000  H
  H1148    1.0000 0.61281  0.42898  0.46149  Biso   1.000  H
  H1149    1.0000 0.55957  0.39936  0.46570  Biso   1.000  H
  H1150    1.0000 0.56298  0.44789  0.44350  Biso   1.000  H
  H1151    1.0000 0.61278  0.42898  0.46149  Biso   1.000  H
  H1152    1.0000 0.56007  0.31768  0.40409  Biso   1.000  H
  H1153    1.0000 0.54132  0.32878  0.43820  Biso   1.000  H
  H1154    1.0000 0.52130  0.36380  0.41070  Biso   1.000  H
  H1155    1.0000 0.52130  0.36376  0.41070  Biso   1.000  H
  H1156    1.0000 0.54128  0.32878  0.43820  Biso   1.000  H
  H1157    1.0000 0.40896  0.81238  0.57050  Biso   1.000  H
  H1158    1.0000 0.45497  0.79240  0.54951  Biso   1.000  H
  H1159    1.0000 0.43606  0.85046  0.54689  Biso   1.000  H
  H1160    1.0000 0.43606  0.85050  0.54689  Biso   1.000  H
  H1161    1.0000 0.40900  0.81238  0.57050  Biso   1.000  H
  H1162    1.0000 0.45501  0.79240  0.54951  Biso   1.000  H
  H1163    1.0000 0.43610  0.85046  0.54689  Biso   1.000  H
  H1164    1.0000 0.43610  0.85050  0.54689  Biso   1.000  H
  H1165    1.0000 0.47908  0.91748  0.58111  Biso   1.000  H
  H1166    1.0000 0.49026  0.89957  0.61530  Biso   1.000  H
  H1167    1.0000 0.43338  0.89666  0.60201  Biso   1.000  H
  H1168    1.0000 0.43338  0.89670  0.60201  Biso   1.000  H
  H1169    1.0000 0.49030  0.89957  0.61530  Biso   1.000  H
  H1170    1.0000 0.49328  0.81636  0.63040  Biso   1.000  H
  H1171    1.0000 0.51028  0.77318  0.60670  Biso   1.000  H
  H1172    1.0000 0.45099  0.78145  0.61421  Biso   1.000  H
  H1173    1.0000 0.49328  0.81640  0.63040  Biso   1.000  H
  H1174    1.0000 0.45099  0.78149  0.61421  Biso   1.000  H
  H1175    1.0000 0.78830  0.10200  0.84509  Biso   1.000  H
  H1176    1.0000 0.78038  0.12060  0.81069  Biso   1.000  H
  H1177    1.0000 0.83695  0.11360  0.82410  Biso   1.000  H
  H1178    1.0000 0.78038  0.12056  0.81069  Biso   1.000  H
  H1179    1.0000 0.83695  0.11356  0.82410  Biso   1.000  H
  H1180    1.0000 0.83699  0.11360  0.82410  Biso   1.000  H
  H1181    1.0000 0.83699  0.11356  0.82410  Biso   1.000  H
  H1182    1.0000 0.82256  0.97765  0.83430  Biso   1.000  H
  H1183    1.0000 0.82256  0.97769  0.83430  Biso   1.000  H
  H1184    1.0000 0.82260  0.97765  0.83430  Biso   1.000  H
  H1185    1.0000 0.82260  0.97769  0.83430  Biso   1.000  H
  H1186    1.0000 0.86776  0.01898  0.83480  Biso   1.000  H
  H1187    1.0000 0.82076  0.02438  0.85791  Biso   1.000  H
  H1188    1.0000 0.86776  0.01902  0.83480  Biso   1.000  H
  H1189    1.0000 0.86780  0.01898  0.83480  Biso   1.000  H
  H1190    1.0000 0.82080  0.02438  0.85791  Biso   1.000  H
  H1191    1.0000 0.86780  0.01902  0.83480  Biso   1.000  H
  H1192    1.0000 0.74628  0.99177  0.81779  Biso   1.000  H
  H1193    1.0000 0.75137  0.01451  0.78410  Biso   1.000  H
  H1194    1.0000 0.72427  0.04750  0.81019  Biso   1.000  H
  H1195    1.0000 0.75137  0.01447  0.78410  Biso   1.000  H
  H1196    1.0000 0.58522  0.44157  0.60499  Biso   1.000  H
  H1197    1.0000 0.64408  0.42531  0.60169  Biso   1.000  H
  H1198    1.0000 0.60600  0.39170  0.62209  Biso   1.000  H
  H1199    1.0000 0.64408  0.42527  0.60169  Biso   1.000  H
  H1200    1.0000 0.60600  0.39166  0.62209  Biso   1.000  H
  H1201    1.0000 0.58518  0.44157  0.60499  Biso   1.000  H
  H1202    1.0000 0.56302  0.44789  0.55650  Biso   1.000  H
  H1203    1.0000 0.55957  0.39940  0.53430  Biso   1.000  H
  H1204    1.0000 0.61281  0.42898  0.53851  Biso   1.000  H
  H1205    1.0000 0.55957  0.39936  0.53430  Biso   1.000  H
  H1206    1.0000 0.56298  0.44789  0.55650  Biso   1.000  H
  H1207    1.0000 0.61278  0.42898  0.53851  Biso   1.000  H
  H1208    1.0000 0.56007  0.31768  0.59591  Biso   1.000  H
  H1209    1.0000 0.54132  0.32878  0.56180  Biso   1.000  H
  H1210    1.0000 0.52130  0.36380  0.58930  Biso   1.000  H
  H1211    1.0000 0.52130  0.36376  0.58930  Biso   1.000  H
  H1212    1.0000 0.54128  0.32878  0.56180  Biso   1.000  H
  C1321    1.0000 0.16607  0.91717  0.40521  Biso   1.000  C
  C1322    1.0000 0.19558  0.91128  0.43130  Biso   1.000  C
  C1323    1.0000 0.19558  0.91132  0.43130  Biso   1.000  C
  H1213    1.0000 0.14950  0.88835  0.39640  Biso   1.000  H
  C1324    1.0000 0.16091  0.96525  0.39196  Biso   1.000  C
  H1214    1.0000 0.14950  0.88839  0.39640  Biso   1.000  H
  C1325    1.0000 0.16091  0.96528  0.39196  Biso   1.000  C
  C1326    1.0000 0.16087  0.96525  0.39196  Biso   1.000  C
  C1327    1.0000 0.16087  0.96528  0.39196  Biso   1.000  C
  C1328    1.0000 0.19949  0.85988  0.44530  Biso   1.000  C
  C1329    1.0000 0.21989  0.95338  0.44414  Biso   1.000  C
  C1330    1.0000 0.16611  0.91717  0.40521  Biso   1.000  C
  C1331    1.0000 0.18521  0.00739  0.40480  Biso   1.000  C
  C1332    1.0000 0.18521  0.00735  0.40480  Biso   1.000  C
  C1333    1.0000 0.18517  0.00739  0.40480  Biso   1.000  C
  C1334    1.0000 0.18517  0.00735  0.40480  Biso   1.000  C
  C1335    1.0000 0.12539  0.97566  0.36400  Biso   1.000  C
  C1336    1.0000 0.12539  0.97570  0.36400  Biso   1.000  C
  O537     1.0000 0.17430  0.82267  0.43328  Biso   1.000  O
  O538     1.0000 0.17426  0.82267  0.43328  Biso   1.000  O
  O539     1.0000 0.22559  0.85586  0.47046  Biso   1.000  O
  O540     1.0000 0.22559  0.85590  0.47046  Biso   1.000  O
  H1215    1.0000 0.24010  0.94936  0.46199  Biso   1.000  H
  H1216    1.0000 0.24006  0.94936  0.46199  Biso   1.000  H
  C1337    1.0000 0.21468  0.00149  0.43089  Biso   1.000  C
  C1338    1.0000 0.21472  0.00149  0.43089  Biso   1.000  C
  H1217    1.0000 0.18161  0.04019  0.39569  Biso   1.000  H
  H1218    1.0000 0.18157  0.04019  0.39569  Biso   1.000  H
  O541     1.0000 0.10411  0.93424  0.35487  Biso   1.000  O
  O542     1.0000 0.10411  0.93428  0.35487  Biso   1.000  O
  O543     1.0000 0.12041  0.01830  0.35446  Biso   1.000  O
  O544     1.0000 0.12037  0.01830  0.35446  Biso   1.000  O
  Mg121    1.0000 0.15983  0.75458  0.45131  Biso   1.000  Mg
  Mg122    1.0000 0.15983  0.75462  0.45131  Biso   1.000  Mg
  Mg123    1.0000 0.22854  0.79883  0.50001  Biso   1.000  Mg
  Mg124    1.0000 0.22854  0.79887  0.50001  Biso   1.000  Mg
  Mg125    1.0000 0.22850  0.79883  0.50001  Biso   1.000  Mg
  Mg126    1.0000 0.22850  0.79887  0.50001  Biso   1.000  Mg
  C1339    1.0000 0.23799  0.04800  0.44501  Biso   1.000  C
  C1340    1.0000 0.23799  0.04803  0.44501  Biso   1.000  C
  Mg127    1.0000 0.04444  0.93126  0.32511  Biso   1.000  Mg
  Mg128    1.0000 0.04440  0.93126  0.32511  Biso   1.000  Mg
  Mg129    1.0000 0.06874  0.04444  0.32511  Biso   1.000  Mg
  Mg130    1.0000 0.06874  0.04440  0.32511  Biso   1.000  Mg
  Mg131    1.0000 0.06870  0.04444  0.32511  Biso   1.000  Mg
  Mg132    1.0000 0.06870  0.04440  0.32511  Biso   1.000  Mg
  O545     1.0000 0.13878  0.68217  0.46604  Biso   1.000  O
  O546     1.0000 0.18100  0.72098  0.41097  Biso   1.000  O
  O547     1.0000 0.18096  0.72098  0.41097  Biso   1.000  O
  Mg133    1.0000 0.09113  0.70973  0.50001  Biso   1.000  Mg
  O548     1.0000 0.14881  0.77296  0.50001  Biso   1.000  O
  O549     1.0000 0.14881  0.77299  0.50001  Biso   1.000  O
  O550     1.0000 0.14877  0.77296  0.50001  Biso   1.000  O
  O551     1.0000 0.14877  0.77299  0.50001  Biso   1.000  O
  O552     1.0000 0.23458  0.74207  0.46618  Biso   1.000  O
  O553     1.0000 0.08991  0.76878  0.43342  Biso   1.000  O
  Mg134    1.0000 0.15983  0.75458  0.54869  Biso   1.000  Mg
  Mg135    1.0000 0.15983  0.75462  0.54869  Biso   1.000  Mg
  O554     1.0000 0.23458  0.74207  0.53382  Biso   1.000  O
  O555     1.0000 0.30608  0.80055  0.50001  Biso   1.000  O
  O556     1.0000 0.22559  0.85586  0.52954  Biso   1.000  O
  O557     1.0000 0.30608  0.80059  0.50001  Biso   1.000  O
  O558     1.0000 0.22559  0.85590  0.52954  Biso   1.000  O
  O559     1.0000 0.30612  0.80055  0.50001  Biso   1.000  O
  O560     1.0000 0.30612  0.80059  0.50001  Biso   1.000  O
  O561     1.0000 0.26291  0.04011  0.46932  Biso   1.000  O
  O562     1.0000 0.23118  0.08991  0.43342  Biso   1.000  O
  O563     1.0000 0.26291  0.04007  0.46932  Biso   1.000  O
  O564     1.0000 0.26287  0.04011  0.46932  Biso   1.000  O
  O565     1.0000 0.26287  0.04007  0.46932  Biso   1.000  O
  O566     1.0000 0.01830  0.87955  0.35446  Biso   1.000  O
  O567     1.0000 0.01830  0.87959  0.35446  Biso   1.000  O
  Mg136    1.0000 0.93126  0.95552  0.32511  Biso   1.000  Mg
  Mg137    1.0000 0.93126  0.95556  0.32511  Biso   1.000  Mg
  O568     1.0000 0.98316  0.92165  0.29497  Biso   1.000  O
  O569     1.0000 0.98316  0.92169  0.29497  Biso   1.000  O
  O570     1.0000 0.98320  0.92165  0.29497  Biso   1.000  O
  O571     1.0000 0.98320  0.92169  0.29497  Biso   1.000  O
  O572     1.0000 0.00000  1.00000  0.33850  Biso   1.000  O
  O573     1.0000 0.07831  0.98316  0.29497  Biso   1.000  O
  O574     1.0000 0.08149  0.87465  0.30032  Biso   1.000  O
  O575     1.0000 0.07831  0.98320  0.29497  Biso   1.000  O
  O576     1.0000 0.08149  0.87469  0.30032  Biso   1.000  O
  O577     1.0000 0.07827  0.98316  0.29497  Biso   1.000  O
  O578     1.0000 0.07827  0.98320  0.29497  Biso   1.000  O
  Mg138    1.0000 0.95552  0.06874  0.32511  Biso   1.000  Mg
  Mg139    1.0000 0.95552  0.06870  0.32511  Biso   1.000  Mg
  Mg140    1.0000 0.95556  0.06874  0.32511  Biso   1.000  Mg
  Mg141    1.0000 0.95556  0.06870  0.32511  Biso   1.000  Mg
  O579     1.0000 0.12531  0.08149  0.30032  Biso   1.000  O
  O580     1.0000 0.06572  0.10411  0.35487  Biso   1.000  O
  O581     1.0000 0.01680  0.07831  0.29497  Biso   1.000  O
  O582     1.0000 0.01680  0.07827  0.29497  Biso   1.000  O
  O583     1.0000 0.12527  0.08149  0.30032  Biso   1.000  O
  O584     1.0000 0.06568  0.10411  0.35487  Biso   1.000  O
  C1341    1.0000 0.14529  0.63628  0.45521  Biso   1.000  C
  S125     1.0000 0.21047  0.67367  0.40999  Biso   1.000  S
  S126     1.0000 0.21047  0.67363  0.40999  Biso   1.000  S
  S127     1.0000 0.21051  0.67367  0.40999  Biso   1.000  S
  S128     1.0000 0.21051  0.67363  0.40999  Biso   1.000  S
  O585     1.0000 0.05699  0.64098  0.50001  Biso   1.000  O
  O586     1.0000 0.05703  0.64098  0.50001  Biso   1.000  O
  O587     1.0000 0.13878  0.68217  0.53396  Biso   1.000  O
  O588     1.0000 0.04011  0.73709  0.53068  Biso   1.000  O
  O589     1.0000 0.04011  0.73709  0.46932  Biso   1.000  O
  O590     1.0000 0.04007  0.73709  0.53068  Biso   1.000  O
  O591     1.0000 0.04007  0.73709  0.46932  Biso   1.000  O
  C1342    1.0000 0.27229  0.71642  0.45530  Biso   1.000  C
  C1343    1.0000 0.27229  0.71639  0.45530  Biso   1.000  C
  C1344    1.0000 0.04800  0.76197  0.44501  Biso   1.000  C
  C1345    1.0000 0.04803  0.76197  0.44501  Biso   1.000  C
  O592     1.0000 0.08991  0.76878  0.56658  Biso   1.000  O
  O593     1.0000 0.18100  0.72098  0.58903  Biso   1.000  O
  O594     1.0000 0.17430  0.82267  0.56672  Biso   1.000  O
  O595     1.0000 0.18096  0.72098  0.58903  Biso   1.000  O
  O596     1.0000 0.17426  0.82267  0.56672  Biso   1.000  O
  C1346    1.0000 0.27229  0.71642  0.54470  Biso   1.000  C
  C1347    1.0000 0.27229  0.71639  0.54470  Biso   1.000  C
  S129     1.0000 0.33865  0.75477  0.50001  Biso   1.000  S
  S130     1.0000 0.33865  0.75481  0.50001  Biso   1.000  S
  C1348    1.0000 0.19949  0.85988  0.55470  Biso   1.000  C
  Mg142    1.0000 0.29024  0.09113  0.50001  Biso   1.000  Mg
  Mg143    1.0000 0.24538  0.15983  0.45131  Biso   1.000  Mg
  Mg144    1.0000 0.24534  0.15983  0.45131  Biso   1.000  Mg
  C1349    1.0000 0.97566  0.87457  0.36400  Biso   1.000  C
  C1350    1.0000 0.97570  0.87457  0.36400  Biso   1.000  C
  O597     1.0000 0.93424  0.89585  0.35487  Biso   1.000  O
  O598     1.0000 0.93424  0.89589  0.35487  Biso   1.000  O
  O599     1.0000 0.93428  0.89585  0.35487  Biso   1.000  O
  O600     1.0000 0.93428  0.89589  0.35487  Biso   1.000  O
  O601     1.0000 0.87465  0.91848  0.30032  Biso   1.000  O
  O602     1.0000 0.87955  0.98167  0.35446  Biso   1.000  O
  O603     1.0000 0.87469  0.91848  0.30032  Biso   1.000  O
  O604     1.0000 0.87959  0.98167  0.35446  Biso   1.000  O
  O605     1.0000 0.92165  0.01680  0.29497  Biso   1.000  O
  O606     1.0000 0.92169  0.01680  0.29497  Biso   1.000  O
  C1351    1.0000 0.97895  0.89398  0.26990  Biso   1.000  C
  C1352    1.0000 0.97899  0.89398  0.26990  Biso   1.000  C
  C1353    1.0000 0.10598  0.97895  0.26990  Biso   1.000  C
  C1354    1.0000 0.10598  0.97899  0.26990  Biso   1.000  C
  S131     1.0000 0.08263  0.87274  0.26824  Biso   1.000  S
  S132     1.0000 0.08263  0.87278  0.26824  Biso   1.000  S
  O607     1.0000 0.98167  0.12041  0.35446  Biso   1.000  O
  O608     1.0000 0.91848  0.12531  0.30032  Biso   1.000  O
  O609     1.0000 0.89585  0.06572  0.35487  Biso   1.000  O
  O610     1.0000 0.98167  0.12037  0.35446  Biso   1.000  O
  O611     1.0000 0.91848  0.12527  0.30032  Biso   1.000  O
  O612     1.0000 0.89585  0.06568  0.35487  Biso   1.000  O
  O613     1.0000 0.89589  0.06572  0.35487  Biso   1.000  O
  O614     1.0000 0.89589  0.06568  0.35487  Biso   1.000  O
  S133     1.0000 0.12722  0.08263  0.26824  Biso   1.000  S
  S134     1.0000 0.12719  0.08263  0.26824  Biso   1.000  S
  C1355    1.0000 0.02430  0.12539  0.36400  Biso   1.000  C
  C1356    1.0000 0.02101  0.10598  0.26990  Biso   1.000  C
  C1357    1.0000 0.02097  0.10598  0.26990  Biso   1.000  C
  C1358    1.0000 0.12370  0.58912  0.46841  Biso   1.000  C
  C1359    1.0000 0.12370  0.58908  0.46841  Biso   1.000  C
  C1360    1.0000 0.17809  0.62499  0.42921  Biso   1.000  C
  O615     1.0000 0.22448  0.65450  0.38026  Biso   1.000  O
  C1361    1.0000 0.26861  0.68301  0.43100  Biso   1.000  C
  C1362    1.0000 0.26861  0.68297  0.43100  Biso   1.000  C
  O616     1.0000 0.22452  0.65450  0.38026  Biso   1.000  O
  C1363    1.0000 0.26857  0.68301  0.43100  Biso   1.000  C
  C1364    1.0000 0.26857  0.68297  0.43100  Biso   1.000  C
  S135     1.0000 0.08348  0.59257  0.50001  Biso   1.000  S
  C1365    1.0000 0.14529  0.63628  0.54479  Biso   1.000  C
  C1366    1.0000 0.04800  0.76197  0.55499  Biso   1.000  C
  C1367    1.0000 0.04803  0.76197  0.55499  Biso   1.000  C
  C1368    1.0000 0.32151  0.71838  0.46750  Biso   1.000  C
  C1369    1.0000 0.00149  0.78528  0.43089  Biso   1.000  C
  S136     1.0000 0.21047  0.67367  0.59001  Biso   1.000  S
  S137     1.0000 0.21047  0.67363  0.59001  Biso   1.000  S
  S138     1.0000 0.21051  0.67367  0.59001  Biso   1.000  S
  S139     1.0000 0.21051  0.67363  0.59001  Biso   1.000  S
  C1370    1.0000 0.26861  0.68301  0.56900  Biso   1.000  C
  C1371    1.0000 0.26861  0.68297  0.56900  Biso   1.000  C
  C1372    1.0000 0.26857  0.68301  0.56900  Biso   1.000  C
  C1373    1.0000 0.26857  0.68297  0.56900  Biso   1.000  C
  C1374    1.0000 0.32151  0.71838  0.53250  Biso   1.000  C
  O617     1.0000 0.39220  0.76247  0.50001  Biso   1.000  O
  O618     1.0000 0.39216  0.76247  0.50001  Biso   1.000  O
  C1375    1.0000 0.19558  0.91128  0.56870  Biso   1.000  C
  C1376    1.0000 0.19558  0.91132  0.56870  Biso   1.000  C
  O619     1.0000 0.26291  0.04011  0.53068  Biso   1.000  O
  O620     1.0000 0.26291  0.04007  0.53068  Biso   1.000  O
  O621     1.0000 0.26287  0.04011  0.53068  Biso   1.000  O
  O622     1.0000 0.26287  0.04007  0.53068  Biso   1.000  O
  Mg145    1.0000 0.24538  0.15983  0.54869  Biso   1.000  Mg
  Mg146    1.0000 0.24534  0.15983  0.54869  Biso   1.000  Mg
  O623     1.0000 0.22701  0.14881  0.50001  Biso   1.000  O
  O624     1.0000 0.35898  0.05699  0.50001  Biso   1.000  O
  O625     1.0000 0.31779  0.13878  0.53396  Biso   1.000  O
  O626     1.0000 0.31779  0.13878  0.46604  Biso   1.000  O
  O627     1.0000 0.22701  0.14877  0.50001  Biso   1.000  O
  O628     1.0000 0.35898  0.05703  0.50001  Biso   1.000  O
  Mg147    1.0000 0.20113  0.22854  0.50001  Biso   1.000  Mg
  O629     1.0000 0.27898  0.18100  0.41097  Biso   1.000  O
  O630     1.0000 0.25789  0.23458  0.46618  Biso   1.000  O
  O631     1.0000 0.17729  0.17430  0.43328  Biso   1.000  O
  Mg148    1.0000 0.20113  0.22850  0.50001  Biso   1.000  Mg
  O632     1.0000 0.27898  0.18096  0.41097  Biso   1.000  O
  O633     1.0000 0.17729  0.17426  0.43328  Biso   1.000  O
  Mg149    1.0000 0.20109  0.22854  0.50001  Biso   1.000  Mg
  Mg150    1.0000 0.20109  0.22850  0.50001  Biso   1.000  Mg
  C1377    1.0000 0.96525  0.83906  0.39196  Biso   1.000  C
  C1378    1.0000 0.96525  0.83909  0.39196  Biso   1.000  C
  C1379    1.0000 0.96528  0.83906  0.39196  Biso   1.000  C
  C1380    1.0000 0.96528  0.83909  0.39196  Biso   1.000  C
  S140     1.0000 0.87274  0.91733  0.26824  Biso   1.000  S
  S141     1.0000 0.87274  0.91737  0.26824  Biso   1.000  S
  S142     1.0000 0.87278  0.91733  0.26824  Biso   1.000  S
  S143     1.0000 0.87278  0.91737  0.26824  Biso   1.000  S
  C1381    1.0000 0.87457  0.02430  0.36400  Biso   1.000  C
  C1382    1.0000 0.89398  0.02101  0.26990  Biso   1.000  C
  C1383    1.0000 0.89398  0.02097  0.26990  Biso   1.000  C
  C1384    1.0000 0.92946  0.88988  0.25481  Biso   1.000  C
  C1385    1.0000 0.92950  0.88988  0.25481  Biso   1.000  C
  C1386    1.0000 0.02009  0.87040  0.25561  Biso   1.000  C
  C1387    1.0000 0.02013  0.87040  0.25561  Biso   1.000  C
  C1388    1.0000 0.11012  0.92946  0.25481  Biso   1.000  C
  C1389    1.0000 0.11012  0.92950  0.25481  Biso   1.000  C
  C1390    1.0000 0.12960  0.02009  0.25561  Biso   1.000  C
  C1391    1.0000 0.12960  0.02013  0.25561  Biso   1.000  C
  C1392    1.0000 0.12956  0.02009  0.25561  Biso   1.000  C
  C1393    1.0000 0.12956  0.02013  0.25561  Biso   1.000  C
  O634     1.0000 0.10981  0.83117  0.25538  Biso   1.000  O
  O635     1.0000 0.10977  0.83117  0.25538  Biso   1.000  O
  S144     1.0000 0.91733  0.12722  0.26824  Biso   1.000  S
  S145     1.0000 0.91733  0.12719  0.26824  Biso   1.000  S
  S146     1.0000 0.91737  0.12722  0.26824  Biso   1.000  S
  S147     1.0000 0.91737  0.12719  0.26824  Biso   1.000  S
  O636     1.0000 0.16879  0.10981  0.25538  Biso   1.000  O
  C1394    1.0000 0.07050  0.11012  0.25481  Biso   1.000  C
  O637     1.0000 0.16879  0.10977  0.25538  Biso   1.000  O
  C1395    1.0000 0.07046  0.11012  0.25481  Biso   1.000  C
  C1396    1.0000 0.03472  0.16091  0.39196  Biso   1.000  C
  C1397    1.0000 0.03472  0.16087  0.39196  Biso   1.000  C
  C1398    1.0000 0.97987  0.12960  0.25561  Biso   1.000  C
  C1399    1.0000 0.97987  0.12956  0.25561  Biso   1.000  C
  C1400    1.0000 0.12941  0.54185  0.45550  Biso   1.000  C
  C1401    1.0000 0.12941  0.54189  0.45550  Biso   1.000  C
  C1402    1.0000 0.12937  0.54185  0.45550  Biso   1.000  C
  C1403    1.0000 0.12937  0.54189  0.45550  Biso   1.000  C
  C1404    1.0000 0.18131  0.57749  0.41730  Biso   1.000  C
  C1405    1.0000 0.18127  0.57749  0.41730  Biso   1.000  C
  C1406    1.0000 0.30880  0.65377  0.41889  Biso   1.000  C
  C1407    1.0000 0.30880  0.65381  0.41889  Biso   1.000  C
  C1408    1.0000 0.30876  0.65377  0.41889  Biso   1.000  C
  C1409    1.0000 0.30876  0.65381  0.41889  Biso   1.000  C
  O638     1.0000 0.05259  0.54782  0.50001  Biso   1.000  O
  C1410    1.0000 0.12370  0.58912  0.53159  Biso   1.000  C
  O639     1.0000 0.05259  0.54779  0.50001  Biso   1.000  O
  C1411    1.0000 0.12370  0.58908  0.53159  Biso   1.000  C
  O640     1.0000 0.05263  0.54782  0.50001  Biso   1.000  O
  O641     1.0000 0.05263  0.54779  0.50001  Biso   1.000  O
  C1412    1.0000 0.17809  0.62499  0.57079  Biso   1.000  C
  C1413    1.0000 0.00149  0.78528  0.56911  Biso   1.000  C
  C1414    1.0000 0.36269  0.68806  0.45571  Biso   1.000  C
  C1415    1.0000 0.36269  0.68810  0.45571  Biso   1.000  C
  C1416    1.0000 0.95338  0.78007  0.44414  Biso   1.000  C
  C1417    1.0000 0.00739  0.81475  0.40480  Biso   1.000  C
  C1418    1.0000 0.00739  0.81479  0.40480  Biso   1.000  C
  C1419    1.0000 0.00735  0.81475  0.40480  Biso   1.000  C
  C1420    1.0000 0.00735  0.81479  0.40480  Biso   1.000  C
  O642     1.0000 0.22448  0.65450  0.61974  Biso   1.000  O
  O643     1.0000 0.22452  0.65450  0.61974  Biso   1.000  O
  C1421    1.0000 0.30880  0.65377  0.58111  Biso   1.000  C
  C1422    1.0000 0.30880  0.65381  0.58111  Biso   1.000  C
  C1423    1.0000 0.30876  0.65377  0.58111  Biso   1.000  C
  C1424    1.0000 0.30876  0.65381  0.58111  Biso   1.000  C
  C1425    1.0000 0.36269  0.68806  0.54429  Biso   1.000  C
  C1426    1.0000 0.36269  0.68810  0.54429  Biso   1.000  C
  C1427    1.0000 0.21989  0.95338  0.55586  Biso   1.000  C
  C1428    1.0000 0.16611  0.91717  0.59479  Biso   1.000  C
  C1429    1.0000 0.16607  0.91717  0.59479  Biso   1.000  C
  C1430    1.0000 0.23799  0.04800  0.55499  Biso   1.000  C
  C1431    1.0000 0.23799  0.04803  0.55499  Biso   1.000  C
  O644     1.0000 0.23118  0.08991  0.56658  Biso   1.000  O
  O645     1.0000 0.27898  0.18100  0.58903  Biso   1.000  O
  O646     1.0000 0.25789  0.23458  0.53382  Biso   1.000  O
  O647     1.0000 0.17729  0.17430  0.56672  Biso   1.000  O
  O648     1.0000 0.27898  0.18096  0.58903  Biso   1.000  O
  O649     1.0000 0.17729  0.17426  0.56672  Biso   1.000  O
  S148     1.0000 0.40739  0.08348  0.50001  Biso   1.000  S
  S149     1.0000 0.40743  0.08348  0.50001  Biso   1.000  S
  C1432    1.0000 0.36369  0.14529  0.54479  Biso   1.000  C
  C1433    1.0000 0.36369  0.14529  0.45521  Biso   1.000  C
  O650     1.0000 0.19941  0.30608  0.50001  Biso   1.000  O
  O651     1.0000 0.14410  0.22559  0.52954  Biso   1.000  O
  O652     1.0000 0.14410  0.22559  0.47046  Biso   1.000  O
  O653     1.0000 0.19941  0.30612  0.50001  Biso   1.000  O
  O654     1.0000 0.19937  0.30608  0.50001  Biso   1.000  O
  O655     1.0000 0.14407  0.22559  0.52954  Biso   1.000  O
  O656     1.0000 0.14407  0.22559  0.47046  Biso   1.000  O
  O657     1.0000 0.19937  0.30612  0.50001  Biso   1.000  O
  S150     1.0000 0.32633  0.21047  0.40999  Biso   1.000  S
  S151     1.0000 0.32633  0.21051  0.40999  Biso   1.000  S
  C1434    1.0000 0.28358  0.27229  0.45530  Biso   1.000  C
  C1435    1.0000 0.14008  0.19949  0.44530  Biso   1.000  C
  C1436    1.0000 0.91717  0.83385  0.40521  Biso   1.000  C
  C1437    1.0000 0.91717  0.83389  0.40521  Biso   1.000  C
  O658     1.0000 0.83117  0.89015  0.25538  Biso   1.000  O
  C1438    1.0000 0.87040  0.97987  0.25561  Biso   1.000  C
  O659     1.0000 0.83117  0.89019  0.25538  Biso   1.000  O
  C1439    1.0000 0.83906  0.03472  0.39196  Biso   1.000  C
  C1440    1.0000 0.83909  0.03472  0.39196  Biso   1.000  C
  C1441    1.0000 0.88988  0.07050  0.25481  Biso   1.000  C
  C1442    1.0000 0.88988  0.07046  0.25481  Biso   1.000  C
  C1443    1.0000 0.92314  0.85659  0.23011  Biso   1.000  C
  C1444    1.0000 0.92318  0.85659  0.23011  Biso   1.000  C
  C1445    1.0000 0.01160  0.83856  0.22931  Biso   1.000  C
  C1446    1.0000 0.01160  0.83860  0.22931  Biso   1.000  C
  C1447    1.0000 0.14341  0.92314  0.23011  Biso   1.000  C
  C1448    1.0000 0.14341  0.92318  0.23011  Biso   1.000  C
  C1449    1.0000 0.14338  0.92314  0.23011  Biso   1.000  C
  C1450    1.0000 0.14338  0.92318  0.23011  Biso   1.000  C
  C1451    1.0000 0.16140  0.01160  0.22931  Biso   1.000  C
  C1452    1.0000 0.16137  0.01160  0.22931  Biso   1.000  C
  O660     1.0000 0.89015  0.16879  0.25538  Biso   1.000  O
  O661     1.0000 0.89019  0.16879  0.25538  Biso   1.000  O
  C1453    1.0000 0.07682  0.14341  0.23011  Biso   1.000  C
  C1454    1.0000 0.07682  0.14338  0.23011  Biso   1.000  C
  C1455    1.0000 0.08279  0.16611  0.40521  Biso   1.000  C
  C1456    1.0000 0.08279  0.16607  0.40521  Biso   1.000  C
  C1457    1.0000 0.99257  0.18521  0.40480  Biso   1.000  C
  C1458    1.0000 0.99257  0.18517  0.40480  Biso   1.000  C
  C1459    1.0000 0.99261  0.18521  0.40480  Biso   1.000  C
  C1460    1.0000 0.99261  0.18517  0.40480  Biso   1.000  C
  C1461    1.0000 0.98836  0.16140  0.22931  Biso   1.000  C
  C1462    1.0000 0.98836  0.16137  0.22931  Biso   1.000  C
  C1463    1.0000 0.15899  0.53370  0.42989  Biso   1.000  C
  H1219    1.0000 0.11230  0.51361  0.46449  Biso   1.000  H
  H1220    1.0000 0.20010  0.57358  0.39899  Biso   1.000  H
  H1221    1.0000 0.20006  0.57358  0.39899  Biso   1.000  H
  H1222    1.0000 0.30348  0.63341  0.40120  Biso   1.000  H
  C1464    1.0000 0.35810  0.65495  0.43330  Biso   1.000  C
  C1465    1.0000 0.35810  0.65499  0.43330  Biso   1.000  C
  C1466    1.0000 0.35806  0.65495  0.43330  Biso   1.000  C
  C1467    1.0000 0.35806  0.65499  0.43330  Biso   1.000  C
  C1468    1.0000 0.12941  0.54185  0.54450  Biso   1.000  C
  C1469    1.0000 0.12941  0.54189  0.54450  Biso   1.000  C
  C1470    1.0000 0.12937  0.54185  0.54450  Biso   1.000  C
  C1471    1.0000 0.12937  0.54189  0.54450  Biso   1.000  C
  C1472    1.0000 0.18131  0.57749  0.58270  Biso   1.000  C
  C1473    1.0000 0.18127  0.57749  0.58270  Biso   1.000  C
  C1474    1.0000 0.95338  0.78007  0.55586  Biso   1.000  C
  C1475    1.0000 0.00739  0.81475  0.59520  Biso   1.000  C
  C1476    1.0000 0.00739  0.81479  0.59520  Biso   1.000  C
  C1477    1.0000 0.00735  0.81475  0.59520  Biso   1.000  C
  C1478    1.0000 0.00735  0.81479  0.59520  Biso   1.000  C
  H1223    1.0000 0.39561  0.69227  0.46461  Biso   1.000  H
  H1224    1.0000 0.39557  0.69227  0.46461  Biso   1.000  H
  C1479    1.0000 0.91128  0.80438  0.43130  Biso   1.000  C
  H1225    1.0000 0.94936  0.75990  0.46199  Biso   1.000  H
  C1480    1.0000 0.91132  0.80438  0.43130  Biso   1.000  C
  H1226    1.0000 0.04019  0.81835  0.39569  Biso   1.000  H
  H1227    1.0000 0.04019  0.81839  0.39569  Biso   1.000  H
  H1228    1.0000 0.30348  0.63341  0.59880  Biso   1.000  H
  C1481    1.0000 0.35810  0.65495  0.56670  Biso   1.000  C
  C1482    1.0000 0.35810  0.65499  0.56670  Biso   1.000  C
  C1483    1.0000 0.35806  0.65495  0.56670  Biso   1.000  C
  C1484    1.0000 0.35806  0.65499  0.56670  Biso   1.000  C
  H1229    1.0000 0.39561  0.69227  0.53539  Biso   1.000  H
  H1230    1.0000 0.39557  0.69227  0.53539  Biso   1.000  H
  H1231    1.0000 0.24010  0.94936  0.53801  Biso   1.000  H
  H1232    1.0000 0.24006  0.94936  0.53801  Biso   1.000  H
  C1485    1.0000 0.21468  0.00149  0.56911  Biso   1.000  C
  C1486    1.0000 0.21472  0.00149  0.56911  Biso   1.000  C
  H1233    1.0000 0.14950  0.88835  0.60360  Biso   1.000  H
  C1487    1.0000 0.16091  0.96525  0.60804  Biso   1.000  C
  H1234    1.0000 0.14950  0.88839  0.60360  Biso   1.000  H
  C1488    1.0000 0.16091  0.96528  0.60804  Biso   1.000  C
  C1489    1.0000 0.16087  0.96525  0.60804  Biso   1.000  C
  C1490    1.0000 0.16087  0.96528  0.60804  Biso   1.000  C
  S152     1.0000 0.32633  0.21047  0.59001  Biso   1.000  S
  S153     1.0000 0.32633  0.21051  0.59001  Biso   1.000  S
  C1491    1.0000 0.28358  0.27229  0.54470  Biso   1.000  C
  C1492    1.0000 0.14008  0.19949  0.55470  Biso   1.000  C
  O662     1.0000 0.45218  0.05259  0.50001  Biso   1.000  O
  C1493    1.0000 0.41088  0.12370  0.53159  Biso   1.000  C
  C1494    1.0000 0.41088  0.12370  0.46841  Biso   1.000  C
  O663     1.0000 0.45218  0.05263  0.50001  Biso   1.000  O
  O664     1.0000 0.45221  0.05259  0.50001  Biso   1.000  O
  O665     1.0000 0.45221  0.05263  0.50001  Biso   1.000  O
  C1495    1.0000 0.37498  0.17809  0.57079  Biso   1.000  C
  C1496    1.0000 0.37498  0.17809  0.42921  Biso   1.000  C
  S154     1.0000 0.24519  0.33865  0.50001  Biso   1.000  S
  S155     1.0000 0.24515  0.33865  0.50001  Biso   1.000  S
  O666     1.0000 0.34550  0.22448  0.38026  Biso   1.000  O
  C1497    1.0000 0.31699  0.26861  0.43100  Biso   1.000  C
  O667     1.0000 0.34550  0.22452  0.38026  Biso   1.000  O
  C1498    1.0000 0.31699  0.26857  0.43100  Biso   1.000  C
  O668     1.0000 0.34547  0.22448  0.38026  Biso   1.000  O
  O669     1.0000 0.34547  0.22452  0.38026  Biso   1.000  O
  C1499    1.0000 0.28159  0.32151  0.46750  Biso   1.000  C
  C1500    1.0000 0.08868  0.19558  0.43130  Biso   1.000  C
  H1235    1.0000 0.88835  0.85046  0.39640  Biso   1.000  H
  H1236    1.0000 0.88835  0.85050  0.39640  Biso   1.000  H
  H1237    1.0000 0.88839  0.85046  0.39640  Biso   1.000  H
  H1238    1.0000 0.88839  0.85050  0.39640  Biso   1.000  H
  C1501    1.0000 0.83856  0.98836  0.22931  Biso   1.000  C
  C1502    1.0000 0.83860  0.98836  0.22931  Biso   1.000  C
  C1503    1.0000 0.81475  0.99257  0.40480  Biso   1.000  C
  C1504    1.0000 0.81475  0.99261  0.40480  Biso   1.000  C
  C1505    1.0000 0.81479  0.99257  0.40480  Biso   1.000  C
  C1506    1.0000 0.81479  0.99261  0.40480  Biso   1.000  C
  C1507    1.0000 0.83385  0.08279  0.40521  Biso   1.000  C
  C1508    1.0000 0.83389  0.08279  0.40521  Biso   1.000  C
  C1509    1.0000 0.85659  0.07682  0.23011  Biso   1.000  C
  H1239    1.0000 0.89015  0.85146  0.22159  Biso   1.000  H
  C1510    1.0000 0.96337  0.83197  0.21820  Biso   1.000  C
  H1240    1.0000 0.89015  0.85149  0.22159  Biso   1.000  H
  H1241    1.0000 0.89019  0.85146  0.22159  Biso   1.000  H
  H1242    1.0000 0.89019  0.85149  0.22159  Biso   1.000  H
  H1243    1.0000 0.03969  0.82225  0.21970  Biso   1.000  H
  H1244    1.0000 0.03969  0.82229  0.21970  Biso   1.000  H
  H1245    1.0000 0.03973  0.82225  0.21970  Biso   1.000  H
  H1246    1.0000 0.03973  0.82229  0.21970  Biso   1.000  H
  C1511    1.0000 0.16799  0.96337  0.21820  Biso   1.000  C
  H1247    1.0000 0.14851  0.89015  0.22159  Biso   1.000  H
  H1248    1.0000 0.14851  0.89019  0.22159  Biso   1.000  H
  H1249    1.0000 0.17771  0.03969  0.21970  Biso   1.000  H
  H1250    1.0000 0.17771  0.03973  0.21970  Biso   1.000  H
  H1251    1.0000 0.17767  0.03969  0.21970  Biso   1.000  H
  H1252    1.0000 0.17767  0.03973  0.21970  Biso   1.000  H
  H1253    1.0000 0.10981  0.14851  0.22159  Biso   1.000  H
  C1512    1.0000 0.03659  0.16799  0.21820  Biso   1.000  C
  H1254    1.0000 0.10977  0.14851  0.22159  Biso   1.000  H
  C1513    1.0000 0.03663  0.16799  0.21820  Biso   1.000  C
  H1255    1.0000 0.11161  0.14950  0.39640  Biso   1.000  H
  C1514    1.0000 0.99847  0.21468  0.43089  Biso   1.000  C
  C1515    1.0000 0.99847  0.21472  0.43089  Biso   1.000  C
  H1256    1.0000 0.95977  0.18161  0.39569  Biso   1.000  H
  H1257    1.0000 0.95977  0.18157  0.39569  Biso   1.000  H
  H1258    1.0000 0.96031  0.17771  0.21970  Biso   1.000  H
  H1259    1.0000 0.96031  0.17767  0.21970  Biso   1.000  H
  H1260    1.0000 0.96027  0.17771  0.21970  Biso   1.000  H
  H1261    1.0000 0.96027  0.17767  0.21970  Biso   1.000  H
  C1516    1.0000 0.16251  0.48015  0.41441  Biso   1.000  C
  C1517    1.0000 0.16251  0.48019  0.41441  Biso   1.000  C
  C1518    1.0000 0.16248  0.48015  0.41441  Biso   1.000  C
  C1519    1.0000 0.16248  0.48019  0.41441  Biso   1.000  C
  C1520    1.0000 0.40399  0.61909  0.42340  Biso   1.000  C
  H1262    1.0000 0.11230  0.51361  0.53551  Biso   1.000  H
  C1521    1.0000 0.15899  0.53370  0.57011  Biso   1.000  C
  H1263    1.0000 0.20010  0.57358  0.60101  Biso   1.000  H
  H1264    1.0000 0.20006  0.57358  0.60101  Biso   1.000  H
  C1522    1.0000 0.91128  0.80438  0.56870  Biso   1.000  C
  H1265    1.0000 0.94936  0.75990  0.53801  Biso   1.000  H
  C1523    1.0000 0.91132  0.80438  0.56870  Biso   1.000  C
  C1524    1.0000 0.96525  0.83906  0.60804  Biso   1.000  C
  C1525    1.0000 0.96525  0.83909  0.60804  Biso   1.000  C
  C1526    1.0000 0.96528  0.83906  0.60804  Biso   1.000  C
  C1527    1.0000 0.96528  0.83909  0.60804  Biso   1.000  C
  H1266    1.0000 0.04019  0.81835  0.60431  Biso   1.000  H
  H1267    1.0000 0.04019  0.81839  0.60431  Biso   1.000  H
  C1528    1.0000 0.85988  0.80051  0.44530  Biso   1.000  C
  C1529    1.0000 0.85988  0.80047  0.44530  Biso   1.000  C
  C1530    1.0000 0.40399  0.61909  0.57660  Biso   1.000  C
  C1531    1.0000 0.18521  0.00739  0.59520  Biso   1.000  C
  C1532    1.0000 0.18521  0.00735  0.59520  Biso   1.000  C
  C1533    1.0000 0.18517  0.00739  0.59520  Biso   1.000  C
  C1534    1.0000 0.18517  0.00735  0.59520  Biso   1.000  C
  C1535    1.0000 0.12539  0.97566  0.63600  Biso   1.000  C
  C1536    1.0000 0.12539  0.97570  0.63600  Biso   1.000  C
  O670     1.0000 0.34550  0.22448  0.61974  Biso   1.000  O
  C1537    1.0000 0.31699  0.26861  0.56900  Biso   1.000  C
  O671     1.0000 0.34550  0.22452  0.61974  Biso   1.000  O
  C1538    1.0000 0.31699  0.26857  0.56900  Biso   1.000  C
  O672     1.0000 0.34547  0.22448  0.61974  Biso   1.000  O
  O673     1.0000 0.34547  0.22452  0.61974  Biso   1.000  O
  C1539    1.0000 0.28159  0.32151  0.53250  Biso   1.000  C
  C1540    1.0000 0.08868  0.19558  0.56870  Biso   1.000  C
  C1541    1.0000 0.45811  0.12941  0.54450  Biso   1.000  C
  C1542    1.0000 0.45811  0.12937  0.54450  Biso   1.000  C
  C1543    1.0000 0.45807  0.12941  0.54450  Biso   1.000  C
  C1544    1.0000 0.45807  0.12937  0.54450  Biso   1.000  C
  C1545    1.0000 0.45811  0.12941  0.45550  Biso   1.000  C
  C1546    1.0000 0.45811  0.12937  0.45550  Biso   1.000  C
  C1547    1.0000 0.45807  0.12941  0.45550  Biso   1.000  C
  C1548    1.0000 0.45807  0.12937  0.45550  Biso   1.000  C
  C1549    1.0000 0.42247  0.18131  0.58270  Biso   1.000  C
  C1550    1.0000 0.42247  0.18127  0.58270  Biso   1.000  C
  C1551    1.0000 0.42247  0.18131  0.41730  Biso   1.000  C
  C1552    1.0000 0.42247  0.18127  0.41730  Biso   1.000  C
  O674     1.0000 0.23749  0.39220  0.50001  Biso   1.000  O
  O675     1.0000 0.23749  0.39216  0.50001  Biso   1.000  O
  C1553    1.0000 0.34619  0.30880  0.41889  Biso   1.000  C
  C1554    1.0000 0.34619  0.30876  0.41889  Biso   1.000  C
  C1555    1.0000 0.34616  0.30880  0.41889  Biso   1.000  C
  C1556    1.0000 0.34616  0.30876  0.41889  Biso   1.000  C
  C1557    1.0000 0.31190  0.36269  0.45571  Biso   1.000  C
  C1558    1.0000 0.31186  0.36269  0.45571  Biso   1.000  C
  C1559    1.0000 0.04658  0.21989  0.44414  Biso   1.000  C
  C1560    1.0000 0.04662  0.21989  0.44414  Biso   1.000  C
  H1268    1.0000 0.82225  0.96031  0.21970  Biso   1.000  H
  H1269    1.0000 0.82225  0.96027  0.21970  Biso   1.000  H
  H1270    1.0000 0.82229  0.96031  0.21970  Biso   1.000  H
  H1271    1.0000 0.82229  0.96027  0.21970  Biso   1.000  H
  C1561    1.0000 0.83197  0.03659  0.21820  Biso   1.000  C
  C1562    1.0000 0.83197  0.03663  0.21820  Biso   1.000  C
  C1563    1.0000 0.78528  0.99847  0.43089  Biso   1.000  C
  H1272    1.0000 0.81835  0.95977  0.39569  Biso   1.000  H
  H1273    1.0000 0.81839  0.95977  0.39569  Biso   1.000  H
  C1564    1.0000 0.80438  0.08868  0.43130  Biso   1.000  C
  H1274    1.0000 0.85046  0.11161  0.39640  Biso   1.000  H
  H1275    1.0000 0.85050  0.11161  0.39640  Biso   1.000  H
  H1276    1.0000 0.85146  0.10981  0.22159  Biso   1.000  H
  H1277    1.0000 0.85146  0.10977  0.22159  Biso   1.000  H
  H1278    1.0000 0.85149  0.10981  0.22159  Biso   1.000  H
  H1279    1.0000 0.85149  0.10977  0.22159  Biso   1.000  H
  C1565    1.0000 0.95388  0.80216  0.18601  Biso   1.000  C
  C1566    1.0000 0.95388  0.80220  0.18601  Biso   1.000  C
  C1567    1.0000 0.19780  0.95388  0.18601  Biso   1.000  C
  C1568    1.0000 0.19776  0.95388  0.18601  Biso   1.000  C
  C1569    1.0000 0.04608  0.19780  0.18601  Biso   1.000  C
  C1570    1.0000 0.04608  0.19776  0.18601  Biso   1.000  C
  C1571    1.0000 0.95197  0.23799  0.44501  Biso   1.000  C
  C1572    1.0000 0.20129  0.48398  0.38841  Biso   1.000  C
  C1573    1.0000 0.10702  0.46978  0.40300  Biso   1.000  C
  C1574    1.0000 0.17821  0.44157  0.43911  Biso   1.000  C
  C1575    1.0000 0.17817  0.44157  0.43911  Biso   1.000  C
  C1576    1.0000 0.39109  0.58740  0.39631  Biso   1.000  C
  C1577    1.0000 0.41861  0.58212  0.45120  Biso   1.000  C
  C1578    1.0000 0.44950  0.65545  0.41871  Biso   1.000  C
  C1579    1.0000 0.41861  0.58208  0.45120  Biso   1.000  C
  C1580    1.0000 0.44950  0.65549  0.41871  Biso   1.000  C
  C1581    1.0000 0.41857  0.58212  0.45120  Biso   1.000  C
  C1582    1.0000 0.44946  0.65545  0.41871  Biso   1.000  C
  C1583    1.0000 0.41857  0.58208  0.45120  Biso   1.000  C
  C1584    1.0000 0.44946  0.65549  0.41871  Biso   1.000  C
  C1585    1.0000 0.16251  0.48015  0.58559  Biso   1.000  C
  C1586    1.0000 0.16251  0.48019  0.58559  Biso   1.000  C
  C1587    1.0000 0.16248  0.48015  0.58559  Biso   1.000  C
  C1588    1.0000 0.16248  0.48019  0.58559  Biso   1.000  C
  C1589    1.0000 0.91717  0.83385  0.59479  Biso   1.000  C
  C1590    1.0000 0.85988  0.80051  0.55470  Biso   1.000  C
  C1591    1.0000 0.91717  0.83389  0.59479  Biso   1.000  C
  C1592    1.0000 0.85988  0.80047  0.55470  Biso   1.000  C
  C1593    1.0000 0.97566  0.87457  0.63600  Biso   1.000  C
  C1594    1.0000 0.97570  0.87457  0.63600  Biso   1.000  C
  O676     1.0000 0.82267  0.82566  0.43328  Biso   1.000  O
  O677     1.0000 0.85586  0.77437  0.47046  Biso   1.000  O
  O678     1.0000 0.82267  0.82570  0.43328  Biso   1.000  O
  O679     1.0000 0.85590  0.77437  0.47046  Biso   1.000  O
  C1595    1.0000 0.39109  0.58740  0.60369  Biso   1.000  C
  C1596    1.0000 0.41861  0.58212  0.54880  Biso   1.000  C
  C1597    1.0000 0.44950  0.65545  0.58129  Biso   1.000  C
  C1598    1.0000 0.41861  0.58208  0.54880  Biso   1.000  C
  C1599    1.0000 0.44950  0.65549  0.58129  Biso   1.000  C
  C1600    1.0000 0.41857  0.58212  0.54880  Biso   1.000  C
  C1601    1.0000 0.44946  0.65545  0.58129  Biso   1.000  C
  C1602    1.0000 0.41857  0.58208  0.54880  Biso   1.000  C
  C1603    1.0000 0.44946  0.65549  0.58129  Biso   1.000  C
  H1280    1.0000 0.18161  0.04019  0.60431  Biso   1.000  H
  H1281    1.0000 0.18157  0.04019  0.60431  Biso   1.000  H
  O680     1.0000 0.10411  0.93424  0.64513  Biso   1.000  O
  O681     1.0000 0.10411  0.93428  0.64513  Biso   1.000  O
  O682     1.0000 0.12041  0.01830  0.64554  Biso   1.000  O
  O683     1.0000 0.12037  0.01830  0.64554  Biso   1.000  O
  C1604    1.0000 0.34619  0.30880  0.58111  Biso   1.000  C
  C1605    1.0000 0.34619  0.30876  0.58111  Biso   1.000  C
  C1606    1.0000 0.34616  0.30880  0.58111  Biso   1.000  C
  C1607    1.0000 0.34616  0.30876  0.58111  Biso   1.000  C
  C1608    1.0000 0.31190  0.36269  0.54429  Biso   1.000  C
  C1609    1.0000 0.31186  0.36269  0.54429  Biso   1.000  C
  C1610    1.0000 0.08279  0.16611  0.59479  Biso   1.000  C
  C1611    1.0000 0.08279  0.16607  0.59479  Biso   1.000  C
  C1612    1.0000 0.04658  0.21989  0.55586  Biso   1.000  C
  C1613    1.0000 0.04662  0.21989  0.55586  Biso   1.000  C
  H1282    1.0000 0.48639  0.11230  0.53551  Biso   1.000  H
  C1614    1.0000 0.46630  0.15899  0.57011  Biso   1.000  C
  H1283    1.0000 0.48636  0.11230  0.53551  Biso   1.000  H
  C1615    1.0000 0.46626  0.15899  0.57011  Biso   1.000  C
  H1284    1.0000 0.48639  0.11230  0.46449  Biso   1.000  H
  C1616    1.0000 0.46630  0.15899  0.42989  Biso   1.000  C
  H1285    1.0000 0.48636  0.11230  0.46449  Biso   1.000  H
  C1617    1.0000 0.46626  0.15899  0.42989  Biso   1.000  C
  H1286    1.0000 0.42638  0.20010  0.60101  Biso   1.000  H
  H1287    1.0000 0.42638  0.20006  0.60101  Biso   1.000  H
  H1288    1.0000 0.42638  0.20010  0.39899  Biso   1.000  H
  H1289    1.0000 0.42638  0.20006  0.39899  Biso   1.000  H
  H1290    1.0000 0.36659  0.30348  0.40120  Biso   1.000  H
  C1618    1.0000 0.34501  0.35810  0.43330  Biso   1.000  C
  C1619    1.0000 0.34501  0.35806  0.43330  Biso   1.000  C
  H1291    1.0000 0.36656  0.30348  0.40120  Biso   1.000  H
  C1620    1.0000 0.34497  0.35810  0.43330  Biso   1.000  C
  C1621    1.0000 0.34497  0.35806  0.43330  Biso   1.000  C
  H1292    1.0000 0.30769  0.39561  0.46461  Biso   1.000  H
  H1293    1.0000 0.30769  0.39557  0.46461  Biso   1.000  H
  H1294    1.0000 0.05060  0.24010  0.46199  Biso   1.000  H
  H1295    1.0000 0.05060  0.24006  0.46199  Biso   1.000  H
  C1622    1.0000 0.80216  0.04608  0.18601  Biso   1.000  C
  C1623    1.0000 0.80220  0.04608  0.18601  Biso   1.000  C
  C1624    1.0000 0.76197  0.95197  0.44501  Biso   1.000  C
  C1625    1.0000 0.78007  0.04658  0.44414  Biso   1.000  C
  C1626    1.0000 0.78007  0.04662  0.44414  Biso   1.000  C
  C1627    1.0000 0.80051  0.14008  0.44530  Biso   1.000  C
  C1628    1.0000 0.80047  0.14008  0.44530  Biso   1.000  C
  C1629    1.0000 0.89987  0.80197  0.17560  Biso   1.000  C
  C1630    1.0000 0.98607  0.83086  0.16269  Biso   1.000  C
  C1631    1.0000 0.97696  0.75167  0.19420  Biso   1.000  C
  C1632    1.0000 0.98607  0.83090  0.16269  Biso   1.000  C
  C1633    1.0000 0.97700  0.75167  0.19420  Biso   1.000  C
  C1634    1.0000 0.16910  0.98607  0.16269  Biso   1.000  C
  C1635    1.0000 0.19799  0.89987  0.17560  Biso   1.000  C
  C1636    1.0000 0.24829  0.97696  0.19420  Biso   1.000  C
  C1637    1.0000 0.24829  0.97700  0.19420  Biso   1.000  C
  C1638    1.0000 0.19803  0.89987  0.17560  Biso   1.000  C
  C1639    1.0000 0.10009  0.19799  0.17560  Biso   1.000  C
  C1640    1.0000 0.01389  0.16910  0.16269  Biso   1.000  C
  C1641    1.0000 0.02300  0.24829  0.19420  Biso   1.000  C
  C1642    1.0000 0.10009  0.19803  0.17560  Biso   1.000  C
  C1643    1.0000 0.10013  0.19799  0.17560  Biso   1.000  C
  C1644    1.0000 0.02296  0.24829  0.19420  Biso   1.000  C
  C1645    1.0000 0.10013  0.19803  0.17560  Biso   1.000  C
  O684     1.0000 0.95985  0.26291  0.46932  Biso   1.000  O
  O685     1.0000 0.91005  0.23118  0.43342  Biso   1.000  O
  O686     1.0000 0.95985  0.26287  0.46932  Biso   1.000  O
  O687     1.0000 0.95989  0.26291  0.46932  Biso   1.000  O
  O688     1.0000 0.91009  0.23118  0.43342  Biso   1.000  O
  O689     1.0000 0.95989  0.26287  0.46932  Biso   1.000  O
  H1296    1.0000 0.22678  0.51028  0.39330  Biso   1.000  H
  H1297    1.0000 0.18360  0.49328  0.36960  Biso   1.000  H
  H1298    1.0000 0.21851  0.45099  0.38579  Biso   1.000  H
  H1299    1.0000 0.18356  0.49328  0.36960  Biso   1.000  H
  H1300    1.0000 0.21847  0.45099  0.38579  Biso   1.000  H
  H1301    1.0000 0.08248  0.47908  0.41889  Biso   1.000  H
  H1302    1.0000 0.10039  0.49026  0.38470  Biso   1.000  H
  H1303    1.0000 0.10330  0.43338  0.39799  Biso   1.000  H
  H1304    1.0000 0.10039  0.49030  0.38470  Biso   1.000  H
  H1305    1.0000 0.10326  0.43338  0.39799  Biso   1.000  H
  H1306    1.0000 0.18758  0.40896  0.42950  Biso   1.000  H
  H1307    1.0000 0.20760  0.45497  0.45049  Biso   1.000  H
  H1308    1.0000 0.14950  0.43606  0.45311  Biso   1.000  H
  H1309    1.0000 0.18758  0.40900  0.42950  Biso   1.000  H
  H1310    1.0000 0.20760  0.45501  0.45049  Biso   1.000  H
  H1311    1.0000 0.14950  0.43610  0.45311  Biso   1.000  H
  H1312    1.0000 0.20756  0.45497  0.45049  Biso   1.000  H
  H1313    1.0000 0.20756  0.45501  0.45049  Biso   1.000  H
  H1314    1.0000 0.41478  0.55843  0.39501  Biso   1.000  H
  H1315    1.0000 0.35588  0.57465  0.39831  Biso   1.000  H
  H1316    1.0000 0.39400  0.60830  0.37791  Biso   1.000  H
  H1317    1.0000 0.41478  0.55839  0.39501  Biso   1.000  H
  H1318    1.0000 0.35588  0.57469  0.39831  Biso   1.000  H
  H1319    1.0000 0.39396  0.60830  0.37791  Biso   1.000  H
  H1320    1.0000 0.44039  0.60060  0.46570  Biso   1.000  H
  H1321    1.0000 0.43698  0.55211  0.44350  Biso   1.000  H
  H1322    1.0000 0.38719  0.57102  0.46149  Biso   1.000  H
  H1323    1.0000 0.43698  0.55207  0.44350  Biso   1.000  H
  H1324    1.0000 0.38719  0.57098  0.46149  Biso   1.000  H
  H1325    1.0000 0.38722  0.57102  0.46149  Biso   1.000  H
  H1326    1.0000 0.38722  0.57098  0.46149  Biso   1.000  H
  H1327    1.0000 0.43989  0.68228  0.40409  Biso   1.000  H
  H1328    1.0000 0.45868  0.67122  0.43820  Biso   1.000  H
  H1329    1.0000 0.47870  0.63620  0.41070  Biso   1.000  H
  H1330    1.0000 0.45868  0.67118  0.43820  Biso   1.000  H
  H1331    1.0000 0.47866  0.63620  0.41070  Biso   1.000  H
  C1646    1.0000 0.10702  0.46978  0.59700  Biso   1.000  C
  C1647    1.0000 0.20129  0.48398  0.61159  Biso   1.000  C
  C1648    1.0000 0.17821  0.44157  0.56089  Biso   1.000  C
  C1649    1.0000 0.17817  0.44157  0.56089  Biso   1.000  C
  H1332    1.0000 0.88835  0.85046  0.60360  Biso   1.000  H
  H1333    1.0000 0.88835  0.85050  0.60360  Biso   1.000  H
  H1334    1.0000 0.88839  0.85046  0.60360  Biso   1.000  H
  H1335    1.0000 0.88839  0.85050  0.60360  Biso   1.000  H
  O690     1.0000 0.82267  0.82566  0.56672  Biso   1.000  O
  O691     1.0000 0.85586  0.77437  0.52954  Biso   1.000  O
  O692     1.0000 0.82267  0.82570  0.56672  Biso   1.000  O
  O693     1.0000 0.85590  0.77437  0.52954  Biso   1.000  O
  O694     1.0000 0.93424  0.89585  0.64513  Biso   1.000  O
  O695     1.0000 0.93424  0.89589  0.64513  Biso   1.000  O
  O696     1.0000 0.93428  0.89585  0.64513  Biso   1.000  O
  O697     1.0000 0.93428  0.89589  0.64513  Biso   1.000  O
  O698     1.0000 0.01830  0.87955  0.64554  Biso   1.000  O
  O699     1.0000 0.01830  0.87959  0.64554  Biso   1.000  O
  Mg151    1.0000 0.75458  0.84013  0.45131  Biso   1.000  Mg
  Mg152    1.0000 0.75462  0.84013  0.45131  Biso   1.000  Mg
  Mg153    1.0000 0.79883  0.77142  0.50001  Biso   1.000  Mg
  Mg154    1.0000 0.79883  0.77146  0.50001  Biso   1.000  Mg
  Mg155    1.0000 0.79887  0.77142  0.50001  Biso   1.000  Mg
  Mg156    1.0000 0.79887  0.77146  0.50001  Biso   1.000  Mg
  H1336    1.0000 0.41478  0.55843  0.60499  Biso   1.000  H
  H1337    1.0000 0.35588  0.57465  0.60169  Biso   1.000  H
  H1338    1.0000 0.39400  0.60830  0.62209  Biso   1.000  H
  H1339    1.0000 0.41478  0.55839  0.60499  Biso   1.000  H
  H1340    1.0000 0.35588  0.57469  0.60169  Biso   1.000  H
  H1341    1.0000 0.39396  0.60830  0.62209  Biso   1.000  H
  H1342    1.0000 0.44039  0.60060  0.53430  Biso   1.000  H
  H1343    1.0000 0.43698  0.55211  0.55650  Biso   1.000  H
  H1344    1.0000 0.38719  0.57102  0.53851  Biso   1.000  H
  H1345    1.0000 0.43698  0.55207  0.55650  Biso   1.000  H
  H1346    1.0000 0.38719  0.57098  0.53851  Biso   1.000  H
  H1347    1.0000 0.38722  0.57102  0.53851  Biso   1.000  H
  H1348    1.0000 0.38722  0.57098  0.53851  Biso   1.000  H
  H1349    1.0000 0.43989  0.68228  0.59591  Biso   1.000  H
  H1350    1.0000 0.45868  0.67122  0.56180  Biso   1.000  H
  H1351    1.0000 0.47870  0.63620  0.58930  Biso   1.000  H
  H1352    1.0000 0.45868  0.67118  0.56180  Biso   1.000  H
  H1353    1.0000 0.47866  0.63620  0.58930  Biso   1.000  H
  Mg157    1.0000 0.04444  0.93126  0.67489  Biso   1.000  Mg
  Mg158    1.0000 0.04440  0.93126  0.67489  Biso   1.000  Mg
  Mg159    1.0000 0.06874  0.04444  0.67489  Biso   1.000  Mg
  Mg160    1.0000 0.06874  0.04440  0.67489  Biso   1.000  Mg
  Mg161    1.0000 0.06870  0.04444  0.67489  Biso   1.000  Mg
  Mg162    1.0000 0.06870  0.04440  0.67489  Biso   1.000  Mg
  H1354    1.0000 0.36659  0.30348  0.59880  Biso   1.000  H
  C1650    1.0000 0.34501  0.35810  0.56670  Biso   1.000  C
  C1651    1.0000 0.34501  0.35806  0.56670  Biso   1.000  C
  H1355    1.0000 0.36656  0.30348  0.59880  Biso   1.000  H
  C1652    1.0000 0.34497  0.35810  0.56670  Biso   1.000  C
  C1653    1.0000 0.34497  0.35806  0.56670  Biso   1.000  C
  H1356    1.0000 0.30769  0.39561  0.53539  Biso   1.000  H
  H1357    1.0000 0.30769  0.39557  0.53539  Biso   1.000  H
  C1654    1.0000 0.03472  0.16091  0.60804  Biso   1.000  C
  C1655    1.0000 0.03472  0.16087  0.60804  Biso   1.000  C
  H1358    1.0000 0.11161  0.14950  0.60360  Biso   1.000  H
  C1656    1.0000 0.99847  0.21468  0.56911  Biso   1.000  C
  C1657    1.0000 0.99847  0.21472  0.56911  Biso   1.000  C
  H1359    1.0000 0.05060  0.24010  0.53801  Biso   1.000  H
  H1360    1.0000 0.05060  0.24006  0.53801  Biso   1.000  H
  C1658    1.0000 0.51981  0.16251  0.58559  Biso   1.000  C
  C1659    1.0000 0.51981  0.16248  0.58559  Biso   1.000  C
  C1660    1.0000 0.51977  0.16251  0.58559  Biso   1.000  C
  C1661    1.0000 0.51977  0.16248  0.58559  Biso   1.000  C
  C1662    1.0000 0.51981  0.16251  0.41441  Biso   1.000  C
  C1663    1.0000 0.51981  0.16248  0.41441  Biso   1.000  C
  C1664    1.0000 0.51977  0.16251  0.41441  Biso   1.000  C
  C1665    1.0000 0.51977  0.16248  0.41441  Biso   1.000  C
  C1666    1.0000 0.38091  0.40399  0.42340  Biso   1.000  C
  C1667    1.0000 0.80197  0.10009  0.17560  Biso   1.000  C
  C1668    1.0000 0.83086  0.01389  0.16269  Biso   1.000  C
  C1669    1.0000 0.75167  0.02300  0.19420  Biso   1.000  C
  C1670    1.0000 0.80197  0.10013  0.17560  Biso   1.000  C
  C1671    1.0000 0.75167  0.02296  0.19420  Biso   1.000  C
  C1672    1.0000 0.83090  0.01389  0.16269  Biso   1.000  C
  O700     1.0000 0.76878  0.91005  0.43342  Biso   1.000  O
  O701     1.0000 0.76878  0.91009  0.43342  Biso   1.000  O
  O702     1.0000 0.73709  0.95985  0.46932  Biso   1.000  O
  O703     1.0000 0.73709  0.95989  0.46932  Biso   1.000  O
  H1361    1.0000 0.75990  0.05060  0.46199  Biso   1.000  H
  O704     1.0000 0.82566  0.17729  0.43328  Biso   1.000  O
  O705     1.0000 0.77437  0.14410  0.47046  Biso   1.000  O
  O706     1.0000 0.77437  0.14407  0.47046  Biso   1.000  O
  O707     1.0000 0.82570  0.17729  0.43328  Biso   1.000  O
  H1362    1.0000 0.89796  0.78830  0.15491  Biso   1.000  H
  H1363    1.0000 0.87940  0.78038  0.18931  Biso   1.000  H
  H1364    1.0000 0.88636  0.83695  0.17590  Biso   1.000  H
  H1365    1.0000 0.88636  0.83699  0.17590  Biso   1.000  H
  H1366    1.0000 0.89800  0.78830  0.15491  Biso   1.000  H
  H1367    1.0000 0.88640  0.83695  0.17590  Biso   1.000  H
  H1368    1.0000 0.88640  0.83699  0.17590  Biso   1.000  H
  H1369    1.0000 0.98098  0.86776  0.16520  Biso   1.000  H
  H1370    1.0000 0.97558  0.82076  0.14209  Biso   1.000  H
  H1371    1.0000 0.98098  0.86780  0.16520  Biso   1.000  H
  H1372    1.0000 0.97558  0.82080  0.14209  Biso   1.000  H
  H1373    1.0000 0.02231  0.82256  0.16570  Biso   1.000  H
  H1374    1.0000 0.02231  0.82260  0.16570  Biso   1.000  H
  H1375    1.0000 0.02228  0.82256  0.16570  Biso   1.000  H
  H1376    1.0000 0.02228  0.82260  0.16570  Biso   1.000  H
  H1377    1.0000 0.98546  0.75137  0.21590  Biso   1.000  H
  H1378    1.0000 0.95250  0.72427  0.18981  Biso   1.000  H
  H1379    1.0000 0.98549  0.75137  0.21590  Biso   1.000  H
  H1380    1.0000 0.95246  0.72427  0.18981  Biso   1.000  H
  H1381    1.0000 0.00819  0.74628  0.18221  Biso   1.000  H
  H1382    1.0000 0.00823  0.74628  0.18221  Biso   1.000  H
  H1383    1.0000 0.13220  0.98098  0.16520  Biso   1.000  H
  H1384    1.0000 0.17920  0.97558  0.14209  Biso   1.000  H
  H1385    1.0000 0.13216  0.98098  0.16520  Biso   1.000  H
  H1386    1.0000 0.17916  0.97558  0.14209  Biso   1.000  H
  H1387    1.0000 0.17740  0.02231  0.16570  Biso   1.000  H
  H1388    1.0000 0.17740  0.02228  0.16570  Biso   1.000  H
  H1389    1.0000 0.17736  0.02231  0.16570  Biso   1.000  H
  H1390    1.0000 0.17736  0.02228  0.16570  Biso   1.000  H
  H1391    1.0000 0.21958  0.87940  0.18931  Biso   1.000  H
  H1392    1.0000 0.21170  0.89796  0.15491  Biso   1.000  H
  H1393    1.0000 0.16301  0.88636  0.17590  Biso   1.000  H
  H1394    1.0000 0.21170  0.89800  0.15491  Biso   1.000  H
  H1395    1.0000 0.16301  0.88640  0.17590  Biso   1.000  H
  H1396    1.0000 0.21166  0.89796  0.15491  Biso   1.000  H
  H1397    1.0000 0.21166  0.89800  0.15491  Biso   1.000  H
  H1398    1.0000 0.24859  0.98546  0.21590  Biso   1.000  H
  H1399    1.0000 0.27569  0.95250  0.18981  Biso   1.000  H
  H1400    1.0000 0.24859  0.98549  0.21590  Biso   1.000  H
  H1401    1.0000 0.27569  0.95246  0.18981  Biso   1.000  H
  H1402    1.0000 0.25368  0.00819  0.18221  Biso   1.000  H
  H1403    1.0000 0.25368  0.00823  0.18221  Biso   1.000  H
  H1404    1.0000 0.10200  0.21170  0.15491  Biso   1.000  H
  H1405    1.0000 0.12060  0.21958  0.18931  Biso   1.000  H
  H1406    1.0000 0.11360  0.16301  0.17590  Biso   1.000  H
  H1407    1.0000 0.10200  0.21166  0.15491  Biso   1.000  H
  H1408    1.0000 0.12056  0.21958  0.18931  Biso   1.000  H
  H1409    1.0000 0.11356  0.16301  0.17590  Biso   1.000  H
  H1410    1.0000 0.97765  0.17740  0.16570  Biso   1.000  H
  H1411    1.0000 0.97765  0.17736  0.16570  Biso   1.000  H
  H1412    1.0000 0.97769  0.17740  0.16570  Biso   1.000  H
  H1413    1.0000 0.97769  0.17736  0.16570  Biso   1.000  H
  H1414    1.0000 0.01898  0.13220  0.16520  Biso   1.000  H
  H1415    1.0000 0.02438  0.17920  0.14209  Biso   1.000  H
  H1416    1.0000 0.01898  0.13216  0.16520  Biso   1.000  H
  H1417    1.0000 0.02438  0.17916  0.14209  Biso   1.000  H
  H1418    1.0000 0.01902  0.13220  0.16520  Biso   1.000  H
  H1419    1.0000 0.01902  0.13216  0.16520  Biso   1.000  H
  H1420    1.0000 0.99177  0.25368  0.18221  Biso   1.000  H
  H1421    1.0000 0.01451  0.24859  0.21590  Biso   1.000  H
  H1422    1.0000 0.04750  0.27569  0.18981  Biso   1.000  H
  H1423    1.0000 0.01447  0.24859  0.21590  Biso   1.000  H
  Mg163    1.0000 0.90883  0.29024  0.50001  Biso   1.000  Mg
  Mg164    1.0000 0.84013  0.24538  0.45131  Biso   1.000  Mg
  Mg165    1.0000 0.84013  0.24534  0.45131  Biso   1.000  Mg
  H1424    1.0000 0.08248  0.47908  0.58111  Biso   1.000  H
  H1425    1.0000 0.10039  0.49026  0.61530  Biso   1.000  H
  H1426    1.0000 0.10330  0.43338  0.60201  Biso   1.000  H
  H1427    1.0000 0.10039  0.49030  0.61530  Biso   1.000  H
  H1428    1.0000 0.10326  0.43338  0.60201  Biso   1.000  H
  H1429    1.0000 0.22678  0.51028  0.60670  Biso   1.000  H
  H1430    1.0000 0.18360  0.49328  0.63040  Biso   1.000  H
  H1431    1.0000 0.21851  0.45099  0.61421  Biso   1.000  H
  H1432    1.0000 0.18356  0.49328  0.63040  Biso   1.000  H
  H1433    1.0000 0.21847  0.45099  0.61421  Biso   1.000  H
  H1434    1.0000 0.18758  0.40896  0.57050  Biso   1.000  H
  H1435    1.0000 0.20760  0.45497  0.54951  Biso   1.000  H
  H1436    1.0000 0.14950  0.43606  0.54689  Biso   1.000  H
  H1437    1.0000 0.18758  0.40900  0.57050  Biso   1.000  H
  H1438    1.0000 0.20760  0.45501  0.54951  Biso   1.000  H
  H1439    1.0000 0.14950  0.43610  0.54689  Biso   1.000  H
  H1440    1.0000 0.20756  0.45497  0.54951  Biso   1.000  H
  H1441    1.0000 0.20756  0.45501  0.54951  Biso   1.000  H
  Mg166    1.0000 0.75458  0.84013  0.54869  Biso   1.000  Mg
  Mg167    1.0000 0.75462  0.84013  0.54869  Biso   1.000  Mg
  Mg168    1.0000 0.93126  0.95552  0.67489  Biso   1.000  Mg
  Mg169    1.0000 0.93126  0.95556  0.67489  Biso   1.000  Mg
  Mg170    1.0000 0.70973  0.90883  0.50001  Biso   1.000  Mg
  O708     1.0000 0.77296  0.85115  0.50001  Biso   1.000  O
  O709     1.0000 0.77296  0.85119  0.50001  Biso   1.000  O
  O710     1.0000 0.77299  0.85115  0.50001  Biso   1.000  O
  O711     1.0000 0.77299  0.85119  0.50001  Biso   1.000  O
  O712     1.0000 0.74207  0.76538  0.46618  Biso   1.000  O
  O713     1.0000 0.68217  0.86118  0.46604  Biso   1.000  O
  O714     1.0000 0.72098  0.81896  0.41097  Biso   1.000  O
  O715     1.0000 0.72098  0.81900  0.41097  Biso   1.000  O
  O716     1.0000 0.74207  0.76538  0.53382  Biso   1.000  O
  O717     1.0000 0.80055  0.69392  0.50001  Biso   1.000  O
  O718     1.0000 0.80055  0.69388  0.50001  Biso   1.000  O
  O719     1.0000 0.80059  0.69392  0.50001  Biso   1.000  O
  O720     1.0000 0.80059  0.69388  0.50001  Biso   1.000  O
  O721     1.0000 0.98316  0.92165  0.70503  Biso   1.000  O
  O722     1.0000 0.98316  0.92169  0.70503  Biso   1.000  O
  O723     1.0000 0.98320  0.92165  0.70503  Biso   1.000  O
  O724     1.0000 0.98320  0.92169  0.70503  Biso   1.000  O
  O725     1.0000 0.00000  1.00000  0.66150  Biso   1.000  O
  O726     1.0000 0.08149  0.87465  0.69968  Biso   1.000  O
  O727     1.0000 0.07831  0.98316  0.70503  Biso   1.000  O
  O728     1.0000 0.08149  0.87469  0.69968  Biso   1.000  O
  O729     1.0000 0.07831  0.98320  0.70503  Biso   1.000  O
  O730     1.0000 0.07827  0.98316  0.70503  Biso   1.000  O
  O731     1.0000 0.07827  0.98320  0.70503  Biso   1.000  O
  Mg171    1.0000 0.95552  0.06874  0.67489  Biso   1.000  Mg
  Mg172    1.0000 0.95552  0.06870  0.67489  Biso   1.000  Mg
  Mg173    1.0000 0.95556  0.06874  0.67489  Biso   1.000  Mg
  Mg174    1.0000 0.95556  0.06870  0.67489  Biso   1.000  Mg
  O732     1.0000 0.01680  0.07831  0.70503  Biso   1.000  O
  O733     1.0000 0.01680  0.07827  0.70503  Biso   1.000  O
  O734     1.0000 0.12531  0.08149  0.69968  Biso   1.000  O
  O735     1.0000 0.06572  0.10411  0.64513  Biso   1.000  O
  O736     1.0000 0.12527  0.08149  0.69968  Biso   1.000  O
  O737     1.0000 0.06568  0.10411  0.64513  Biso   1.000  O
  C1673    1.0000 0.38091  0.40399  0.57660  Biso   1.000  C
  C1674    1.0000 0.02430  0.12539  0.63600  Biso   1.000  C
  C1675    1.0000 0.99257  0.18521  0.59520  Biso   1.000  C
  C1676    1.0000 0.99257  0.18517  0.59520  Biso   1.000  C
  C1677    1.0000 0.99261  0.18521  0.59520  Biso   1.000  C
  C1678    1.0000 0.99261  0.18517  0.59520  Biso   1.000  C
  C1679    1.0000 0.95197  0.23799  0.55499  Biso   1.000  C
  C1680    1.0000 0.55839  0.17821  0.56089  Biso   1.000  C
  C1681    1.0000 0.53018  0.10702  0.59700  Biso   1.000  C
  C1682    1.0000 0.51598  0.20129  0.61159  Biso   1.000  C
  C1683    1.0000 0.55839  0.17817  0.56089  Biso   1.000  C
  C1684    1.0000 0.55839  0.17821  0.43911  Biso   1.000  C
  C1685    1.0000 0.53018  0.10702  0.40300  Biso   1.000  C
  C1686    1.0000 0.51598  0.20129  0.38841  Biso   1.000  C
  C1687    1.0000 0.55839  0.17817  0.43911  Biso   1.000  C
  C1688    1.0000 0.41260  0.39109  0.39631  Biso   1.000  C
  C1689    1.0000 0.41788  0.41861  0.45120  Biso   1.000  C
  C1690    1.0000 0.34451  0.44950  0.41871  Biso   1.000  C
  C1691    1.0000 0.41788  0.41857  0.45120  Biso   1.000  C
  C1692    1.0000 0.34451  0.44946  0.41871  Biso   1.000  C
  C1693    1.0000 0.41256  0.39109  0.39631  Biso   1.000  C
  H1442    1.0000 0.78830  0.10200  0.15491  Biso   1.000  H
  H1443    1.0000 0.78038  0.12060  0.18931  Biso   1.000  H
  H1444    1.0000 0.83695  0.11360  0.17590  Biso   1.000  H
  H1445    1.0000 0.78038  0.12056  0.18931  Biso   1.000  H
  H1446    1.0000 0.83695  0.11356  0.17590  Biso   1.000  H
  H1447    1.0000 0.83699  0.11360  0.17590  Biso   1.000  H
  H1448    1.0000 0.83699  0.11356  0.17590  Biso   1.000  H
  H1449    1.0000 0.82256  0.97765  0.16570  Biso   1.000  H
  H1450    1.0000 0.82256  0.97769  0.16570  Biso   1.000  H
  H1451    1.0000 0.82260  0.97765  0.16570  Biso   1.000  H
  H1452    1.0000 0.82260  0.97769  0.16570  Biso   1.000  H
  H1453    1.0000 0.86776  0.01898  0.16520  Biso   1.000  H
  H1454    1.0000 0.82076  0.02438  0.14209  Biso   1.000  H
  H1455    1.0000 0.86776  0.01902  0.16520  Biso   1.000  H
  H1456    1.0000 0.86780  0.01898  0.16520  Biso   1.000  H
  H1457    1.0000 0.82080  0.02438  0.14209  Biso   1.000  H
  H1458    1.0000 0.86780  0.01902  0.16520  Biso   1.000  H
  H1459    1.0000 0.74628  0.99177  0.18221  Biso   1.000  H
  H1460    1.0000 0.75137  0.01451  0.21590  Biso   1.000  H
  H1461    1.0000 0.72427  0.04750  0.18981  Biso   1.000  H
  H1462    1.0000 0.75137  0.01447  0.21590  Biso   1.000  H
  Mg175    1.0000 0.77142  0.20113  0.50001  Biso   1.000  Mg
  Mg176    1.0000 0.77142  0.20109  0.50001  Biso   1.000  Mg
  Mg177    1.0000 0.77146  0.20113  0.50001  Biso   1.000  Mg
  Mg178    1.0000 0.77146  0.20109  0.50001  Biso   1.000  Mg
  Mg179    1.0000 0.84013  0.24538  0.54869  Biso   1.000  Mg
  Mg180    1.0000 0.84013  0.24534  0.54869  Biso   1.000  Mg
  O738     1.0000 0.95985  0.26291  0.53068  Biso   1.000  O
  O739     1.0000 0.95985  0.26287  0.53068  Biso   1.000  O
  O740     1.0000 0.95989  0.26291  0.53068  Biso   1.000  O
  O741     1.0000 0.95989  0.26287  0.53068  Biso   1.000  O
  O742     1.0000 0.85115  0.22701  0.50001  Biso   1.000  O
  O743     1.0000 0.86118  0.31779  0.53396  Biso   1.000  O
  O744     1.0000 0.85119  0.22701  0.50001  Biso   1.000  O
  O745     1.0000 0.86118  0.31779  0.46604  Biso   1.000  O
  O746     1.0000 0.94297  0.35898  0.50001  Biso   1.000  O
  O747     1.0000 0.76538  0.25789  0.46618  Biso   1.000  O
  O748     1.0000 0.81896  0.27898  0.41097  Biso   1.000  O
  O749     1.0000 0.81900  0.27898  0.41097  Biso   1.000  O
  O750     1.0000 0.68217  0.86118  0.53396  Biso   1.000  O
  O751     1.0000 0.72098  0.81896  0.58903  Biso   1.000  O
  O752     1.0000 0.76878  0.91005  0.56658  Biso   1.000  O
  O753     1.0000 0.72098  0.81900  0.58903  Biso   1.000  O
  O754     1.0000 0.76878  0.91009  0.56658  Biso   1.000  O
  O755     1.0000 0.87465  0.91848  0.69968  Biso   1.000  O
  O756     1.0000 0.87955  0.98167  0.64554  Biso   1.000  O
  O757     1.0000 0.87469  0.91848  0.69968  Biso   1.000  O
  O758     1.0000 0.87959  0.98167  0.64554  Biso   1.000  O
  O759     1.0000 0.92165  0.01680  0.70503  Biso   1.000  O
  O760     1.0000 0.92169  0.01680  0.70503  Biso   1.000  O
  O761     1.0000 0.64098  0.94297  0.50001  Biso   1.000  O
  O762     1.0000 0.73709  0.95985  0.53068  Biso   1.000  O
  O763     1.0000 0.73709  0.95989  0.53068  Biso   1.000  O
  C1694    1.0000 0.71642  0.72768  0.45530  Biso   1.000  C
  C1695    1.0000 0.71639  0.72768  0.45530  Biso   1.000  C
  C1696    1.0000 0.63628  0.85467  0.45521  Biso   1.000  C
  S156     1.0000 0.67367  0.78953  0.40999  Biso   1.000  S
  S157     1.0000 0.67367  0.78949  0.40999  Biso   1.000  S
  S158     1.0000 0.67363  0.78953  0.40999  Biso   1.000  S
  S159     1.0000 0.67363  0.78949  0.40999  Biso   1.000  S
  C1697    1.0000 0.71642  0.72768  0.54470  Biso   1.000  C
  C1698    1.0000 0.71639  0.72768  0.54470  Biso   1.000  C
  S160     1.0000 0.75477  0.66131  0.50001  Biso   1.000  S
  S161     1.0000 0.75481  0.66131  0.50001  Biso   1.000  S
  C1699    1.0000 0.97895  0.89398  0.73010  Biso   1.000  C
  C1700    1.0000 0.97899  0.89398  0.73010  Biso   1.000  C
  S162     1.0000 0.08263  0.87274  0.73176  Biso   1.000  S
  S163     1.0000 0.08263  0.87278  0.73176  Biso   1.000  S
  C1701    1.0000 0.10598  0.97895  0.73010  Biso   1.000  C
  C1702    1.0000 0.10598  0.97899  0.73010  Biso   1.000  C
  O764     1.0000 0.91848  0.12531  0.69968  Biso   1.000  O
  O765     1.0000 0.98167  0.12041  0.64554  Biso   1.000  O
  O766     1.0000 0.89585  0.06572  0.64513  Biso   1.000  O
  O767     1.0000 0.91848  0.12527  0.69968  Biso   1.000  O
  O768     1.0000 0.98167  0.12037  0.64554  Biso   1.000  O
  O769     1.0000 0.89585  0.06568  0.64513  Biso   1.000  O
  O770     1.0000 0.89589  0.06572  0.64513  Biso   1.000  O
  O771     1.0000 0.89589  0.06568  0.64513  Biso   1.000  O
  C1703    1.0000 0.02101  0.10598  0.73010  Biso   1.000  C
  C1704    1.0000 0.02097  0.10598  0.73010  Biso   1.000  C
  S164     1.0000 0.12722  0.08263  0.73176  Biso   1.000  S
  S165     1.0000 0.12719  0.08263  0.73176  Biso   1.000  S
  C1705    1.0000 0.41260  0.39109  0.60369  Biso   1.000  C
  C1706    1.0000 0.41788  0.41861  0.54880  Biso   1.000  C
  C1707    1.0000 0.34451  0.44950  0.58129  Biso   1.000  C
  C1708    1.0000 0.41788  0.41857  0.54880  Biso   1.000  C
  C1709    1.0000 0.34451  0.44946  0.58129  Biso   1.000  C
  C1710    1.0000 0.41256  0.39109  0.60369  Biso   1.000  C
  H1463    1.0000 0.95977  0.18161  0.60431  Biso   1.000  H
  H1464    1.0000 0.95977  0.18157  0.60431  Biso   1.000  H
  O772     1.0000 0.91005  0.23118  0.56658  Biso   1.000  O
  O773     1.0000 0.91009  0.23118  0.56658  Biso   1.000  O
  H1465    1.0000 0.59100  0.18758  0.57050  Biso   1.000  H
  H1466    1.0000 0.54499  0.20760  0.54951  Biso   1.000  H
  H1467    1.0000 0.56390  0.14950  0.54689  Biso   1.000  H
  H1468    1.0000 0.54499  0.20756  0.54951  Biso   1.000  H
  H1469    1.0000 0.59096  0.18758  0.57050  Biso   1.000  H
  H1470    1.0000 0.52088  0.08248  0.58111  Biso   1.000  H
  H1471    1.0000 0.50970  0.10039  0.61530  Biso   1.000  H
  H1472    1.0000 0.56658  0.10330  0.60201  Biso   1.000  H
  H1473    1.0000 0.56658  0.10326  0.60201  Biso   1.000  H
  H1474    1.0000 0.50966  0.10039  0.61530  Biso   1.000  H
  H1475    1.0000 0.50668  0.18360  0.63040  Biso   1.000  H
  H1476    1.0000 0.48969  0.22678  0.60670  Biso   1.000  H
  H1477    1.0000 0.54897  0.21851  0.61421  Biso   1.000  H
  H1478    1.0000 0.50668  0.18356  0.63040  Biso   1.000  H
  H1479    1.0000 0.54897  0.21847  0.61421  Biso   1.000  H
  H1480    1.0000 0.59100  0.18758  0.42950  Biso   1.000  H
  H1481    1.0000 0.54499  0.20760  0.45049  Biso   1.000  H
  H1482    1.0000 0.56390  0.14950  0.45311  Biso   1.000  H
  H1483    1.0000 0.54499  0.20756  0.45049  Biso   1.000  H
  H1484    1.0000 0.59096  0.18758  0.42950  Biso   1.000  H
  H1485    1.0000 0.52088  0.08248  0.41889  Biso   1.000  H
  H1486    1.0000 0.50970  0.10039  0.38470  Biso   1.000  H
  H1487    1.0000 0.56658  0.10330  0.39799  Biso   1.000  H
  H1488    1.0000 0.56658  0.10326  0.39799  Biso   1.000  H
  H1489    1.0000 0.50966  0.10039  0.38470  Biso   1.000  H
  H1490    1.0000 0.50668  0.18360  0.36960  Biso   1.000  H
  H1491    1.0000 0.48969  0.22678  0.39330  Biso   1.000  H
  H1492    1.0000 0.54897  0.21851  0.38579  Biso   1.000  H
  H1493    1.0000 0.50668  0.18356  0.36960  Biso   1.000  H
  H1494    1.0000 0.54897  0.21847  0.38579  Biso   1.000  H
  H1495    1.0000 0.44157  0.41478  0.39501  Biso   1.000  H
  H1496    1.0000 0.42531  0.35588  0.39831  Biso   1.000  H
  H1497    1.0000 0.39170  0.39400  0.37791  Biso   1.000  H
  H1498    1.0000 0.39170  0.39396  0.37791  Biso   1.000  H
  H1499    1.0000 0.42527  0.35588  0.39831  Biso   1.000  H
  H1500    1.0000 0.39166  0.39400  0.37791  Biso   1.000  H
  H1501    1.0000 0.39166  0.39396  0.37791  Biso   1.000  H
  H1502    1.0000 0.44789  0.43698  0.44350  Biso   1.000  H
  H1503    1.0000 0.39940  0.44039  0.46570  Biso   1.000  H
  H1504    1.0000 0.42898  0.38719  0.46149  Biso   1.000  H
  H1505    1.0000 0.42898  0.38722  0.46149  Biso   1.000  H
  H1506    1.0000 0.39936  0.44039  0.46570  Biso   1.000  H
  H1507    1.0000 0.31768  0.43989  0.40409  Biso   1.000  H
  H1508    1.0000 0.32878  0.45868  0.43820  Biso   1.000  H
  H1509    1.0000 0.36380  0.47870  0.41070  Biso   1.000  H
  H1510    1.0000 0.36380  0.47866  0.41070  Biso   1.000  H
  H1511    1.0000 0.36376  0.47870  0.41070  Biso   1.000  H
  H1512    1.0000 0.36376  0.47866  0.41070  Biso   1.000  H
  O774     1.0000 0.77437  0.14410  0.52954  Biso   1.000  O
  O775     1.0000 0.77437  0.14407  0.52954  Biso   1.000  O
  O776     1.0000 0.76538  0.25789  0.53382  Biso   1.000  O
  O777     1.0000 0.69392  0.19941  0.50001  Biso   1.000  O
  O778     1.0000 0.69392  0.19937  0.50001  Biso   1.000  O
  O779     1.0000 0.69388  0.19941  0.50001  Biso   1.000  O
  O780     1.0000 0.69388  0.19937  0.50001  Biso   1.000  O
  O781     1.0000 0.82566  0.17729  0.56672  Biso   1.000  O
  O782     1.0000 0.82570  0.17729  0.56672  Biso   1.000  O
  O783     1.0000 0.81896  0.27898  0.58903  Biso   1.000  O
  O784     1.0000 0.81900  0.27898  0.58903  Biso   1.000  O
  C1711    1.0000 0.85467  0.36369  0.54479  Biso   1.000  C
  C1712    1.0000 0.85467  0.36369  0.45521  Biso   1.000  C
  S166     1.0000 0.91648  0.40739  0.50001  Biso   1.000  S
  S167     1.0000 0.91648  0.40743  0.50001  Biso   1.000  S
  C1713    1.0000 0.72768  0.28358  0.45530  Biso   1.000  C
  S168     1.0000 0.78953  0.32633  0.40999  Biso   1.000  S
  S169     1.0000 0.78949  0.32633  0.40999  Biso   1.000  S
  C1714    1.0000 0.63628  0.85467  0.54479  Biso   1.000  C
  S170     1.0000 0.67367  0.78953  0.59001  Biso   1.000  S
  S171     1.0000 0.67367  0.78949  0.59001  Biso   1.000  S
  S172     1.0000 0.67363  0.78953  0.59001  Biso   1.000  S
  S173     1.0000 0.67363  0.78949  0.59001  Biso   1.000  S
  C1715    1.0000 0.76197  0.95197  0.55499  Biso   1.000  C
  S174     1.0000 0.87274  0.91733  0.73176  Biso   1.000  S
  S175     1.0000 0.87274  0.91737  0.73176  Biso   1.000  S
  S176     1.0000 0.87278  0.91733  0.73176  Biso   1.000  S
  S177     1.0000 0.87278  0.91737  0.73176  Biso   1.000  S
  C1716    1.0000 0.87457  0.02430  0.63600  Biso   1.000  C
  C1717    1.0000 0.89398  0.02101  0.73010  Biso   1.000  C
  C1718    1.0000 0.89398  0.02097  0.73010  Biso   1.000  C
  S178     1.0000 0.59257  0.91648  0.50001  Biso   1.000  S
  C1719    1.0000 0.71838  0.67849  0.46750  Biso   1.000  C
  C1720    1.0000 0.68301  0.73135  0.43100  Biso   1.000  C
  C1721    1.0000 0.68301  0.73139  0.43100  Biso   1.000  C
  C1722    1.0000 0.68297  0.73135  0.43100  Biso   1.000  C
  C1723    1.0000 0.68297  0.73139  0.43100  Biso   1.000  C
  C1724    1.0000 0.58912  0.87626  0.46841  Biso   1.000  C
  C1725    1.0000 0.62499  0.82187  0.42921  Biso   1.000  C
  C1726    1.0000 0.58912  0.87630  0.46841  Biso   1.000  C
  C1727    1.0000 0.58908  0.87626  0.46841  Biso   1.000  C
  C1728    1.0000 0.58908  0.87630  0.46841  Biso   1.000  C
  O785     1.0000 0.65450  0.77548  0.38026  Biso   1.000  O
  C1729    1.0000 0.68301  0.73135  0.56900  Biso   1.000  C
  C1730    1.0000 0.68301  0.73139  0.56900  Biso   1.000  C
  C1731    1.0000 0.68297  0.73135  0.56900  Biso   1.000  C
  C1732    1.0000 0.68297  0.73139  0.56900  Biso   1.000  C
  C1733    1.0000 0.71838  0.67849  0.53250  Biso   1.000  C
  O786     1.0000 0.76247  0.60780  0.50001  Biso   1.000  O
  C1734    1.0000 0.92946  0.88988  0.74519  Biso   1.000  C
  C1735    1.0000 0.92950  0.88988  0.74519  Biso   1.000  C
  C1736    1.0000 0.02009  0.87040  0.74439  Biso   1.000  C
  C1737    1.0000 0.02013  0.87040  0.74439  Biso   1.000  C
  O787     1.0000 0.10981  0.83117  0.74462  Biso   1.000  O
  C1738    1.0000 0.11012  0.92946  0.74519  Biso   1.000  C
  C1739    1.0000 0.11012  0.92950  0.74519  Biso   1.000  C
  O788     1.0000 0.10977  0.83117  0.74462  Biso   1.000  O
  C1740    1.0000 0.12960  0.02009  0.74439  Biso   1.000  C
  C1741    1.0000 0.12960  0.02013  0.74439  Biso   1.000  C
  C1742    1.0000 0.12956  0.02009  0.74439  Biso   1.000  C
  C1743    1.0000 0.12956  0.02013  0.74439  Biso   1.000  C
  S179     1.0000 0.91733  0.12722  0.73176  Biso   1.000  S
  S180     1.0000 0.91733  0.12719  0.73176  Biso   1.000  S
  S181     1.0000 0.91737  0.12722  0.73176  Biso   1.000  S
  S182     1.0000 0.91737  0.12719  0.73176  Biso   1.000  S
  C1744    1.0000 0.97987  0.12960  0.74439  Biso   1.000  C
  C1745    1.0000 0.97987  0.12956  0.74439  Biso   1.000  C
  C1746    1.0000 0.07050  0.11012  0.74519  Biso   1.000  C
  C1747    1.0000 0.07046  0.11012  0.74519  Biso   1.000  C
  O789     1.0000 0.16879  0.10981  0.74462  Biso   1.000  O
  O790     1.0000 0.16879  0.10977  0.74462  Biso   1.000  O
  H1513    1.0000 0.44157  0.41478  0.60499  Biso   1.000  H
  H1514    1.0000 0.42531  0.35588  0.60169  Biso   1.000  H
  H1515    1.0000 0.39170  0.39400  0.62209  Biso   1.000  H
  H1516    1.0000 0.39170  0.39396  0.62209  Biso   1.000  H
  H1517    1.0000 0.42527  0.35588  0.60169  Biso   1.000  H
  H1518    1.0000 0.39166  0.39400  0.62209  Biso   1.000  H
  H1519    1.0000 0.39166  0.39396  0.62209  Biso   1.000  H
  H1520    1.0000 0.44789  0.43698  0.55650  Biso   1.000  H
  H1521    1.0000 0.39940  0.44039  0.53430  Biso   1.000  H
  H1522    1.0000 0.42898  0.38719  0.53851  Biso   1.000  H
  H1523    1.0000 0.42898  0.38722  0.53851  Biso   1.000  H
  H1524    1.0000 0.39936  0.44039  0.53430  Biso   1.000  H
  H1525    1.0000 0.31768  0.43989  0.59591  Biso   1.000  H
  H1526    1.0000 0.32878  0.45868  0.56180  Biso   1.000  H
  H1527    1.0000 0.36380  0.47870  0.58930  Biso   1.000  H
  H1528    1.0000 0.36380  0.47866  0.58930  Biso   1.000  H
  H1529    1.0000 0.36376  0.47870  0.58930  Biso   1.000  H
  H1530    1.0000 0.36376  0.47866  0.58930  Biso   1.000  H
  C1748    1.0000 0.80051  0.14008  0.55470  Biso   1.000  C
  C1749    1.0000 0.80047  0.14008  0.55470  Biso   1.000  C
  C1750    1.0000 0.72768  0.28358  0.54470  Biso   1.000  C
  S183     1.0000 0.66131  0.24519  0.50001  Biso   1.000  S
  S184     1.0000 0.66131  0.24515  0.50001  Biso   1.000  S
  S185     1.0000 0.78953  0.32633  0.59001  Biso   1.000  S
  S186     1.0000 0.78949  0.32633  0.59001  Biso   1.000  S
  C1751    1.0000 0.87626  0.41088  0.53159  Biso   1.000  C
  C1752    1.0000 0.82187  0.37498  0.57079  Biso   1.000  C
  C1753    1.0000 0.87630  0.41088  0.53159  Biso   1.000  C
  C1754    1.0000 0.87626  0.41088  0.46841  Biso   1.000  C
  C1755    1.0000 0.82187  0.37498  0.42921  Biso   1.000  C
  C1756    1.0000 0.87630  0.41088  0.46841  Biso   1.000  C
  O791     1.0000 0.94737  0.45218  0.50001  Biso   1.000  O
  O792     1.0000 0.94737  0.45221  0.50001  Biso   1.000  O
  C1757    1.0000 0.67849  0.28159  0.46750  Biso   1.000  C
  C1758    1.0000 0.73135  0.31699  0.43100  Biso   1.000  C
  C1759    1.0000 0.73139  0.31699  0.43100  Biso   1.000  C
  O793     1.0000 0.77548  0.34550  0.38026  Biso   1.000  O
  O794     1.0000 0.77548  0.34547  0.38026  Biso   1.000  O
  C1760    1.0000 0.58912  0.87626  0.53159  Biso   1.000  C
  C1761    1.0000 0.62499  0.82187  0.57079  Biso   1.000  C
  C1762    1.0000 0.58912  0.87630  0.53159  Biso   1.000  C
  C1763    1.0000 0.58908  0.87626  0.53159  Biso   1.000  C
  C1764    1.0000 0.58908  0.87630  0.53159  Biso   1.000  C
  O795     1.0000 0.65450  0.77548  0.61974  Biso   1.000  O
  C1765    1.0000 0.78528  0.99847  0.56911  Biso   1.000  C
  O796     1.0000 0.83117  0.89015  0.74462  Biso   1.000  O
  C1766    1.0000 0.87040  0.97987  0.74439  Biso   1.000  C
  O797     1.0000 0.83117  0.89019  0.74462  Biso   1.000  O
  C1767    1.0000 0.83906  0.03472  0.60804  Biso   1.000  C
  C1768    1.0000 0.83909  0.03472  0.60804  Biso   1.000  C
  C1769    1.0000 0.88988  0.07050  0.74519  Biso   1.000  C
  C1770    1.0000 0.88988  0.07046  0.74519  Biso   1.000  C
  O798     1.0000 0.54782  0.94737  0.50001  Biso   1.000  O
  O799     1.0000 0.54779  0.94737  0.50001  Biso   1.000  O
  C1771    1.0000 0.68806  0.63727  0.45571  Biso   1.000  C
  C1772    1.0000 0.68810  0.63727  0.45571  Biso   1.000  C
  C1773    1.0000 0.65377  0.69116  0.41889  Biso   1.000  C
  C1774    1.0000 0.65377  0.69120  0.41889  Biso   1.000  C
  C1775    1.0000 0.65381  0.69116  0.41889  Biso   1.000  C
  C1776    1.0000 0.65381  0.69120  0.41889  Biso   1.000  C
  C1777    1.0000 0.54185  0.87056  0.45550  Biso   1.000  C
  C1778    1.0000 0.54185  0.87059  0.45550  Biso   1.000  C
  C1779    1.0000 0.54189  0.87056  0.45550  Biso   1.000  C
  C1780    1.0000 0.54189  0.87059  0.45550  Biso   1.000  C
  C1781    1.0000 0.57749  0.81866  0.41730  Biso   1.000  C
  C1782    1.0000 0.57749  0.81869  0.41730  Biso   1.000  C
  C1783    1.0000 0.65377  0.69116  0.58111  Biso   1.000  C
  C1784    1.0000 0.65377  0.69120  0.58111  Biso   1.000  C
  C1785    1.0000 0.65381  0.69116  0.58111  Biso   1.000  C
  C1786    1.0000 0.65381  0.69120  0.58111  Biso   1.000  C
  C1787    1.0000 0.68806  0.63727  0.54429  Biso   1.000  C
  C1788    1.0000 0.68810  0.63727  0.54429  Biso   1.000  C
  C1789    1.0000 0.92314  0.85659  0.76989  Biso   1.000  C
  C1790    1.0000 0.92318  0.85659  0.76989  Biso   1.000  C
  C1791    1.0000 0.01160  0.83856  0.77069  Biso   1.000  C
  C1792    1.0000 0.01160  0.83860  0.77069  Biso   1.000  C
  C1793    1.0000 0.14341  0.92314  0.76989  Biso   1.000  C
  C1794    1.0000 0.14341  0.92318  0.76989  Biso   1.000  C
  C1795    1.0000 0.14338  0.92314  0.76989  Biso   1.000  C
  C1796    1.0000 0.14338  0.92318  0.76989  Biso   1.000  C
  C1797    1.0000 0.16140  0.01160  0.77069  Biso   1.000  C
  C1798    1.0000 0.16137  0.01160  0.77069  Biso   1.000  C
  O800     1.0000 0.89015  0.16879  0.74462  Biso   1.000  O
  O801     1.0000 0.89019  0.16879  0.74462  Biso   1.000  O
  C1799    1.0000 0.98836  0.16140  0.77069  Biso   1.000  C
  C1800    1.0000 0.98836  0.16137  0.77069  Biso   1.000  C
  C1801    1.0000 0.07682  0.14341  0.76989  Biso   1.000  C
  C1802    1.0000 0.07682  0.14338  0.76989  Biso   1.000  C
  C1803    1.0000 0.80438  0.08868  0.56870  Biso   1.000  C
  C1804    1.0000 0.73135  0.31699  0.56900  Biso   1.000  C
  C1805    1.0000 0.73139  0.31699  0.56900  Biso   1.000  C
  C1806    1.0000 0.67849  0.28159  0.53250  Biso   1.000  C
  O802     1.0000 0.60780  0.23749  0.50001  Biso   1.000  O
  O803     1.0000 0.77548  0.34550  0.61974  Biso   1.000  O
  O804     1.0000 0.77548  0.34547  0.61974  Biso   1.000  O
  C1807    1.0000 0.87056  0.45811  0.54450  Biso   1.000  C
  C1808    1.0000 0.87056  0.45807  0.54450  Biso   1.000  C
  C1809    1.0000 0.87059  0.45811  0.54450  Biso   1.000  C
  C1810    1.0000 0.87059  0.45807  0.54450  Biso   1.000  C
  C1811    1.0000 0.81866  0.42247  0.58270  Biso   1.000  C
  C1812    1.0000 0.81869  0.42247  0.58270  Biso   1.000  C
  C1813    1.0000 0.87056  0.45811  0.45550  Biso   1.000  C
  C1814    1.0000 0.87056  0.45807  0.45550  Biso   1.000  C
  C1815    1.0000 0.87059  0.45811  0.45550  Biso   1.000  C
  C1816    1.0000 0.87059  0.45807  0.45550  Biso   1.000  C
  C1817    1.0000 0.81866  0.42247  0.41730  Biso   1.000  C
  C1818    1.0000 0.81869  0.42247  0.41730  Biso   1.000  C
  C1819    1.0000 0.63727  0.31190  0.45571  Biso   1.000  C
  C1820    1.0000 0.63727  0.31186  0.45571  Biso   1.000  C
  C1821    1.0000 0.69116  0.34619  0.41889  Biso   1.000  C
  C1822    1.0000 0.69116  0.34616  0.41889  Biso   1.000  C
  C1823    1.0000 0.69120  0.34619  0.41889  Biso   1.000  C
  C1824    1.0000 0.69120  0.34616  0.41889  Biso   1.000  C
  C1825    1.0000 0.54185  0.87056  0.54450  Biso   1.000  C
  C1826    1.0000 0.54185  0.87059  0.54450  Biso   1.000  C
  C1827    1.0000 0.54189  0.87056  0.54450  Biso   1.000  C
  C1828    1.0000 0.54189  0.87059  0.54450  Biso   1.000  C
  C1829    1.0000 0.57749  0.81866  0.58270  Biso   1.000  C
  C1830    1.0000 0.57749  0.81869  0.58270  Biso   1.000  C
  C1831    1.0000 0.81475  0.99257  0.59520  Biso   1.000  C
  C1832    1.0000 0.81475  0.99261  0.59520  Biso   1.000  C
  C1833    1.0000 0.81479  0.99257  0.59520  Biso   1.000  C
  C1834    1.0000 0.81479  0.99261  0.59520  Biso   1.000  C
  C1835    1.0000 0.78007  0.04658  0.55586  Biso   1.000  C
  C1836    1.0000 0.78007  0.04662  0.55586  Biso   1.000  C
  C1837    1.0000 0.83856  0.98836  0.77069  Biso   1.000  C
  C1838    1.0000 0.83860  0.98836  0.77069  Biso   1.000  C
  C1839    1.0000 0.83385  0.08279  0.59479  Biso   1.000  C
  C1840    1.0000 0.83389  0.08279  0.59479  Biso   1.000  C
  C1841    1.0000 0.85659  0.07682  0.76989  Biso   1.000  C
  C1842    1.0000 0.65495  0.64186  0.43330  Biso   1.000  C
  H1531    1.0000 0.69227  0.60436  0.46461  Biso   1.000  H
  C1843    1.0000 0.65495  0.64190  0.43330  Biso   1.000  C
  H1532    1.0000 0.69227  0.60439  0.46461  Biso   1.000  H
  C1844    1.0000 0.65499  0.64186  0.43330  Biso   1.000  C
  C1845    1.0000 0.65499  0.64190  0.43330  Biso   1.000  C
  H1533    1.0000 0.63341  0.69648  0.40120  Biso   1.000  H
  H1534    1.0000 0.51361  0.88766  0.46449  Biso   1.000  H
  C1846    1.0000 0.53370  0.84101  0.42989  Biso   1.000  C
  C1847    1.0000 0.53370  0.84097  0.42989  Biso   1.000  C
  H1535    1.0000 0.57358  0.79986  0.39899  Biso   1.000  H
  H1536    1.0000 0.57358  0.79990  0.39899  Biso   1.000  H
  H1537    1.0000 0.63341  0.69648  0.59880  Biso   1.000  H
  C1848    1.0000 0.65495  0.64186  0.56670  Biso   1.000  C
  C1849    1.0000 0.65495  0.64190  0.56670  Biso   1.000  C
  C1850    1.0000 0.65499  0.64186  0.56670  Biso   1.000  C
  C1851    1.0000 0.65499  0.64190  0.56670  Biso   1.000  C
  H1538    1.0000 0.69227  0.60436  0.53539  Biso   1.000  H
  H1539    1.0000 0.69227  0.60439  0.53539  Biso   1.000  H
  H1540    1.0000 0.89015  0.85146  0.77841  Biso   1.000  H
  C1852    1.0000 0.96337  0.83197  0.78180  Biso   1.000  C
  H1541    1.0000 0.89015  0.85149  0.77841  Biso   1.000  H
  H1542    1.0000 0.89019  0.85146  0.77841  Biso   1.000  H
  H1543    1.0000 0.89019  0.85149  0.77841  Biso   1.000  H
  H1544    1.0000 0.03969  0.82225  0.78030  Biso   1.000  H
  H1545    1.0000 0.03969  0.82229  0.78030  Biso   1.000  H
  H1546    1.0000 0.03973  0.82225  0.78030  Biso   1.000  H
  H1547    1.0000 0.03973  0.82229  0.78030  Biso   1.000  H
  C1853    1.0000 0.16799  0.96337  0.78180  Biso   1.000  C
  H1548    1.0000 0.14851  0.89015  0.77841  Biso   1.000  H
  H1549    1.0000 0.14851  0.89019  0.77841  Biso   1.000  H
  H1550    1.0000 0.17771  0.03969  0.78030  Biso   1.000  H
  H1551    1.0000 0.17771  0.03973  0.78030  Biso   1.000  H
  H1552    1.0000 0.17767  0.03969  0.78030  Biso   1.000  H
  H1553    1.0000 0.17767  0.03973  0.78030  Biso   1.000  H
  H1554    1.0000 0.96031  0.17771  0.78030  Biso   1.000  H
  H1555    1.0000 0.96031  0.17767  0.78030  Biso   1.000  H
  H1556    1.0000 0.96027  0.17771  0.78030  Biso   1.000  H
  H1557    1.0000 0.96027  0.17767  0.78030  Biso   1.000  H
  C1854    1.0000 0.03659  0.16799  0.78180  Biso   1.000  C
  C1855    1.0000 0.03663  0.16799  0.78180  Biso   1.000  C
  H1558    1.0000 0.10981  0.14851  0.77841  Biso   1.000  H
  H1559    1.0000 0.10977  0.14851  0.77841  Biso   1.000  H
  C1856    1.0000 0.69116  0.34619  0.58111  Biso   1.000  C
  C1857    1.0000 0.69116  0.34616  0.58111  Biso   1.000  C
  C1858    1.0000 0.69120  0.34619  0.58111  Biso   1.000  C
  C1859    1.0000 0.69120  0.34616  0.58111  Biso   1.000  C
  C1860    1.0000 0.63727  0.31190  0.54429  Biso   1.000  C
  C1861    1.0000 0.63727  0.31186  0.54429  Biso   1.000  C
  H1560    1.0000 0.88766  0.48639  0.53551  Biso   1.000  H
  C1862    1.0000 0.84101  0.46630  0.57011  Biso   1.000  C
  H1561    1.0000 0.88766  0.48636  0.53551  Biso   1.000  H
  C1863    1.0000 0.84101  0.46626  0.57011  Biso   1.000  C
  C1864    1.0000 0.84097  0.46630  0.57011  Biso   1.000  C
  C1865    1.0000 0.84097  0.46626  0.57011  Biso   1.000  C
  H1562    1.0000 0.79986  0.42638  0.60101  Biso   1.000  H
  H1563    1.0000 0.79990  0.42638  0.60101  Biso   1.000  H
  H1564    1.0000 0.88766  0.48639  0.46449  Biso   1.000  H
  C1866    1.0000 0.84101  0.46630  0.42989  Biso   1.000  C
  H1565    1.0000 0.88766  0.48636  0.46449  Biso   1.000  H
  C1867    1.0000 0.84101  0.46626  0.42989  Biso   1.000  C
  C1868    1.0000 0.84097  0.46630  0.42989  Biso   1.000  C
  C1869    1.0000 0.84097  0.46626  0.42989  Biso   1.000  C
  H1566    1.0000 0.79986  0.42638  0.39899  Biso   1.000  H
  H1567    1.0000 0.79990  0.42638  0.39899  Biso   1.000  H
  C1870    1.0000 0.64186  0.34501  0.43330  Biso   1.000  C
  H1568    1.0000 0.60436  0.30769  0.46461  Biso   1.000  H
  C1871    1.0000 0.64186  0.34497  0.43330  Biso   1.000  C
  C1872    1.0000 0.64190  0.34501  0.43330  Biso   1.000  C
  H1569    1.0000 0.60439  0.30769  0.46461  Biso   1.000  H
  C1873    1.0000 0.64190  0.34497  0.43330  Biso   1.000  C
  H1570    1.0000 0.69648  0.36659  0.40120  Biso   1.000  H
  H1571    1.0000 0.69648  0.36656  0.40120  Biso   1.000  H
  H1572    1.0000 0.51361  0.88766  0.53551  Biso   1.000  H
  C1874    1.0000 0.53370  0.84101  0.57011  Biso   1.000  C
  C1875    1.0000 0.53370  0.84097  0.57011  Biso   1.000  C
  H1573    1.0000 0.57358  0.79986  0.60101  Biso   1.000  H
  H1574    1.0000 0.57358  0.79990  0.60101  Biso   1.000  H
  H1575    1.0000 0.81835  0.95977  0.60431  Biso   1.000  H
  H1576    1.0000 0.81839  0.95977  0.60431  Biso   1.000  H
  H1577    1.0000 0.75990  0.05060  0.53801  Biso   1.000  H
  H1578    1.0000 0.82225  0.96031  0.78030  Biso   1.000  H
  H1579    1.0000 0.82225  0.96027  0.78030  Biso   1.000  H
  H1580    1.0000 0.82229  0.96031  0.78030  Biso   1.000  H
  H1581    1.0000 0.82229  0.96027  0.78030  Biso   1.000  H
  C1876    1.0000 0.83197  0.03659  0.78180  Biso   1.000  C
  C1877    1.0000 0.83197  0.03663  0.78180  Biso   1.000  C
  H1582    1.0000 0.85046  0.11161  0.60360  Biso   1.000  H
  H1583    1.0000 0.85050  0.11161  0.60360  Biso   1.000  H
  H1584    1.0000 0.85146  0.10981  0.77841  Biso   1.000  H
  H1585    1.0000 0.85146  0.10977  0.77841  Biso   1.000  H
  H1586    1.0000 0.85149  0.10981  0.77841  Biso   1.000  H
  H1587    1.0000 0.85149  0.10977  0.77841  Biso   1.000  H
  C1878    1.0000 0.61909  0.59601  0.42340  Biso   1.000  C
  C1879    1.0000 0.61909  0.59597  0.42340  Biso   1.000  C
  C1880    1.0000 0.48015  0.83745  0.41441  Biso   1.000  C
  C1881    1.0000 0.48015  0.83749  0.41441  Biso   1.000  C
  C1882    1.0000 0.48019  0.83745  0.41441  Biso   1.000  C
  C1883    1.0000 0.48019  0.83749  0.41441  Biso   1.000  C
  C1884    1.0000 0.61909  0.59601  0.57660  Biso   1.000  C
  C1885    1.0000 0.61909  0.59597  0.57660  Biso   1.000  C
  C1886    1.0000 0.95388  0.80216  0.81399  Biso   1.000  C
  C1887    1.0000 0.95388  0.80220  0.81399  Biso   1.000  C
  C1888    1.0000 0.19780  0.95388  0.81399  Biso   1.000  C
  C1889    1.0000 0.19776  0.95388  0.81399  Biso   1.000  C
  C1890    1.0000 0.04608  0.19780  0.81399  Biso   1.000  C
  C1891    1.0000 0.04608  0.19776  0.81399  Biso   1.000  C
  H1588    1.0000 0.69648  0.36659  0.59880  Biso   1.000  H
  C1892    1.0000 0.64186  0.34501  0.56670  Biso   1.000  C
  H1589    1.0000 0.69648  0.36656  0.59880  Biso   1.000  H
  C1893    1.0000 0.64186  0.34497  0.56670  Biso   1.000  C
  C1894    1.0000 0.64190  0.34501  0.56670  Biso   1.000  C
  C1895    1.0000 0.64190  0.34497  0.56670  Biso   1.000  C
  H1590    1.0000 0.60436  0.30769  0.53539  Biso   1.000  H
  H1591    1.0000 0.60439  0.30769  0.53539  Biso   1.000  H
  C1896    1.0000 0.83745  0.51981  0.58559  Biso   1.000  C
  C1897    1.0000 0.83745  0.51977  0.58559  Biso   1.000  C
  C1898    1.0000 0.83749  0.51981  0.58559  Biso   1.000  C
  C1899    1.0000 0.83749  0.51977  0.58559  Biso   1.000  C
  C1900    1.0000 0.83745  0.51981  0.41441  Biso   1.000  C
  C1901    1.0000 0.83745  0.51977  0.41441  Biso   1.000  C
  C1902    1.0000 0.83749  0.51981  0.41441  Biso   1.000  C
  C1903    1.0000 0.83749  0.51977  0.41441  Biso   1.000  C
  C1904    1.0000 0.59601  0.38091  0.42340  Biso   1.000  C
  C1905    1.0000 0.59597  0.38091  0.42340  Biso   1.000  C
  C1906    1.0000 0.48015  0.83745  0.58559  Biso   1.000  C
  C1907    1.0000 0.48015  0.83749  0.58559  Biso   1.000  C
  C1908    1.0000 0.48019  0.83745  0.58559  Biso   1.000  C
  C1909    1.0000 0.48019  0.83749  0.58559  Biso   1.000  C
  C1910    1.0000 0.80216  0.04608  0.81399  Biso   1.000  C
  C1911    1.0000 0.80220  0.04608  0.81399  Biso   1.000  C
  C1912    1.0000 0.58740  0.60891  0.39631  Biso   1.000  C
  C1913    1.0000 0.58212  0.58139  0.45120  Biso   1.000  C
  C1914    1.0000 0.65545  0.55050  0.41871  Biso   1.000  C
  C1915    1.0000 0.58740  0.60887  0.39631  Biso   1.000  C
  C1916    1.0000 0.58208  0.58139  0.45120  Biso   1.000  C
  C1917    1.0000 0.65549  0.55050  0.41871  Biso   1.000  C
  C1918    1.0000 0.44157  0.82176  0.43911  Biso   1.000  C
  C1919    1.0000 0.46978  0.89295  0.40300  Biso   1.000  C
  C1920    1.0000 0.48398  0.79868  0.38841  Biso   1.000  C
  C1921    1.0000 0.44157  0.82179  0.43911  Biso   1.000  C
  C1922    1.0000 0.46978  0.89298  0.40300  Biso   1.000  C
  C1923    1.0000 0.58740  0.60891  0.60369  Biso   1.000  C
  C1924    1.0000 0.58212  0.58139  0.54880  Biso   1.000  C
  C1925    1.0000 0.65545  0.55050  0.58129  Biso   1.000  C
  C1926    1.0000 0.58740  0.60887  0.60369  Biso   1.000  C
  C1927    1.0000 0.58208  0.58139  0.54880  Biso   1.000  C
  C1928    1.0000 0.65549  0.55050  0.58129  Biso   1.000  C
  C1929    1.0000 0.89987  0.80197  0.82440  Biso   1.000  C
  C1930    1.0000 0.98607  0.83086  0.83731  Biso   1.000  C
  C1931    1.0000 0.97696  0.75167  0.80580  Biso   1.000  C
  C1932    1.0000 0.98607  0.83090  0.83731  Biso   1.000  C
  C1933    1.0000 0.97700  0.75167  0.80580  Biso   1.000  C
  C1934    1.0000 0.16910  0.98607  0.83731  Biso   1.000  C
  C1935    1.0000 0.19799  0.89987  0.82440  Biso   1.000  C
  C1936    1.0000 0.24829  0.97696  0.80580  Biso   1.000  C
  C1937    1.0000 0.24829  0.97700  0.80580  Biso   1.000  C
  C1938    1.0000 0.19803  0.89987  0.82440  Biso   1.000  C
  C1939    1.0000 0.10009  0.19799  0.82440  Biso   1.000  C
  C1940    1.0000 0.01389  0.16910  0.83731  Biso   1.000  C
  C1941    1.0000 0.02300  0.24829  0.80580  Biso   1.000  C
  C1942    1.0000 0.10009  0.19803  0.82440  Biso   1.000  C
  C1943    1.0000 0.10013  0.19799  0.82440  Biso   1.000  C
  C1944    1.0000 0.02296  0.24829  0.80580  Biso   1.000  C
  C1945    1.0000 0.10013  0.19803  0.82440  Biso   1.000  C
  C1946    1.0000 0.59601  0.38091  0.57660  Biso   1.000  C
  C1947    1.0000 0.59597  0.38091  0.57660  Biso   1.000  C
  C1948    1.0000 0.82176  0.55839  0.56089  Biso   1.000  C
  C1949    1.0000 0.89295  0.53018  0.59700  Biso   1.000  C
  C1950    1.0000 0.79868  0.51598  0.61159  Biso   1.000  C
  C1951    1.0000 0.82179  0.55839  0.56089  Biso   1.000  C
  C1952    1.0000 0.89298  0.53018  0.59700  Biso   1.000  C
  C1953    1.0000 0.82176  0.55839  0.43911  Biso   1.000  C
  C1954    1.0000 0.89295  0.53018  0.40300  Biso   1.000  C
  C1955    1.0000 0.79868  0.51598  0.38841  Biso   1.000  C
  C1956    1.0000 0.82179  0.55839  0.43911  Biso   1.000  C
  C1957    1.0000 0.89298  0.53018  0.40300  Biso   1.000  C
  C1958    1.0000 0.60891  0.41260  0.39631  Biso   1.000  C
  C1959    1.0000 0.58139  0.41788  0.45120  Biso   1.000  C
  C1960    1.0000 0.55050  0.34451  0.41871  Biso   1.000  C
  C1961    1.0000 0.60891  0.41256  0.39631  Biso   1.000  C
  C1962    1.0000 0.60887  0.41260  0.39631  Biso   1.000  C
  C1963    1.0000 0.60887  0.41256  0.39631  Biso   1.000  C
  C1964    1.0000 0.44157  0.82176  0.56089  Biso   1.000  C
  C1965    1.0000 0.46978  0.89295  0.59700  Biso   1.000  C
  C1966    1.0000 0.48398  0.79868  0.61159  Biso   1.000  C
  C1967    1.0000 0.44157  0.82179  0.56089  Biso   1.000  C
  C1968    1.0000 0.46978  0.89298  0.59700  Biso   1.000  C
  C1969    1.0000 0.80197  0.10009  0.82440  Biso   1.000  C
  C1970    1.0000 0.83086  0.01389  0.83731  Biso   1.000  C
  C1971    1.0000 0.75167  0.02300  0.80580  Biso   1.000  C
  C1972    1.0000 0.80197  0.10013  0.82440  Biso   1.000  C
  C1973    1.0000 0.75167  0.02296  0.80580  Biso   1.000  C
  C1974    1.0000 0.83090  0.01389  0.83731  Biso   1.000  C
  H1592    1.0000 0.55843  0.58522  0.39501  Biso   1.000  H
  H1593    1.0000 0.57465  0.64408  0.39831  Biso   1.000  H
  H1594    1.0000 0.60830  0.60600  0.37791  Biso   1.000  H
  H1595    1.0000 0.55843  0.58518  0.39501  Biso   1.000  H
  H1596    1.0000 0.55839  0.58522  0.39501  Biso   1.000  H
  H1597    1.0000 0.57469  0.64408  0.39831  Biso   1.000  H
  H1598    1.0000 0.55839  0.58518  0.39501  Biso   1.000  H
  H1599    1.0000 0.55211  0.56302  0.44350  Biso   1.000  H
  H1600    1.0000 0.60060  0.55957  0.46570  Biso   1.000  H
  H1601    1.0000 0.57102  0.61281  0.46149  Biso   1.000  H
  H1602    1.0000 0.55211  0.56298  0.44350  Biso   1.000  H
  H1603    1.0000 0.57102  0.61278  0.46149  Biso   1.000  H
  H1604    1.0000 0.55207  0.56302  0.44350  Biso   1.000  H
  H1605    1.0000 0.57098  0.61281  0.46149  Biso   1.000  H
  H1606    1.0000 0.55207  0.56298  0.44350  Biso   1.000  H
  H1607    1.0000 0.57098  0.61278  0.46149  Biso   1.000  H
  H1608    1.0000 0.68228  0.56007  0.40409  Biso   1.000  H
  H1609    1.0000 0.67122  0.54132  0.43820  Biso   1.000  H
  H1610    1.0000 0.63620  0.52130  0.41070  Biso   1.000  H
  H1611    1.0000 0.67122  0.54128  0.43820  Biso   1.000  H
  H1612    1.0000 0.67118  0.54132  0.43820  Biso   1.000  H
  H1613    1.0000 0.67118  0.54128  0.43820  Biso   1.000  H
  H1614    1.0000 0.40896  0.81238  0.42950  Biso   1.000  H
  H1615    1.0000 0.45497  0.79240  0.45049  Biso   1.000  H
  H1616    1.0000 0.43606  0.85046  0.45311  Biso   1.000  H
  H1617    1.0000 0.43606  0.85050  0.45311  Biso   1.000  H
  H1618    1.0000 0.40900  0.81238  0.42950  Biso   1.000  H
  H1619    1.0000 0.45501  0.79240  0.45049  Biso   1.000  H
  H1620    1.0000 0.43610  0.85046  0.45311  Biso   1.000  H
  H1621    1.0000 0.43610  0.85050  0.45311  Biso   1.000  H
  H1622    1.0000 0.47908  0.91748  0.41889  Biso   1.000  H
  H1623    1.0000 0.49026  0.89957  0.38470  Biso   1.000  H
  H1624    1.0000 0.43338  0.89666  0.39799  Biso   1.000  H
  H1625    1.0000 0.43338  0.89670  0.39799  Biso   1.000  H
  H1626    1.0000 0.49030  0.89957  0.38470  Biso   1.000  H
  H1627    1.0000 0.49328  0.81636  0.36960  Biso   1.000  H
  H1628    1.0000 0.51028  0.77318  0.39330  Biso   1.000  H
  H1629    1.0000 0.45099  0.78145  0.38579  Biso   1.000  H
  H1630    1.0000 0.49328  0.81640  0.36960  Biso   1.000  H
  H1631    1.0000 0.45099  0.78149  0.38579  Biso   1.000  H
  H1632    1.0000 0.55843  0.58522  0.60499  Biso   1.000  H
  H1633    1.0000 0.57465  0.64408  0.60169  Biso   1.000  H
  H1634    1.0000 0.60830  0.60600  0.62209  Biso   1.000  H
  H1635    1.0000 0.55843  0.58518  0.60499  Biso   1.000  H
  H1636    1.0000 0.55839  0.58522  0.60499  Biso   1.000  H
  H1637    1.0000 0.57469  0.64408  0.60169  Biso   1.000  H
  H1638    1.0000 0.55839  0.58518  0.60499  Biso   1.000  H
  H1639    1.0000 0.55211  0.56302  0.55650  Biso   1.000  H
  H1640    1.0000 0.60060  0.55957  0.53430  Biso   1.000  H
  H1641    1.0000 0.57102  0.61281  0.53851  Biso   1.000  H
  H1642    1.0000 0.55211  0.56298  0.55650  Biso   1.000  H
  H1643    1.0000 0.57102  0.61278  0.53851  Biso   1.000  H
  H1644    1.0000 0.55207  0.56302  0.55650  Biso   1.000  H
  H1645    1.0000 0.57098  0.61281  0.53851  Biso   1.000  H
  H1646    1.0000 0.55207  0.56298  0.55650  Biso   1.000  H
  H1647    1.0000 0.57098  0.61278  0.53851  Biso   1.000  H
  H1648    1.0000 0.68228  0.56007  0.59591  Biso   1.000  H
  H1649    1.0000 0.67122  0.54132  0.56180  Biso   1.000  H
  H1650    1.0000 0.63620  0.52130  0.58930  Biso   1.000  H
  H1651    1.0000 0.67122  0.54128  0.56180  Biso   1.000  H
  H1652    1.0000 0.67118  0.54132  0.56180  Biso   1.000  H
  H1653    1.0000 0.67118  0.54128  0.56180  Biso   1.000  H
  H1654    1.0000 0.89796  0.78830  0.84509  Biso   1.000  H
  H1655    1.0000 0.87940  0.78038  0.81069  Biso   1.000  H
  H1656    1.0000 0.88636  0.83695  0.82410  Biso   1.000  H
  H1657    1.0000 0.88636  0.83699  0.82410  Biso   1.000  H
  H1658    1.0000 0.89800  0.78830  0.84509  Biso   1.000  H
  H1659    1.0000 0.88640  0.83695  0.82410  Biso   1.000  H
  H1660    1.0000 0.88640  0.83699  0.82410  Biso   1.000  H
  H1661    1.0000 0.98098  0.86776  0.83480  Biso   1.000  H
  H1662    1.0000 0.97558  0.82076  0.85791  Biso   1.000  H
  H1663    1.0000 0.98098  0.86780  0.83480  Biso   1.000  H
  H1664    1.0000 0.97558  0.82080  0.85791  Biso   1.000  H
  H1665    1.0000 0.02231  0.82256  0.83430  Biso   1.000  H
  H1666    1.0000 0.02231  0.82260  0.83430  Biso   1.000  H
  H1667    1.0000 0.02228  0.82256  0.83430  Biso   1.000  H
  H1668    1.0000 0.02228  0.82260  0.83430  Biso   1.000  H
  H1669    1.0000 0.98546  0.75137  0.78410  Biso   1.000  H
  H1670    1.0000 0.95250  0.72427  0.81019  Biso   1.000  H
  H1671    1.0000 0.98549  0.75137  0.78410  Biso   1.000  H
  H1672    1.0000 0.95246  0.72427  0.81019  Biso   1.000  H
  H1673    1.0000 0.00819  0.74628  0.81779  Biso   1.000  H
  H1674    1.0000 0.00823  0.74628  0.81779  Biso   1.000  H
  H1675    1.0000 0.13220  0.98098  0.83480  Biso   1.000  H
  H1676    1.0000 0.17920  0.97558  0.85791  Biso   1.000  H
  H1677    1.0000 0.13216  0.98098  0.83480  Biso   1.000  H
  H1678    1.0000 0.17916  0.97558  0.85791  Biso   1.000  H
  H1679    1.0000 0.17740  0.02231  0.83430  Biso   1.000  H
  H1680    1.0000 0.17740  0.02228  0.83430  Biso   1.000  H
  H1681    1.0000 0.17736  0.02231  0.83430  Biso   1.000  H
  H1682    1.0000 0.17736  0.02228  0.83430  Biso   1.000  H
  H1683    1.0000 0.21958  0.87940  0.81069  Biso   1.000  H
  H1684    1.0000 0.21170  0.89796  0.84509  Biso   1.000  H
  H1685    1.0000 0.16301  0.88636  0.82410  Biso   1.000  H
  H1686    1.0000 0.21170  0.89800  0.84509  Biso   1.000  H
  H1687    1.0000 0.16301  0.88640  0.82410  Biso   1.000  H
  H1688    1.0000 0.21166  0.89796  0.84509  Biso   1.000  H
  H1689    1.0000 0.21166  0.89800  0.84509  Biso   1.000  H
  H1690    1.0000 0.24859  0.98546  0.78410  Biso   1.000  H
  H1691    1.0000 0.27569  0.95250  0.81019  Biso   1.000  H
  H1692    1.0000 0.24859  0.98549  0.78410  Biso   1.000  H
  H1693    1.0000 0.27569  0.95246  0.81019  Biso   1.000  H
  H1694    1.0000 0.25368  0.00819  0.81779  Biso   1.000  H
  H1695    1.0000 0.25368  0.00823  0.81779  Biso   1.000  H
  H1696    1.0000 0.10200  0.21170  0.84509  Biso   1.000  H
  H1697    1.0000 0.12060  0.21958  0.81069  Biso   1.000  H
  H1698    1.0000 0.11360  0.16301  0.82410  Biso   1.000  H
  H1699    1.0000 0.10200  0.21166  0.84509  Biso   1.000  H
  H1700    1.0000 0.12056  0.21958  0.81069  Biso   1.000  H
  H1701    1.0000 0.11356  0.16301  0.82410  Biso   1.000  H
  H1702    1.0000 0.97765  0.17740  0.83430  Biso   1.000  H
  H1703    1.0000 0.97765  0.17736  0.83430  Biso   1.000  H
  H1704    1.0000 0.97769  0.17740  0.83430  Biso   1.000  H
  H1705    1.0000 0.97769  0.17736  0.83430  Biso   1.000  H
  H1706    1.0000 0.01898  0.13220  0.83480  Biso   1.000  H
  H1707    1.0000 0.02438  0.17920  0.85791  Biso   1.000  H
  H1708    1.0000 0.01898  0.13216  0.83480  Biso   1.000  H
  H1709    1.0000 0.02438  0.17916  0.85791  Biso   1.000  H
  H1710    1.0000 0.01902  0.13220  0.83480  Biso   1.000  H
  H1711    1.0000 0.01902  0.13216  0.83480  Biso   1.000  H
  H1712    1.0000 0.99177  0.25368  0.81779  Biso   1.000  H
  H1713    1.0000 0.01451  0.24859  0.78410  Biso   1.000  H
  H1714    1.0000 0.04750  0.27569  0.81019  Biso   1.000  H
  H1715    1.0000 0.01447  0.24859  0.78410  Biso   1.000  H
  C1975    1.0000 0.60891  0.41260  0.60369  Biso   1.000  C
  C1976    1.0000 0.58139  0.41788  0.54880  Biso   1.000  C
  C1977    1.0000 0.55050  0.34451  0.58129  Biso   1.000  C
  C1978    1.0000 0.60891  0.41256  0.60369  Biso   1.000  C
  C1979    1.0000 0.60887  0.41260  0.60369  Biso   1.000  C
  C1980    1.0000 0.60887  0.41256  0.60369  Biso   1.000  C
  H1716    1.0000 0.81238  0.59100  0.57050  Biso   1.000  H
  H1717    1.0000 0.79240  0.54499  0.54951  Biso   1.000  H
  H1718    1.0000 0.85046  0.56390  0.54689  Biso   1.000  H
  H1719    1.0000 0.81238  0.59096  0.57050  Biso   1.000  H
  H1720    1.0000 0.85050  0.56390  0.54689  Biso   1.000  H
  H1721    1.0000 0.91748  0.52088  0.58111  Biso   1.000  H
  H1722    1.0000 0.89957  0.50970  0.61530  Biso   1.000  H
  H1723    1.0000 0.89666  0.56658  0.60201  Biso   1.000  H
  H1724    1.0000 0.89957  0.50966  0.61530  Biso   1.000  H
  H1725    1.0000 0.89670  0.56658  0.60201  Biso   1.000  H
  H1726    1.0000 0.81636  0.50668  0.63040  Biso   1.000  H
  H1727    1.0000 0.77318  0.48969  0.60670  Biso   1.000  H
  H1728    1.0000 0.78145  0.54897  0.61421  Biso   1.000  H
  H1729    1.0000 0.81640  0.50668  0.63040  Biso   1.000  H
  H1730    1.0000 0.78149  0.54897  0.61421  Biso   1.000  H
  H1731    1.0000 0.81238  0.59100  0.42950  Biso   1.000  H
  H1732    1.0000 0.79240  0.54499  0.45049  Biso   1.000  H
  H1733    1.0000 0.85046  0.56390  0.45311  Biso   1.000  H
  H1734    1.0000 0.81238  0.59096  0.42950  Biso   1.000  H
  H1735    1.0000 0.85050  0.56390  0.45311  Biso   1.000  H
  H1736    1.0000 0.91748  0.52088  0.41889  Biso   1.000  H
  H1737    1.0000 0.89957  0.50970  0.38470  Biso   1.000  H
  H1738    1.0000 0.89666  0.56658  0.39799  Biso   1.000  H
  H1739    1.0000 0.89957  0.50966  0.38470  Biso   1.000  H
  H1740    1.0000 0.89670  0.56658  0.39799  Biso   1.000  H
  H1741    1.0000 0.81636  0.50668  0.36960  Biso   1.000  H
  H1742    1.0000 0.77318  0.48969  0.39330  Biso   1.000  H
  H1743    1.0000 0.78145  0.54897  0.38579  Biso   1.000  H
  H1744    1.0000 0.81640  0.50668  0.36960  Biso   1.000  H
  H1745    1.0000 0.78149  0.54897  0.38579  Biso   1.000  H
  H1746    1.0000 0.58522  0.44157  0.39501  Biso   1.000  H
  H1747    1.0000 0.64408  0.42531  0.39831  Biso   1.000  H
  H1748    1.0000 0.60600  0.39170  0.37791  Biso   1.000  H
  H1749    1.0000 0.64408  0.42527  0.39831  Biso   1.000  H
  H1750    1.0000 0.60600  0.39166  0.37791  Biso   1.000  H
  H1751    1.0000 0.58518  0.44157  0.39501  Biso   1.000  H
  H1752    1.0000 0.56302  0.44789  0.44350  Biso   1.000  H
  H1753    1.0000 0.55957  0.39940  0.46570  Biso   1.000  H
  H1754    1.0000 0.61281  0.42898  0.46149  Biso   1.000  H
  H1755    1.0000 0.55957  0.39936  0.46570  Biso   1.000  H
  H1756    1.0000 0.56298  0.44789  0.44350  Biso   1.000  H
  H1757    1.0000 0.61278  0.42898  0.46149  Biso   1.000  H
  H1758    1.0000 0.56007  0.31768  0.40409  Biso   1.000  H
  H1759    1.0000 0.54132  0.32878  0.43820  Biso   1.000  H
  H1760    1.0000 0.52130  0.36380  0.41070  Biso   1.000  H
  H1761    1.0000 0.52130  0.36376  0.41070  Biso   1.000  H
  H1762    1.0000 0.54128  0.32878  0.43820  Biso   1.000  H
  H1763    1.0000 0.40896  0.81238  0.57050  Biso   1.000  H
  H1764    1.0000 0.45497  0.79240  0.54951  Biso   1.000  H
  H1765    1.0000 0.43606  0.85046  0.54689  Biso   1.000  H
  H1766    1.0000 0.43606  0.85050  0.54689  Biso   1.000  H
  H1767    1.0000 0.40900  0.81238  0.57050  Biso   1.000  H
  H1768    1.0000 0.45501  0.79240  0.54951  Biso   1.000  H
  H1769    1.0000 0.43610  0.85046  0.54689  Biso   1.000  H
  H1770    1.0000 0.43610  0.85050  0.54689  Biso   1.000  H
  H1771    1.0000 0.47908  0.91748  0.58111  Biso   1.000  H
  H1772    1.0000 0.49026  0.89957  0.61530  Biso   1.000  H
  H1773    1.0000 0.43338  0.89666  0.60201  Biso   1.000  H
  H1774    1.0000 0.43338  0.89670  0.60201  Biso   1.000  H
  H1775    1.0000 0.49030  0.89957  0.61530  Biso   1.000  H
  H1776    1.0000 0.49328  0.81636  0.63040  Biso   1.000  H
  H1777    1.0000 0.51028  0.77318  0.60670  Biso   1.000  H
  H1778    1.0000 0.45099  0.78145  0.61421  Biso   1.000  H
  H1779    1.0000 0.49328  0.81640  0.63040  Biso   1.000  H
  H1780    1.0000 0.45099  0.78149  0.61421  Biso   1.000  H
  H1781    1.0000 0.78830  0.10200  0.84509  Biso   1.000  H
  H1782    1.0000 0.78038  0.12060  0.81069  Biso   1.000  H
  H1783    1.0000 0.83695  0.11360  0.82410  Biso   1.000  H
  H1784    1.0000 0.78038  0.12056  0.81069  Biso   1.000  H
  H1785    1.0000 0.83695  0.11356  0.82410  Biso   1.000  H
  H1786    1.0000 0.83699  0.11360  0.82410  Biso   1.000  H
  H1787    1.0000 0.83699  0.11356  0.82410  Biso   1.000  H
  H1788    1.0000 0.82256  0.97765  0.83430  Biso   1.000  H
  H1789    1.0000 0.82256  0.97769  0.83430  Biso   1.000  H
  H1790    1.0000 0.82260  0.97765  0.83430  Biso   1.000  H
  H1791    1.0000 0.82260  0.97769  0.83430  Biso   1.000  H
  H1792    1.0000 0.86776  0.01898  0.83480  Biso   1.000  H
  H1793    1.0000 0.82076  0.02438  0.85791  Biso   1.000  H
  H1794    1.0000 0.86776  0.01902  0.83480  Biso   1.000  H
  H1795    1.0000 0.86780  0.01898  0.83480  Biso   1.000  H
  H1796    1.0000 0.82080  0.02438  0.85791  Biso   1.000  H
  H1797    1.0000 0.86780  0.01902  0.83480  Biso   1.000  H
  H1798    1.0000 0.74628  0.99177  0.81779  Biso   1.000  H
  H1799    1.0000 0.75137  0.01451  0.78410  Biso   1.000  H
  H1800    1.0000 0.72427  0.04750  0.81019  Biso   1.000  H
  H1801    1.0000 0.75137  0.01447  0.78410  Biso   1.000  H
  H1802    1.0000 0.58522  0.44157  0.60499  Biso   1.000  H
  H1803    1.0000 0.64408  0.42531  0.60169  Biso   1.000  H
  H1804    1.0000 0.60600  0.39170  0.62209  Biso   1.000  H
  H1805    1.0000 0.64408  0.42527  0.60169  Biso   1.000  H
  H1806    1.0000 0.60600  0.39166  0.62209  Biso   1.000  H
  H1807    1.0000 0.58518  0.44157  0.60499  Biso   1.000  H
  H1808    1.0000 0.56302  0.44789  0.55650  Biso   1.000  H
  H1809    1.0000 0.55957  0.39940  0.53430  Biso   1.000  H
  H1810    1.0000 0.61281  0.42898  0.53851  Biso   1.000  H
  H1811    1.0000 0.55957  0.39936  0.53430  Biso   1.000  H
  H1812    1.0000 0.56298  0.44789  0.55650  Biso   1.000  H
  H1813    1.0000 0.61278  0.42898  0.53851  Biso   1.000  H
  H1814    1.0000 0.56007  0.31768  0.59591  Biso   1.000  H
  H1815    1.0000 0.54132  0.32878  0.56180  Biso   1.000  H
  H1816    1.0000 0.52130  0.36380  0.58930  Biso   1.000  H
  H1817    1.0000 0.52130  0.36376  0.58930  Biso   1.000  H
  H1818    1.0000 0.54128  0.32878  0.56180  Biso   1.000  H
  C1981    1.0000 0.16607  0.91717  0.40521  Biso   1.000  C
  C1982    1.0000 0.19558  0.91128  0.43130  Biso   1.000  C
  C1983    1.0000 0.19558  0.91132  0.43130  Biso   1.000  C
  H1819    1.0000 0.14950  0.88835  0.39640  Biso   1.000  H
  C1984    1.0000 0.16091  0.96525  0.39196  Biso   1.000  C
  H1820    1.0000 0.14950  0.88839  0.39640  Biso   1.000  H
  C1985    1.0000 0.16091  0.96528  0.39196  Biso   1.000  C
  C1986    1.0000 0.16087  0.96525  0.39196  Biso   1.000  C
  C1987    1.0000 0.16087  0.96528  0.39196  Biso   1.000  C
  C1988    1.0000 0.19949  0.85988  0.44530  Biso   1.000  C
  C1989    1.0000 0.21989  0.95338  0.44414  Biso   1.000  C
  C1990    1.0000 0.16611  0.91717  0.40521  Biso   1.000  C
  C1991    1.0000 0.18521  0.00739  0.40480  Biso   1.000  C
  C1992    1.0000 0.18521  0.00735  0.40480  Biso   1.000  C
  C1993    1.0000 0.18517  0.00739  0.40480  Biso   1.000  C
  C1994    1.0000 0.18517  0.00735  0.40480  Biso   1.000  C
  C1995    1.0000 0.12539  0.97566  0.36400  Biso   1.000  C
  C1996    1.0000 0.12539  0.97570  0.36400  Biso   1.000  C
  O805     1.0000 0.17430  0.82267  0.43328  Biso   1.000  O
  O806     1.0000 0.17426  0.82267  0.43328  Biso   1.000  O
  O807     1.0000 0.22559  0.85586  0.47046  Biso   1.000  O
  O808     1.0000 0.22559  0.85590  0.47046  Biso   1.000  O
  H1821    1.0000 0.24010  0.94936  0.46199  Biso   1.000  H
  H1822    1.0000 0.24006  0.94936  0.46199  Biso   1.000  H
  C1997    1.0000 0.21468  0.00149  0.43089  Biso   1.000  C
  C1998    1.0000 0.21472  0.00149  0.43089  Biso   1.000  C
  H1823    1.0000 0.18161  0.04019  0.39569  Biso   1.000  H
  H1824    1.0000 0.18157  0.04019  0.39569  Biso   1.000  H
  O809     1.0000 0.10411  0.93424  0.35487  Biso   1.000  O
  O810     1.0000 0.10411  0.93428  0.35487  Biso   1.000  O
  O811     1.0000 0.12041  0.01830  0.35446  Biso   1.000  O
  O812     1.0000 0.12037  0.01830  0.35446  Biso   1.000  O
  Mg181    1.0000 0.15983  0.75458  0.45131  Biso   1.000  Mg
  Mg182    1.0000 0.15983  0.75462  0.45131  Biso   1.000  Mg
  Mg183    1.0000 0.22854  0.79883  0.50001  Biso   1.000  Mg
  Mg184    1.0000 0.22854  0.79887  0.50001  Biso   1.000  Mg
  Mg185    1.0000 0.22850  0.79883  0.50001  Biso   1.000  Mg
  Mg186    1.0000 0.22850  0.79887  0.50001  Biso   1.000  Mg
  C1999    1.0000 0.23799  0.04800  0.44501  Biso   1.000  C
  C2000    1.0000 0.23799  0.04803  0.44501  Biso   1.000  C
  Mg187    1.0000 0.04444  0.93126  0.32511  Biso   1.000  Mg
  Mg188    1.0000 0.04440  0.93126  0.32511  Biso   1.000  Mg
  Mg189    1.0000 0.06874  0.04444  0.32511  Biso   1.000  Mg
  Mg190    1.0000 0.06874  0.04440  0.32511  Biso   1.000  Mg
  Mg191    1.0000 0.06870  0.04444  0.32511  Biso   1.000  Mg
  Mg192    1.0000 0.06870  0.04440  0.32511  Biso   1.000  Mg
  O813     1.0000 0.13878  0.68217  0.46604  Biso   1.000  O
  O814     1.0000 0.18100  0.72098  0.41097  Biso   1.000  O
  O815     1.0000 0.18096  0.72098  0.41097  Biso   1.000  O
  Mg193    1.0000 0.09113  0.70973  0.50001  Biso   1.000  Mg
  O816     1.0000 0.14881  0.77296  0.50001  Biso   1.000  O
  O817     1.0000 0.14881  0.77299  0.50001  Biso   1.000  O
  O818     1.0000 0.14877  0.77296  0.50001  Biso   1.000  O
  O819     1.0000 0.14877  0.77299  0.50001  Biso   1.000  O
  O820     1.0000 0.23458  0.74207  0.46618  Biso   1.000  O
  O821     1.0000 0.08991  0.76878  0.43342  Biso   1.000  O
  Mg194    1.0000 0.15983  0.75458  0.54869  Biso   1.000  Mg
  Mg195    1.0000 0.15983  0.75462  0.54869  Biso   1.000  Mg
  O822     1.0000 0.23458  0.74207  0.53382  Biso   1.000  O
  O823     1.0000 0.30608  0.80055  0.50001  Biso   1.000  O
  O824     1.0000 0.22559  0.85586  0.52954  Biso   1.000  O
  O825     1.0000 0.30608  0.80059  0.50001  Biso   1.000  O
  O826     1.0000 0.22559  0.85590  0.52954  Biso   1.000  O
  O827     1.0000 0.30612  0.80055  0.50001  Biso   1.000  O
  O828     1.0000 0.30612  0.80059  0.50001  Biso   1.000  O
  O829     1.0000 0.26291  0.04011  0.46932  Biso   1.000  O
  O830     1.0000 0.23118  0.08991  0.43342  Biso   1.000  O
  O831     1.0000 0.26291  0.04007  0.46932  Biso   1.000  O
  O832     1.0000 0.26287  0.04011  0.46932  Biso   1.000  O
  O833     1.0000 0.26287  0.04007  0.46932  Biso   1.000  O
  O834     1.0000 0.01830  0.87955  0.35446  Biso   1.000  O
  O835     1.0000 0.01830  0.87959  0.35446  Biso   1.000  O
  Mg196    1.0000 0.93126  0.95552  0.32511  Biso   1.000  Mg
  Mg197    1.0000 0.93126  0.95556  0.32511  Biso   1.000  Mg
  O836     1.0000 0.98316  0.92165  0.29497  Biso   1.000  O
  O837     1.0000 0.98316  0.92169  0.29497  Biso   1.000  O
  O838     1.0000 0.98320  0.92165  0.29497  Biso   1.000  O
  O839     1.0000 0.98320  0.92169  0.29497  Biso   1.000  O
  O840     1.0000 0.00000  1.00000  0.33850  Biso   1.000  O
  O841     1.0000 0.07831  0.98316  0.29497  Biso   1.000  O
  O842     1.0000 0.08149  0.87465  0.30032  Biso   1.000  O
  O843     1.0000 0.07831  0.98320  0.29497  Biso   1.000  O
  O844     1.0000 0.08149  0.87469  0.30032  Biso   1.000  O
  O845     1.0000 0.07827  0.98316  0.29497  Biso   1.000  O
  O846     1.0000 0.07827  0.98320  0.29497  Biso   1.000  O
  Mg198    1.0000 0.95552  0.06874  0.32511  Biso   1.000  Mg
  Mg199    1.0000 0.95552  0.06870  0.32511  Biso   1.000  Mg
  Mg200    1.0000 0.95556  0.06874  0.32511  Biso   1.000  Mg
  Mg201    1.0000 0.95556  0.06870  0.32511  Biso   1.000  Mg
  O847     1.0000 0.12531  0.08149  0.30032  Biso   1.000  O
  O848     1.0000 0.06572  0.10411  0.35487  Biso   1.000  O
  O849     1.0000 0.01680  0.07831  0.29497  Biso   1.000  O
  O850     1.0000 0.01680  0.07827  0.29497  Biso   1.000  O
  O851     1.0000 0.12527  0.08149  0.30032  Biso   1.000  O
  O852     1.0000 0.06568  0.10411  0.35487  Biso   1.000  O
  C2001    1.0000 0.14529  0.63628  0.45521  Biso   1.000  C
  S187     1.0000 0.21047  0.67367  0.40999  Biso   1.000  S
  S188     1.0000 0.21047  0.67363  0.40999  Biso   1.000  S
  S189     1.0000 0.21051  0.67367  0.40999  Biso   1.000  S
  S190     1.0000 0.21051  0.67363  0.40999  Biso   1.000  S
  O853     1.0000 0.05699  0.64098  0.50001  Biso   1.000  O
  O854     1.0000 0.05703  0.64098  0.50001  Biso   1.000  O
  O855     1.0000 0.13878  0.68217  0.53396  Biso   1.000  O
  O856     1.0000 0.04011  0.73709  0.53068  Biso   1.000  O
  O857     1.0000 0.04011  0.73709  0.46932  Biso   1.000  O
  O858     1.0000 0.04007  0.73709  0.53068  Biso   1.000  O
  O859     1.0000 0.04007  0.73709  0.46932  Biso   1.000  O
  C2002    1.0000 0.27229  0.71642  0.45530  Biso   1.000  C
  C2003    1.0000 0.27229  0.71639  0.45530  Biso   1.000  C
  C2004    1.0000 0.04800  0.76197  0.44501  Biso   1.000  C
  C2005    1.0000 0.04803  0.76197  0.44501  Biso   1.000  C
  O860     1.0000 0.08991  0.76878  0.56658  Biso   1.000  O
  O861     1.0000 0.18100  0.72098  0.58903  Biso   1.000  O
  O862     1.0000 0.17430  0.82267  0.56672  Biso   1.000  O
  O863     1.0000 0.18096  0.72098  0.58903  Biso   1.000  O
  O864     1.0000 0.17426  0.82267  0.56672  Biso   1.000  O
  C2006    1.0000 0.27229  0.71642  0.54470  Biso   1.000  C
  C2007    1.0000 0.27229  0.71639  0.54470  Biso   1.000  C
  S191     1.0000 0.33865  0.75477  0.50001  Biso   1.000  S
  S192     1.0000 0.33865  0.75481  0.50001  Biso   1.000  S
  C2008    1.0000 0.19949  0.85988  0.55470  Biso   1.000  C
  Mg202    1.0000 0.29024  0.09113  0.50001  Biso   1.000  Mg
  Mg203    1.0000 0.24538  0.15983  0.45131  Biso   1.000  Mg
  Mg204    1.0000 0.24534  0.15983  0.45131  Biso   1.000  Mg
  C2009    1.0000 0.97566  0.87457  0.36400  Biso   1.000  C
  C2010    1.0000 0.97570  0.87457  0.36400  Biso   1.000  C
  O865     1.0000 0.93424  0.89585  0.35487  Biso   1.000  O
  O866     1.0000 0.93424  0.89589  0.35487  Biso   1.000  O
  O867     1.0000 0.93428  0.89585  0.35487  Biso   1.000  O
  O868     1.0000 0.93428  0.89589  0.35487  Biso   1.000  O
  O869     1.0000 0.87465  0.91848  0.30032  Biso   1.000  O
  O870     1.0000 0.87955  0.98167  0.35446  Biso   1.000  O
  O871     1.0000 0.87469  0.91848  0.30032  Biso   1.000  O
  O872     1.0000 0.87959  0.98167  0.35446  Biso   1.000  O
  O873     1.0000 0.92165  0.01680  0.29497  Biso   1.000  O
  O874     1.0000 0.92169  0.01680  0.29497  Biso   1.000  O
  C2011    1.0000 0.97895  0.89398  0.26990  Biso   1.000  C
  C2012    1.0000 0.97899  0.89398  0.26990  Biso   1.000  C
  C2013    1.0000 0.10598  0.97895  0.26990  Biso   1.000  C
  C2014    1.0000 0.10598  0.97899  0.26990  Biso   1.000  C
  S193     1.0000 0.08263  0.87274  0.26824  Biso   1.000  S
  S194     1.0000 0.08263  0.87278  0.26824  Biso   1.000  S
  O875     1.0000 0.98167  0.12041  0.35446  Biso   1.000  O
  O876     1.0000 0.91848  0.12531  0.30032  Biso   1.000  O
  O877     1.0000 0.89585  0.06572  0.35487  Biso   1.000  O
  O878     1.0000 0.98167  0.12037  0.35446  Biso   1.000  O
  O879     1.0000 0.91848  0.12527  0.30032  Biso   1.000  O
  O880     1.0000 0.89585  0.06568  0.35487  Biso   1.000  O
  O881     1.0000 0.89589  0.06572  0.35487  Biso   1.000  O
  O882     1.0000 0.89589  0.06568  0.35487  Biso   1.000  O
  S195     1.0000 0.12722  0.08263  0.26824  Biso   1.000  S
  S196     1.0000 0.12719  0.08263  0.26824  Biso   1.000  S
  C2015    1.0000 0.02430  0.12539  0.36400  Biso   1.000  C
  C2016    1.0000 0.02101  0.10598  0.26990  Biso   1.000  C
  C2017    1.0000 0.02097  0.10598  0.26990  Biso   1.000  C
  C2018    1.0000 0.12370  0.58912  0.46841  Biso   1.000  C
  C2019    1.0000 0.12370  0.58908  0.46841  Biso   1.000  C
  C2020    1.0000 0.17809  0.62499  0.42921  Biso   1.000  C
  O883     1.0000 0.22448  0.65450  0.38026  Biso   1.000  O
  C2021    1.0000 0.26861  0.68301  0.43100  Biso   1.000  C
  C2022    1.0000 0.26861  0.68297  0.43100  Biso   1.000  C
  O884     1.0000 0.22452  0.65450  0.38026  Biso   1.000  O
  C2023    1.0000 0.26857  0.68301  0.43100  Biso   1.000  C
  C2024    1.0000 0.26857  0.68297  0.43100  Biso   1.000  C
  S197     1.0000 0.08348  0.59257  0.50001  Biso   1.000  S
  C2025    1.0000 0.14529  0.63628  0.54479  Biso   1.000  C
  C2026    1.0000 0.04800  0.76197  0.55499  Biso   1.000  C
  C2027    1.0000 0.04803  0.76197  0.55499  Biso   1.000  C
  C2028    1.0000 0.32151  0.71838  0.46750  Biso   1.000  C
  C2029    1.0000 0.00149  0.78528  0.43089  Biso   1.000  C
  S198     1.0000 0.21047  0.67367  0.59001  Biso   1.000  S
  S199     1.0000 0.21047  0.67363  0.59001  Biso   1.000  S
  S200     1.0000 0.21051  0.67367  0.59001  Biso   1.000  S
  S201     1.0000 0.21051  0.67363  0.59001  Biso   1.000  S
  C2030    1.0000 0.26861  0.68301  0.56900  Biso   1.000  C
  C2031    1.0000 0.26861  0.68297  0.56900  Biso   1.000  C
  C2032    1.0000 0.26857  0.68301  0.56900  Biso   1.000  C
  C2033    1.0000 0.26857  0.68297  0.56900  Biso   1.000  C
  C2034    1.0000 0.32151  0.71838  0.53250  Biso   1.000  C
  O885     1.0000 0.39220  0.76247  0.50001  Biso   1.000  O
  O886     1.0000 0.39216  0.76247  0.50001  Biso   1.000  O
  C2035    1.0000 0.19558  0.91128  0.56870  Biso   1.000  C
  C2036    1.0000 0.19558  0.91132  0.56870  Biso   1.000  C
  O887     1.0000 0.26291  0.04011  0.53068  Biso   1.000  O
  O888     1.0000 0.26291  0.04007  0.53068  Biso   1.000  O
  O889     1.0000 0.26287  0.04011  0.53068  Biso   1.000  O
  O890     1.0000 0.26287  0.04007  0.53068  Biso   1.000  O
  Mg205    1.0000 0.24538  0.15983  0.54869  Biso   1.000  Mg
  Mg206    1.0000 0.24534  0.15983  0.54869  Biso   1.000  Mg
  O891     1.0000 0.22701  0.14881  0.50001  Biso   1.000  O
  O892     1.0000 0.35898  0.05699  0.50001  Biso   1.000  O
  O893     1.0000 0.31779  0.13878  0.53396  Biso   1.000  O
  O894     1.0000 0.31779  0.13878  0.46604  Biso   1.000  O
  O895     1.0000 0.22701  0.14877  0.50001  Biso   1.000  O
  O896     1.0000 0.35898  0.05703  0.50001  Biso   1.000  O
  Mg207    1.0000 0.20113  0.22854  0.50001  Biso   1.000  Mg
  O897     1.0000 0.27898  0.18100  0.41097  Biso   1.000  O
  O898     1.0000 0.25789  0.23458  0.46618  Biso   1.000  O
  O899     1.0000 0.17729  0.17430  0.43328  Biso   1.000  O
  Mg208    1.0000 0.20113  0.22850  0.50001  Biso   1.000  Mg
  O900     1.0000 0.27898  0.18096  0.41097  Biso   1.000  O
  O901     1.0000 0.17729  0.17426  0.43328  Biso   1.000  O
  Mg209    1.0000 0.20109  0.22854  0.50001  Biso   1.000  Mg
  Mg210    1.0000 0.20109  0.22850  0.50001  Biso   1.000  Mg
  C2037    1.0000 0.96525  0.83906  0.39196  Biso   1.000  C
  C2038    1.0000 0.96525  0.83909  0.39196  Biso   1.000  C
  C2039    1.0000 0.96528  0.83906  0.39196  Biso   1.000  C
  C2040    1.0000 0.96528  0.83909  0.39196  Biso   1.000  C
  S202     1.0000 0.87274  0.91733  0.26824  Biso   1.000  S
  S203     1.0000 0.87274  0.91737  0.26824  Biso   1.000  S
  S204     1.0000 0.87278  0.91733  0.26824  Biso   1.000  S
  S205     1.0000 0.87278  0.91737  0.26824  Biso   1.000  S
  C2041    1.0000 0.87457  0.02430  0.36400  Biso   1.000  C
  C2042    1.0000 0.89398  0.02101  0.26990  Biso   1.000  C
  C2043    1.0000 0.89398  0.02097  0.26990  Biso   1.000  C
  C2044    1.0000 0.92946  0.88988  0.25481  Biso   1.000  C
  C2045    1.0000 0.92950  0.88988  0.25481  Biso   1.000  C
  C2046    1.0000 0.02009  0.87040  0.25561  Biso   1.000  C
  C2047    1.0000 0.02013  0.87040  0.25561  Biso   1.000  C
  C2048    1.0000 0.11012  0.92946  0.25481  Biso   1.000  C
  C2049    1.0000 0.11012  0.92950  0.25481  Biso   1.000  C
  C2050    1.0000 0.12960  0.02009  0.25561  Biso   1.000  C
  C2051    1.0000 0.12960  0.02013  0.25561  Biso   1.000  C
  C2052    1.0000 0.12956  0.02009  0.25561  Biso   1.000  C
  C2053    1.0000 0.12956  0.02013  0.25561  Biso   1.000  C
  O902     1.0000 0.10981  0.83117  0.25538  Biso   1.000  O
  O903     1.0000 0.10977  0.83117  0.25538  Biso   1.000  O
  S206     1.0000 0.91733  0.12722  0.26824  Biso   1.000  S
  S207     1.0000 0.91733  0.12719  0.26824  Biso   1.000  S
  S208     1.0000 0.91737  0.12722  0.26824  Biso   1.000  S
  S209     1.0000 0.91737  0.12719  0.26824  Biso   1.000  S
  O904     1.0000 0.16879  0.10981  0.25538  Biso   1.000  O
  C2054    1.0000 0.07050  0.11012  0.25481  Biso   1.000  C
  O905     1.0000 0.16879  0.10977  0.25538  Biso   1.000  O
  C2055    1.0000 0.07046  0.11012  0.25481  Biso   1.000  C
  C2056    1.0000 0.03472  0.16091  0.39196  Biso   1.000  C
  C2057    1.0000 0.03472  0.16087  0.39196  Biso   1.000  C
  C2058    1.0000 0.97987  0.12960  0.25561  Biso   1.000  C
  C2059    1.0000 0.97987  0.12956  0.25561  Biso   1.000  C
  C2060    1.0000 0.12941  0.54185  0.45550  Biso   1.000  C
  C2061    1.0000 0.12941  0.54189  0.45550  Biso   1.000  C
  C2062    1.0000 0.12937  0.54185  0.45550  Biso   1.000  C
  C2063    1.0000 0.12937  0.54189  0.45550  Biso   1.000  C
  C2064    1.0000 0.18131  0.57749  0.41730  Biso   1.000  C
  C2065    1.0000 0.18127  0.57749  0.41730  Biso   1.000  C
  C2066    1.0000 0.30880  0.65377  0.41889  Biso   1.000  C
  C2067    1.0000 0.30880  0.65381  0.41889  Biso   1.000  C
  C2068    1.0000 0.30876  0.65377  0.41889  Biso   1.000  C
  C2069    1.0000 0.30876  0.65381  0.41889  Biso   1.000  C
  O906     1.0000 0.05259  0.54782  0.50001  Biso   1.000  O
  C2070    1.0000 0.12370  0.58912  0.53159  Biso   1.000  C
  O907     1.0000 0.05259  0.54779  0.50001  Biso   1.000  O
  C2071    1.0000 0.12370  0.58908  0.53159  Biso   1.000  C
  O908     1.0000 0.05263  0.54782  0.50001  Biso   1.000  O
  O909     1.0000 0.05263  0.54779  0.50001  Biso   1.000  O
  C2072    1.0000 0.17809  0.62499  0.57079  Biso   1.000  C
  C2073    1.0000 0.00149  0.78528  0.56911  Biso   1.000  C
  C2074    1.0000 0.36269  0.68806  0.45571  Biso   1.000  C
  C2075    1.0000 0.36269  0.68810  0.45571  Biso   1.000  C
  C2076    1.0000 0.95338  0.78007  0.44414  Biso   1.000  C
  C2077    1.0000 0.00739  0.81475  0.40480  Biso   1.000  C
  C2078    1.0000 0.00739  0.81479  0.40480  Biso   1.000  C
  C2079    1.0000 0.00735  0.81475  0.40480  Biso   1.000  C
  C2080    1.0000 0.00735  0.81479  0.40480  Biso   1.000  C
  O910     1.0000 0.22448  0.65450  0.61974  Biso   1.000  O
  O911     1.0000 0.22452  0.65450  0.61974  Biso   1.000  O
  C2081    1.0000 0.30880  0.65377  0.58111  Biso   1.000  C
  C2082    1.0000 0.30880  0.65381  0.58111  Biso   1.000  C
  C2083    1.0000 0.30876  0.65377  0.58111  Biso   1.000  C
  C2084    1.0000 0.30876  0.65381  0.58111  Biso   1.000  C
  C2085    1.0000 0.36269  0.68806  0.54429  Biso   1.000  C
  C2086    1.0000 0.36269  0.68810  0.54429  Biso   1.000  C
  C2087    1.0000 0.21989  0.95338  0.55586  Biso   1.000  C
  C2088    1.0000 0.16611  0.91717  0.59479  Biso   1.000  C
  C2089    1.0000 0.16607  0.91717  0.59479  Biso   1.000  C
  C2090    1.0000 0.23799  0.04800  0.55499  Biso   1.000  C
  C2091    1.0000 0.23799  0.04803  0.55499  Biso   1.000  C
  O912     1.0000 0.23118  0.08991  0.56658  Biso   1.000  O
  O913     1.0000 0.27898  0.18100  0.58903  Biso   1.000  O
  O914     1.0000 0.25789  0.23458  0.53382  Biso   1.000  O
  O915     1.0000 0.17729  0.17430  0.56672  Biso   1.000  O
  O916     1.0000 0.27898  0.18096  0.58903  Biso   1.000  O
  O917     1.0000 0.17729  0.17426  0.56672  Biso   1.000  O
  S210     1.0000 0.40739  0.08348  0.50001  Biso   1.000  S
  S211     1.0000 0.40743  0.08348  0.50001  Biso   1.000  S
  C2092    1.0000 0.36369  0.14529  0.54479  Biso   1.000  C
  C2093    1.0000 0.36369  0.14529  0.45521  Biso   1.000  C
  O918     1.0000 0.19941  0.30608  0.50001  Biso   1.000  O
  O919     1.0000 0.14410  0.22559  0.52954  Biso   1.000  O
  O920     1.0000 0.14410  0.22559  0.47046  Biso   1.000  O
  O921     1.0000 0.19941  0.30612  0.50001  Biso   1.000  O
  O922     1.0000 0.19937  0.30608  0.50001  Biso   1.000  O
  O923     1.0000 0.14407  0.22559  0.52954  Biso   1.000  O
  O924     1.0000 0.14407  0.22559  0.47046  Biso   1.000  O
  O925     1.0000 0.19937  0.30612  0.50001  Biso   1.000  O
  S212     1.0000 0.32633  0.21047  0.40999  Biso   1.000  S
  S213     1.0000 0.32633  0.21051  0.40999  Biso   1.000  S
  C2094    1.0000 0.28358  0.27229  0.45530  Biso   1.000  C
  C2095    1.0000 0.14008  0.19949  0.44530  Biso   1.000  C
  C2096    1.0000 0.91717  0.83385  0.40521  Biso   1.000  C
  C2097    1.0000 0.91717  0.83389  0.40521  Biso   1.000  C
  O926     1.0000 0.83117  0.89015  0.25538  Biso   1.000  O
  C2098    1.0000 0.87040  0.97987  0.25561  Biso   1.000  C
  O927     1.0000 0.83117  0.89019  0.25538  Biso   1.000  O
  C2099    1.0000 0.83906  0.03472  0.39196  Biso   1.000  C
  C2100    1.0000 0.83909  0.03472  0.39196  Biso   1.000  C
  C2101    1.0000 0.88988  0.07050  0.25481  Biso   1.000  C
  C2102    1.0000 0.88988  0.07046  0.25481  Biso   1.000  C
  C2103    1.0000 0.92314  0.85659  0.23011  Biso   1.000  C
  C2104    1.0000 0.92318  0.85659  0.23011  Biso   1.000  C
  C2105    1.0000 0.01160  0.83856  0.22931  Biso   1.000  C
  C2106    1.0000 0.01160  0.83860  0.22931  Biso   1.000  C
  C2107    1.0000 0.14341  0.92314  0.23011  Biso   1.000  C
  C2108    1.0000 0.14341  0.92318  0.23011  Biso   1.000  C
  C2109    1.0000 0.14338  0.92314  0.23011  Biso   1.000  C
  C2110    1.0000 0.14338  0.92318  0.23011  Biso   1.000  C
  C2111    1.0000 0.16140  0.01160  0.22931  Biso   1.000  C
  C2112    1.0000 0.16137  0.01160  0.22931  Biso   1.000  C
  O928     1.0000 0.89015  0.16879  0.25538  Biso   1.000  O
  O929     1.0000 0.89019  0.16879  0.25538  Biso   1.000  O
  C2113    1.0000 0.07682  0.14341  0.23011  Biso   1.000  C
  C2114    1.0000 0.07682  0.14338  0.23011  Biso   1.000  C
  C2115    1.0000 0.08279  0.16611  0.40521  Biso   1.000  C
  C2116    1.0000 0.08279  0.16607  0.40521  Biso   1.000  C
  C2117    1.0000 0.99257  0.18521  0.40480  Biso   1.000  C
  C2118    1.0000 0.99257  0.18517  0.40480  Biso   1.000  C
  C2119    1.0000 0.99261  0.18521  0.40480  Biso   1.000  C
  C2120    1.0000 0.99261  0.18517  0.40480  Biso   1.000  C
  C2121    1.0000 0.98836  0.16140  0.22931  Biso   1.000  C
  C2122    1.0000 0.98836  0.16137  0.22931  Biso   1.000  C
  C2123    1.0000 0.15899  0.53370  0.42989  Biso   1.000  C
  H1825    1.0000 0.11230  0.51361  0.46449  Biso   1.000  H
  H1826    1.0000 0.20010  0.57358  0.39899  Biso   1.000  H
  H1827    1.0000 0.20006  0.57358  0.39899  Biso   1.000  H
  H1828    1.0000 0.30348  0.63341  0.40120  Biso   1.000  H
  C2124    1.0000 0.35810  0.65495  0.43330  Biso   1.000  C
  C2125    1.0000 0.35810  0.65499  0.43330  Biso   1.000  C
  C2126    1.0000 0.35806  0.65495  0.43330  Biso   1.000  C
  C2127    1.0000 0.35806  0.65499  0.43330  Biso   1.000  C
  C2128    1.0000 0.12941  0.54185  0.54450  Biso   1.000  C
  C2129    1.0000 0.12941  0.54189  0.54450  Biso   1.000  C
  C2130    1.0000 0.12937  0.54185  0.54450  Biso   1.000  C
  C2131    1.0000 0.12937  0.54189  0.54450  Biso   1.000  C
  C2132    1.0000 0.18131  0.57749  0.58270  Biso   1.000  C
  C2133    1.0000 0.18127  0.57749  0.58270  Biso   1.000  C
  C2134    1.0000 0.95338  0.78007  0.55586  Biso   1.000  C
  C2135    1.0000 0.00739  0.81475  0.59520  Biso   1.000  C
  C2136    1.0000 0.00739  0.81479  0.59520  Biso   1.000  C
  C2137    1.0000 0.00735  0.81475  0.59520  Biso   1.000  C
  C2138    1.0000 0.00735  0.81479  0.59520  Biso   1.000  C
  H1829    1.0000 0.39561  0.69227  0.46461  Biso   1.000  H
  H1830    1.0000 0.39557  0.69227  0.46461  Biso   1.000  H
  C2139    1.0000 0.91128  0.80438  0.43130  Biso   1.000  C
  H1831    1.0000 0.94936  0.75990  0.46199  Biso   1.000  H
  C2140    1.0000 0.91132  0.80438  0.43130  Biso   1.000  C
  H1832    1.0000 0.04019  0.81835  0.39569  Biso   1.000  H
  H1833    1.0000 0.04019  0.81839  0.39569  Biso   1.000  H
  H1834    1.0000 0.30348  0.63341  0.59880  Biso   1.000  H
  C2141    1.0000 0.35810  0.65495  0.56670  Biso   1.000  C
  C2142    1.0000 0.35810  0.65499  0.56670  Biso   1.000  C
  C2143    1.0000 0.35806  0.65495  0.56670  Biso   1.000  C
  C2144    1.0000 0.35806  0.65499  0.56670  Biso   1.000  C
  H1835    1.0000 0.39561  0.69227  0.53539  Biso   1.000  H
  H1836    1.0000 0.39557  0.69227  0.53539  Biso   1.000  H
  H1837    1.0000 0.24010  0.94936  0.53801  Biso   1.000  H
  H1838    1.0000 0.24006  0.94936  0.53801  Biso   1.000  H
  C2145    1.0000 0.21468  0.00149  0.56911  Biso   1.000  C
  C2146    1.0000 0.21472  0.00149  0.56911  Biso   1.000  C
  H1839    1.0000 0.14950  0.88835  0.60360  Biso   1.000  H
  C2147    1.0000 0.16091  0.96525  0.60804  Biso   1.000  C
  H1840    1.0000 0.14950  0.88839  0.60360  Biso   1.000  H
  C2148    1.0000 0.16091  0.96528  0.60804  Biso   1.000  C
  C2149    1.0000 0.16087  0.96525  0.60804  Biso   1.000  C
  C2150    1.0000 0.16087  0.96528  0.60804  Biso   1.000  C
  S214     1.0000 0.32633  0.21047  0.59001  Biso   1.000  S
  S215     1.0000 0.32633  0.21051  0.59001  Biso   1.000  S
  C2151    1.0000 0.28358  0.27229  0.54470  Biso   1.000  C
  C2152    1.0000 0.14008  0.19949  0.55470  Biso   1.000  C
  O930     1.0000 0.45218  0.05259  0.50001  Biso   1.000  O
  C2153    1.0000 0.41088  0.12370  0.53159  Biso   1.000  C
  C2154    1.0000 0.41088  0.12370  0.46841  Biso   1.000  C
  O931     1.0000 0.45218  0.05263  0.50001  Biso   1.000  O
  O932     1.0000 0.45221  0.05259  0.50001  Biso   1.000  O
  O933     1.0000 0.45221  0.05263  0.50001  Biso   1.000  O
  C2155    1.0000 0.37498  0.17809  0.57079  Biso   1.000  C
  C2156    1.0000 0.37498  0.17809  0.42921  Biso   1.000  C
  S216     1.0000 0.24519  0.33865  0.50001  Biso   1.000  S
  S217     1.0000 0.24515  0.33865  0.50001  Biso   1.000  S
  O934     1.0000 0.34550  0.22448  0.38026  Biso   1.000  O
  C2157    1.0000 0.31699  0.26861  0.43100  Biso   1.000  C
  O935     1.0000 0.34550  0.22452  0.38026  Biso   1.000  O
  C2158    1.0000 0.31699  0.26857  0.43100  Biso   1.000  C
  O936     1.0000 0.34547  0.22448  0.38026  Biso   1.000  O
  O937     1.0000 0.34547  0.22452  0.38026  Biso   1.000  O
  C2159    1.0000 0.28159  0.32151  0.46750  Biso   1.000  C
  C2160    1.0000 0.08868  0.19558  0.43130  Biso   1.000  C
  H1841    1.0000 0.88835  0.85046  0.39640  Biso   1.000  H
  H1842    1.0000 0.88835  0.85050  0.39640  Biso   1.000  H
  H1843    1.0000 0.88839  0.85046  0.39640  Biso   1.000  H
  H1844    1.0000 0.88839  0.85050  0.39640  Biso   1.000  H
  C2161    1.0000 0.83856  0.98836  0.22931  Biso   1.000  C
  C2162    1.0000 0.83860  0.98836  0.22931  Biso   1.000  C
  C2163    1.0000 0.81475  0.99257  0.40480  Biso   1.000  C
  C2164    1.0000 0.81475  0.99261  0.40480  Biso   1.000  C
  C2165    1.0000 0.81479  0.99257  0.40480  Biso   1.000  C
  C2166    1.0000 0.81479  0.99261  0.40480  Biso   1.000  C
  C2167    1.0000 0.83385  0.08279  0.40521  Biso   1.000  C
  C2168    1.0000 0.83389  0.08279  0.40521  Biso   1.000  C
  C2169    1.0000 0.85659  0.07682  0.23011  Biso   1.000  C
  H1845    1.0000 0.89015  0.85146  0.22159  Biso   1.000  H
  C2170    1.0000 0.96337  0.83197  0.21820  Biso   1.000  C
  H1846    1.0000 0.89015  0.85149  0.22159  Biso   1.000  H
  H1847    1.0000 0.89019  0.85146  0.22159  Biso   1.000  H
  H1848    1.0000 0.89019  0.85149  0.22159  Biso   1.000  H
  H1849    1.0000 0.03969  0.82225  0.21970  Biso   1.000  H
  H1850    1.0000 0.03969  0.82229  0.21970  Biso   1.000  H
  H1851    1.0000 0.03973  0.82225  0.21970  Biso   1.000  H
  H1852    1.0000 0.03973  0.82229  0.21970  Biso   1.000  H
  C2171    1.0000 0.16799  0.96337  0.21820  Biso   1.000  C
  H1853    1.0000 0.14851  0.89015  0.22159  Biso   1.000  H
  H1854    1.0000 0.14851  0.89019  0.22159  Biso   1.000  H
  H1855    1.0000 0.17771  0.03969  0.21970  Biso   1.000  H
  H1856    1.0000 0.17771  0.03973  0.21970  Biso   1.000  H
  H1857    1.0000 0.17767  0.03969  0.21970  Biso   1.000  H
  H1858    1.0000 0.17767  0.03973  0.21970  Biso   1.000  H
  H1859    1.0000 0.10981  0.14851  0.22159  Biso   1.000  H
  C2172    1.0000 0.03659  0.16799  0.21820  Biso   1.000  C
  H1860    1.0000 0.10977  0.14851  0.22159  Biso   1.000  H
  C2173    1.0000 0.03663  0.16799  0.21820  Biso   1.000  C
  H1861    1.0000 0.11161  0.14950  0.39640  Biso   1.000  H
  C2174    1.0000 0.99847  0.21468  0.43089  Biso   1.000  C
  C2175    1.0000 0.99847  0.21472  0.43089  Biso   1.000  C
  H1862    1.0000 0.95977  0.18161  0.39569  Biso   1.000  H
  H1863    1.0000 0.95977  0.18157  0.39569  Biso   1.000  H
  H1864    1.0000 0.96031  0.17771  0.21970  Biso   1.000  H
  H1865    1.0000 0.96031  0.17767  0.21970  Biso   1.000  H
  H1866    1.0000 0.96027  0.17771  0.21970  Biso   1.000  H
  H1867    1.0000 0.96027  0.17767  0.21970  Biso   1.000  H
  C2176    1.0000 0.16251  0.48015  0.41441  Biso   1.000  C
  C2177    1.0000 0.16251  0.48019  0.41441  Biso   1.000  C
  C2178    1.0000 0.16248  0.48015  0.41441  Biso   1.000  C
  C2179    1.0000 0.16248  0.48019  0.41441  Biso   1.000  C
  C2180    1.0000 0.40399  0.61909  0.42340  Biso   1.000  C
  H1868    1.0000 0.11230  0.51361  0.53551  Biso   1.000  H
  C2181    1.0000 0.15899  0.53370  0.57011  Biso   1.000  C
  H1869    1.0000 0.20010  0.57358  0.60101  Biso   1.000  H
  H1870    1.0000 0.20006  0.57358  0.60101  Biso   1.000  H
  C2182    1.0000 0.91128  0.80438  0.56870  Biso   1.000  C
  H1871    1.0000 0.94936  0.75990  0.53801  Biso   1.000  H
  C2183    1.0000 0.91132  0.80438  0.56870  Biso   1.000  C
  C2184    1.0000 0.96525  0.83906  0.60804  Biso   1.000  C
  C2185    1.0000 0.96525  0.83909  0.60804  Biso   1.000  C
  C2186    1.0000 0.96528  0.83906  0.60804  Biso   1.000  C
  C2187    1.0000 0.96528  0.83909  0.60804  Biso   1.000  C
  H1872    1.0000 0.04019  0.81835  0.60431  Biso   1.000  H
  H1873    1.0000 0.04019  0.81839  0.60431  Biso   1.000  H
  C2188    1.0000 0.85988  0.80051  0.44530  Biso   1.000  C
  C2189    1.0000 0.85988  0.80047  0.44530  Biso   1.000  C
  C2190    1.0000 0.40399  0.61909  0.57660  Biso   1.000  C
  C2191    1.0000 0.18521  0.00739  0.59520  Biso   1.000  C
  C2192    1.0000 0.18521  0.00735  0.59520  Biso   1.000  C
  C2193    1.0000 0.18517  0.00739  0.59520  Biso   1.000  C
  C2194    1.0000 0.18517  0.00735  0.59520  Biso   1.000  C
  C2195    1.0000 0.12539  0.97566  0.63600  Biso   1.000  C
  C2196    1.0000 0.12539  0.97570  0.63600  Biso   1.000  C
  O938     1.0000 0.34550  0.22448  0.61974  Biso   1.000  O
  C2197    1.0000 0.31699  0.26861  0.56900  Biso   1.000  C
  O939     1.0000 0.34550  0.22452  0.61974  Biso   1.000  O
  C2198    1.0000 0.31699  0.26857  0.56900  Biso   1.000  C
  O940     1.0000 0.34547  0.22448  0.61974  Biso   1.000  O
  O941     1.0000 0.34547  0.22452  0.61974  Biso   1.000  O
  C2199    1.0000 0.28159  0.32151  0.53250  Biso   1.000  C
  C2200    1.0000 0.08868  0.19558  0.56870  Biso   1.000  C
  C2201    1.0000 0.45811  0.12941  0.54450  Biso   1.000  C
  C2202    1.0000 0.45811  0.12937  0.54450  Biso   1.000  C
  C2203    1.0000 0.45807  0.12941  0.54450  Biso   1.000  C
  C2204    1.0000 0.45807  0.12937  0.54450  Biso   1.000  C
  C2205    1.0000 0.45811  0.12941  0.45550  Biso   1.000  C
  C2206    1.0000 0.45811  0.12937  0.45550  Biso   1.000  C
  C2207    1.0000 0.45807  0.12941  0.45550  Biso   1.000  C
  C2208    1.0000 0.45807  0.12937  0.45550  Biso   1.000  C
  C2209    1.0000 0.42247  0.18131  0.58270  Biso   1.000  C
  C2210    1.0000 0.42247  0.18127  0.58270  Biso   1.000  C
  C2211    1.0000 0.42247  0.18131  0.41730  Biso   1.000  C
  C2212    1.0000 0.42247  0.18127  0.41730  Biso   1.000  C
  O942     1.0000 0.23749  0.39220  0.50001  Biso   1.000  O
  O943     1.0000 0.23749  0.39216  0.50001  Biso   1.000  O
  C2213    1.0000 0.34619  0.30880  0.41889  Biso   1.000  C
  C2214    1.0000 0.34619  0.30876  0.41889  Biso   1.000  C
  C2215    1.0000 0.34616  0.30880  0.41889  Biso   1.000  C
  C2216    1.0000 0.34616  0.30876  0.41889  Biso   1.000  C
  C2217    1.0000 0.31190  0.36269  0.45571  Biso   1.000  C
  C2218    1.0000 0.31186  0.36269  0.45571  Biso   1.000  C
  C2219    1.0000 0.04658  0.21989  0.44414  Biso   1.000  C
  C2220    1.0000 0.04662  0.21989  0.44414  Biso   1.000  C
  H1874    1.0000 0.82225  0.96031  0.21970  Biso   1.000  H
  H1875    1.0000 0.82225  0.96027  0.21970  Biso   1.000  H
  H1876    1.0000 0.82229  0.96031  0.21970  Biso   1.000  H
  H1877    1.0000 0.82229  0.96027  0.21970  Biso   1.000  H
  C2221    1.0000 0.83197  0.03659  0.21820  Biso   1.000  C
  C2222    1.0000 0.83197  0.03663  0.21820  Biso   1.000  C
  C2223    1.0000 0.78528  0.99847  0.43089  Biso   1.000  C
  H1878    1.0000 0.81835  0.95977  0.39569  Biso   1.000  H
  H1879    1.0000 0.81839  0.95977  0.39569  Biso   1.000  H
  C2224    1.0000 0.80438  0.08868  0.43130  Biso   1.000  C
  H1880    1.0000 0.85046  0.11161  0.39640  Biso   1.000  H
  H1881    1.0000 0.85050  0.11161  0.39640  Biso   1.000  H
  H1882    1.0000 0.85146  0.10981  0.22159  Biso   1.000  H
  H1883    1.0000 0.85146  0.10977  0.22159  Biso   1.000  H
  H1884    1.0000 0.85149  0.10981  0.22159  Biso   1.000  H
  H1885    1.0000 0.85149  0.10977  0.22159  Biso   1.000  H
  C2225    1.0000 0.95388  0.80216  0.18601  Biso   1.000  C
  C2226    1.0000 0.95388  0.80220  0.18601  Biso   1.000  C
  C2227    1.0000 0.19780  0.95388  0.18601  Biso   1.000  C
  C2228    1.0000 0.19776  0.95388  0.18601  Biso   1.000  C
  C2229    1.0000 0.04608  0.19780  0.18601  Biso   1.000  C
  C2230    1.0000 0.04608  0.19776  0.18601  Biso   1.000  C
  C2231    1.0000 0.95197  0.23799  0.44501  Biso   1.000  C
  C2232    1.0000 0.20129  0.48398  0.38841  Biso   1.000  C
  C2233    1.0000 0.10702  0.46978  0.40300  Biso   1.000  C
  C2234    1.0000 0.17821  0.44157  0.43911  Biso   1.000  C
  C2235    1.0000 0.17817  0.44157  0.43911  Biso   1.000  C
  C2236    1.0000 0.39109  0.58740  0.39631  Biso   1.000  C
  C2237    1.0000 0.41861  0.58212  0.45120  Biso   1.000  C
  C2238    1.0000 0.44950  0.65545  0.41871  Biso   1.000  C
  C2239    1.0000 0.41861  0.58208  0.45120  Biso   1.000  C
  C2240    1.0000 0.44950  0.65549  0.41871  Biso   1.000  C
  C2241    1.0000 0.41857  0.58212  0.45120  Biso   1.000  C
  C2242    1.0000 0.44946  0.65545  0.41871  Biso   1.000  C
  C2243    1.0000 0.41857  0.58208  0.45120  Biso   1.000  C
  C2244    1.0000 0.44946  0.65549  0.41871  Biso   1.000  C
  C2245    1.0000 0.16251  0.48015  0.58559  Biso   1.000  C
  C2246    1.0000 0.16251  0.48019  0.58559  Biso   1.000  C
  C2247    1.0000 0.16248  0.48015  0.58559  Biso   1.000  C
  C2248    1.0000 0.16248  0.48019  0.58559  Biso   1.000  C
  C2249    1.0000 0.91717  0.83385  0.59479  Biso   1.000  C
  C2250    1.0000 0.85988  0.80051  0.55470  Biso   1.000  C
  C2251    1.0000 0.91717  0.83389  0.59479  Biso   1.000  C
  C2252    1.0000 0.85988  0.80047  0.55470  Biso   1.000  C
  C2253    1.0000 0.97566  0.87457  0.63600  Biso   1.000  C
  C2254    1.0000 0.97570  0.87457  0.63600  Biso   1.000  C
  O944     1.0000 0.82267  0.82566  0.43328  Biso   1.000  O
  O945     1.0000 0.85586  0.77437  0.47046  Biso   1.000  O
  O946     1.0000 0.82267  0.82570  0.43328  Biso   1.000  O
  O947     1.0000 0.85590  0.77437  0.47046  Biso   1.000  O
  C2255    1.0000 0.39109  0.58740  0.60369  Biso   1.000  C
  C2256    1.0000 0.41861  0.58212  0.54880  Biso   1.000  C
  C2257    1.0000 0.44950  0.65545  0.58129  Biso   1.000  C
  C2258    1.0000 0.41861  0.58208  0.54880  Biso   1.000  C
  C2259    1.0000 0.44950  0.65549  0.58129  Biso   1.000  C
  C2260    1.0000 0.41857  0.58212  0.54880  Biso   1.000  C
  C2261    1.0000 0.44946  0.65545  0.58129  Biso   1.000  C
  C2262    1.0000 0.41857  0.58208  0.54880  Biso   1.000  C
  C2263    1.0000 0.44946  0.65549  0.58129  Biso   1.000  C
  H1886    1.0000 0.18161  0.04019  0.60431  Biso   1.000  H
  H1887    1.0000 0.18157  0.04019  0.60431  Biso   1.000  H
  O948     1.0000 0.10411  0.93424  0.64513  Biso   1.000  O
  O949     1.0000 0.10411  0.93428  0.64513  Biso   1.000  O
  O950     1.0000 0.12041  0.01830  0.64554  Biso   1.000  O
  O951     1.0000 0.12037  0.01830  0.64554  Biso   1.000  O
  C2264    1.0000 0.34619  0.30880  0.58111  Biso   1.000  C
  C2265    1.0000 0.34619  0.30876  0.58111  Biso   1.000  C
  C2266    1.0000 0.34616  0.30880  0.58111  Biso   1.000  C
  C2267    1.0000 0.34616  0.30876  0.58111  Biso   1.000  C
  C2268    1.0000 0.31190  0.36269  0.54429  Biso   1.000  C
  C2269    1.0000 0.31186  0.36269  0.54429  Biso   1.000  C
  C2270    1.0000 0.08279  0.16611  0.59479  Biso   1.000  C
  C2271    1.0000 0.08279  0.16607  0.59479  Biso   1.000  C
  C2272    1.0000 0.04658  0.21989  0.55586  Biso   1.000  C
  C2273    1.0000 0.04662  0.21989  0.55586  Biso   1.000  C
  H1888    1.0000 0.48639  0.11230  0.53551  Biso   1.000  H
  C2274    1.0000 0.46630  0.15899  0.57011  Biso   1.000  C
  H1889    1.0000 0.48636  0.11230  0.53551  Biso   1.000  H
  C2275    1.0000 0.46626  0.15899  0.57011  Biso   1.000  C
  H1890    1.0000 0.48639  0.11230  0.46449  Biso   1.000  H
  C2276    1.0000 0.46630  0.15899  0.42989  Biso   1.000  C
  H1891    1.0000 0.48636  0.11230  0.46449  Biso   1.000  H
  C2277    1.0000 0.46626  0.15899  0.42989  Biso   1.000  C
  H1892    1.0000 0.42638  0.20010  0.60101  Biso   1.000  H
  H1893    1.0000 0.42638  0.20006  0.60101  Biso   1.000  H
  H1894    1.0000 0.42638  0.20010  0.39899  Biso   1.000  H
  H1895    1.0000 0.42638  0.20006  0.39899  Biso   1.000  H
  H1896    1.0000 0.36659  0.30348  0.40120  Biso   1.000  H
  C2278    1.0000 0.34501  0.35810  0.43330  Biso   1.000  C
  C2279    1.0000 0.34501  0.35806  0.43330  Biso   1.000  C
  H1897    1.0000 0.36656  0.30348  0.40120  Biso   1.000  H
  C2280    1.0000 0.34497  0.35810  0.43330  Biso   1.000  C
  C2281    1.0000 0.34497  0.35806  0.43330  Biso   1.000  C
  H1898    1.0000 0.30769  0.39561  0.46461  Biso   1.000  H
  H1899    1.0000 0.30769  0.39557  0.46461  Biso   1.000  H
  H1900    1.0000 0.05060  0.24010  0.46199  Biso   1.000  H
  H1901    1.0000 0.05060  0.24006  0.46199  Biso   1.000  H
  C2282    1.0000 0.80216  0.04608  0.18601  Biso   1.000  C
  C2283    1.0000 0.80220  0.04608  0.18601  Biso   1.000  C
  C2284    1.0000 0.76197  0.95197  0.44501  Biso   1.000  C
  C2285    1.0000 0.78007  0.04658  0.44414  Biso   1.000  C
  C2286    1.0000 0.78007  0.04662  0.44414  Biso   1.000  C
  C2287    1.0000 0.80051  0.14008  0.44530  Biso   1.000  C
  C2288    1.0000 0.80047  0.14008  0.44530  Biso   1.000  C
  C2289    1.0000 0.89987  0.80197  0.17560  Biso   1.000  C
  C2290    1.0000 0.98607  0.83086  0.16269  Biso   1.000  C
  C2291    1.0000 0.97696  0.75167  0.19420  Biso   1.000  C
  C2292    1.0000 0.98607  0.83090  0.16269  Biso   1.000  C
  C2293    1.0000 0.97700  0.75167  0.19420  Biso   1.000  C
  C2294    1.0000 0.16910  0.98607  0.16269  Biso   1.000  C
  C2295    1.0000 0.19799  0.89987  0.17560  Biso   1.000  C
  C2296    1.0000 0.24829  0.97696  0.19420  Biso   1.000  C
  C2297    1.0000 0.24829  0.97700  0.19420  Biso   1.000  C
  C2298    1.0000 0.19803  0.89987  0.17560  Biso   1.000  C
  C2299    1.0000 0.10009  0.19799  0.17560  Biso   1.000  C
  C2300    1.0000 0.01389  0.16910  0.16269  Biso   1.000  C
  C2301    1.0000 0.02300  0.24829  0.19420  Biso   1.000  C
  C2302    1.0000 0.10009  0.19803  0.17560  Biso   1.000  C
  C2303    1.0000 0.10013  0.19799  0.17560  Biso   1.000  C
  C2304    1.0000 0.02296  0.24829  0.19420  Biso   1.000  C
  C2305    1.0000 0.10013  0.19803  0.17560  Biso   1.000  C
  O952     1.0000 0.95985  0.26291  0.46932  Biso   1.000  O
  O953     1.0000 0.91005  0.23118  0.43342  Biso   1.000  O
  O954     1.0000 0.95985  0.26287  0.46932  Biso   1.000  O
  O955     1.0000 0.95989  0.26291  0.46932  Biso   1.000  O
  O956     1.0000 0.91009  0.23118  0.43342  Biso   1.000  O
  O957     1.0000 0.95989  0.26287  0.46932  Biso   1.000  O
  H1902    1.0000 0.22678  0.51028  0.39330  Biso   1.000  H
  H1903    1.0000 0.18360  0.49328  0.36960  Biso   1.000  H
  H1904    1.0000 0.21851  0.45099  0.38579  Biso   1.000  H
  H1905    1.0000 0.18356  0.49328  0.36960  Biso   1.000  H
  H1906    1.0000 0.21847  0.45099  0.38579  Biso   1.000  H
  H1907    1.0000 0.08248  0.47908  0.41889  Biso   1.000  H
  H1908    1.0000 0.10039  0.49026  0.38470  Biso   1.000  H
  H1909    1.0000 0.10330  0.43338  0.39799  Biso   1.000  H
  H1910    1.0000 0.10039  0.49030  0.38470  Biso   1.000  H
  H1911    1.0000 0.10326  0.43338  0.39799  Biso   1.000  H
  H1912    1.0000 0.18758  0.40896  0.42950  Biso   1.000  H
  H1913    1.0000 0.20760  0.45497  0.45049  Biso   1.000  H
  H1914    1.0000 0.14950  0.43606  0.45311  Biso   1.000  H
  H1915    1.0000 0.18758  0.40900  0.42950  Biso   1.000  H
  H1916    1.0000 0.20760  0.45501  0.45049  Biso   1.000  H
  H1917    1.0000 0.14950  0.43610  0.45311  Biso   1.000  H
  H1918    1.0000 0.20756  0.45497  0.45049  Biso   1.000  H
  H1919    1.0000 0.20756  0.45501  0.45049  Biso   1.000  H
  H1920    1.0000 0.41478  0.55843  0.39501  Biso   1.000  H
  H1921    1.0000 0.35588  0.57465  0.39831  Biso   1.000  H
  H1922    1.0000 0.39400  0.60830  0.37791  Biso   1.000  H
  H1923    1.0000 0.41478  0.55839  0.39501  Biso   1.000  H
  H1924    1.0000 0.35588  0.57469  0.39831  Biso   1.000  H
  H1925    1.0000 0.39396  0.60830  0.37791  Biso   1.000  H
  H1926    1.0000 0.44039  0.60060  0.46570  Biso   1.000  H
  H1927    1.0000 0.43698  0.55211  0.44350  Biso   1.000  H
  H1928    1.0000 0.38719  0.57102  0.46149  Biso   1.000  H
  H1929    1.0000 0.43698  0.55207  0.44350  Biso   1.000  H
  H1930    1.0000 0.38719  0.57098  0.46149  Biso   1.000  H
  H1931    1.0000 0.38722  0.57102  0.46149  Biso   1.000  H
  H1932    1.0000 0.38722  0.57098  0.46149  Biso   1.000  H
  H1933    1.0000 0.43989  0.68228  0.40409  Biso   1.000  H
  H1934    1.0000 0.45868  0.67122  0.43820  Biso   1.000  H
  H1935    1.0000 0.47870  0.63620  0.41070  Biso   1.000  H
  H1936    1.0000 0.45868  0.67118  0.43820  Biso   1.000  H
  H1937    1.0000 0.47866  0.63620  0.41070  Biso   1.000  H
  C2306    1.0000 0.10702  0.46978  0.59700  Biso   1.000  C
  C2307    1.0000 0.20129  0.48398  0.61159  Biso   1.000  C
  C2308    1.0000 0.17821  0.44157  0.56089  Biso   1.000  C
  C2309    1.0000 0.17817  0.44157  0.56089  Biso   1.000  C
  H1938    1.0000 0.88835  0.85046  0.60360  Biso   1.000  H
  H1939    1.0000 0.88835  0.85050  0.60360  Biso   1.000  H
  H1940    1.0000 0.88839  0.85046  0.60360  Biso   1.000  H
  H1941    1.0000 0.88839  0.85050  0.60360  Biso   1.000  H
  O958     1.0000 0.82267  0.82566  0.56672  Biso   1.000  O
  O959     1.0000 0.85586  0.77437  0.52954  Biso   1.000  O
  O960     1.0000 0.82267  0.82570  0.56672  Biso   1.000  O
  O961     1.0000 0.85590  0.77437  0.52954  Biso   1.000  O
  O962     1.0000 0.93424  0.89585  0.64513  Biso   1.000  O
  O963     1.0000 0.93424  0.89589  0.64513  Biso   1.000  O
  O964     1.0000 0.93428  0.89585  0.64513  Biso   1.000  O
  O965     1.0000 0.93428  0.89589  0.64513  Biso   1.000  O
  O966     1.0000 0.01830  0.87955  0.64554  Biso   1.000  O
  O967     1.0000 0.01830  0.87959  0.64554  Biso   1.000  O
  Mg211    1.0000 0.75458  0.84013  0.45131  Biso   1.000  Mg
  Mg212    1.0000 0.75462  0.84013  0.45131  Biso   1.000  Mg
  Mg213    1.0000 0.79883  0.77142  0.50001  Biso   1.000  Mg
  Mg214    1.0000 0.79883  0.77146  0.50001  Biso   1.000  Mg
  Mg215    1.0000 0.79887  0.77142  0.50001  Biso   1.000  Mg
  Mg216    1.0000 0.79887  0.77146  0.50001  Biso   1.000  Mg
  H1942    1.0000 0.41478  0.55843  0.60499  Biso   1.000  H
  H1943    1.0000 0.35588  0.57465  0.60169  Biso   1.000  H
  H1944    1.0000 0.39400  0.60830  0.62209  Biso   1.000  H
  H1945    1.0000 0.41478  0.55839  0.60499  Biso   1.000  H
  H1946    1.0000 0.35588  0.57469  0.60169  Biso   1.000  H
  H1947    1.0000 0.39396  0.60830  0.62209  Biso   1.000  H
  H1948    1.0000 0.44039  0.60060  0.53430  Biso   1.000  H
  H1949    1.0000 0.43698  0.55211  0.55650  Biso   1.000  H
  H1950    1.0000 0.38719  0.57102  0.53851  Biso   1.000  H
  H1951    1.0000 0.43698  0.55207  0.55650  Biso   1.000  H
  H1952    1.0000 0.38719  0.57098  0.53851  Biso   1.000  H
  H1953    1.0000 0.38722  0.57102  0.53851  Biso   1.000  H
  H1954    1.0000 0.38722  0.57098  0.53851  Biso   1.000  H
  H1955    1.0000 0.43989  0.68228  0.59591  Biso   1.000  H
  H1956    1.0000 0.45868  0.67122  0.56180  Biso   1.000  H
  H1957    1.0000 0.47870  0.63620  0.58930  Biso   1.000  H
  H1958    1.0000 0.45868  0.67118  0.56180  Biso   1.000  H
  H1959    1.0000 0.47866  0.63620  0.58930  Biso   1.000  H
  Mg217    1.0000 0.04444  0.93126  0.67489  Biso   1.000  Mg
  Mg218    1.0000 0.04440  0.93126  0.67489  Biso   1.000  Mg
  Mg219    1.0000 0.06874  0.04444  0.67489  Biso   1.000  Mg
  Mg220    1.0000 0.06874  0.04440  0.67489  Biso   1.000  Mg
  Mg221    1.0000 0.06870  0.04444  0.67489  Biso   1.000  Mg
  Mg222    1.0000 0.06870  0.04440  0.67489  Biso   1.000  Mg
  H1960    1.0000 0.36659  0.30348  0.59880  Biso   1.000  H
  C2310    1.0000 0.34501  0.35810  0.56670  Biso   1.000  C
  C2311    1.0000 0.34501  0.35806  0.56670  Biso   1.000  C
  H1961    1.0000 0.36656  0.30348  0.59880  Biso   1.000  H
  C2312    1.0000 0.34497  0.35810  0.56670  Biso   1.000  C
  C2313    1.0000 0.34497  0.35806  0.56670  Biso   1.000  C
  H1962    1.0000 0.30769  0.39561  0.53539  Biso   1.000  H
  H1963    1.0000 0.30769  0.39557  0.53539  Biso   1.000  H
  C2314    1.0000 0.03472  0.16091  0.60804  Biso   1.000  C
  C2315    1.0000 0.03472  0.16087  0.60804  Biso   1.000  C
  H1964    1.0000 0.11161  0.14950  0.60360  Biso   1.000  H
  C2316    1.0000 0.99847  0.21468  0.56911  Biso   1.000  C
  C2317    1.0000 0.99847  0.21472  0.56911  Biso   1.000  C
  H1965    1.0000 0.05060  0.24010  0.53801  Biso   1.000  H
  H1966    1.0000 0.05060  0.24006  0.53801  Biso   1.000  H
  C2318    1.0000 0.51981  0.16251  0.58559  Biso   1.000  C
  C2319    1.0000 0.51981  0.16248  0.58559  Biso   1.000  C
  C2320    1.0000 0.51977  0.16251  0.58559  Biso   1.000  C
  C2321    1.0000 0.51977  0.16248  0.58559  Biso   1.000  C
  C2322    1.0000 0.51981  0.16251  0.41441  Biso   1.000  C
  C2323    1.0000 0.51981  0.16248  0.41441  Biso   1.000  C
  C2324    1.0000 0.51977  0.16251  0.41441  Biso   1.000  C
  C2325    1.0000 0.51977  0.16248  0.41441  Biso   1.000  C
  C2326    1.0000 0.38091  0.40399  0.42340  Biso   1.000  C
  C2327    1.0000 0.80197  0.10009  0.17560  Biso   1.000  C
  C2328    1.0000 0.83086  0.01389  0.16269  Biso   1.000  C
  C2329    1.0000 0.75167  0.02300  0.19420  Biso   1.000  C
  C2330    1.0000 0.80197  0.10013  0.17560  Biso   1.000  C
  C2331    1.0000 0.75167  0.02296  0.19420  Biso   1.000  C
  C2332    1.0000 0.83090  0.01389  0.16269  Biso   1.000  C
  O968     1.0000 0.76878  0.91005  0.43342  Biso   1.000  O
  O969     1.0000 0.76878  0.91009  0.43342  Biso   1.000  O
  O970     1.0000 0.73709  0.95985  0.46932  Biso   1.000  O
  O971     1.0000 0.73709  0.95989  0.46932  Biso   1.000  O
  H1967    1.0000 0.75990  0.05060  0.46199  Biso   1.000  H
  O972     1.0000 0.82566  0.17729  0.43328  Biso   1.000  O
  O973     1.0000 0.77437  0.14410  0.47046  Biso   1.000  O
  O974     1.0000 0.77437  0.14407  0.47046  Biso   1.000  O
  O975     1.0000 0.82570  0.17729  0.43328  Biso   1.000  O
  H1968    1.0000 0.89796  0.78830  0.15491  Biso   1.000  H
  H1969    1.0000 0.87940  0.78038  0.18931  Biso   1.000  H
  H1970    1.0000 0.88636  0.83695  0.17590  Biso   1.000  H
  H1971    1.0000 0.88636  0.83699  0.17590  Biso   1.000  H
  H1972    1.0000 0.89800  0.78830  0.15491  Biso   1.000  H
  H1973    1.0000 0.88640  0.83695  0.17590  Biso   1.000  H
  H1974    1.0000 0.88640  0.83699  0.17590  Biso   1.000  H
  H1975    1.0000 0.98098  0.86776  0.16520  Biso   1.000  H
  H1976    1.0000 0.97558  0.82076  0.14209  Biso   1.000  H
  H1977    1.0000 0.98098  0.86780  0.16520  Biso   1.000  H
  H1978    1.0000 0.97558  0.82080  0.14209  Biso   1.000  H
  H1979    1.0000 0.02231  0.82256  0.16570  Biso   1.000  H
  H1980    1.0000 0.02231  0.82260  0.16570  Biso   1.000  H
  H1981    1.0000 0.02228  0.82256  0.16570  Biso   1.000  H
  H1982    1.0000 0.02228  0.82260  0.16570  Biso   1.000  H
  H1983    1.0000 0.98546  0.75137  0.21590  Biso   1.000  H
  H1984    1.0000 0.95250  0.72427  0.18981  Biso   1.000  H
  H1985    1.0000 0.98549  0.75137  0.21590  Biso   1.000  H
  H1986    1.0000 0.95246  0.72427  0.18981  Biso   1.000  H
  H1987    1.0000 0.00819  0.74628  0.18221  Biso   1.000  H
  H1988    1.0000 0.00823  0.74628  0.18221  Biso   1.000  H
  H1989    1.0000 0.13220  0.98098  0.16520  Biso   1.000  H
  H1990    1.0000 0.17920  0.97558  0.14209  Biso   1.000  H
  H1991    1.0000 0.13216  0.98098  0.16520  Biso   1.000  H
  H1992    1.0000 0.17916  0.97558  0.14209  Biso   1.000  H
  H1993    1.0000 0.17740  0.02231  0.16570  Biso   1.000  H
  H1994    1.0000 0.17740  0.02228  0.16570  Biso   1.000  H
  H1995    1.0000 0.17736  0.02231  0.16570  Biso   1.000  H
  H1996    1.0000 0.17736  0.02228  0.16570  Biso   1.000  H
  H1997    1.0000 0.21958  0.87940  0.18931  Biso   1.000  H
  H1998    1.0000 0.21170  0.89796  0.15491  Biso   1.000  H
  H1999    1.0000 0.16301  0.88636  0.17590  Biso   1.000  H
  H2000    1.0000 0.21170  0.89800  0.15491  Biso   1.000  H
  H2001    1.0000 0.16301  0.88640  0.17590  Biso   1.000  H
  H2002    1.0000 0.21166  0.89796  0.15491  Biso   1.000  H
  H2003    1.0000 0.21166  0.89800  0.15491  Biso   1.000  H
  H2004    1.0000 0.24859  0.98546  0.21590  Biso   1.000  H
  H2005    1.0000 0.27569  0.95250  0.18981  Biso   1.000  H
  H2006    1.0000 0.24859  0.98549  0.21590  Biso   1.000  H
  H2007    1.0000 0.27569  0.95246  0.18981  Biso   1.000  H
  H2008    1.0000 0.25368  0.00819  0.18221  Biso   1.000  H
  H2009    1.0000 0.25368  0.00823  0.18221  Biso   1.000  H
  H2010    1.0000 0.10200  0.21170  0.15491  Biso   1.000  H
  H2011    1.0000 0.12060  0.21958  0.18931  Biso   1.000  H
  H2012    1.0000 0.11360  0.16301  0.17590  Biso   1.000  H
  H2013    1.0000 0.10200  0.21166  0.15491  Biso   1.000  H
  H2014    1.0000 0.12056  0.21958  0.18931  Biso   1.000  H
  H2015    1.0000 0.11356  0.16301  0.17590  Biso   1.000  H
  H2016    1.0000 0.97765  0.17740  0.16570  Biso   1.000  H
  H2017    1.0000 0.97765  0.17736  0.16570  Biso   1.000  H
  H2018    1.0000 0.97769  0.17740  0.16570  Biso   1.000  H
  H2019    1.0000 0.97769  0.17736  0.16570  Biso   1.000  H
  H2020    1.0000 0.01898  0.13220  0.16520  Biso   1.000  H
  H2021    1.0000 0.02438  0.17920  0.14209  Biso   1.000  H
  H2022    1.0000 0.01898  0.13216  0.16520  Biso   1.000  H
  H2023    1.0000 0.02438  0.17916  0.14209  Biso   1.000  H
  H2024    1.0000 0.01902  0.13220  0.16520  Biso   1.000  H
  H2025    1.0000 0.01902  0.13216  0.16520  Biso   1.000  H
  H2026    1.0000 0.99177  0.25368  0.18221  Biso   1.000  H
  H2027    1.0000 0.01451  0.24859  0.21590  Biso   1.000  H
  H2028    1.0000 0.04750  0.27569  0.18981  Biso   1.000  H
  H2029    1.0000 0.01447  0.24859  0.21590  Biso   1.000  H
  Mg223    1.0000 0.90883  0.29024  0.50001  Biso   1.000  Mg
  Mg224    1.0000 0.84013  0.24538  0.45131  Biso   1.000  Mg
  Mg225    1.0000 0.84013  0.24534  0.45131  Biso   1.000  Mg
  H2030    1.0000 0.08248  0.47908  0.58111  Biso   1.000  H
  H2031    1.0000 0.10039  0.49026  0.61530  Biso   1.000  H
  H2032    1.0000 0.10330  0.43338  0.60201  Biso   1.000  H
  H2033    1.0000 0.10039  0.49030  0.61530  Biso   1.000  H
  H2034    1.0000 0.10326  0.43338  0.60201  Biso   1.000  H
  H2035    1.0000 0.22678  0.51028  0.60670  Biso   1.000  H
  H2036    1.0000 0.18360  0.49328  0.63040  Biso   1.000  H
  H2037    1.0000 0.21851  0.45099  0.61421  Biso   1.000  H
  H2038    1.0000 0.18356  0.49328  0.63040  Biso   1.000  H
  H2039    1.0000 0.21847  0.45099  0.61421  Biso   1.000  H
  H2040    1.0000 0.18758  0.40896  0.57050  Biso   1.000  H
  H2041    1.0000 0.20760  0.45497  0.54951  Biso   1.000  H
  H2042    1.0000 0.14950  0.43606  0.54689  Biso   1.000  H
  H2043    1.0000 0.18758  0.40900  0.57050  Biso   1.000  H
  H2044    1.0000 0.20760  0.45501  0.54951  Biso   1.000  H
  H2045    1.0000 0.14950  0.43610  0.54689  Biso   1.000  H
  H2046    1.0000 0.20756  0.45497  0.54951  Biso   1.000  H
  H2047    1.0000 0.20756  0.45501  0.54951  Biso   1.000  H
  Mg226    1.0000 0.75458  0.84013  0.54869  Biso   1.000  Mg
  Mg227    1.0000 0.75462  0.84013  0.54869  Biso   1.000  Mg
  Mg228    1.0000 0.93126  0.95552  0.67489  Biso   1.000  Mg
  Mg229    1.0000 0.93126  0.95556  0.67489  Biso   1.000  Mg
  Mg230    1.0000 0.70973  0.90883  0.50001  Biso   1.000  Mg
  O976     1.0000 0.77296  0.85115  0.50001  Biso   1.000  O
  O977     1.0000 0.77296  0.85119  0.50001  Biso   1.000  O
  O978     1.0000 0.77299  0.85115  0.50001  Biso   1.000  O
  O979     1.0000 0.77299  0.85119  0.50001  Biso   1.000  O
  O980     1.0000 0.74207  0.76538  0.46618  Biso   1.000  O
  O981     1.0000 0.68217  0.86118  0.46604  Biso   1.000  O
  O982     1.0000 0.72098  0.81896  0.41097  Biso   1.000  O
  O983     1.0000 0.72098  0.81900  0.41097  Biso   1.000  O
  O984     1.0000 0.74207  0.76538  0.53382  Biso   1.000  O
  O985     1.0000 0.80055  0.69392  0.50001  Biso   1.000  O
  O986     1.0000 0.80055  0.69388  0.50001  Biso   1.000  O
  O987     1.0000 0.80059  0.69392  0.50001  Biso   1.000  O
  O988     1.0000 0.80059  0.69388  0.50001  Biso   1.000  O
  O989     1.0000 0.98316  0.92165  0.70503  Biso   1.000  O
  O990     1.0000 0.98316  0.92169  0.70503  Biso   1.000  O
  O991     1.0000 0.98320  0.92165  0.70503  Biso   1.000  O
  O992     1.0000 0.98320  0.92169  0.70503  Biso   1.000  O
  O993     1.0000 0.00000  1.00000  0.66150  Biso   1.000  O
  O994     1.0000 0.08149  0.87465  0.69968  Biso   1.000  O
  O995     1.0000 0.07831  0.98316  0.70503  Biso   1.000  O
  O996     1.0000 0.08149  0.87469  0.69968  Biso   1.000  O
  O997     1.0000 0.07831  0.98320  0.70503  Biso   1.000  O
  O998     1.0000 0.07827  0.98316  0.70503  Biso   1.000  O
  O999     1.0000 0.07827  0.98320  0.70503  Biso   1.000  O
  Mg231    1.0000 0.95552  0.06874  0.67489  Biso   1.000  Mg
  Mg232    1.0000 0.95552  0.06870  0.67489  Biso   1.000  Mg
  Mg233    1.0000 0.95556  0.06874  0.67489  Biso   1.000  Mg
  Mg234    1.0000 0.95556  0.06870  0.67489  Biso   1.000  Mg
  O1000    1.0000 0.01680  0.07831  0.70503  Biso   1.000  O
  O1001    1.0000 0.01680  0.07827  0.70503  Biso   1.000  O
  O1002    1.0000 0.12531  0.08149  0.69968  Biso   1.000  O
  O1003    1.0000 0.06572  0.10411  0.64513  Biso   1.000  O
  O1004    1.0000 0.12527  0.08149  0.69968  Biso   1.000  O
  O1005    1.0000 0.06568  0.10411  0.64513  Biso   1.000  O
  C2333    1.0000 0.38091  0.40399  0.57660  Biso   1.000  C
  C2334    1.0000 0.02430  0.12539  0.63600  Biso   1.000  C
  C2335    1.0000 0.99257  0.18521  0.59520  Biso   1.000  C
  C2336    1.0000 0.99257  0.18517  0.59520  Biso   1.000  C
  C2337    1.0000 0.99261  0.18521  0.59520  Biso   1.000  C
  C2338    1.0000 0.99261  0.18517  0.59520  Biso   1.000  C
  C2339    1.0000 0.95197  0.23799  0.55499  Biso   1.000  C
  C2340    1.0000 0.55839  0.17821  0.56089  Biso   1.000  C
  C2341    1.0000 0.53018  0.10702  0.59700  Biso   1.000  C
  C2342    1.0000 0.51598  0.20129  0.61159  Biso   1.000  C
  C2343    1.0000 0.55839  0.17817  0.56089  Biso   1.000  C
  C2344    1.0000 0.55839  0.17821  0.43911  Biso   1.000  C
  C2345    1.0000 0.53018  0.10702  0.40300  Biso   1.000  C
  C2346    1.0000 0.51598  0.20129  0.38841  Biso   1.000  C
  C2347    1.0000 0.55839  0.17817  0.43911  Biso   1.000  C
  C2348    1.0000 0.41260  0.39109  0.39631  Biso   1.000  C
  C2349    1.0000 0.41788  0.41861  0.45120  Biso   1.000  C
  C2350    1.0000 0.34451  0.44950  0.41871  Biso   1.000  C
  C2351    1.0000 0.41788  0.41857  0.45120  Biso   1.000  C
  C2352    1.0000 0.34451  0.44946  0.41871  Biso   1.000  C
  C2353    1.0000 0.41256  0.39109  0.39631  Biso   1.000  C
  H2048    1.0000 0.78830  0.10200  0.15491  Biso   1.000  H
  H2049    1.0000 0.78038  0.12060  0.18931  Biso   1.000  H
  H2050    1.0000 0.83695  0.11360  0.17590  Biso   1.000  H
  H2051    1.0000 0.78038  0.12056  0.18931  Biso   1.000  H
  H2052    1.0000 0.83695  0.11356  0.17590  Biso   1.000  H
  H2053    1.0000 0.83699  0.11360  0.17590  Biso   1.000  H
  H2054    1.0000 0.83699  0.11356  0.17590  Biso   1.000  H
  H2055    1.0000 0.82256  0.97765  0.16570  Biso   1.000  H
  H2056    1.0000 0.82256  0.97769  0.16570  Biso   1.000  H
  H2057    1.0000 0.82260  0.97765  0.16570  Biso   1.000  H
  H2058    1.0000 0.82260  0.97769  0.16570  Biso   1.000  H
  H2059    1.0000 0.86776  0.01898  0.16520  Biso   1.000  H
  H2060    1.0000 0.82076  0.02438  0.14209  Biso   1.000  H
  H2061    1.0000 0.86776  0.01902  0.16520  Biso   1.000  H
  H2062    1.0000 0.86780  0.01898  0.16520  Biso   1.000  H
  H2063    1.0000 0.82080  0.02438  0.14209  Biso   1.000  H
  H2064    1.0000 0.86780  0.01902  0.16520  Biso   1.000  H
  H2065    1.0000 0.74628  0.99177  0.18221  Biso   1.000  H
  H2066    1.0000 0.75137  0.01451  0.21590  Biso   1.000  H
  H2067    1.0000 0.72427  0.04750  0.18981  Biso   1.000  H
  H2068    1.0000 0.75137  0.01447  0.21590  Biso   1.000  H
  Mg235    1.0000 0.77142  0.20113  0.50001  Biso   1.000  Mg
  Mg236    1.0000 0.77142  0.20109  0.50001  Biso   1.000  Mg
  Mg237    1.0000 0.77146  0.20113  0.50001  Biso   1.000  Mg
  Mg238    1.0000 0.77146  0.20109  0.50001  Biso   1.000  Mg
  Mg239    1.0000 0.84013  0.24538  0.54869  Biso   1.000  Mg
  Mg240    1.0000 0.84013  0.24534  0.54869  Biso   1.000  Mg
  O1006    1.0000 0.95985  0.26291  0.53068  Biso   1.000  O
  O1007    1.0000 0.95985  0.26287  0.53068  Biso   1.000  O
  O1008    1.0000 0.95989  0.26291  0.53068  Biso   1.000  O
  O1009    1.0000 0.95989  0.26287  0.53068  Biso   1.000  O
  O1010    1.0000 0.85115  0.22701  0.50001  Biso   1.000  O
  O1011    1.0000 0.86118  0.31779  0.53396  Biso   1.000  O
  O1012    1.0000 0.85119  0.22701  0.50001  Biso   1.000  O
  O1013    1.0000 0.86118  0.31779  0.46604  Biso   1.000  O
  O1014    1.0000 0.94297  0.35898  0.50001  Biso   1.000  O
  O1015    1.0000 0.76538  0.25789  0.46618  Biso   1.000  O
  O1016    1.0000 0.81896  0.27898  0.41097  Biso   1.000  O
  O1017    1.0000 0.81900  0.27898  0.41097  Biso   1.000  O
  O1018    1.0000 0.68217  0.86118  0.53396  Biso   1.000  O
  O1019    1.0000 0.72098  0.81896  0.58903  Biso   1.000  O
  O1020    1.0000 0.76878  0.91005  0.56658  Biso   1.000  O
  O1021    1.0000 0.72098  0.81900  0.58903  Biso   1.000  O
  O1022    1.0000 0.76878  0.91009  0.56658  Biso   1.000  O
  O1023    1.0000 0.87465  0.91848  0.69968  Biso   1.000  O
  O1024    1.0000 0.87955  0.98167  0.64554  Biso   1.000  O
  O1025    1.0000 0.87469  0.91848  0.69968  Biso   1.000  O
  O1026    1.0000 0.87959  0.98167  0.64554  Biso   1.000  O
  O1027    1.0000 0.92165  0.01680  0.70503  Biso   1.000  O
  O1028    1.0000 0.92169  0.01680  0.70503  Biso   1.000  O
  O1029    1.0000 0.64098  0.94297  0.50001  Biso   1.000  O
  O1030    1.0000 0.73709  0.95985  0.53068  Biso   1.000  O
  O1031    1.0000 0.73709  0.95989  0.53068  Biso   1.000  O
  C2354    1.0000 0.71642  0.72768  0.45530  Biso   1.000  C
  C2355    1.0000 0.71639  0.72768  0.45530  Biso   1.000  C
  C2356    1.0000 0.63628  0.85467  0.45521  Biso   1.000  C
  S218     1.0000 0.67367  0.78953  0.40999  Biso   1.000  S
  S219     1.0000 0.67367  0.78949  0.40999  Biso   1.000  S
  S220     1.0000 0.67363  0.78953  0.40999  Biso   1.000  S
  S221     1.0000 0.67363  0.78949  0.40999  Biso   1.000  S
  C2357    1.0000 0.71642  0.72768  0.54470  Biso   1.000  C
  C2358    1.0000 0.71639  0.72768  0.54470  Biso   1.000  C
  S222     1.0000 0.75477  0.66131  0.50001  Biso   1.000  S
  S223     1.0000 0.75481  0.66131  0.50001  Biso   1.000  S
  C2359    1.0000 0.97895  0.89398  0.73010  Biso   1.000  C
  C2360    1.0000 0.97899  0.89398  0.73010  Biso   1.000  C
  S224     1.0000 0.08263  0.87274  0.73176  Biso   1.000  S
  S225     1.0000 0.08263  0.87278  0.73176  Biso   1.000  S
  C2361    1.0000 0.10598  0.97895  0.73010  Biso   1.000  C
  C2362    1.0000 0.10598  0.97899  0.73010  Biso   1.000  C
  O1032    1.0000 0.91848  0.12531  0.69968  Biso   1.000  O
  O1033    1.0000 0.98167  0.12041  0.64554  Biso   1.000  O
  O1034    1.0000 0.89585  0.06572  0.64513  Biso   1.000  O
  O1035    1.0000 0.91848  0.12527  0.69968  Biso   1.000  O
  O1036    1.0000 0.98167  0.12037  0.64554  Biso   1.000  O
  O1037    1.0000 0.89585  0.06568  0.64513  Biso   1.000  O
  O1038    1.0000 0.89589  0.06572  0.64513  Biso   1.000  O
  O1039    1.0000 0.89589  0.06568  0.64513  Biso   1.000  O
  C2363    1.0000 0.02101  0.10598  0.73010  Biso   1.000  C
  C2364    1.0000 0.02097  0.10598  0.73010  Biso   1.000  C
  S226     1.0000 0.12722  0.08263  0.73176  Biso   1.000  S
  S227     1.0000 0.12719  0.08263  0.73176  Biso   1.000  S
  C2365    1.0000 0.41260  0.39109  0.60369  Biso   1.000  C
  C2366    1.0000 0.41788  0.41861  0.54880  Biso   1.000  C
  C2367    1.0000 0.34451  0.44950  0.58129  Biso   1.000  C
  C2368    1.0000 0.41788  0.41857  0.54880  Biso   1.000  C
  C2369    1.0000 0.34451  0.44946  0.58129  Biso   1.000  C
  C2370    1.0000 0.41256  0.39109  0.60369  Biso   1.000  C
  H2069    1.0000 0.95977  0.18161  0.60431  Biso   1.000  H
  H2070    1.0000 0.95977  0.18157  0.60431  Biso   1.000  H
  O1040    1.0000 0.91005  0.23118  0.56658  Biso   1.000  O
  O1041    1.0000 0.91009  0.23118  0.56658  Biso   1.000  O
  H2071    1.0000 0.59100  0.18758  0.57050  Biso   1.000  H
  H2072    1.0000 0.54499  0.20760  0.54951  Biso   1.000  H
  H2073    1.0000 0.56390  0.14950  0.54689  Biso   1.000  H
  H2074    1.0000 0.54499  0.20756  0.54951  Biso   1.000  H
  H2075    1.0000 0.59096  0.18758  0.57050  Biso   1.000  H
  H2076    1.0000 0.52088  0.08248  0.58111  Biso   1.000  H
  H2077    1.0000 0.50970  0.10039  0.61530  Biso   1.000  H
  H2078    1.0000 0.56658  0.10330  0.60201  Biso   1.000  H
  H2079    1.0000 0.56658  0.10326  0.60201  Biso   1.000  H
  H2080    1.0000 0.50966  0.10039  0.61530  Biso   1.000  H
  H2081    1.0000 0.50668  0.18360  0.63040  Biso   1.000  H
  H2082    1.0000 0.48969  0.22678  0.60670  Biso   1.000  H
  H2083    1.0000 0.54897  0.21851  0.61421  Biso   1.000  H
  H2084    1.0000 0.50668  0.18356  0.63040  Biso   1.000  H
  H2085    1.0000 0.54897  0.21847  0.61421  Biso   1.000  H
  H2086    1.0000 0.59100  0.18758  0.42950  Biso   1.000  H
  H2087    1.0000 0.54499  0.20760  0.45049  Biso   1.000  H
  H2088    1.0000 0.56390  0.14950  0.45311  Biso   1.000  H
  H2089    1.0000 0.54499  0.20756  0.45049  Biso   1.000  H
  H2090    1.0000 0.59096  0.18758  0.42950  Biso   1.000  H
  H2091    1.0000 0.52088  0.08248  0.41889  Biso   1.000  H
  H2092    1.0000 0.50970  0.10039  0.38470  Biso   1.000  H
  H2093    1.0000 0.56658  0.10330  0.39799  Biso   1.000  H
  H2094    1.0000 0.56658  0.10326  0.39799  Biso   1.000  H
  H2095    1.0000 0.50966  0.10039  0.38470  Biso   1.000  H
  H2096    1.0000 0.50668  0.18360  0.36960  Biso   1.000  H
  H2097    1.0000 0.48969  0.22678  0.39330  Biso   1.000  H
  H2098    1.0000 0.54897  0.21851  0.38579  Biso   1.000  H
  H2099    1.0000 0.50668  0.18356  0.36960  Biso   1.000  H
  H2100    1.0000 0.54897  0.21847  0.38579  Biso   1.000  H
  H2101    1.0000 0.44157  0.41478  0.39501  Biso   1.000  H
  H2102    1.0000 0.42531  0.35588  0.39831  Biso   1.000  H
  H2103    1.0000 0.39170  0.39400  0.37791  Biso   1.000  H
  H2104    1.0000 0.39170  0.39396  0.37791  Biso   1.000  H
  H2105    1.0000 0.42527  0.35588  0.39831  Biso   1.000  H
  H2106    1.0000 0.39166  0.39400  0.37791  Biso   1.000  H
  H2107    1.0000 0.39166  0.39396  0.37791  Biso   1.000  H
  H2108    1.0000 0.44789  0.43698  0.44350  Biso   1.000  H
  H2109    1.0000 0.39940  0.44039  0.46570  Biso   1.000  H
  H2110    1.0000 0.42898  0.38719  0.46149  Biso   1.000  H
  H2111    1.0000 0.42898  0.38722  0.46149  Biso   1.000  H
  H2112    1.0000 0.39936  0.44039  0.46570  Biso   1.000  H
  H2113    1.0000 0.31768  0.43989  0.40409  Biso   1.000  H
  H2114    1.0000 0.32878  0.45868  0.43820  Biso   1.000  H
  H2115    1.0000 0.36380  0.47870  0.41070  Biso   1.000  H
  H2116    1.0000 0.36380  0.47866  0.41070  Biso   1.000  H
  H2117    1.0000 0.36376  0.47870  0.41070  Biso   1.000  H
  H2118    1.0000 0.36376  0.47866  0.41070  Biso   1.000  H
  O1042    1.0000 0.77437  0.14410  0.52954  Biso   1.000  O
  O1043    1.0000 0.77437  0.14407  0.52954  Biso   1.000  O
  O1044    1.0000 0.76538  0.25789  0.53382  Biso   1.000  O
  O1045    1.0000 0.69392  0.19941  0.50001  Biso   1.000  O
  O1046    1.0000 0.69392  0.19937  0.50001  Biso   1.000  O
  O1047    1.0000 0.69388  0.19941  0.50001  Biso   1.000  O
  O1048    1.0000 0.69388  0.19937  0.50001  Biso   1.000  O
  O1049    1.0000 0.82566  0.17729  0.56672  Biso   1.000  O
  O1050    1.0000 0.82570  0.17729  0.56672  Biso   1.000  O
  O1051    1.0000 0.81896  0.27898  0.58903  Biso   1.000  O
  O1052    1.0000 0.81900  0.27898  0.58903  Biso   1.000  O
  C2371    1.0000 0.85467  0.36369  0.54479  Biso   1.000  C
  C2372    1.0000 0.85467  0.36369  0.45521  Biso   1.000  C
  S228     1.0000 0.91648  0.40739  0.50001  Biso   1.000  S
  S229     1.0000 0.91648  0.40743  0.50001  Biso   1.000  S
  C2373    1.0000 0.72768  0.28358  0.45530  Biso   1.000  C
  S230     1.0000 0.78953  0.32633  0.40999  Biso   1.000  S
  S231     1.0000 0.78949  0.32633  0.40999  Biso   1.000  S
  C2374    1.0000 0.63628  0.85467  0.54479  Biso   1.000  C
  S232     1.0000 0.67367  0.78953  0.59001  Biso   1.000  S
  S233     1.0000 0.67367  0.78949  0.59001  Biso   1.000  S
  S234     1.0000 0.67363  0.78953  0.59001  Biso   1.000  S
  S235     1.0000 0.67363  0.78949  0.59001  Biso   1.000  S
  C2375    1.0000 0.76197  0.95197  0.55499  Biso   1.000  C
  S236     1.0000 0.87274  0.91733  0.73176  Biso   1.000  S
  S237     1.0000 0.87274  0.91737  0.73176  Biso   1.000  S
  S238     1.0000 0.87278  0.91733  0.73176  Biso   1.000  S
  S239     1.0000 0.87278  0.91737  0.73176  Biso   1.000  S
  C2376    1.0000 0.87457  0.02430  0.63600  Biso   1.000  C
  C2377    1.0000 0.89398  0.02101  0.73010  Biso   1.000  C
  C2378    1.0000 0.89398  0.02097  0.73010  Biso   1.000  C
  S240     1.0000 0.59257  0.91648  0.50001  Biso   1.000  S
  C2379    1.0000 0.71838  0.67849  0.46750  Biso   1.000  C
  C2380    1.0000 0.68301  0.73135  0.43100  Biso   1.000  C
  C2381    1.0000 0.68301  0.73139  0.43100  Biso   1.000  C
  C2382    1.0000 0.68297  0.73135  0.43100  Biso   1.000  C
  C2383    1.0000 0.68297  0.73139  0.43100  Biso   1.000  C
  C2384    1.0000 0.58912  0.87626  0.46841  Biso   1.000  C
  C2385    1.0000 0.62499  0.82187  0.42921  Biso   1.000  C
  C2386    1.0000 0.58912  0.87630  0.46841  Biso   1.000  C
  C2387    1.0000 0.58908  0.87626  0.46841  Biso   1.000  C
  C2388    1.0000 0.58908  0.87630  0.46841  Biso   1.000  C
  O1053    1.0000 0.65450  0.77548  0.38026  Biso   1.000  O
  C2389    1.0000 0.68301  0.73135  0.56900  Biso   1.000  C
  C2390    1.0000 0.68301  0.73139  0.56900  Biso   1.000  C
  C2391    1.0000 0.68297  0.73135  0.56900  Biso   1.000  C
  C2392    1.0000 0.68297  0.73139  0.56900  Biso   1.000  C
  C2393    1.0000 0.71838  0.67849  0.53250  Biso   1.000  C
  O1054    1.0000 0.76247  0.60780  0.50001  Biso   1.000  O
  C2394    1.0000 0.92946  0.88988  0.74519  Biso   1.000  C
  C2395    1.0000 0.92950  0.88988  0.74519  Biso   1.000  C
  C2396    1.0000 0.02009  0.87040  0.74439  Biso   1.000  C
  C2397    1.0000 0.02013  0.87040  0.74439  Biso   1.000  C
  O1055    1.0000 0.10981  0.83117  0.74462  Biso   1.000  O
  C2398    1.0000 0.11012  0.92946  0.74519  Biso   1.000  C
  C2399    1.0000 0.11012  0.92950  0.74519  Biso   1.000  C
  O1056    1.0000 0.10977  0.83117  0.74462  Biso   1.000  O
  C2400    1.0000 0.12960  0.02009  0.74439  Biso   1.000  C
  C2401    1.0000 0.12960  0.02013  0.74439  Biso   1.000  C
  C2402    1.0000 0.12956  0.02009  0.74439  Biso   1.000  C
  C2403    1.0000 0.12956  0.02013  0.74439  Biso   1.000  C
  S241     1.0000 0.91733  0.12722  0.73176  Biso   1.000  S
  S242     1.0000 0.91733  0.12719  0.73176  Biso   1.000  S
  S243     1.0000 0.91737  0.12722  0.73176  Biso   1.000  S
  S244     1.0000 0.91737  0.12719  0.73176  Biso   1.000  S
  C2404    1.0000 0.97987  0.12960  0.74439  Biso   1.000  C
  C2405    1.0000 0.97987  0.12956  0.74439  Biso   1.000  C
  C2406    1.0000 0.07050  0.11012  0.74519  Biso   1.000  C
  C2407    1.0000 0.07046  0.11012  0.74519  Biso   1.000  C
  O1057    1.0000 0.16879  0.10981  0.74462  Biso   1.000  O
  O1058    1.0000 0.16879  0.10977  0.74462  Biso   1.000  O
  H2119    1.0000 0.44157  0.41478  0.60499  Biso   1.000  H
  H2120    1.0000 0.42531  0.35588  0.60169  Biso   1.000  H
  H2121    1.0000 0.39170  0.39400  0.62209  Biso   1.000  H
  H2122    1.0000 0.39170  0.39396  0.62209  Biso   1.000  H
  H2123    1.0000 0.42527  0.35588  0.60169  Biso   1.000  H
  H2124    1.0000 0.39166  0.39400  0.62209  Biso   1.000  H
  H2125    1.0000 0.39166  0.39396  0.62209  Biso   1.000  H
  H2126    1.0000 0.44789  0.43698  0.55650  Biso   1.000  H
  H2127    1.0000 0.39940  0.44039  0.53430  Biso   1.000  H
  H2128    1.0000 0.42898  0.38719  0.53851  Biso   1.000  H
  H2129    1.0000 0.42898  0.38722  0.53851  Biso   1.000  H
  H2130    1.0000 0.39936  0.44039  0.53430  Biso   1.000  H
  H2131    1.0000 0.31768  0.43989  0.59591  Biso   1.000  H
  H2132    1.0000 0.32878  0.45868  0.56180  Biso   1.000  H
  H2133    1.0000 0.36380  0.47870  0.58930  Biso   1.000  H
  H2134    1.0000 0.36380  0.47866  0.58930  Biso   1.000  H
  H2135    1.0000 0.36376  0.47870  0.58930  Biso   1.000  H
  H2136    1.0000 0.36376  0.47866  0.58930  Biso   1.000  H
  C2408    1.0000 0.80051  0.14008  0.55470  Biso   1.000  C
  C2409    1.0000 0.80047  0.14008  0.55470  Biso   1.000  C
  C2410    1.0000 0.72768  0.28358  0.54470  Biso   1.000  C
  S245     1.0000 0.66131  0.24519  0.50001  Biso   1.000  S
  S246     1.0000 0.66131  0.24515  0.50001  Biso   1.000  S
  S247     1.0000 0.78953  0.32633  0.59001  Biso   1.000  S
  S248     1.0000 0.78949  0.32633  0.59001  Biso   1.000  S
  C2411    1.0000 0.87626  0.41088  0.53159  Biso   1.000  C
  C2412    1.0000 0.82187  0.37498  0.57079  Biso   1.000  C
  C2413    1.0000 0.87630  0.41088  0.53159  Biso   1.000  C
  C2414    1.0000 0.87626  0.41088  0.46841  Biso   1.000  C
  C2415    1.0000 0.82187  0.37498  0.42921  Biso   1.000  C
  C2416    1.0000 0.87630  0.41088  0.46841  Biso   1.000  C
  O1059    1.0000 0.94737  0.45218  0.50001  Biso   1.000  O
  O1060    1.0000 0.94737  0.45221  0.50001  Biso   1.000  O
  C2417    1.0000 0.67849  0.28159  0.46750  Biso   1.000  C
  C2418    1.0000 0.73135  0.31699  0.43100  Biso   1.000  C
  C2419    1.0000 0.73139  0.31699  0.43100  Biso   1.000  C
  O1061    1.0000 0.77548  0.34550  0.38026  Biso   1.000  O
  O1062    1.0000 0.77548  0.34547  0.38026  Biso   1.000  O
  C2420    1.0000 0.58912  0.87626  0.53159  Biso   1.000  C
  C2421    1.0000 0.62499  0.82187  0.57079  Biso   1.000  C
  C2422    1.0000 0.58912  0.87630  0.53159  Biso   1.000  C
  C2423    1.0000 0.58908  0.87626  0.53159  Biso   1.000  C
  C2424    1.0000 0.58908  0.87630  0.53159  Biso   1.000  C
  O1063    1.0000 0.65450  0.77548  0.61974  Biso   1.000  O
  C2425    1.0000 0.78528  0.99847  0.56911  Biso   1.000  C
  O1064    1.0000 0.83117  0.89015  0.74462  Biso   1.000  O
  C2426    1.0000 0.87040  0.97987  0.74439  Biso   1.000  C
  O1065    1.0000 0.83117  0.89019  0.74462  Biso   1.000  O
  C2427    1.0000 0.83906  0.03472  0.60804  Biso   1.000  C
  C2428    1.0000 0.83909  0.03472  0.60804  Biso   1.000  C
  C2429    1.0000 0.88988  0.07050  0.74519  Biso   1.000  C
  C2430    1.0000 0.88988  0.07046  0.74519  Biso   1.000  C
  O1066    1.0000 0.54782  0.94737  0.50001  Biso   1.000  O
  O1067    1.0000 0.54779  0.94737  0.50001  Biso   1.000  O
  C2431    1.0000 0.68806  0.63727  0.45571  Biso   1.000  C
  C2432    1.0000 0.68810  0.63727  0.45571  Biso   1.000  C
  C2433    1.0000 0.65377  0.69116  0.41889  Biso   1.000  C
  C2434    1.0000 0.65377  0.69120  0.41889  Biso   1.000  C
  C2435    1.0000 0.65381  0.69116  0.41889  Biso   1.000  C
  C2436    1.0000 0.65381  0.69120  0.41889  Biso   1.000  C
  C2437    1.0000 0.54185  0.87056  0.45550  Biso   1.000  C
  C2438    1.0000 0.54185  0.87059  0.45550  Biso   1.000  C
  C2439    1.0000 0.54189  0.87056  0.45550  Biso   1.000  C
  C2440    1.0000 0.54189  0.87059  0.45550  Biso   1.000  C
  C2441    1.0000 0.57749  0.81866  0.41730  Biso   1.000  C
  C2442    1.0000 0.57749  0.81869  0.41730  Biso   1.000  C
  C2443    1.0000 0.65377  0.69116  0.58111  Biso   1.000  C
  C2444    1.0000 0.65377  0.69120  0.58111  Biso   1.000  C
  C2445    1.0000 0.65381  0.69116  0.58111  Biso   1.000  C
  C2446    1.0000 0.65381  0.69120  0.58111  Biso   1.000  C
  C2447    1.0000 0.68806  0.63727  0.54429  Biso   1.000  C
  C2448    1.0000 0.68810  0.63727  0.54429  Biso   1.000  C
  C2449    1.0000 0.92314  0.85659  0.76989  Biso   1.000  C
  C2450    1.0000 0.92318  0.85659  0.76989  Biso   1.000  C
  C2451    1.0000 0.01160  0.83856  0.77069  Biso   1.000  C
  C2452    1.0000 0.01160  0.83860  0.77069  Biso   1.000  C
  C2453    1.0000 0.14341  0.92314  0.76989  Biso   1.000  C
  C2454    1.0000 0.14341  0.92318  0.76989  Biso   1.000  C
  C2455    1.0000 0.14338  0.92314  0.76989  Biso   1.000  C
  C2456    1.0000 0.14338  0.92318  0.76989  Biso   1.000  C
  C2457    1.0000 0.16140  0.01160  0.77069  Biso   1.000  C
  C2458    1.0000 0.16137  0.01160  0.77069  Biso   1.000  C
  O1068    1.0000 0.89015  0.16879  0.74462  Biso   1.000  O
  O1069    1.0000 0.89019  0.16879  0.74462  Biso   1.000  O
  C2459    1.0000 0.98836  0.16140  0.77069  Biso   1.000  C
  C2460    1.0000 0.98836  0.16137  0.77069  Biso   1.000  C
  C2461    1.0000 0.07682  0.14341  0.76989  Biso   1.000  C
  C2462    1.0000 0.07682  0.14338  0.76989  Biso   1.000  C
  C2463    1.0000 0.80438  0.08868  0.56870  Biso   1.000  C
  C2464    1.0000 0.73135  0.31699  0.56900  Biso   1.000  C
  C2465    1.0000 0.73139  0.31699  0.56900  Biso   1.000  C
  C2466    1.0000 0.67849  0.28159  0.53250  Biso   1.000  C
  O1070    1.0000 0.60780  0.23749  0.50001  Biso   1.000  O
  O1071    1.0000 0.77548  0.34550  0.61974  Biso   1.000  O
  O1072    1.0000 0.77548  0.34547  0.61974  Biso   1.000  O
  C2467    1.0000 0.87056  0.45811  0.54450  Biso   1.000  C
  C2468    1.0000 0.87056  0.45807  0.54450  Biso   1.000  C
  C2469    1.0000 0.87059  0.45811  0.54450  Biso   1.000  C
  C2470    1.0000 0.87059  0.45807  0.54450  Biso   1.000  C
  C2471    1.0000 0.81866  0.42247  0.58270  Biso   1.000  C
  C2472    1.0000 0.81869  0.42247  0.58270  Biso   1.000  C
  C2473    1.0000 0.87056  0.45811  0.45550  Biso   1.000  C
  C2474    1.0000 0.87056  0.45807  0.45550  Biso   1.000  C
  C2475    1.0000 0.87059  0.45811  0.45550  Biso   1.000  C
  C2476    1.0000 0.87059  0.45807  0.45550  Biso   1.000  C
  C2477    1.0000 0.81866  0.42247  0.41730  Biso   1.000  C
  C2478    1.0000 0.81869  0.42247  0.41730  Biso   1.000  C
  C2479    1.0000 0.63727  0.31190  0.45571  Biso   1.000  C
  C2480    1.0000 0.63727  0.31186  0.45571  Biso   1.000  C
  C2481    1.0000 0.69116  0.34619  0.41889  Biso   1.000  C
  C2482    1.0000 0.69116  0.34616  0.41889  Biso   1.000  C
  C2483    1.0000 0.69120  0.34619  0.41889  Biso   1.000  C
  C2484    1.0000 0.69120  0.34616  0.41889  Biso   1.000  C
  C2485    1.0000 0.54185  0.87056  0.54450  Biso   1.000  C
  C2486    1.0000 0.54185  0.87059  0.54450  Biso   1.000  C
  C2487    1.0000 0.54189  0.87056  0.54450  Biso   1.000  C
  C2488    1.0000 0.54189  0.87059  0.54450  Biso   1.000  C
  C2489    1.0000 0.57749  0.81866  0.58270  Biso   1.000  C
  C2490    1.0000 0.57749  0.81869  0.58270  Biso   1.000  C
  C2491    1.0000 0.81475  0.99257  0.59520  Biso   1.000  C
  C2492    1.0000 0.81475  0.99261  0.59520  Biso   1.000  C
  C2493    1.0000 0.81479  0.99257  0.59520  Biso   1.000  C
  C2494    1.0000 0.81479  0.99261  0.59520  Biso   1.000  C
  C2495    1.0000 0.78007  0.04658  0.55586  Biso   1.000  C
  C2496    1.0000 0.78007  0.04662  0.55586  Biso   1.000  C
  C2497    1.0000 0.83856  0.98836  0.77069  Biso   1.000  C
  C2498    1.0000 0.83860  0.98836  0.77069  Biso   1.000  C
  C2499    1.0000 0.83385  0.08279  0.59479  Biso   1.000  C
  C2500    1.0000 0.83389  0.08279  0.59479  Biso   1.000  C
  C2501    1.0000 0.85659  0.07682  0.76989  Biso   1.000  C
  C2502    1.0000 0.65495  0.64186  0.43330  Biso   1.000  C
  H2137    1.0000 0.69227  0.60436  0.46461  Biso   1.000  H
  C2503    1.0000 0.65495  0.64190  0.43330  Biso   1.000  C
  H2138    1.0000 0.69227  0.60439  0.46461  Biso   1.000  H
  C2504    1.0000 0.65499  0.64186  0.43330  Biso   1.000  C
  C2505    1.0000 0.65499  0.64190  0.43330  Biso   1.000  C
  H2139    1.0000 0.63341  0.69648  0.40120  Biso   1.000  H
  H2140    1.0000 0.51361  0.88766  0.46449  Biso   1.000  H
  C2506    1.0000 0.53370  0.84101  0.42989  Biso   1.000  C
  C2507    1.0000 0.53370  0.84097  0.42989  Biso   1.000  C
  H2141    1.0000 0.57358  0.79986  0.39899  Biso   1.000  H
  H2142    1.0000 0.57358  0.79990  0.39899  Biso   1.000  H
  H2143    1.0000 0.63341  0.69648  0.59880  Biso   1.000  H
  C2508    1.0000 0.65495  0.64186  0.56670  Biso   1.000  C
  C2509    1.0000 0.65495  0.64190  0.56670  Biso   1.000  C
  C2510    1.0000 0.65499  0.64186  0.56670  Biso   1.000  C
  C2511    1.0000 0.65499  0.64190  0.56670  Biso   1.000  C
  H2144    1.0000 0.69227  0.60436  0.53539  Biso   1.000  H
  H2145    1.0000 0.69227  0.60439  0.53539  Biso   1.000  H
  H2146    1.0000 0.89015  0.85146  0.77841  Biso   1.000  H
  C2512    1.0000 0.96337  0.83197  0.78180  Biso   1.000  C
  H2147    1.0000 0.89015  0.85149  0.77841  Biso   1.000  H
  H2148    1.0000 0.89019  0.85146  0.77841  Biso   1.000  H
  H2149    1.0000 0.89019  0.85149  0.77841  Biso   1.000  H
  H2150    1.0000 0.03969  0.82225  0.78030  Biso   1.000  H
  H2151    1.0000 0.03969  0.82229  0.78030  Biso   1.000  H
  H2152    1.0000 0.03973  0.82225  0.78030  Biso   1.000  H
  H2153    1.0000 0.03973  0.82229  0.78030  Biso   1.000  H
  C2513    1.0000 0.16799  0.96337  0.78180  Biso   1.000  C
  H2154    1.0000 0.14851  0.89015  0.77841  Biso   1.000  H
  H2155    1.0000 0.14851  0.89019  0.77841  Biso   1.000  H
  H2156    1.0000 0.17771  0.03969  0.78030  Biso   1.000  H
  H2157    1.0000 0.17771  0.03973  0.78030  Biso   1.000  H
  H2158    1.0000 0.17767  0.03969  0.78030  Biso   1.000  H
  H2159    1.0000 0.17767  0.03973  0.78030  Biso   1.000  H
  H2160    1.0000 0.96031  0.17771  0.78030  Biso   1.000  H
  H2161    1.0000 0.96031  0.17767  0.78030  Biso   1.000  H
  H2162    1.0000 0.96027  0.17771  0.78030  Biso   1.000  H
  H2163    1.0000 0.96027  0.17767  0.78030  Biso   1.000  H
  C2514    1.0000 0.03659  0.16799  0.78180  Biso   1.000  C
  C2515    1.0000 0.03663  0.16799  0.78180  Biso   1.000  C
  H2164    1.0000 0.10981  0.14851  0.77841  Biso   1.000  H
  H2165    1.0000 0.10977  0.14851  0.77841  Biso   1.000  H
  C2516    1.0000 0.69116  0.34619  0.58111  Biso   1.000  C
  C2517    1.0000 0.69116  0.34616  0.58111  Biso   1.000  C
  C2518    1.0000 0.69120  0.34619  0.58111  Biso   1.000  C
  C2519    1.0000 0.69120  0.34616  0.58111  Biso   1.000  C
  C2520    1.0000 0.63727  0.31190  0.54429  Biso   1.000  C
  C2521    1.0000 0.63727  0.31186  0.54429  Biso   1.000  C
  H2166    1.0000 0.88766  0.48639  0.53551  Biso   1.000  H
  C2522    1.0000 0.84101  0.46630  0.57011  Biso   1.000  C
  H2167    1.0000 0.88766  0.48636  0.53551  Biso   1.000  H
  C2523    1.0000 0.84101  0.46626  0.57011  Biso   1.000  C
  C2524    1.0000 0.84097  0.46630  0.57011  Biso   1.000  C
  C2525    1.0000 0.84097  0.46626  0.57011  Biso   1.000  C
  H2168    1.0000 0.79986  0.42638  0.60101  Biso   1.000  H
  H2169    1.0000 0.79990  0.42638  0.60101  Biso   1.000  H
  H2170    1.0000 0.88766  0.48639  0.46449  Biso   1.000  H
  C2526    1.0000 0.84101  0.46630  0.42989  Biso   1.000  C
  H2171    1.0000 0.88766  0.48636  0.46449  Biso   1.000  H
  C2527    1.0000 0.84101  0.46626  0.42989  Biso   1.000  C
  C2528    1.0000 0.84097  0.46630  0.42989  Biso   1.000  C
  C2529    1.0000 0.84097  0.46626  0.42989  Biso   1.000  C
  H2172    1.0000 0.79986  0.42638  0.39899  Biso   1.000  H
  H2173    1.0000 0.79990  0.42638  0.39899  Biso   1.000  H
  C2530    1.0000 0.64186  0.34501  0.43330  Biso   1.000  C
  H2174    1.0000 0.60436  0.30769  0.46461  Biso   1.000  H
  C2531    1.0000 0.64186  0.34497  0.43330  Biso   1.000  C
  C2532    1.0000 0.64190  0.34501  0.43330  Biso   1.000  C
  H2175    1.0000 0.60439  0.30769  0.46461  Biso   1.000  H
  C2533    1.0000 0.64190  0.34497  0.43330  Biso   1.000  C
  H2176    1.0000 0.69648  0.36659  0.40120  Biso   1.000  H
  H2177    1.0000 0.69648  0.36656  0.40120  Biso   1.000  H
  H2178    1.0000 0.51361  0.88766  0.53551  Biso   1.000  H
  C2534    1.0000 0.53370  0.84101  0.57011  Biso   1.000  C
  C2535    1.0000 0.53370  0.84097  0.57011  Biso   1.000  C
  H2179    1.0000 0.57358  0.79986  0.60101  Biso   1.000  H
  H2180    1.0000 0.57358  0.79990  0.60101  Biso   1.000  H
  H2181    1.0000 0.81835  0.95977  0.60431  Biso   1.000  H
  H2182    1.0000 0.81839  0.95977  0.60431  Biso   1.000  H
  H2183    1.0000 0.75990  0.05060  0.53801  Biso   1.000  H
  H2184    1.0000 0.82225  0.96031  0.78030  Biso   1.000  H
  H2185    1.0000 0.82225  0.96027  0.78030  Biso   1.000  H
  H2186    1.0000 0.82229  0.96031  0.78030  Biso   1.000  H
  H2187    1.0000 0.82229  0.96027  0.78030  Biso   1.000  H
  C2536    1.0000 0.83197  0.03659  0.78180  Biso   1.000  C
  C2537    1.0000 0.83197  0.03663  0.78180  Biso   1.000  C
  H2188    1.0000 0.85046  0.11161  0.60360  Biso   1.000  H
  H2189    1.0000 0.85050  0.11161  0.60360  Biso   1.000  H
  H2190    1.0000 0.85146  0.10981  0.77841  Biso   1.000  H
  H2191    1.0000 0.85146  0.10977  0.77841  Biso   1.000  H
  H2192    1.0000 0.85149  0.10981  0.77841  Biso   1.000  H
  H2193    1.0000 0.85149  0.10977  0.77841  Biso   1.000  H
  C2538    1.0000 0.61909  0.59601  0.42340  Biso   1.000  C
  C2539    1.0000 0.61909  0.59597  0.42340  Biso   1.000  C
  C2540    1.0000 0.48015  0.83745  0.41441  Biso   1.000  C
  C2541    1.0000 0.48015  0.83749  0.41441  Biso   1.000  C
  C2542    1.0000 0.48019  0.83745  0.41441  Biso   1.000  C
  C2543    1.0000 0.48019  0.83749  0.41441  Biso   1.000  C
  C2544    1.0000 0.61909  0.59601  0.57660  Biso   1.000  C
  C2545    1.0000 0.61909  0.59597  0.57660  Biso   1.000  C
  C2546    1.0000 0.95388  0.80216  0.81399  Biso   1.000  C
  C2547    1.0000 0.95388  0.80220  0.81399  Biso   1.000  C
  C2548    1.0000 0.19780  0.95388  0.81399  Biso   1.000  C
  C2549    1.0000 0.19776  0.95388  0.81399  Biso   1.000  C
  C2550    1.0000 0.04608  0.19780  0.81399  Biso   1.000  C
  C2551    1.0000 0.04608  0.19776  0.81399  Biso   1.000  C
  H2194    1.0000 0.69648  0.36659  0.59880  Biso   1.000  H
  C2552    1.0000 0.64186  0.34501  0.56670  Biso   1.000  C
  H2195    1.0000 0.69648  0.36656  0.59880  Biso   1.000  H
  C2553    1.0000 0.64186  0.34497  0.56670  Biso   1.000  C
  C2554    1.0000 0.64190  0.34501  0.56670  Biso   1.000  C
  C2555    1.0000 0.64190  0.34497  0.56670  Biso   1.000  C
  H2196    1.0000 0.60436  0.30769  0.53539  Biso   1.000  H
  H2197    1.0000 0.60439  0.30769  0.53539  Biso   1.000  H
  C2556    1.0000 0.83745  0.51981  0.58559  Biso   1.000  C
  C2557    1.0000 0.83745  0.51977  0.58559  Biso   1.000  C
  C2558    1.0000 0.83749  0.51981  0.58559  Biso   1.000  C
  C2559    1.0000 0.83749  0.51977  0.58559  Biso   1.000  C
  C2560    1.0000 0.83745  0.51981  0.41441  Biso   1.000  C
  C2561    1.0000 0.83745  0.51977  0.41441  Biso   1.000  C
  C2562    1.0000 0.83749  0.51981  0.41441  Biso   1.000  C
  C2563    1.0000 0.83749  0.51977  0.41441  Biso   1.000  C
  C2564    1.0000 0.59601  0.38091  0.42340  Biso   1.000  C
  C2565    1.0000 0.59597  0.38091  0.42340  Biso   1.000  C
  C2566    1.0000 0.48015  0.83745  0.58559  Biso   1.000  C
  C2567    1.0000 0.48015  0.83749  0.58559  Biso   1.000  C
  C2568    1.0000 0.48019  0.83745  0.58559  Biso   1.000  C
  C2569    1.0000 0.48019  0.83749  0.58559  Biso   1.000  C
  C2570    1.0000 0.80216  0.04608  0.81399  Biso   1.000  C
  C2571    1.0000 0.80220  0.04608  0.81399  Biso   1.000  C
  C2572    1.0000 0.58740  0.60891  0.39631  Biso   1.000  C
  C2573    1.0000 0.58212  0.58139  0.45120  Biso   1.000  C
  C2574    1.0000 0.65545  0.55050  0.41871  Biso   1.000  C
  C2575    1.0000 0.58740  0.60887  0.39631  Biso   1.000  C
  C2576    1.0000 0.58208  0.58139  0.45120  Biso   1.000  C
  C2577    1.0000 0.65549  0.55050  0.41871  Biso   1.000  C
  C2578    1.0000 0.44157  0.82176  0.43911  Biso   1.000  C
  C2579    1.0000 0.46978  0.89295  0.40300  Biso   1.000  C
  C2580    1.0000 0.48398  0.79868  0.38841  Biso   1.000  C
  C2581    1.0000 0.44157  0.82179  0.43911  Biso   1.000  C
  C2582    1.0000 0.46978  0.89298  0.40300  Biso   1.000  C
  C2583    1.0000 0.58740  0.60891  0.60369  Biso   1.000  C
  C2584    1.0000 0.58212  0.58139  0.54880  Biso   1.000  C
  C2585    1.0000 0.65545  0.55050  0.58129  Biso   1.000  C
  C2586    1.0000 0.58740  0.60887  0.60369  Biso   1.000  C
  C2587    1.0000 0.58208  0.58139  0.54880  Biso   1.000  C
  C2588    1.0000 0.65549  0.55050  0.58129  Biso   1.000  C
  C2589    1.0000 0.89987  0.80197  0.82440  Biso   1.000  C
  C2590    1.0000 0.98607  0.83086  0.83731  Biso   1.000  C
  C2591    1.0000 0.97696  0.75167  0.80580  Biso   1.000  C
  C2592    1.0000 0.98607  0.83090  0.83731  Biso   1.000  C
  C2593    1.0000 0.97700  0.75167  0.80580  Biso   1.000  C
  C2594    1.0000 0.16910  0.98607  0.83731  Biso   1.000  C
  C2595    1.0000 0.19799  0.89987  0.82440  Biso   1.000  C
  C2596    1.0000 0.24829  0.97696  0.80580  Biso   1.000  C
  C2597    1.0000 0.24829  0.97700  0.80580  Biso   1.000  C
  C2598    1.0000 0.19803  0.89987  0.82440  Biso   1.000  C
  C2599    1.0000 0.10009  0.19799  0.82440  Biso   1.000  C
  C2600    1.0000 0.01389  0.16910  0.83731  Biso   1.000  C
  C2601    1.0000 0.02300  0.24829  0.80580  Biso   1.000  C
  C2602    1.0000 0.10009  0.19803  0.82440  Biso   1.000  C
  C2603    1.0000 0.10013  0.19799  0.82440  Biso   1.000  C
  C2604    1.0000 0.02296  0.24829  0.80580  Biso   1.000  C
  C2605    1.0000 0.10013  0.19803  0.82440  Biso   1.000  C
  C2606    1.0000 0.59601  0.38091  0.57660  Biso   1.000  C
  C2607    1.0000 0.59597  0.38091  0.57660  Biso   1.000  C
  C2608    1.0000 0.82176  0.55839  0.56089  Biso   1.000  C
  C2609    1.0000 0.89295  0.53018  0.59700  Biso   1.000  C
  C2610    1.0000 0.79868  0.51598  0.61159  Biso   1.000  C
  C2611    1.0000 0.82179  0.55839  0.56089  Biso   1.000  C
  C2612    1.0000 0.89298  0.53018  0.59700  Biso   1.000  C
  C2613    1.0000 0.82176  0.55839  0.43911  Biso   1.000  C
  C2614    1.0000 0.89295  0.53018  0.40300  Biso   1.000  C
  C2615    1.0000 0.79868  0.51598  0.38841  Biso   1.000  C
  C2616    1.0000 0.82179  0.55839  0.43911  Biso   1.000  C
  C2617    1.0000 0.89298  0.53018  0.40300  Biso   1.000  C
  C2618    1.0000 0.60891  0.41260  0.39631  Biso   1.000  C
  C2619    1.0000 0.58139  0.41788  0.45120  Biso   1.000  C
  C2620    1.0000 0.55050  0.34451  0.41871  Biso   1.000  C
  C2621    1.0000 0.60891  0.41256  0.39631  Biso   1.000  C
  C2622    1.0000 0.60887  0.41260  0.39631  Biso   1.000  C
  C2623    1.0000 0.60887  0.41256  0.39631  Biso   1.000  C
  C2624    1.0000 0.44157  0.82176  0.56089  Biso   1.000  C
  C2625    1.0000 0.46978  0.89295  0.59700  Biso   1.000  C
  C2626    1.0000 0.48398  0.79868  0.61159  Biso   1.000  C
  C2627    1.0000 0.44157  0.82179  0.56089  Biso   1.000  C
  C2628    1.0000 0.46978  0.89298  0.59700  Biso   1.000  C
  C2629    1.0000 0.80197  0.10009  0.82440  Biso   1.000  C
  C2630    1.0000 0.83086  0.01389  0.83731  Biso   1.000  C
  C2631    1.0000 0.75167  0.02300  0.80580  Biso   1.000  C
  C2632    1.0000 0.80197  0.10013  0.82440  Biso   1.000  C
  C2633    1.0000 0.75167  0.02296  0.80580  Biso   1.000  C
  C2634    1.0000 0.83090  0.01389  0.83731  Biso   1.000  C
  H2198    1.0000 0.55843  0.58522  0.39501  Biso   1.000  H
  H2199    1.0000 0.57465  0.64408  0.39831  Biso   1.000  H
  H2200    1.0000 0.60830  0.60600  0.37791  Biso   1.000  H
  H2201    1.0000 0.55843  0.58518  0.39501  Biso   1.000  H
  H2202    1.0000 0.55839  0.58522  0.39501  Biso   1.000  H
  H2203    1.0000 0.57469  0.64408  0.39831  Biso   1.000  H
  H2204    1.0000 0.55839  0.58518  0.39501  Biso   1.000  H
  H2205    1.0000 0.55211  0.56302  0.44350  Biso   1.000  H
  H2206    1.0000 0.60060  0.55957  0.46570  Biso   1.000  H
  H2207    1.0000 0.57102  0.61281  0.46149  Biso   1.000  H
  H2208    1.0000 0.55211  0.56298  0.44350  Biso   1.000  H
  H2209    1.0000 0.57102  0.61278  0.46149  Biso   1.000  H
  H2210    1.0000 0.55207  0.56302  0.44350  Biso   1.000  H
  H2211    1.0000 0.57098  0.61281  0.46149  Biso   1.000  H
  H2212    1.0000 0.55207  0.56298  0.44350  Biso   1.000  H
  H2213    1.0000 0.57098  0.61278  0.46149  Biso   1.000  H
  H2214    1.0000 0.68228  0.56007  0.40409  Biso   1.000  H
  H2215    1.0000 0.67122  0.54132  0.43820  Biso   1.000  H
  H2216    1.0000 0.63620  0.52130  0.41070  Biso   1.000  H
  H2217    1.0000 0.67122  0.54128  0.43820  Biso   1.000  H
  H2218    1.0000 0.67118  0.54132  0.43820  Biso   1.000  H
  H2219    1.0000 0.67118  0.54128  0.43820  Biso   1.000  H
  H2220    1.0000 0.40896  0.81238  0.42950  Biso   1.000  H
  H2221    1.0000 0.45497  0.79240  0.45049  Biso   1.000  H
  H2222    1.0000 0.43606  0.85046  0.45311  Biso   1.000  H
  H2223    1.0000 0.43606  0.85050  0.45311  Biso   1.000  H
  H2224    1.0000 0.40900  0.81238  0.42950  Biso   1.000  H
  H2225    1.0000 0.45501  0.79240  0.45049  Biso   1.000  H
  H2226    1.0000 0.43610  0.85046  0.45311  Biso   1.000  H
  H2227    1.0000 0.43610  0.85050  0.45311  Biso   1.000  H
  H2228    1.0000 0.47908  0.91748  0.41889  Biso   1.000  H
  H2229    1.0000 0.49026  0.89957  0.38470  Biso   1.000  H
  H2230    1.0000 0.43338  0.89666  0.39799  Biso   1.000  H
  H2231    1.0000 0.43338  0.89670  0.39799  Biso   1.000  H
  H2232    1.0000 0.49030  0.89957  0.38470  Biso   1.000  H
  H2233    1.0000 0.49328  0.81636  0.36960  Biso   1.000  H
  H2234    1.0000 0.51028  0.77318  0.39330  Biso   1.000  H
  H2235    1.0000 0.45099  0.78145  0.38579  Biso   1.000  H
  H2236    1.0000 0.49328  0.81640  0.36960  Biso   1.000  H
  H2237    1.0000 0.45099  0.78149  0.38579  Biso   1.000  H
  H2238    1.0000 0.55843  0.58522  0.60499  Biso   1.000  H
  H2239    1.0000 0.57465  0.64408  0.60169  Biso   1.000  H
  H2240    1.0000 0.60830  0.60600  0.62209  Biso   1.000  H
  H2241    1.0000 0.55843  0.58518  0.60499  Biso   1.000  H
  H2242    1.0000 0.55839  0.58522  0.60499  Biso   1.000  H
  H2243    1.0000 0.57469  0.64408  0.60169  Biso   1.000  H
  H2244    1.0000 0.55839  0.58518  0.60499  Biso   1.000  H
  H2245    1.0000 0.55211  0.56302  0.55650  Biso   1.000  H
  H2246    1.0000 0.60060  0.55957  0.53430  Biso   1.000  H
  H2247    1.0000 0.57102  0.61281  0.53851  Biso   1.000  H
  H2248    1.0000 0.55211  0.56298  0.55650  Biso   1.000  H
  H2249    1.0000 0.57102  0.61278  0.53851  Biso   1.000  H
  H2250    1.0000 0.55207  0.56302  0.55650  Biso   1.000  H
  H2251    1.0000 0.57098  0.61281  0.53851  Biso   1.000  H
  H2252    1.0000 0.55207  0.56298  0.55650  Biso   1.000  H
  H2253    1.0000 0.57098  0.61278  0.53851  Biso   1.000  H
  H2254    1.0000 0.68228  0.56007  0.59591  Biso   1.000  H
  H2255    1.0000 0.67122  0.54132  0.56180  Biso   1.000  H
  H2256    1.0000 0.63620  0.52130  0.58930  Biso   1.000  H
  H2257    1.0000 0.67122  0.54128  0.56180  Biso   1.000  H
  H2258    1.0000 0.67118  0.54132  0.56180  Biso   1.000  H
  H2259    1.0000 0.67118  0.54128  0.56180  Biso   1.000  H
  H2260    1.0000 0.89796  0.78830  0.84509  Biso   1.000  H
  H2261    1.0000 0.87940  0.78038  0.81069  Biso   1.000  H
  H2262    1.0000 0.88636  0.83695  0.82410  Biso   1.000  H
  H2263    1.0000 0.88636  0.83699  0.82410  Biso   1.000  H
  H2264    1.0000 0.89800  0.78830  0.84509  Biso   1.000  H
  H2265    1.0000 0.88640  0.83695  0.82410  Biso   1.000  H
  H2266    1.0000 0.88640  0.83699  0.82410  Biso   1.000  H
  H2267    1.0000 0.98098  0.86776  0.83480  Biso   1.000  H
  H2268    1.0000 0.97558  0.82076  0.85791  Biso   1.000  H
  H2269    1.0000 0.98098  0.86780  0.83480  Biso   1.000  H
  H2270    1.0000 0.97558  0.82080  0.85791  Biso   1.000  H
  H2271    1.0000 0.02231  0.82256  0.83430  Biso   1.000  H
  H2272    1.0000 0.02231  0.82260  0.83430  Biso   1.000  H
  H2273    1.0000 0.02228  0.82256  0.83430  Biso   1.000  H
  H2274    1.0000 0.02228  0.82260  0.83430  Biso   1.000  H
  H2275    1.0000 0.98546  0.75137  0.78410  Biso   1.000  H
  H2276    1.0000 0.95250  0.72427  0.81019  Biso   1.000  H
  H2277    1.0000 0.98549  0.75137  0.78410  Biso   1.000  H
  H2278    1.0000 0.95246  0.72427  0.81019  Biso   1.000  H
  H2279    1.0000 0.00819  0.74628  0.81779  Biso   1.000  H
  H2280    1.0000 0.00823  0.74628  0.81779  Biso   1.000  H
  H2281    1.0000 0.13220  0.98098  0.83480  Biso   1.000  H
  H2282    1.0000 0.17920  0.97558  0.85791  Biso   1.000  H
  H2283    1.0000 0.13216  0.98098  0.83480  Biso   1.000  H
  H2284    1.0000 0.17916  0.97558  0.85791  Biso   1.000  H
  H2285    1.0000 0.17740  0.02231  0.83430  Biso   1.000  H
  H2286    1.0000 0.17740  0.02228  0.83430  Biso   1.000  H
  H2287    1.0000 0.17736  0.02231  0.83430  Biso   1.000  H
  H2288    1.0000 0.17736  0.02228  0.83430  Biso   1.000  H
  H2289    1.0000 0.21958  0.87940  0.81069  Biso   1.000  H
  H2290    1.0000 0.21170  0.89796  0.84509  Biso   1.000  H
  H2291    1.0000 0.16301  0.88636  0.82410  Biso   1.000  H
  H2292    1.0000 0.21170  0.89800  0.84509  Biso   1.000  H
  H2293    1.0000 0.16301  0.88640  0.82410  Biso   1.000  H
  H2294    1.0000 0.21166  0.89796  0.84509  Biso   1.000  H
  H2295    1.0000 0.21166  0.89800  0.84509  Biso   1.000  H
  H2296    1.0000 0.24859  0.98546  0.78410  Biso   1.000  H
  H2297    1.0000 0.27569  0.95250  0.81019  Biso   1.000  H
  H2298    1.0000 0.24859  0.98549  0.78410  Biso   1.000  H
  H2299    1.0000 0.27569  0.95246  0.81019  Biso   1.000  H
  H2300    1.0000 0.25368  0.00819  0.81779  Biso   1.000  H
  H2301    1.0000 0.25368  0.00823  0.81779  Biso   1.000  H
  H2302    1.0000 0.10200  0.21170  0.84509  Biso   1.000  H
  H2303    1.0000 0.12060  0.21958  0.81069  Biso   1.000  H
  H2304    1.0000 0.11360  0.16301  0.82410  Biso   1.000  H
  H2305    1.0000 0.10200  0.21166  0.84509  Biso   1.000  H
  H2306    1.0000 0.12056  0.21958  0.81069  Biso   1.000  H
  H2307    1.0000 0.11356  0.16301  0.82410  Biso   1.000  H
  H2308    1.0000 0.97765  0.17740  0.83430  Biso   1.000  H
  H2309    1.0000 0.97765  0.17736  0.83430  Biso   1.000  H
  H2310    1.0000 0.97769  0.17740  0.83430  Biso   1.000  H
  H2311    1.0000 0.97769  0.17736  0.83430  Biso   1.000  H
  H2312    1.0000 0.01898  0.13220  0.83480  Biso   1.000  H
  H2313    1.0000 0.02438  0.17920  0.85791  Biso   1.000  H
  H2314    1.0000 0.01898  0.13216  0.83480  Biso   1.000  H
  H2315    1.0000 0.02438  0.17916  0.85791  Biso   1.000  H
  H2316    1.0000 0.01902  0.13220  0.83480  Biso   1.000  H
  H2317    1.0000 0.01902  0.13216  0.83480  Biso   1.000  H
  H2318    1.0000 0.99177  0.25368  0.81779  Biso   1.000  H
  H2319    1.0000 0.01451  0.24859  0.78410  Biso   1.000  H
  H2320    1.0000 0.04750  0.27569  0.81019  Biso   1.000  H
  H2321    1.0000 0.01447  0.24859  0.78410  Biso   1.000  H
  C2635    1.0000 0.60891  0.41260  0.60369  Biso   1.000  C
  C2636    1.0000 0.58139  0.41788  0.54880  Biso   1.000  C
  C2637    1.0000 0.55050  0.34451  0.58129  Biso   1.000  C
  C2638    1.0000 0.60891  0.41256  0.60369  Biso   1.000  C
  C2639    1.0000 0.60887  0.41260  0.60369  Biso   1.000  C
  C2640    1.0000 0.60887  0.41256  0.60369  Biso   1.000  C
  H2322    1.0000 0.81238  0.59100  0.57050  Biso   1.000  H
  H2323    1.0000 0.79240  0.54499  0.54951  Biso   1.000  H
  H2324    1.0000 0.85046  0.56390  0.54689  Biso   1.000  H
  H2325    1.0000 0.81238  0.59096  0.57050  Biso   1.000  H
  H2326    1.0000 0.85050  0.56390  0.54689  Biso   1.000  H
  H2327    1.0000 0.91748  0.52088  0.58111  Biso   1.000  H
  H2328    1.0000 0.89957  0.50970  0.61530  Biso   1.000  H
  H2329    1.0000 0.89666  0.56658  0.60201  Biso   1.000  H
  H2330    1.0000 0.89957  0.50966  0.61530  Biso   1.000  H
  H2331    1.0000 0.89670  0.56658  0.60201  Biso   1.000  H
  H2332    1.0000 0.81636  0.50668  0.63040  Biso   1.000  H
  H2333    1.0000 0.77318  0.48969  0.60670  Biso   1.000  H
  H2334    1.0000 0.78145  0.54897  0.61421  Biso   1.000  H
  H2335    1.0000 0.81640  0.50668  0.63040  Biso   1.000  H
  H2336    1.0000 0.78149  0.54897  0.61421  Biso   1.000  H
  H2337    1.0000 0.81238  0.59100  0.42950  Biso   1.000  H
  H2338    1.0000 0.79240  0.54499  0.45049  Biso   1.000  H
  H2339    1.0000 0.85046  0.56390  0.45311  Biso   1.000  H
  H2340    1.0000 0.81238  0.59096  0.42950  Biso   1.000  H
  H2341    1.0000 0.85050  0.56390  0.45311  Biso   1.000  H
  H2342    1.0000 0.91748  0.52088  0.41889  Biso   1.000  H
  H2343    1.0000 0.89957  0.50970  0.38470  Biso   1.000  H
  H2344    1.0000 0.89666  0.56658  0.39799  Biso   1.000  H
  H2345    1.0000 0.89957  0.50966  0.38470  Biso   1.000  H
  H2346    1.0000 0.89670  0.56658  0.39799  Biso   1.000  H
  H2347    1.0000 0.81636  0.50668  0.36960  Biso   1.000  H
  H2348    1.0000 0.77318  0.48969  0.39330  Biso   1.000  H
  H2349    1.0000 0.78145  0.54897  0.38579  Biso   1.000  H
  H2350    1.0000 0.81640  0.50668  0.36960  Biso   1.000  H
  H2351    1.0000 0.78149  0.54897  0.38579  Biso   1.000  H
  H2352    1.0000 0.58522  0.44157  0.39501  Biso   1.000  H
  H2353    1.0000 0.64408  0.42531  0.39831  Biso   1.000  H
  H2354    1.0000 0.60600  0.39170  0.37791  Biso   1.000  H
  H2355    1.0000 0.64408  0.42527  0.39831  Biso   1.000  H
  H2356    1.0000 0.60600  0.39166  0.37791  Biso   1.000  H
  H2357    1.0000 0.58518  0.44157  0.39501  Biso   1.000  H
  H2358    1.0000 0.56302  0.44789  0.44350  Biso   1.000  H
  H2359    1.0000 0.55957  0.39940  0.46570  Biso   1.000  H
  H2360    1.0000 0.61281  0.42898  0.46149  Biso   1.000  H
  H2361    1.0000 0.55957  0.39936  0.46570  Biso   1.000  H
  H2362    1.0000 0.56298  0.44789  0.44350  Biso   1.000  H
  H2363    1.0000 0.61278  0.42898  0.46149  Biso   1.000  H
  H2364    1.0000 0.56007  0.31768  0.40409  Biso   1.000  H
  H2365    1.0000 0.54132  0.32878  0.43820  Biso   1.000  H
  H2366    1.0000 0.52130  0.36380  0.41070  Biso   1.000  H
  H2367    1.0000 0.52130  0.36376  0.41070  Biso   1.000  H
  H2368    1.0000 0.54128  0.32878  0.43820  Biso   1.000  H
  H2369    1.0000 0.40896  0.81238  0.57050  Biso   1.000  H
  H2370    1.0000 0.45497  0.79240  0.54951  Biso   1.000  H
  H2371    1.0000 0.43606  0.85046  0.54689  Biso   1.000  H
  H2372    1.0000 0.43606  0.85050  0.54689  Biso   1.000  H
  H2373    1.0000 0.40900  0.81238  0.57050  Biso   1.000  H
  H2374    1.0000 0.45501  0.79240  0.54951  Biso   1.000  H
  H2375    1.0000 0.43610  0.85046  0.54689  Biso   1.000  H
  H2376    1.0000 0.43610  0.85050  0.54689  Biso   1.000  H
  H2377    1.0000 0.47908  0.91748  0.58111  Biso   1.000  H
  H2378    1.0000 0.49026  0.89957  0.61530  Biso   1.000  H
  H2379    1.0000 0.43338  0.89666  0.60201  Biso   1.000  H
  H2380    1.0000 0.43338  0.89670  0.60201  Biso   1.000  H
  H2381    1.0000 0.49030  0.89957  0.61530  Biso   1.000  H
  H2382    1.0000 0.49328  0.81636  0.63040  Biso   1.000  H
  H2383    1.0000 0.51028  0.77318  0.60670  Biso   1.000  H
  H2384    1.0000 0.45099  0.78145  0.61421  Biso   1.000  H
  H2385    1.0000 0.49328  0.81640  0.63040  Biso   1.000  H
  H2386    1.0000 0.45099  0.78149  0.61421  Biso   1.000  H
  H2387    1.0000 0.78830  0.10200  0.84509  Biso   1.000  H
  H2388    1.0000 0.78038  0.12060  0.81069  Biso   1.000  H
  H2389    1.0000 0.83695  0.11360  0.82410  Biso   1.000  H
  H2390    1.0000 0.78038  0.12056  0.81069  Biso   1.000  H
  H2391    1.0000 0.83695  0.11356  0.82410  Biso   1.000  H
  H2392    1.0000 0.83699  0.11360  0.82410  Biso   1.000  H
  H2393    1.0000 0.83699  0.11356  0.82410  Biso   1.000  H
  H2394    1.0000 0.82256  0.97765  0.83430  Biso   1.000  H
  H2395    1.0000 0.82256  0.97769  0.83430  Biso   1.000  H
  H2396    1.0000 0.82260  0.97765  0.83430  Biso   1.000  H
  H2397    1.0000 0.82260  0.97769  0.83430  Biso   1.000  H
  H2398    1.0000 0.86776  0.01898  0.83480  Biso   1.000  H
  H2399    1.0000 0.82076  0.02438  0.85791  Biso   1.000  H
  H2400    1.0000 0.86776  0.01902  0.83480  Biso   1.000  H
  H2401    1.0000 0.86780  0.01898  0.83480  Biso   1.000  H
  H2402    1.0000 0.82080  0.02438  0.85791  Biso   1.000  H
  H2403    1.0000 0.86780  0.01902  0.83480  Biso   1.000  H
  H2404    1.0000 0.74628  0.99177  0.81779  Biso   1.000  H
  H2405    1.0000 0.75137  0.01451  0.78410  Biso   1.000  H
  H2406    1.0000 0.72427  0.04750  0.81019  Biso   1.000  H
  H2407    1.0000 0.75137  0.01447  0.78410  Biso   1.000  H
  H2408    1.0000 0.58522  0.44157  0.60499  Biso   1.000  H
  H2409    1.0000 0.64408  0.42531  0.60169  Biso   1.000  H
  H2410    1.0000 0.60600  0.39170  0.62209  Biso   1.000  H
  H2411    1.0000 0.64408  0.42527  0.60169  Biso   1.000  H
  H2412    1.0000 0.60600  0.39166  0.62209  Biso   1.000  H
  H2413    1.0000 0.58518  0.44157  0.60499  Biso   1.000  H
  H2414    1.0000 0.56302  0.44789  0.55650  Biso   1.000  H
  H2415    1.0000 0.55957  0.39940  0.53430  Biso   1.000  H
  H2416    1.0000 0.61281  0.42898  0.53851  Biso   1.000  H
  H2417    1.0000 0.55957  0.39936  0.53430  Biso   1.000  H
  H2418    1.0000 0.56298  0.44789  0.55650  Biso   1.000  H
  H2419    1.0000 0.61278  0.42898  0.53851  Biso   1.000  H
  H2420    1.0000 0.56007  0.31768  0.59591  Biso   1.000  H
  H2421    1.0000 0.54132  0.32878  0.56180  Biso   1.000  H
  H2422    1.0000 0.52130  0.36380  0.58930  Biso   1.000  H
  H2423    1.0000 0.52130  0.36376  0.58930  Biso   1.000  H
  H2424    1.0000 0.54128  0.32878  0.56180  Biso   1.000  H
  C2641    1.0000 0.30199  0.60011  0.32441  Biso   1.000  C
  C2642    1.0000 0.30218  0.54610  0.31400  Biso   1.000  C
  H2425    1.0000 0.28828  0.60198  0.34510  Biso   1.000  H
  H2426    1.0000 0.28040  0.62058  0.31070  Biso   1.000  H
  H2427    1.0000 0.33701  0.61358  0.32409  Biso   1.000  H
  C2643    1.0000 0.33199  0.53657  0.28181  Biso   1.000  C
  C2644    1.0000 0.33088  0.51387  0.33729  Biso   1.000  C
  C2645    1.0000 0.25169  0.52298  0.30581  Biso   1.000  C
  C2646    1.0000 0.33858  0.48838  0.27070  Biso   1.000  C
  C2647    1.0000 0.35660  0.57680  0.26990  Biso   1.000  C
  H2428    1.0000 0.36778  0.51900  0.33479  Biso   1.000  H
  H2429    1.0000 0.32258  0.47771  0.33429  Biso   1.000  H
  H2430    1.0000 0.32078  0.52440  0.35790  Biso   1.000  H
  H2431    1.0000 0.24630  0.49179  0.31781  Biso   1.000  H
  H2432    1.0000 0.25139  0.51449  0.28411  Biso   1.000  H
  H2433    1.0000 0.22429  0.54748  0.31020  Biso   1.000  H
  C2648    1.0000 0.37038  0.47989  0.24440  Biso   1.000  C
  H2434    1.0000 0.32231  0.46029  0.28031  Biso   1.000  H
  C2649    1.0000 0.38990  0.57048  0.24520  Biso   1.000  C
  H2435    1.0000 0.35148  0.60979  0.27840  Biso   1.000  H
  S249     1.0000 0.37279  0.41738  0.23175  Biso   1.000  S
  C2650    1.0000 0.39400  0.52099  0.23011  Biso   1.000  C
  S250     1.0000 0.41738  0.62721  0.23175  Biso   1.000  S
  O1073    1.0000 0.33119  0.39021  0.24463  Biso   1.000  O
  O1074    1.0000 0.37471  0.41849  0.19967  Biso   1.000  O
  C2651    1.0000 0.42948  0.38990  0.24520  Biso   1.000  C
  O1075    1.0000 0.42171  0.51678  0.20502  Biso   1.000  O
  O1076    1.0000 0.41849  0.62529  0.19967  Biso   1.000  O
  O1077    1.0000 0.39021  0.66877  0.24463  Biso   1.000  O
  C2652    1.0000 0.47989  0.62958  0.24440  Biso   1.000  C
  Mg241    1.0000 0.43124  0.45554  0.17490  Biso   1.000  Mg
  C2653    1.0000 0.47901  0.39400  0.23011  Biso   1.000  C
  C2654    1.0000 0.42320  0.35660  0.26990  Biso   1.000  C
  Mg242    1.0000 0.45554  0.56872  0.17490  Biso   1.000  Mg
  C2655    1.0000 0.52099  0.60600  0.23011  Biso   1.000  C
  C2656    1.0000 0.48838  0.66138  0.27070  Biso   1.000  C
  O1078    1.0000 0.49998  0.49998  0.16151  Biso   1.000  O
  O1079    1.0000 0.43430  0.39587  0.14514  Biso   1.000  O
  O1080    1.0000 0.48318  0.42171  0.20502  Biso   1.000  O
  Mg243    1.0000 0.54442  0.43124  0.17490  Biso   1.000  Mg
  O1081    1.0000 0.37961  0.48169  0.14555  Biso   1.000  O
  C2657    1.0000 0.52008  0.37038  0.24440  Biso   1.000  C
  H2436    1.0000 0.39021  0.35148  0.27840  Biso   1.000  H
  C2658    1.0000 0.46339  0.33199  0.28181  Biso   1.000  C
  Mg244    1.0000 0.56872  0.54442  0.17490  Biso   1.000  Mg
  O1082    1.0000 0.51678  0.57829  0.20502  Biso   1.000  O
  O1083    1.0000 0.48169  0.62039  0.14555  Biso   1.000  O
  O1084    1.0000 0.39587  0.56570  0.14514  Biso   1.000  O
  C2659    1.0000 0.57048  0.61010  0.24520  Biso   1.000  C
  C2660    1.0000 0.53657  0.66801  0.28181  Biso   1.000  C
  H2437    1.0000 0.46029  0.67769  0.28031  Biso   1.000  H
  C2661    1.0000 0.47568  0.37459  0.13601  Biso   1.000  C
  O1085    1.0000 0.51828  0.37961  0.14555  Biso   1.000  O
  O1086    1.0000 0.58151  0.37471  0.19967  Biso   1.000  O
  O1087    1.0000 0.57829  0.48318  0.20502  Biso   1.000  O
  O1088    1.0000 0.60409  0.43430  0.14514  Biso   1.000  O
  C2662    1.0000 0.37459  0.52429  0.13601  Biso   1.000  C
  S251     1.0000 0.58262  0.37279  0.23175  Biso   1.000  S
  C2663    1.0000 0.51158  0.33858  0.27070  Biso   1.000  C
  C2664    1.0000 0.45390  0.30218  0.31400  Biso   1.000  C
  O1089    1.0000 0.62529  0.58151  0.19967  Biso   1.000  O
  O1090    1.0000 0.56570  0.60409  0.14514  Biso   1.000  O
  O1091    1.0000 0.62039  0.51828  0.14555  Biso   1.000  O
  C2665    1.0000 0.52429  0.62541  0.13601  Biso   1.000  C
  S252     1.0000 0.62721  0.58262  0.23175  Biso   1.000  S
  C2666    1.0000 0.57680  0.64340  0.26990  Biso   1.000  C
  C2667    1.0000 0.54610  0.69778  0.31400  Biso   1.000  C
  C2668    1.0000 0.46530  0.33907  0.10805  Biso   1.000  C
  C2669    1.0000 0.60600  0.47901  0.23011  Biso   1.000  C
  C2670    1.0000 0.62541  0.47568  0.13601  Biso   1.000  C
  C2671    1.0000 0.33907  0.53470  0.10805  Biso   1.000  C
  O1092    1.0000 0.60979  0.33119  0.24463  Biso   1.000  O
  C2672    1.0000 0.61010  0.42948  0.24520  Biso   1.000  C
  H2438    1.0000 0.53967  0.32231  0.28031  Biso   1.000  H
  C2673    1.0000 0.39989  0.30199  0.32441  Biso   1.000  C
  C2674    1.0000 0.48609  0.33088  0.33729  Biso   1.000  C
  C2675    1.0000 0.47698  0.25169  0.30581  Biso   1.000  C
  C2676    1.0000 0.53470  0.66089  0.10805  Biso   1.000  C
  C2677    1.0000 0.62958  0.52008  0.24440  Biso   1.000  C
  O1093    1.0000 0.66877  0.60979  0.24463  Biso   1.000  O
  H2439    1.0000 0.60979  0.64849  0.27840  Biso   1.000  H
  C2678    1.0000 0.60011  0.69798  0.32441  Biso   1.000  C
  C2679    1.0000 0.51387  0.66908  0.33729  Biso   1.000  C
  C2680    1.0000 0.52298  0.74827  0.30581  Biso   1.000  C
  C2681    1.0000 0.41719  0.33391  0.09480  Biso   1.000  C
  C2682    1.0000 0.50737  0.31481  0.09521  Biso   1.000  C
  C2683    1.0000 0.66089  0.46530  0.10805  Biso   1.000  C
  C2684    1.0000 0.33391  0.58281  0.09480  Biso   1.000  C
  C2685    1.0000 0.31481  0.49259  0.09521  Biso   1.000  C
  C2686    1.0000 0.64340  0.42320  0.26990  Biso   1.000  C
  H2440    1.0000 0.39798  0.28828  0.34510  Biso   1.000  H
  H2441    1.0000 0.37938  0.28040  0.31070  Biso   1.000  H
  H2442    1.0000 0.38638  0.33701  0.32409  Biso   1.000  H
  H2443    1.0000 0.48100  0.36778  0.33479  Biso   1.000  H
  H2444    1.0000 0.52229  0.32258  0.33429  Biso   1.000  H
  H2445    1.0000 0.47560  0.32078  0.35790  Biso   1.000  H
  H2446    1.0000 0.50817  0.24630  0.31781  Biso   1.000  H
  H2447    1.0000 0.48547  0.25139  0.28411  Biso   1.000  H
  H2448    1.0000 0.45248  0.22429  0.31020  Biso   1.000  H
  C2687    1.0000 0.58281  0.66609  0.09480  Biso   1.000  C
  C2688    1.0000 0.49259  0.68519  0.09521  Biso   1.000  C
  C2689    1.0000 0.66138  0.51158  0.27070  Biso   1.000  C
  H2449    1.0000 0.60198  0.71168  0.34510  Biso   1.000  H
  H2450    1.0000 0.62058  0.71960  0.31070  Biso   1.000  H
  H2451    1.0000 0.61358  0.66299  0.32409  Biso   1.000  H
  H2452    1.0000 0.51900  0.63218  0.33479  Biso   1.000  H
  H2453    1.0000 0.47771  0.67738  0.33429  Biso   1.000  H
  H2454    1.0000 0.52440  0.67918  0.35790  Biso   1.000  H
  H2455    1.0000 0.49179  0.75370  0.31781  Biso   1.000  H
  H2456    1.0000 0.51449  0.74857  0.28411  Biso   1.000  H
  H2457    1.0000 0.54748  0.77567  0.31020  Biso   1.000  H
  C2690    1.0000 0.41130  0.30440  0.06871  Biso   1.000  C
  H2458    1.0000 0.38841  0.35048  0.10359  Biso   1.000  H
  H2459    1.0000 0.54021  0.31841  0.10430  Biso   1.000  H
  C2691    1.0000 0.50147  0.28530  0.06912  Biso   1.000  C
  C2692    1.0000 0.66609  0.41719  0.09480  Biso   1.000  C
  C2693    1.0000 0.68519  0.50737  0.09521  Biso   1.000  C
  C2694    1.0000 0.30440  0.58866  0.06871  Biso   1.000  C
  H2460    1.0000 0.35048  0.61159  0.10359  Biso   1.000  H
  H2461    1.0000 0.31841  0.45979  0.10430  Biso   1.000  H
  C2695    1.0000 0.28530  0.49849  0.06912  Biso   1.000  C
  H2462    1.0000 0.64849  0.39021  0.27840  Biso   1.000  H
  C2696    1.0000 0.66801  0.46339  0.28181  Biso   1.000  C
  C2697    1.0000 0.58866  0.69560  0.06871  Biso   1.000  C
  H2463    1.0000 0.61159  0.64948  0.10359  Biso   1.000  H
  H2464    1.0000 0.45979  0.68159  0.10430  Biso   1.000  H
  C2698    1.0000 0.49849  0.71470  0.06912  Biso   1.000  C
  H2465    1.0000 0.67769  0.53967  0.28031  Biso   1.000  H
  C2699    1.0000 0.45340  0.28009  0.05587  Biso   1.000  C
  C2700    1.0000 0.35990  0.30049  0.05471  Biso   1.000  C
  C2701    1.0000 0.54798  0.26199  0.05501  Biso   1.000  C
  C2702    1.0000 0.69560  0.41130  0.06871  Biso   1.000  C
  H2466    1.0000 0.64948  0.38841  0.10359  Biso   1.000  H
  H2467    1.0000 0.68159  0.54021  0.10430  Biso   1.000  H
  C2703    1.0000 0.71470  0.50147  0.06912  Biso   1.000  C
  C2704    1.0000 0.28009  0.54660  0.05587  Biso   1.000  C
  C2705    1.0000 0.30049  0.64010  0.05471  Biso   1.000  C
  C2706    1.0000 0.26199  0.45198  0.05501  Biso   1.000  C
  C2707    1.0000 0.69778  0.45390  0.31400  Biso   1.000  C
  C2708    1.0000 0.54660  0.71987  0.05587  Biso   1.000  C
  C2709    1.0000 0.64010  0.69947  0.05471  Biso   1.000  C
  C2710    1.0000 0.45198  0.73797  0.05501  Biso   1.000  C
  H2468    1.0000 0.44938  0.25988  0.03800  Biso   1.000  H
  O1094    1.0000 0.32269  0.32568  0.06673  Biso   1.000  O
  O1095    1.0000 0.35588  0.27439  0.02955  Biso   1.000  O
  O1096    1.0000 0.54009  0.23711  0.03067  Biso   1.000  O
  O1097    1.0000 0.58989  0.26880  0.06657  Biso   1.000  O
  C2711    1.0000 0.71987  0.45340  0.05587  Biso   1.000  C
  C2712    1.0000 0.69947  0.35990  0.05471  Biso   1.000  C
  C2713    1.0000 0.73797  0.54798  0.05501  Biso   1.000  C
  H2469    1.0000 0.25988  0.55058  0.03800  Biso   1.000  H
  O1098    1.0000 0.32568  0.67727  0.06673  Biso   1.000  O
  O1099    1.0000 0.27439  0.64408  0.02955  Biso   1.000  O
  O1100    1.0000 0.23711  0.45991  0.03067  Biso   1.000  O
  O1101    1.0000 0.26880  0.41007  0.06657  Biso   1.000  O
  C2714    1.0000 0.69798  0.39989  0.32441  Biso   1.000  C
  C2715    1.0000 0.66908  0.48609  0.33729  Biso   1.000  C
  C2716    1.0000 0.74827  0.47698  0.30581  Biso   1.000  C
  H2470    1.0000 0.55058  0.74008  0.03800  Biso   1.000  H
  O1102    1.0000 0.67727  0.67428  0.06673  Biso   1.000  O
  O1103    1.0000 0.64408  0.72557  0.02955  Biso   1.000  O
  O1104    1.0000 0.45991  0.76289  0.03067  Biso   1.000  O
  O1105    1.0000 0.41007  0.73120  0.06657  Biso   1.000  O
  Mg245    1.0000 0.25460  0.34015  0.04868  Biso   1.000  Mg
  Mg246    1.0000 0.29885  0.27144  0.00000  Biso   1.000  Mg
  Mg247    1.0000 0.59115  0.20974  0.00000  Biso   1.000  Mg
  Mg248    1.0000 0.65985  0.25460  0.04868  Biso   1.000  Mg
  H2471    1.0000 0.74008  0.44938  0.03800  Biso   1.000  H
  O1106    1.0000 0.67428  0.32269  0.06673  Biso   1.000  O
  O1107    1.0000 0.72557  0.35588  0.02955  Biso   1.000  O
  O1108    1.0000 0.76289  0.54009  0.03067  Biso   1.000  O
  O1109    1.0000 0.73120  0.58989  0.06657  Biso   1.000  O
  Mg249    1.0000 0.34015  0.74536  0.04868  Biso   1.000  Mg
  Mg250    1.0000 0.27144  0.70111  0.00000  Biso   1.000  Mg
  Mg251    1.0000 0.20974  0.40885  0.00000  Biso   1.000  Mg
  H2472    1.0000 0.71168  0.39798  0.34510  Biso   1.000  H
  H2473    1.0000 0.71960  0.37938  0.31070  Biso   1.000  H
  H2474    1.0000 0.66299  0.38638  0.32409  Biso   1.000  H
  H2475    1.0000 0.63218  0.48100  0.33479  Biso   1.000  H
  H2476    1.0000 0.67738  0.52229  0.33429  Biso   1.000  H
  H2477    1.0000 0.67918  0.47560  0.35790  Biso   1.000  H
  H2478    1.0000 0.75370  0.50817  0.31781  Biso   1.000  H
  H2479    1.0000 0.74857  0.48547  0.28411  Biso   1.000  H
  H2480    1.0000 0.77567  0.45248  0.31020  Biso   1.000  H
  Mg252    1.0000 0.74536  0.65985  0.04868  Biso   1.000  Mg
  Mg253    1.0000 0.70111  0.72852  0.00000  Biso   1.000  Mg
  Mg254    1.0000 0.40885  0.79022  0.00000  Biso   1.000  Mg
  O1110    1.0000 0.27301  0.35121  0.00000  Biso   1.000  O
  O1111    1.0000 0.18219  0.36120  0.03395  Biso   1.000  O
  O1112    1.0000 0.22100  0.31898  0.08902  Biso   1.000  O
  O1113    1.0000 0.24209  0.26540  0.03381  Biso   1.000  O
  O1114    1.0000 0.30061  0.19390  0.00000  Biso   1.000  O
  O1115    1.0000 0.24209  0.26540  0.96619  Biso   1.000  O
  Mg255    1.0000 0.25460  0.34015  0.95132  Biso   1.000  Mg
  O1116    1.0000 0.35588  0.27439  0.97045  Biso   1.000  O
  O1117    1.0000 0.64879  0.27301  0.00000  Biso   1.000  O
  O1118    1.0000 0.55697  0.14100  0.00000  Biso   1.000  O
  O1119    1.0000 0.63880  0.18219  0.03395  Biso   1.000  O
  O1120    1.0000 0.63880  0.18219  0.96605  Biso   1.000  O
  O1121    1.0000 0.54009  0.23711  0.96933  Biso   1.000  O
  Mg256    1.0000 0.65985  0.25460  0.95132  Biso   1.000  Mg
  Mg257    1.0000 0.72852  0.29885  0.00000  Biso   1.000  Mg
  O1122    1.0000 0.68098  0.22100  0.08902  Biso   1.000  O
  O1123    1.0000 0.73460  0.24209  0.03381  Biso   1.000  O
  Mg258    1.0000 0.79022  0.59115  0.00000  Biso   1.000  Mg
  O1124    1.0000 0.35121  0.72699  0.00000  Biso   1.000  O
  O1125    1.0000 0.36120  0.81777  0.03395  Biso   1.000  O
  O1126    1.0000 0.31898  0.77900  0.08902  Biso   1.000  O
  O1127    1.0000 0.26540  0.75787  0.03381  Biso   1.000  O
  O1128    1.0000 0.19390  0.69939  0.00000  Biso   1.000  O
  O1129    1.0000 0.26540  0.75787  0.96619  Biso   1.000  O
  Mg259    1.0000 0.34015  0.74536  0.95132  Biso   1.000  Mg
  O1130    1.0000 0.27439  0.64408  0.97045  Biso   1.000  O
  O1131    1.0000 0.14100  0.44299  0.00000  Biso   1.000  O
  O1132    1.0000 0.18219  0.36120  0.96605  Biso   1.000  O
  O1133    1.0000 0.23711  0.45991  0.96933  Biso   1.000  O
  O1134    1.0000 0.72699  0.64879  0.00000  Biso   1.000  O
  O1135    1.0000 0.81777  0.63880  0.03395  Biso   1.000  O
  O1136    1.0000 0.77900  0.68098  0.08902  Biso   1.000  O
  O1137    1.0000 0.75787  0.73460  0.03381  Biso   1.000  O
  Mg260    1.0000 0.74536  0.65985  0.95132  Biso   1.000  Mg
  O1138    1.0000 0.69939  0.80610  0.00000  Biso   1.000  O
  O1139    1.0000 0.75787  0.73460  0.96619  Biso   1.000  O
  O1140    1.0000 0.64408  0.72557  0.97045  Biso   1.000  O
  O1141    1.0000 0.44299  0.85900  0.00000  Biso   1.000  O
  O1142    1.0000 0.36120  0.81777  0.96605  Biso   1.000  O
  O1143    1.0000 0.45991  0.76289  0.96933  Biso   1.000  O
  C2717    1.0000 0.13630  0.35469  0.04481  Biso   1.000  C
  S253     1.0000 0.17365  0.28951  0.09000  Biso   1.000  S
  C2718    1.0000 0.21640  0.22770  0.04469  Biso   1.000  C
  S254     1.0000 0.25479  0.16133  0.00000  Biso   1.000  S
  C2719    1.0000 0.21640  0.22770  0.95531  Biso   1.000  C
  O1144    1.0000 0.22100  0.31898  0.91098  Biso   1.000  O
  O1145    1.0000 0.32269  0.32568  0.93327  Biso   1.000  O
  O1146    1.0000 0.26880  0.41007  0.93343  Biso   1.000  O
  C2720    1.0000 0.35990  0.30049  0.94529  Biso   1.000  C
  S255     1.0000 0.58350  0.09259  0.00000  Biso   1.000  S
  C2721    1.0000 0.64527  0.13630  0.04481  Biso   1.000  C
  C2722    1.0000 0.64527  0.13630  0.95519  Biso   1.000  C
  C2723    1.0000 0.54798  0.26199  0.94499  Biso   1.000  C
  O1147    1.0000 0.68098  0.22100  0.91098  Biso   1.000  O
  O1148    1.0000 0.73460  0.24209  0.96619  Biso   1.000  O
  O1149    1.0000 0.58989  0.26880  0.93343  Biso   1.000  O
  O1150    1.0000 0.67428  0.32269  0.93327  Biso   1.000  O
  O1151    1.0000 0.80610  0.30061  0.00000  Biso   1.000  O
  O1152    1.0000 0.72557  0.35588  0.97045  Biso   1.000  O
  S256     1.0000 0.71049  0.17365  0.09000  Biso   1.000  S
  C2724    1.0000 0.77227  0.21640  0.04469  Biso   1.000  C
  O1153    1.0000 0.85900  0.55697  0.00000  Biso   1.000  O
  O1154    1.0000 0.81777  0.63880  0.96605  Biso   1.000  O
  O1155    1.0000 0.76289  0.54009  0.96933  Biso   1.000  O
  C2725    1.0000 0.35469  0.86367  0.04481  Biso   1.000  C
  S257     1.0000 0.28951  0.82635  0.09000  Biso   1.000  S
  C2726    1.0000 0.22770  0.78360  0.04469  Biso   1.000  C
  S258     1.0000 0.16133  0.74517  0.00000  Biso   1.000  S
  C2727    1.0000 0.22770  0.78360  0.95531  Biso   1.000  C
  O1156    1.0000 0.31898  0.77900  0.91098  Biso   1.000  O
  O1157    1.0000 0.41007  0.73120  0.93343  Biso   1.000  O
  O1158    1.0000 0.32568  0.67727  0.93327  Biso   1.000  O
  C2728    1.0000 0.30049  0.64010  0.94529  Biso   1.000  C
  S259     1.0000 0.09259  0.41650  0.00000  Biso   1.000  S
  C2729    1.0000 0.13630  0.35469  0.95519  Biso   1.000  C
  C2730    1.0000 0.26199  0.45198  0.94499  Biso   1.000  C
  C2731    1.0000 0.86367  0.64527  0.04481  Biso   1.000  C
  S260     1.0000 0.82635  0.71049  0.09000  Biso   1.000  S
  C2732    1.0000 0.78360  0.77227  0.04469  Biso   1.000  C
  O1159    1.0000 0.77900  0.68098  0.91098  Biso   1.000  O
  O1160    1.0000 0.67727  0.67428  0.93327  Biso   1.000  O
  O1161    1.0000 0.73120  0.58989  0.93343  Biso   1.000  O
  S261     1.0000 0.74517  0.83867  0.00000  Biso   1.000  S
  C2733    1.0000 0.78360  0.77227  0.95531  Biso   1.000  C
  C2734    1.0000 0.64010  0.69947  0.94529  Biso   1.000  C
  S262     1.0000 0.41650  0.90738  0.00000  Biso   1.000  S
  C2735    1.0000 0.35469  0.86367  0.95519  Biso   1.000  C
  C2736    1.0000 0.45198  0.73797  0.94499  Biso   1.000  C
  C2737    1.0000 0.08910  0.37628  0.03160  Biso   1.000  C
  C2738    1.0000 0.12500  0.32189  0.07081  Biso   1.000  C
  O1162    1.0000 0.15451  0.27550  0.11976  Biso   1.000  O
  C2739    1.0000 0.18299  0.23141  0.06901  Biso   1.000  C
  C2740    1.0000 0.21839  0.17851  0.03249  Biso   1.000  C
  O1163    1.0000 0.26249  0.10778  0.00000  Biso   1.000  O
  C2741    1.0000 0.21839  0.17851  0.96751  Biso   1.000  C
  C2742    1.0000 0.18299  0.23141  0.93099  Biso   1.000  C
  S263     1.0000 0.17365  0.28951  0.91000  Biso   1.000  S
  C2743    1.0000 0.41130  0.30440  0.93129  Biso   1.000  C
  O1164    1.0000 0.55261  0.04780  0.00000  Biso   1.000  O
  C2744    1.0000 0.62368  0.08910  0.03160  Biso   1.000  C
  C2745    1.0000 0.62368  0.08910  0.96840  Biso   1.000  C
  C2746    1.0000 0.67807  0.12500  0.07081  Biso   1.000  C
  C2747    1.0000 0.67807  0.12500  0.92919  Biso   1.000  C
  C2748    1.0000 0.50147  0.28530  0.93088  Biso   1.000  C
  S264     1.0000 0.71049  0.17365  0.91000  Biso   1.000  S
  C2749    1.0000 0.77227  0.21640  0.95531  Biso   1.000  C
  C2750    1.0000 0.69947  0.35990  0.94529  Biso   1.000  C
  S265     1.0000 0.83867  0.25479  0.00000  Biso   1.000  S
  O1165    1.0000 0.72450  0.15451  0.11976  Biso   1.000  O
  C2751    1.0000 0.76859  0.18299  0.06901  Biso   1.000  C
  C2752    1.0000 0.82149  0.21839  0.03249  Biso   1.000  C
  S266     1.0000 0.90738  0.58350  0.00000  Biso   1.000  S
  C2753    1.0000 0.86367  0.64527  0.95519  Biso   1.000  C
  C2754    1.0000 0.73797  0.54798  0.94499  Biso   1.000  C
  C2755    1.0000 0.37628  0.91090  0.03160  Biso   1.000  C
  C2756    1.0000 0.32189  0.87500  0.07081  Biso   1.000  C
  O1166    1.0000 0.27550  0.84549  0.11976  Biso   1.000  O
  C2757    1.0000 0.23141  0.81697  0.06901  Biso   1.000  C
  C2758    1.0000 0.17851  0.78157  0.03249  Biso   1.000  C
  O1167    1.0000 0.10778  0.73747  0.00000  Biso   1.000  O
  C2759    1.0000 0.17851  0.78157  0.96751  Biso   1.000  C
  C2760    1.0000 0.23141  0.81697  0.93099  Biso   1.000  C
  S267     1.0000 0.28951  0.82635  0.91000  Biso   1.000  S
  C2761    1.0000 0.30440  0.58866  0.93129  Biso   1.000  C
  O1168    1.0000 0.04780  0.44739  0.00000  Biso   1.000  O
  C2762    1.0000 0.08910  0.37628  0.96840  Biso   1.000  C
  C2763    1.0000 0.12500  0.32189  0.92919  Biso   1.000  C
  C2764    1.0000 0.28530  0.49849  0.93088  Biso   1.000  C
  C2765    1.0000 0.91090  0.62368  0.03160  Biso   1.000  C
  C2766    1.0000 0.87500  0.67807  0.07081  Biso   1.000  C
  O1169    1.0000 0.84549  0.72450  0.11976  Biso   1.000  O
  C2767    1.0000 0.81697  0.76859  0.06901  Biso   1.000  C
  C2768    1.0000 0.78157  0.82149  0.03249  Biso   1.000  C
  S268     1.0000 0.82635  0.71049  0.91000  Biso   1.000  S
  O1170    1.0000 0.73747  0.89218  0.00000  Biso   1.000  O
  C2769    1.0000 0.78157  0.82149  0.96751  Biso   1.000  C
  C2770    1.0000 0.81697  0.76859  0.93099  Biso   1.000  C
  C2771    1.0000 0.58866  0.69560  0.93129  Biso   1.000  C
  O1171    1.0000 0.44739  0.95220  0.00000  Biso   1.000  O
  C2772    1.0000 0.37628  0.91090  0.96840  Biso   1.000  C
  C2773    1.0000 0.32189  0.87500  0.92919  Biso   1.000  C
  C2774    1.0000 0.49849  0.71470  0.93088  Biso   1.000  C
  C2775    1.0000 0.04191  0.37057  0.04451  Biso   1.000  C
  C2776    1.0000 0.07751  0.31871  0.08269  Biso   1.000  C
  C2777    1.0000 0.15379  0.19118  0.08110  Biso   1.000  C
  C2778    1.0000 0.18808  0.13729  0.04430  Biso   1.000  C
  C2779    1.0000 0.18808  0.13729  0.95570  Biso   1.000  C
  C2780    1.0000 0.15379  0.19118  0.91890  Biso   1.000  C
  O1172    1.0000 0.15451  0.27550  0.88024  Biso   1.000  O
  C2781    1.0000 0.41719  0.33391  0.90520  Biso   1.000  C
  C2782    1.0000 0.45340  0.28009  0.94413  Biso   1.000  C
  C2783    1.0000 0.62939  0.04191  0.04451  Biso   1.000  C
  C2784    1.0000 0.62939  0.04191  0.95549  Biso   1.000  C
  C2785    1.0000 0.68129  0.07751  0.08269  Biso   1.000  C
  C2786    1.0000 0.68129  0.07751  0.91731  Biso   1.000  C
  C2787    1.0000 0.50737  0.31481  0.90479  Biso   1.000  C
  O1173    1.0000 0.72450  0.15451  0.88024  Biso   1.000  O
  C2788    1.0000 0.76859  0.18299  0.93099  Biso   1.000  C
  C2789    1.0000 0.82149  0.21839  0.96751  Biso   1.000  C
  C2790    1.0000 0.69560  0.41130  0.93129  Biso   1.000  C
  O1174    1.0000 0.89218  0.26249  0.00000  Biso   1.000  O
  C2791    1.0000 0.80878  0.15379  0.08110  Biso   1.000  C
  C2792    1.0000 0.86267  0.18808  0.04430  Biso   1.000  C
  O1175    1.0000 0.95220  0.55261  0.00000  Biso   1.000  O
  C2793    1.0000 0.91090  0.62368  0.96840  Biso   1.000  C
  C2794    1.0000 0.87500  0.67807  0.92919  Biso   1.000  C
  C2795    1.0000 0.71470  0.50147  0.93088  Biso   1.000  C
  C2796    1.0000 0.37057  0.95809  0.04451  Biso   1.000  C
  C2797    1.0000 0.31871  0.92249  0.08269  Biso   1.000  C
  C2798    1.0000 0.19118  0.84617  0.08110  Biso   1.000  C
  C2799    1.0000 0.13729  0.81188  0.04430  Biso   1.000  C
  C2800    1.0000 0.13729  0.81188  0.95570  Biso   1.000  C
  C2801    1.0000 0.19118  0.84617  0.91890  Biso   1.000  C
  O1176    1.0000 0.27550  0.84549  0.88024  Biso   1.000  O
  C2802    1.0000 0.33391  0.58281  0.90520  Biso   1.000  C
  C2803    1.0000 0.28009  0.54660  0.94413  Biso   1.000  C
  C2804    1.0000 0.04191  0.37057  0.95549  Biso   1.000  C
  C2805    1.0000 0.07751  0.31871  0.91731  Biso   1.000  C
  C2806    1.0000 0.31481  0.49259  0.90479  Biso   1.000  C
  C2807    1.0000 0.95809  0.62939  0.04451  Biso   1.000  C
  C2808    1.0000 0.92249  0.68129  0.08269  Biso   1.000  C
  C2809    1.0000 0.84617  0.80878  0.08110  Biso   1.000  C
  C2810    1.0000 0.81188  0.86267  0.04430  Biso   1.000  C
  O1177    1.0000 0.84549  0.72450  0.88024  Biso   1.000  O
  C2811    1.0000 0.81188  0.86267  0.95570  Biso   1.000  C
  C2812    1.0000 0.84617  0.80878  0.91890  Biso   1.000  C
  C2813    1.0000 0.58281  0.66609  0.90520  Biso   1.000  C
  C2814    1.0000 0.54660  0.71987  0.94413  Biso   1.000  C
  C2815    1.0000 0.37057  0.95809  0.95549  Biso   1.000  C
  C2816    1.0000 0.31871  0.92249  0.91731  Biso   1.000  C
  C2817    1.0000 0.49259  0.68519  0.90479  Biso   1.000  C
  H2481    1.0000 0.01359  0.38768  0.03549  Biso   1.000  H
  C2818    1.0000 0.03368  0.34099  0.07010  Biso   1.000  C
  H2482    1.0000 0.07360  0.29988  0.10099  Biso   1.000  H
  H2483    1.0000 0.13339  0.19650  0.09881  Biso   1.000  H
  C2819    1.0000 0.15501  0.14188  0.06671  Biso   1.000  C
  H2484    1.0000 0.19229  0.10441  0.03540  Biso   1.000  H
  C2820    1.0000 0.15501  0.14188  0.93329  Biso   1.000  C
  H2485    1.0000 0.19229  0.10441  0.96460  Biso   1.000  H
  H2486    1.0000 0.13339  0.19650  0.90119  Biso   1.000  H
  H2487    1.0000 0.38841  0.35048  0.89641  Biso   1.000  H
  C2821    1.0000 0.46530  0.33907  0.89195  Biso   1.000  C
  H2488    1.0000 0.44938  0.25988  0.96200  Biso   1.000  H
  H2489    1.0000 0.61228  0.01359  0.03549  Biso   1.000  H
  C2822    1.0000 0.65897  0.03368  0.07010  Biso   1.000  C
  H2490    1.0000 0.61228  0.01359  0.96451  Biso   1.000  H
  C2823    1.0000 0.65897  0.03368  0.92990  Biso   1.000  C
  H2491    1.0000 0.70008  0.07360  0.10099  Biso   1.000  H
  H2492    1.0000 0.70008  0.07360  0.89901  Biso   1.000  H
  H2493    1.0000 0.54021  0.31841  0.89570  Biso   1.000  H
  C2824    1.0000 0.80878  0.15379  0.91890  Biso   1.000  C
  C2825    1.0000 0.86267  0.18808  0.95570  Biso   1.000  C
  C2826    1.0000 0.66609  0.41719  0.90520  Biso   1.000  C
  C2827    1.0000 0.71987  0.45340  0.94413  Biso   1.000  C
  H2494    1.0000 0.80350  0.13339  0.09881  Biso   1.000  H
  C2828    1.0000 0.85808  0.15501  0.06671  Biso   1.000  C
  H2495    1.0000 0.89559  0.19229  0.03540  Biso   1.000  H
  C2829    1.0000 0.95809  0.62939  0.95549  Biso   1.000  C
  C2830    1.0000 0.92249  0.68129  0.91731  Biso   1.000  C
  C2831    1.0000 0.68519  0.50737  0.90479  Biso   1.000  C
  H2496    1.0000 0.38768  0.98637  0.03549  Biso   1.000  H
  C2832    1.0000 0.34099  0.96628  0.07010  Biso   1.000  C
  H2497    1.0000 0.29988  0.92640  0.10099  Biso   1.000  H
  H2498    1.0000 0.19650  0.86657  0.09881  Biso   1.000  H
  C2833    1.0000 0.14188  0.84499  0.06671  Biso   1.000  C
  H2499    1.0000 0.10441  0.80767  0.03540  Biso   1.000  H
  C2834    1.0000 0.14188  0.84499  0.93329  Biso   1.000  C
  H2500    1.0000 0.10441  0.80767  0.96460  Biso   1.000  H
  H2501    1.0000 0.19650  0.86657  0.90119  Biso   1.000  H
  H2502    1.0000 0.35048  0.61159  0.89641  Biso   1.000  H
  C2835    1.0000 0.33907  0.53470  0.89195  Biso   1.000  C
  H2503    1.0000 0.25988  0.55058  0.96200  Biso   1.000  H
  H2504    1.0000 0.01359  0.38768  0.96451  Biso   1.000  H
  C2836    1.0000 0.03368  0.34099  0.92990  Biso   1.000  C
  H2505    1.0000 0.07360  0.29988  0.89901  Biso   1.000  H
  H2506    1.0000 0.31841  0.45979  0.89570  Biso   1.000  H
  H2507    1.0000 0.98637  0.61228  0.03549  Biso   1.000  H
  C2837    1.0000 0.96628  0.65897  0.07010  Biso   1.000  C
  H2508    1.0000 0.92640  0.70008  0.10099  Biso   1.000  H
  H2509    1.0000 0.86657  0.80350  0.09881  Biso   1.000  H
  C2838    1.0000 0.84499  0.85808  0.06671  Biso   1.000  C
  H2510    1.0000 0.80767  0.89559  0.03540  Biso   1.000  H
  C2839    1.0000 0.84499  0.85808  0.93329  Biso   1.000  C
  H2511    1.0000 0.80767  0.89559  0.96460  Biso   1.000  H
  H2512    1.0000 0.86657  0.80350  0.90119  Biso   1.000  H
  H2513    1.0000 0.61159  0.64948  0.89641  Biso   1.000  H
  C2840    1.0000 0.53470  0.66089  0.89195  Biso   1.000  C
  H2514    1.0000 0.55058  0.74008  0.96200  Biso   1.000  H
  H2515    1.0000 0.38768  0.98637  0.96451  Biso   1.000  H
  C2841    1.0000 0.34099  0.96628  0.92990  Biso   1.000  C
  H2516    1.0000 0.29988  0.92640  0.89901  Biso   1.000  H
  H2517    1.0000 0.45979  0.68159  0.89570  Biso   1.000  H
  C2842    1.0000 0.98021  0.33751  0.08560  Biso   1.000  C
  C2843    1.0000 0.11911  0.09599  0.07661  Biso   1.000  C
  C2844    1.0000 0.11911  0.09599  0.92339  Biso   1.000  C
  C2845    1.0000 0.47568  0.37459  0.86399  Biso   1.000  C
  C2846    1.0000 0.66249  0.98021  0.08560  Biso   1.000  C
  C2847    1.0000 0.66249  0.98021  0.91440  Biso   1.000  C
  H2518    1.0000 0.80350  0.13339  0.90119  Biso   1.000  H
  C2848    1.0000 0.85808  0.15501  0.93329  Biso   1.000  C
  H2519    1.0000 0.89559  0.19229  0.96460  Biso   1.000  H
  H2520    1.0000 0.64948  0.38841  0.89641  Biso   1.000  H
  C2849    1.0000 0.66089  0.46530  0.89195  Biso   1.000  C
  H2521    1.0000 0.74008  0.44938  0.96200  Biso   1.000  H
  C2850    1.0000 0.90397  0.11911  0.07661  Biso   1.000  C
  H2522    1.0000 0.98637  0.61228  0.96451  Biso   1.000  H
  C2851    1.0000 0.96628  0.65897  0.92990  Biso   1.000  C
  H2523    1.0000 0.92640  0.70008  0.89901  Biso   1.000  H
  H2524    1.0000 0.68159  0.54021  0.89570  Biso   1.000  H
  C2852    1.0000 0.33751  0.01979  0.08560  Biso   1.000  C
  C2853    1.0000 0.09599  0.88089  0.07661  Biso   1.000  C
  C2854    1.0000 0.09599  0.88089  0.92339  Biso   1.000  C
  C2855    1.0000 0.37459  0.52429  0.86399  Biso   1.000  C
  C2856    1.0000 0.98021  0.33751  0.91440  Biso   1.000  C
  C2857    1.0000 0.01979  0.66249  0.08560  Biso   1.000  C
  C2858    1.0000 0.88089  0.90397  0.07661  Biso   1.000  C
  C2859    1.0000 0.88089  0.90397  0.92339  Biso   1.000  C
  C2860    1.0000 0.52429  0.62541  0.86399  Biso   1.000  C
  C2861    1.0000 0.33751  0.01979  0.91440  Biso   1.000  C
  C2862    1.0000 0.94155  0.32181  0.06090  Biso   1.000  C
  C2863    1.0000 0.96976  0.39300  0.09701  Biso   1.000  C
  C2864    1.0000 0.98396  0.29869  0.11160  Biso   1.000  C
  C2865    1.0000 0.08738  0.10889  0.10370  Biso   1.000  C
  C2866    1.0000 0.08210  0.08141  0.04879  Biso   1.000  C
  C2867    1.0000 0.15551  0.05048  0.08130  Biso   1.000  C
  C2868    1.0000 0.08738  0.10889  0.89630  Biso   1.000  C
  C2869    1.0000 0.08210  0.08141  0.95121  Biso   1.000  C
  C2870    1.0000 0.15551  0.05048  0.91870  Biso   1.000  C
  O1178    1.0000 0.43430  0.39587  0.85486  Biso   1.000  O
  O1179    1.0000 0.51828  0.37961  0.85445  Biso   1.000  O
  C2871    1.0000 0.67819  0.94155  0.06090  Biso   1.000  C
  C2872    1.0000 0.60700  0.96976  0.09701  Biso   1.000  C
  C2873    1.0000 0.70131  0.98396  0.11160  Biso   1.000  C
  C2874    1.0000 0.67819  0.94155  0.93910  Biso   1.000  C
  C2875    1.0000 0.60700  0.96976  0.90299  Biso   1.000  C
  C2876    1.0000 0.70131  0.98396  0.88840  Biso   1.000  C
  C2877    1.0000 0.90397  0.11911  0.92339  Biso   1.000  C
  C2878    1.0000 0.62541  0.47568  0.86399  Biso   1.000  C
  C2879    1.0000 0.89107  0.08738  0.10370  Biso   1.000  C
  C2880    1.0000 0.91859  0.08210  0.04879  Biso   1.000  C
  C2881    1.0000 0.94948  0.15551  0.08130  Biso   1.000  C
  C2882    1.0000 0.01979  0.66249  0.91440  Biso   1.000  C
  C2883    1.0000 0.32181  0.05841  0.06090  Biso   1.000  C
  C2884    1.0000 0.39300  0.03020  0.09701  Biso   1.000  C
  C2885    1.0000 0.29869  0.01600  0.11160  Biso   1.000  C
  C2886    1.0000 0.10889  0.91258  0.10370  Biso   1.000  C
  C2887    1.0000 0.08141  0.91790  0.04879  Biso   1.000  C
  C2888    1.0000 0.05048  0.84449  0.08130  Biso   1.000  C
  C2889    1.0000 0.10889  0.91258  0.89630  Biso   1.000  C
  C2890    1.0000 0.08141  0.91790  0.95121  Biso   1.000  C
  C2891    1.0000 0.05048  0.84449  0.91870  Biso   1.000  C
  O1180    1.0000 0.39587  0.56570  0.85486  Biso   1.000  O
  O1181    1.0000 0.37961  0.48169  0.85445  Biso   1.000  O
  C2892    1.0000 0.94155  0.32181  0.93910  Biso   1.000  C
  C2893    1.0000 0.96976  0.39300  0.90299  Biso   1.000  C
  C2894    1.0000 0.98396  0.29869  0.88840  Biso   1.000  C
  C2895    1.0000 0.05841  0.67819  0.06090  Biso   1.000  C
  C2896    1.0000 0.03020  0.60700  0.09701  Biso   1.000  C
  C2897    1.0000 0.01600  0.70131  0.11160  Biso   1.000  C
  C2898    1.0000 0.91258  0.89107  0.10370  Biso   1.000  C
  C2899    1.0000 0.91790  0.91859  0.04879  Biso   1.000  C
  C2900    1.0000 0.84449  0.94948  0.08130  Biso   1.000  C
  C2901    1.0000 0.91258  0.89107  0.89630  Biso   1.000  C
  C2902    1.0000 0.91790  0.91859  0.95121  Biso   1.000  C
  C2903    1.0000 0.84449  0.94948  0.91870  Biso   1.000  C
  O1182    1.0000 0.56570  0.60409  0.85486  Biso   1.000  O
  O1183    1.0000 0.48169  0.62039  0.85445  Biso   1.000  O
  C2904    1.0000 0.32181  0.05841  0.93910  Biso   1.000  C
  C2905    1.0000 0.39300  0.03020  0.90299  Biso   1.000  C
  C2906    1.0000 0.29869  0.01600  0.88840  Biso   1.000  C
  H2525    1.0000 0.90894  0.31240  0.07051  Biso   1.000  H
  H2526    1.0000 0.95495  0.29238  0.04950  Biso   1.000  H
  H2527    1.0000 0.93608  0.35048  0.04690  Biso   1.000  H
  H2528    1.0000 0.97906  0.41750  0.08110  Biso   1.000  H
  H2529    1.0000 0.99028  0.39959  0.11529  Biso   1.000  H
  H2530    1.0000 0.93336  0.39668  0.10200  Biso   1.000  H
  H2531    1.0000 0.01030  0.27320  0.10671  Biso   1.000  H
  H2532    1.0000 0.99326  0.31638  0.13041  Biso   1.000  H
  H2533    1.0000 0.95097  0.28151  0.11420  Biso   1.000  H
  H2534    1.0000 0.05841  0.08520  0.10500  Biso   1.000  H
  H2535    1.0000 0.07471  0.14410  0.10170  Biso   1.000  H
  H2536    1.0000 0.10828  0.10598  0.12210  Biso   1.000  H
  H2537    1.0000 0.05209  0.06300  0.05651  Biso   1.000  H
  H2538    1.0000 0.10059  0.05959  0.03431  Biso   1.000  H
  H2539    1.0000 0.07100  0.11280  0.03850  Biso   1.000  H
  H2540    1.0000 0.18230  0.06009  0.09590  Biso   1.000  H
  H2541    1.0000 0.17120  0.04130  0.06179  Biso   1.000  H
  H2542    1.0000 0.13618  0.02128  0.08929  Biso   1.000  H
  H2543    1.0000 0.05841  0.08520  0.89500  Biso   1.000  H
  H2544    1.0000 0.07471  0.14410  0.89830  Biso   1.000  H
  H2545    1.0000 0.10828  0.10598  0.87790  Biso   1.000  H
  H2546    1.0000 0.05209  0.06300  0.94349  Biso   1.000  H
  H2547    1.0000 0.10059  0.05959  0.96569  Biso   1.000  H
  H2548    1.0000 0.07100  0.11280  0.96150  Biso   1.000  H
  H2549    1.0000 0.18230  0.06009  0.90410  Biso   1.000  H
  H2550    1.0000 0.17120  0.04130  0.93821  Biso   1.000  H
  H2551    1.0000 0.13618  0.02128  0.91071  Biso   1.000  H
  Mg261    1.0000 0.43124  0.45554  0.82510  Biso   1.000  Mg
  Mg262    1.0000 0.54442  0.43124  0.82510  Biso   1.000  Mg
  H2552    1.0000 0.68760  0.90894  0.07051  Biso   1.000  H
  H2553    1.0000 0.70758  0.95495  0.04950  Biso   1.000  H
  H2554    1.0000 0.64948  0.93608  0.04690  Biso   1.000  H
  H2555    1.0000 0.58250  0.97906  0.08110  Biso   1.000  H
  H2556    1.0000 0.60038  0.99028  0.11529  Biso   1.000  H
  H2557    1.0000 0.60328  0.93336  0.10200  Biso   1.000  H
  H2558    1.0000 0.72680  0.01030  0.10671  Biso   1.000  H
  H2559    1.0000 0.68358  0.99326  0.13041  Biso   1.000  H
  H2560    1.0000 0.71849  0.95097  0.11420  Biso   1.000  H
  H2561    1.0000 0.68760  0.90894  0.92949  Biso   1.000  H
  H2562    1.0000 0.70758  0.95495  0.95050  Biso   1.000  H
  H2563    1.0000 0.64948  0.93608  0.95310  Biso   1.000  H
  H2564    1.0000 0.58250  0.97906  0.91890  Biso   1.000  H
  H2565    1.0000 0.60038  0.99028  0.88471  Biso   1.000  H
  H2566    1.0000 0.60328  0.93336  0.89800  Biso   1.000  H
  H2567    1.0000 0.68358  0.99326  0.86959  Biso   1.000  H
  H2568    1.0000 0.71849  0.95097  0.88580  Biso   1.000  H
  H2569    1.0000 0.72680  0.01030  0.89329  Biso   1.000  H
  C2907    1.0000 0.89107  0.08738  0.89630  Biso   1.000  C
  C2908    1.0000 0.91859  0.08210  0.95121  Biso   1.000  C
  C2909    1.0000 0.94948  0.15551  0.91870  Biso   1.000  C
  O1184    1.0000 0.60409  0.43430  0.85486  Biso   1.000  O
  O1185    1.0000 0.62039  0.51828  0.85445  Biso   1.000  O
  H2570    1.0000 0.91480  0.05841  0.10500  Biso   1.000  H
  H2571    1.0000 0.85590  0.07471  0.10170  Biso   1.000  H
  H2572    1.0000 0.89398  0.10828  0.12210  Biso   1.000  H
  H2573    1.0000 0.93700  0.05209  0.05651  Biso   1.000  H
  H2574    1.0000 0.94037  0.10059  0.03431  Biso   1.000  H
  H2575    1.0000 0.88717  0.07100  0.03850  Biso   1.000  H
  H2576    1.0000 0.93987  0.18230  0.09590  Biso   1.000  H
  H2577    1.0000 0.95866  0.17120  0.06179  Biso   1.000  H
  H2578    1.0000 0.97868  0.13618  0.08929  Biso   1.000  H
  C2910    1.0000 0.05841  0.67819  0.93910  Biso   1.000  C
  C2911    1.0000 0.03020  0.60700  0.90299  Biso   1.000  C
  C2912    1.0000 0.01600  0.70131  0.88840  Biso   1.000  C
  H2579    1.0000 0.31240  0.09098  0.07051  Biso   1.000  H
  H2580    1.0000 0.29238  0.04497  0.04950  Biso   1.000  H
  H2581    1.0000 0.35048  0.06392  0.04690  Biso   1.000  H
  H2582    1.0000 0.41750  0.02090  0.08110  Biso   1.000  H
  H2583    1.0000 0.39959  0.00972  0.11529  Biso   1.000  H
  H2584    1.0000 0.39668  0.06660  0.10200  Biso   1.000  H
  H2585    1.0000 0.27320  0.98967  0.10671  Biso   1.000  H
  H2586    1.0000 0.31638  0.00670  0.13041  Biso   1.000  H
  H2587    1.0000 0.28151  0.04899  0.11420  Biso   1.000  H
  H2588    1.0000 0.08520  0.94159  0.10500  Biso   1.000  H
  H2589    1.0000 0.14410  0.92529  0.10170  Biso   1.000  H
  H2590    1.0000 0.10598  0.89168  0.12210  Biso   1.000  H
  H2591    1.0000 0.06300  0.94787  0.05651  Biso   1.000  H
  H2592    1.0000 0.05959  0.89938  0.03431  Biso   1.000  H
  H2593    1.0000 0.11280  0.92900  0.03850  Biso   1.000  H
  H2594    1.0000 0.06009  0.81770  0.09590  Biso   1.000  H
  H2595    1.0000 0.04130  0.82880  0.06179  Biso   1.000  H
  H2596    1.0000 0.02128  0.86378  0.08929  Biso   1.000  H
  H2597    1.0000 0.08520  0.94159  0.89500  Biso   1.000  H
  H2598    1.0000 0.14410  0.92529  0.89830  Biso   1.000  H
  H2599    1.0000 0.10598  0.89168  0.87790  Biso   1.000  H
  H2600    1.0000 0.06300  0.94787  0.94349  Biso   1.000  H
  H2601    1.0000 0.05959  0.89938  0.96569  Biso   1.000  H
  H2602    1.0000 0.11280  0.92900  0.96150  Biso   1.000  H
  H2603    1.0000 0.06009  0.81770  0.90410  Biso   1.000  H
  H2604    1.0000 0.04130  0.82880  0.93821  Biso   1.000  H
  H2605    1.0000 0.02128  0.86378  0.91071  Biso   1.000  H
  Mg263    1.0000 0.45554  0.56872  0.82510  Biso   1.000  Mg
  H2606    1.0000 0.90894  0.31240  0.92949  Biso   1.000  H
  H2607    1.0000 0.95495  0.29238  0.95050  Biso   1.000  H
  H2608    1.0000 0.93608  0.35048  0.95310  Biso   1.000  H
  H2609    1.0000 0.97906  0.41750  0.91890  Biso   1.000  H
  H2610    1.0000 0.99028  0.39959  0.88471  Biso   1.000  H
  H2611    1.0000 0.93336  0.39668  0.89800  Biso   1.000  H
  H2612    1.0000 0.99326  0.31638  0.86959  Biso   1.000  H
  H2613    1.0000 0.95097  0.28151  0.88580  Biso   1.000  H
  H2614    1.0000 0.01030  0.27320  0.89329  Biso   1.000  H
  H2615    1.0000 0.09098  0.68760  0.07051  Biso   1.000  H
  H2616    1.0000 0.04497  0.70758  0.04950  Biso   1.000  H
  H2617    1.0000 0.06392  0.64948  0.04690  Biso   1.000  H
  H2618    1.0000 0.02090  0.58250  0.08110  Biso   1.000  H
  H2619    1.0000 0.00972  0.60038  0.11529  Biso   1.000  H
  H2620    1.0000 0.06660  0.60328  0.10200  Biso   1.000  H
  H2621    1.0000 0.98967  0.72680  0.10671  Biso   1.000  H
  H2622    1.0000 0.00670  0.68358  0.13041  Biso   1.000  H
  H2623    1.0000 0.04899  0.71849  0.11420  Biso   1.000  H
  H2624    1.0000 0.94159  0.91480  0.10500  Biso   1.000  H
  H2625    1.0000 0.92529  0.85590  0.10170  Biso   1.000  H
  H2626    1.0000 0.89168  0.89398  0.12210  Biso   1.000  H
  H2627    1.0000 0.94787  0.93700  0.05651  Biso   1.000  H
  H2628    1.0000 0.89938  0.94037  0.03431  Biso   1.000  H
  H2629    1.0000 0.92900  0.88717  0.03850  Biso   1.000  H
  H2630    1.0000 0.81770  0.93987  0.09590  Biso   1.000  H
  H2631    1.0000 0.82880  0.95866  0.06179  Biso   1.000  H
  H2632    1.0000 0.86378  0.97868  0.08929  Biso   1.000  H
  H2633    1.0000 0.94159  0.91480  0.89500  Biso   1.000  H
  H2634    1.0000 0.92529  0.85590  0.89830  Biso   1.000  H
  H2635    1.0000 0.89168  0.89398  0.87790  Biso   1.000  H
  H2636    1.0000 0.94787  0.93700  0.94349  Biso   1.000  H
  H2637    1.0000 0.89938  0.94037  0.96569  Biso   1.000  H
  H2638    1.0000 0.92900  0.88717  0.96150  Biso   1.000  H
  H2639    1.0000 0.81770  0.93987  0.90410  Biso   1.000  H
  H2640    1.0000 0.82880  0.95866  0.93821  Biso   1.000  H
  H2641    1.0000 0.86378  0.97868  0.91071  Biso   1.000  H
  Mg264    1.0000 0.56872  0.54442  0.82510  Biso   1.000  Mg
  H2642    1.0000 0.31240  0.09098  0.92949  Biso   1.000  H
  H2643    1.0000 0.29238  0.04497  0.95050  Biso   1.000  H
  H2644    1.0000 0.35048  0.06392  0.95310  Biso   1.000  H
  H2645    1.0000 0.41750  0.02090  0.91890  Biso   1.000  H
  H2646    1.0000 0.39959  0.00972  0.88471  Biso   1.000  H
  H2647    1.0000 0.39668  0.06660  0.89800  Biso   1.000  H
  H2648    1.0000 0.27320  0.98967  0.89329  Biso   1.000  H
  H2649    1.0000 0.31638  0.00670  0.86959  Biso   1.000  H
  H2650    1.0000 0.28151  0.04899  0.88580  Biso   1.000  H
  O1186    1.0000 0.49998  0.49998  0.83849  Biso   1.000  O
  O1187    1.0000 0.48318  0.42171  0.79498  Biso   1.000  O
  O1188    1.0000 0.37471  0.41849  0.80033  Biso   1.000  O
  O1189    1.0000 0.42171  0.51678  0.79498  Biso   1.000  O
  O1190    1.0000 0.57829  0.48318  0.79498  Biso   1.000  O
  O1191    1.0000 0.58151  0.37471  0.80033  Biso   1.000  O
  H2651    1.0000 0.91480  0.05841  0.89500  Biso   1.000  H
  H2652    1.0000 0.85590  0.07471  0.89830  Biso   1.000  H
  H2653    1.0000 0.89398  0.10828  0.87790  Biso   1.000  H
  H2654    1.0000 0.93700  0.05209  0.94349  Biso   1.000  H
  H2655    1.0000 0.94037  0.10059  0.96569  Biso   1.000  H
  H2656    1.0000 0.88717  0.07100  0.96150  Biso   1.000  H
  H2657    1.0000 0.93987  0.18230  0.90410  Biso   1.000  H
  H2658    1.0000 0.95866  0.17120  0.93821  Biso   1.000  H
  H2659    1.0000 0.97868  0.13618  0.91071  Biso   1.000  H
  H2660    1.0000 0.09098  0.68760  0.92949  Biso   1.000  H
  H2661    1.0000 0.04497  0.70758  0.95050  Biso   1.000  H
  H2662    1.0000 0.06392  0.64948  0.95310  Biso   1.000  H
  H2663    1.0000 0.02090  0.58250  0.91890  Biso   1.000  H
  H2664    1.0000 0.00972  0.60038  0.88471  Biso   1.000  H
  H2665    1.0000 0.06660  0.60328  0.89800  Biso   1.000  H
  H2666    1.0000 0.98967  0.72680  0.89329  Biso   1.000  H
  H2667    1.0000 0.00670  0.68358  0.86959  Biso   1.000  H
  H2668    1.0000 0.04899  0.71849  0.88580  Biso   1.000  H
  O1192    1.0000 0.41849  0.62529  0.80033  Biso   1.000  O
  O1193    1.0000 0.51678  0.57829  0.79498  Biso   1.000  O
  O1194    1.0000 0.62529  0.58151  0.80033  Biso   1.000  O
  C2913    1.0000 0.47901  0.39400  0.76989  Biso   1.000  C
  S269     1.0000 0.37279  0.41738  0.76825  Biso   1.000  S
  C2914    1.0000 0.39400  0.52099  0.76989  Biso   1.000  C
  C2915    1.0000 0.60600  0.47901  0.76989  Biso   1.000  C
  S270     1.0000 0.58262  0.37279  0.76825  Biso   1.000  S
  S271     1.0000 0.41738  0.62721  0.76825  Biso   1.000  S
  C2916    1.0000 0.52099  0.60600  0.76989  Biso   1.000  C
  S272     1.0000 0.62721  0.58262  0.76825  Biso   1.000  S
  C2917    1.0000 0.42948  0.38990  0.75480  Biso   1.000  C
  C2918    1.0000 0.52008  0.37038  0.75560  Biso   1.000  C
  O1195    1.0000 0.33119  0.39021  0.75537  Biso   1.000  O
  C2919    1.0000 0.37038  0.47989  0.75560  Biso   1.000  C
  C2920    1.0000 0.38990  0.57048  0.75480  Biso   1.000  C
  C2921    1.0000 0.61010  0.42948  0.75480  Biso   1.000  C
  C2922    1.0000 0.62958  0.52008  0.75560  Biso   1.000  C
  O1196    1.0000 0.60979  0.33119  0.75537  Biso   1.000  O
  O1197    1.0000 0.39021  0.66877  0.75537  Biso   1.000  O
  C2923    1.0000 0.47989  0.62958  0.75560  Biso   1.000  C
  C2924    1.0000 0.57048  0.61010  0.75480  Biso   1.000  C
  O1198    1.0000 0.66877  0.60979  0.75537  Biso   1.000  O
  C2925    1.0000 0.42320  0.35660  0.73010  Biso   1.000  C
  C2926    1.0000 0.51158  0.33858  0.72930  Biso   1.000  C
  C2927    1.0000 0.33858  0.48838  0.72930  Biso   1.000  C
  C2928    1.0000 0.35660  0.57680  0.73010  Biso   1.000  C
  C2929    1.0000 0.64340  0.42320  0.73010  Biso   1.000  C
  C2930    1.0000 0.66138  0.51158  0.72930  Biso   1.000  C
  C2931    1.0000 0.48838  0.66138  0.72930  Biso   1.000  C
  C2932    1.0000 0.57680  0.64340  0.73010  Biso   1.000  C
  H2669    1.0000 0.39021  0.35148  0.72160  Biso   1.000  H
  C2933    1.0000 0.46339  0.33199  0.71819  Biso   1.000  C
  H2670    1.0000 0.53967  0.32231  0.71969  Biso   1.000  H
  C2934    1.0000 0.33199  0.53657  0.71819  Biso   1.000  C
  H2671    1.0000 0.32231  0.46029  0.71969  Biso   1.000  H
  H2672    1.0000 0.35148  0.60979  0.72160  Biso   1.000  H
  H2673    1.0000 0.64849  0.39021  0.72160  Biso   1.000  H
  C2935    1.0000 0.66801  0.46339  0.71819  Biso   1.000  C
  H2674    1.0000 0.67769  0.53967  0.71969  Biso   1.000  H
  C2936    1.0000 0.53657  0.66801  0.71819  Biso   1.000  C
  H2675    1.0000 0.46029  0.67769  0.71969  Biso   1.000  H
  H2676    1.0000 0.60979  0.64849  0.72160  Biso   1.000  H
  C2937    1.0000 0.45390  0.30218  0.68600  Biso   1.000  C
  C2938    1.0000 0.30218  0.54610  0.68600  Biso   1.000  C
  C2939    1.0000 0.69778  0.45390  0.68600  Biso   1.000  C
  C2940    1.0000 0.54610  0.69778  0.68600  Biso   1.000  C
  C2941    1.0000 0.39989  0.30199  0.67559  Biso   1.000  C
  C2942    1.0000 0.48609  0.33088  0.66271  Biso   1.000  C
  C2943    1.0000 0.47698  0.25169  0.69419  Biso   1.000  C
  C2944    1.0000 0.30199  0.60011  0.67559  Biso   1.000  C
  C2945    1.0000 0.33088  0.51387  0.66271  Biso   1.000  C
  C2946    1.0000 0.25169  0.52298  0.69419  Biso   1.000  C
  C2947    1.0000 0.69798  0.39989  0.67559  Biso   1.000  C
  C2948    1.0000 0.66908  0.48609  0.66271  Biso   1.000  C
  C2949    1.0000 0.74827  0.47698  0.69419  Biso   1.000  C
  C2950    1.0000 0.60011  0.69798  0.67559  Biso   1.000  C
  C2951    1.0000 0.51387  0.66908  0.66271  Biso   1.000  C
  C2952    1.0000 0.52298  0.74827  0.69419  Biso   1.000  C
  H2677    1.0000 0.39798  0.28828  0.65490  Biso   1.000  H
  H2678    1.0000 0.37938  0.28040  0.68930  Biso   1.000  H
  H2679    1.0000 0.38638  0.33701  0.67591  Biso   1.000  H
  H2680    1.0000 0.48100  0.36778  0.66521  Biso   1.000  H
  H2681    1.0000 0.52229  0.32258  0.66571  Biso   1.000  H
  H2682    1.0000 0.47560  0.32078  0.64210  Biso   1.000  H
  H2683    1.0000 0.50817  0.24630  0.68219  Biso   1.000  H
  H2684    1.0000 0.48547  0.25139  0.71589  Biso   1.000  H
  H2685    1.0000 0.45248  0.22429  0.68980  Biso   1.000  H
  H2686    1.0000 0.28828  0.60198  0.65490  Biso   1.000  H
  H2687    1.0000 0.28040  0.62058  0.68930  Biso   1.000  H
  H2688    1.0000 0.33701  0.61358  0.67591  Biso   1.000  H
  H2689    1.0000 0.36778  0.51900  0.66521  Biso   1.000  H
  H2690    1.0000 0.32258  0.47771  0.66571  Biso   1.000  H
  H2691    1.0000 0.32078  0.52440  0.64210  Biso   1.000  H
  H2692    1.0000 0.24630  0.49179  0.68219  Biso   1.000  H
  H2693    1.0000 0.25139  0.51449  0.71589  Biso   1.000  H
  H2694    1.0000 0.22429  0.54748  0.68980  Biso   1.000  H
  H2695    1.0000 0.71168  0.39798  0.65490  Biso   1.000  H
  H2696    1.0000 0.71960  0.37938  0.68930  Biso   1.000  H
  H2697    1.0000 0.66299  0.38638  0.67591  Biso   1.000  H
  H2698    1.0000 0.63218  0.48100  0.66521  Biso   1.000  H
  H2699    1.0000 0.67738  0.52229  0.66571  Biso   1.000  H
  H2700    1.0000 0.67918  0.47560  0.64210  Biso   1.000  H
  H2701    1.0000 0.75370  0.50817  0.68219  Biso   1.000  H
  H2702    1.0000 0.74857  0.48547  0.71589  Biso   1.000  H
  H2703    1.0000 0.77567  0.45248  0.68980  Biso   1.000  H
  H2704    1.0000 0.60198  0.71168  0.65490  Biso   1.000  H
  H2705    1.0000 0.62058  0.71960  0.68930  Biso   1.000  H
  H2706    1.0000 0.61358  0.66299  0.67591  Biso   1.000  H
  H2707    1.0000 0.51900  0.63218  0.66521  Biso   1.000  H
  H2708    1.0000 0.47771  0.67738  0.66571  Biso   1.000  H
  H2709    1.0000 0.52440  0.67918  0.64210  Biso   1.000  H
  H2710    1.0000 0.49179  0.75370  0.68219  Biso   1.000  H
  H2711    1.0000 0.51449  0.74857  0.71589  Biso   1.000  H
  H2712    1.0000 0.54748  0.77567  0.68980  Biso   1.000  H
  C2953    1.0000 0.30199  0.60011  0.32441  Biso   1.000  C
  C2954    1.0000 0.30218  0.54610  0.31400  Biso   1.000  C
  H2713    1.0000 0.28828  0.60198  0.34510  Biso   1.000  H
  H2714    1.0000 0.28040  0.62058  0.31070  Biso   1.000  H
  H2715    1.0000 0.33701  0.61358  0.32409  Biso   1.000  H
  C2955    1.0000 0.33199  0.53657  0.28181  Biso   1.000  C
  C2956    1.0000 0.33088  0.51387  0.33729  Biso   1.000  C
  C2957    1.0000 0.25169  0.52298  0.30581  Biso   1.000  C
  C2958    1.0000 0.33858  0.48838  0.27070  Biso   1.000  C
  C2959    1.0000 0.35660  0.57680  0.26990  Biso   1.000  C
  H2716    1.0000 0.36778  0.51900  0.33479  Biso   1.000  H
  H2717    1.0000 0.32258  0.47771  0.33429  Biso   1.000  H
  H2718    1.0000 0.32078  0.52440  0.35790  Biso   1.000  H
  H2719    1.0000 0.24630  0.49179  0.31781  Biso   1.000  H
  H2720    1.0000 0.25139  0.51449  0.28411  Biso   1.000  H
  H2721    1.0000 0.22429  0.54748  0.31020  Biso   1.000  H
  C2960    1.0000 0.37038  0.47989  0.24440  Biso   1.000  C
  H2722    1.0000 0.32231  0.46029  0.28031  Biso   1.000  H
  C2961    1.0000 0.38990  0.57048  0.24520  Biso   1.000  C
  H2723    1.0000 0.35148  0.60979  0.27840  Biso   1.000  H
  S273     1.0000 0.37279  0.41738  0.23175  Biso   1.000  S
  C2962    1.0000 0.39400  0.52099  0.23011  Biso   1.000  C
  S274     1.0000 0.41738  0.62721  0.23175  Biso   1.000  S
  O1199    1.0000 0.33119  0.39021  0.24463  Biso   1.000  O
  O1200    1.0000 0.37471  0.41849  0.19967  Biso   1.000  O
  C2963    1.0000 0.42948  0.38990  0.24520  Biso   1.000  C
  O1201    1.0000 0.42171  0.51678  0.20502  Biso   1.000  O
  O1202    1.0000 0.41849  0.62529  0.19967  Biso   1.000  O
  O1203    1.0000 0.39021  0.66877  0.24463  Biso   1.000  O
  C2964    1.0000 0.47989  0.62958  0.24440  Biso   1.000  C
  Mg265    1.0000 0.43124  0.45554  0.17490  Biso   1.000  Mg
  C2965    1.0000 0.47901  0.39400  0.23011  Biso   1.000  C
  C2966    1.0000 0.42320  0.35660  0.26990  Biso   1.000  C
  Mg266    1.0000 0.45554  0.56872  0.17490  Biso   1.000  Mg
  C2967    1.0000 0.52099  0.60600  0.23011  Biso   1.000  C
  C2968    1.0000 0.48838  0.66138  0.27070  Biso   1.000  C
  O1204    1.0000 0.49998  0.49998  0.16151  Biso   1.000  O
  O1205    1.0000 0.43430  0.39587  0.14514  Biso   1.000  O
  O1206    1.0000 0.48318  0.42171  0.20502  Biso   1.000  O
  Mg267    1.0000 0.54442  0.43124  0.17490  Biso   1.000  Mg
  O1207    1.0000 0.37961  0.48169  0.14555  Biso   1.000  O
  C2969    1.0000 0.52008  0.37038  0.24440  Biso   1.000  C
  H2724    1.0000 0.39021  0.35148  0.27840  Biso   1.000  H
  C2970    1.0000 0.46339  0.33199  0.28181  Biso   1.000  C
  Mg268    1.0000 0.56872  0.54442  0.17490  Biso   1.000  Mg
  O1208    1.0000 0.51678  0.57829  0.20502  Biso   1.000  O
  O1209    1.0000 0.48169  0.62039  0.14555  Biso   1.000  O
  O1210    1.0000 0.39587  0.56570  0.14514  Biso   1.000  O
  C2971    1.0000 0.57048  0.61010  0.24520  Biso   1.000  C
  C2972    1.0000 0.53657  0.66801  0.28181  Biso   1.000  C
  H2725    1.0000 0.46029  0.67769  0.28031  Biso   1.000  H
  C2973    1.0000 0.47568  0.37459  0.13601  Biso   1.000  C
  O1211    1.0000 0.51828  0.37961  0.14555  Biso   1.000  O
  O1212    1.0000 0.58151  0.37471  0.19967  Biso   1.000  O
  O1213    1.0000 0.57829  0.48318  0.20502  Biso   1.000  O
  O1214    1.0000 0.60409  0.43430  0.14514  Biso   1.000  O
  C2974    1.0000 0.37459  0.52429  0.13601  Biso   1.000  C
  S275     1.0000 0.58262  0.37279  0.23175  Biso   1.000  S
  C2975    1.0000 0.51158  0.33858  0.27070  Biso   1.000  C
  C2976    1.0000 0.45390  0.30218  0.31400  Biso   1.000  C
  O1215    1.0000 0.62529  0.58151  0.19967  Biso   1.000  O
  O1216    1.0000 0.56570  0.60409  0.14514  Biso   1.000  O
  O1217    1.0000 0.62039  0.51828  0.14555  Biso   1.000  O
  C2977    1.0000 0.52429  0.62541  0.13601  Biso   1.000  C
  S276     1.0000 0.62721  0.58262  0.23175  Biso   1.000  S
  C2978    1.0000 0.57680  0.64340  0.26990  Biso   1.000  C
  C2979    1.0000 0.54610  0.69778  0.31400  Biso   1.000  C
  C2980    1.0000 0.46530  0.33907  0.10805  Biso   1.000  C
  C2981    1.0000 0.60600  0.47901  0.23011  Biso   1.000  C
  C2982    1.0000 0.62541  0.47568  0.13601  Biso   1.000  C
  C2983    1.0000 0.33907  0.53470  0.10805  Biso   1.000  C
  O1218    1.0000 0.60979  0.33119  0.24463  Biso   1.000  O
  C2984    1.0000 0.61010  0.42948  0.24520  Biso   1.000  C
  H2726    1.0000 0.53967  0.32231  0.28031  Biso   1.000  H
  C2985    1.0000 0.39989  0.30199  0.32441  Biso   1.000  C
  C2986    1.0000 0.48609  0.33088  0.33729  Biso   1.000  C
  C2987    1.0000 0.47698  0.25169  0.30581  Biso   1.000  C
  C2988    1.0000 0.53470  0.66089  0.10805  Biso   1.000  C
  C2989    1.0000 0.62958  0.52008  0.24440  Biso   1.000  C
  O1219    1.0000 0.66877  0.60979  0.24463  Biso   1.000  O
  H2727    1.0000 0.60979  0.64849  0.27840  Biso   1.000  H
  C2990    1.0000 0.60011  0.69798  0.32441  Biso   1.000  C
  C2991    1.0000 0.51387  0.66908  0.33729  Biso   1.000  C
  C2992    1.0000 0.52298  0.74827  0.30581  Biso   1.000  C
  C2993    1.0000 0.41719  0.33391  0.09480  Biso   1.000  C
  C2994    1.0000 0.50737  0.31481  0.09521  Biso   1.000  C
  C2995    1.0000 0.66089  0.46530  0.10805  Biso   1.000  C
  C2996    1.0000 0.33391  0.58281  0.09480  Biso   1.000  C
  C2997    1.0000 0.31481  0.49259  0.09521  Biso   1.000  C
  C2998    1.0000 0.64340  0.42320  0.26990  Biso   1.000  C
  H2728    1.0000 0.39798  0.28828  0.34510  Biso   1.000  H
  H2729    1.0000 0.37938  0.28040  0.31070  Biso   1.000  H
  H2730    1.0000 0.38638  0.33701  0.32409  Biso   1.000  H
  H2731    1.0000 0.48100  0.36778  0.33479  Biso   1.000  H
  H2732    1.0000 0.52229  0.32258  0.33429  Biso   1.000  H
  H2733    1.0000 0.47560  0.32078  0.35790  Biso   1.000  H
  H2734    1.0000 0.50817  0.24630  0.31781  Biso   1.000  H
  H2735    1.0000 0.48547  0.25139  0.28411  Biso   1.000  H
  H2736    1.0000 0.45248  0.22429  0.31020  Biso   1.000  H
  C2999    1.0000 0.58281  0.66609  0.09480  Biso   1.000  C
  C3000    1.0000 0.49259  0.68519  0.09521  Biso   1.000  C
  C3001    1.0000 0.66138  0.51158  0.27070  Biso   1.000  C
  H2737    1.0000 0.60198  0.71168  0.34510  Biso   1.000  H
  H2738    1.0000 0.62058  0.71960  0.31070  Biso   1.000  H
  H2739    1.0000 0.61358  0.66299  0.32409  Biso   1.000  H
  H2740    1.0000 0.51900  0.63218  0.33479  Biso   1.000  H
  H2741    1.0000 0.47771  0.67738  0.33429  Biso   1.000  H
  H2742    1.0000 0.52440  0.67918  0.35790  Biso   1.000  H
  H2743    1.0000 0.49179  0.75370  0.31781  Biso   1.000  H
  H2744    1.0000 0.51449  0.74857  0.28411  Biso   1.000  H
  H2745    1.0000 0.54748  0.77567  0.31020  Biso   1.000  H
  C3002    1.0000 0.41130  0.30440  0.06871  Biso   1.000  C
  H2746    1.0000 0.38841  0.35048  0.10359  Biso   1.000  H
  H2747    1.0000 0.54021  0.31841  0.10430  Biso   1.000  H
  C3003    1.0000 0.50147  0.28530  0.06912  Biso   1.000  C
  C3004    1.0000 0.66609  0.41719  0.09480  Biso   1.000  C
  C3005    1.0000 0.68519  0.50737  0.09521  Biso   1.000  C
  C3006    1.0000 0.30440  0.58866  0.06871  Biso   1.000  C
  H2748    1.0000 0.35048  0.61159  0.10359  Biso   1.000  H
  H2749    1.0000 0.31841  0.45979  0.10430  Biso   1.000  H
  C3007    1.0000 0.28530  0.49849  0.06912  Biso   1.000  C
  H2750    1.0000 0.64849  0.39021  0.27840  Biso   1.000  H
  C3008    1.0000 0.66801  0.46339  0.28181  Biso   1.000  C
  C3009    1.0000 0.58866  0.69560  0.06871  Biso   1.000  C
  H2751    1.0000 0.61159  0.64948  0.10359  Biso   1.000  H
  H2752    1.0000 0.45979  0.68159  0.10430  Biso   1.000  H
  C3010    1.0000 0.49849  0.71470  0.06912  Biso   1.000  C
  H2753    1.0000 0.67769  0.53967  0.28031  Biso   1.000  H
  C3011    1.0000 0.45340  0.28009  0.05587  Biso   1.000  C
  C3012    1.0000 0.35990  0.30049  0.05471  Biso   1.000  C
  C3013    1.0000 0.54798  0.26199  0.05501  Biso   1.000  C
  C3014    1.0000 0.69560  0.41130  0.06871  Biso   1.000  C
  H2754    1.0000 0.64948  0.38841  0.10359  Biso   1.000  H
  H2755    1.0000 0.68159  0.54021  0.10430  Biso   1.000  H
  C3015    1.0000 0.71470  0.50147  0.06912  Biso   1.000  C
  C3016    1.0000 0.28009  0.54660  0.05587  Biso   1.000  C
  C3017    1.0000 0.30049  0.64010  0.05471  Biso   1.000  C
  C3018    1.0000 0.26199  0.45198  0.05501  Biso   1.000  C
  C3019    1.0000 0.69778  0.45390  0.31400  Biso   1.000  C
  C3020    1.0000 0.54660  0.71987  0.05587  Biso   1.000  C
  C3021    1.0000 0.64010  0.69947  0.05471  Biso   1.000  C
  C3022    1.0000 0.45198  0.73797  0.05501  Biso   1.000  C
  H2756    1.0000 0.44938  0.25988  0.03800  Biso   1.000  H
  O1220    1.0000 0.32269  0.32568  0.06673  Biso   1.000  O
  O1221    1.0000 0.35588  0.27439  0.02955  Biso   1.000  O
  O1222    1.0000 0.54009  0.23711  0.03067  Biso   1.000  O
  O1223    1.0000 0.58989  0.26880  0.06657  Biso   1.000  O
  C3023    1.0000 0.71987  0.45340  0.05587  Biso   1.000  C
  C3024    1.0000 0.69947  0.35990  0.05471  Biso   1.000  C
  C3025    1.0000 0.73797  0.54798  0.05501  Biso   1.000  C
  H2757    1.0000 0.25988  0.55058  0.03800  Biso   1.000  H
  O1224    1.0000 0.32568  0.67727  0.06673  Biso   1.000  O
  O1225    1.0000 0.27439  0.64408  0.02955  Biso   1.000  O
  O1226    1.0000 0.23711  0.45991  0.03067  Biso   1.000  O
  O1227    1.0000 0.26880  0.41007  0.06657  Biso   1.000  O
  C3026    1.0000 0.69798  0.39989  0.32441  Biso   1.000  C
  C3027    1.0000 0.66908  0.48609  0.33729  Biso   1.000  C
  C3028    1.0000 0.74827  0.47698  0.30581  Biso   1.000  C
  H2758    1.0000 0.55058  0.74008  0.03800  Biso   1.000  H
  O1228    1.0000 0.67727  0.67428  0.06673  Biso   1.000  O
  O1229    1.0000 0.64408  0.72557  0.02955  Biso   1.000  O
  O1230    1.0000 0.45991  0.76289  0.03067  Biso   1.000  O
  O1231    1.0000 0.41007  0.73120  0.06657  Biso   1.000  O
  Mg269    1.0000 0.25460  0.34015  0.04868  Biso   1.000  Mg
  Mg270    1.0000 0.29885  0.27144  0.00000  Biso   1.000  Mg
  Mg271    1.0000 0.59115  0.20974  0.00000  Biso   1.000  Mg
  Mg272    1.0000 0.65985  0.25460  0.04868  Biso   1.000  Mg
  H2759    1.0000 0.74008  0.44938  0.03800  Biso   1.000  H
  O1232    1.0000 0.67428  0.32269  0.06673  Biso   1.000  O
  O1233    1.0000 0.72557  0.35588  0.02955  Biso   1.000  O
  O1234    1.0000 0.76289  0.54009  0.03067  Biso   1.000  O
  O1235    1.0000 0.73120  0.58989  0.06657  Biso   1.000  O
  Mg273    1.0000 0.34015  0.74536  0.04868  Biso   1.000  Mg
  Mg274    1.0000 0.27144  0.70111  0.00000  Biso   1.000  Mg
  Mg275    1.0000 0.20974  0.40885  0.00000  Biso   1.000  Mg
  H2760    1.0000 0.71168  0.39798  0.34510  Biso   1.000  H
  H2761    1.0000 0.71960  0.37938  0.31070  Biso   1.000  H
  H2762    1.0000 0.66299  0.38638  0.32409  Biso   1.000  H
  H2763    1.0000 0.63218  0.48100  0.33479  Biso   1.000  H
  H2764    1.0000 0.67738  0.52229  0.33429  Biso   1.000  H
  H2765    1.0000 0.67918  0.47560  0.35790  Biso   1.000  H
  H2766    1.0000 0.75370  0.50817  0.31781  Biso   1.000  H
  H2767    1.0000 0.74857  0.48547  0.28411  Biso   1.000  H
  H2768    1.0000 0.77567  0.45248  0.31020  Biso   1.000  H
  Mg276    1.0000 0.74536  0.65985  0.04868  Biso   1.000  Mg
  Mg277    1.0000 0.70111  0.72852  0.00000  Biso   1.000  Mg
  Mg278    1.0000 0.40885  0.79022  0.00000  Biso   1.000  Mg
  O1236    1.0000 0.27301  0.35121  0.00000  Biso   1.000  O
  O1237    1.0000 0.18219  0.36120  0.03395  Biso   1.000  O
  O1238    1.0000 0.22100  0.31898  0.08902  Biso   1.000  O
  O1239    1.0000 0.24209  0.26540  0.03381  Biso   1.000  O
  O1240    1.0000 0.30061  0.19390  0.00000  Biso   1.000  O
  O1241    1.0000 0.24209  0.26540  0.96619  Biso   1.000  O
  Mg279    1.0000 0.25460  0.34015  0.95132  Biso   1.000  Mg
  O1242    1.0000 0.35588  0.27439  0.97045  Biso   1.000  O
  O1243    1.0000 0.64879  0.27301  0.00000  Biso   1.000  O
  O1244    1.0000 0.55697  0.14100  0.00000  Biso   1.000  O
  O1245    1.0000 0.63880  0.18219  0.03395  Biso   1.000  O
  O1246    1.0000 0.63880  0.18219  0.96605  Biso   1.000  O
  O1247    1.0000 0.54009  0.23711  0.96933  Biso   1.000  O
  Mg280    1.0000 0.65985  0.25460  0.95132  Biso   1.000  Mg
  Mg281    1.0000 0.72852  0.29885  0.00000  Biso   1.000  Mg
  O1248    1.0000 0.68098  0.22100  0.08902  Biso   1.000  O
  O1249    1.0000 0.73460  0.24209  0.03381  Biso   1.000  O
  Mg282    1.0000 0.79022  0.59115  0.00000  Biso   1.000  Mg
  O1250    1.0000 0.35121  0.72699  0.00000  Biso   1.000  O
  O1251    1.0000 0.36120  0.81777  0.03395  Biso   1.000  O
  O1252    1.0000 0.31898  0.77900  0.08902  Biso   1.000  O
  O1253    1.0000 0.26540  0.75787  0.03381  Biso   1.000  O
  O1254    1.0000 0.19390  0.69939  0.00000  Biso   1.000  O
  O1255    1.0000 0.26540  0.75787  0.96619  Biso   1.000  O
  Mg283    1.0000 0.34015  0.74536  0.95132  Biso   1.000  Mg
  O1256    1.0000 0.27439  0.64408  0.97045  Biso   1.000  O
  O1257    1.0000 0.14100  0.44299  0.00000  Biso   1.000  O
  O1258    1.0000 0.18219  0.36120  0.96605  Biso   1.000  O
  O1259    1.0000 0.23711  0.45991  0.96933  Biso   1.000  O
  O1260    1.0000 0.72699  0.64879  0.00000  Biso   1.000  O
  O1261    1.0000 0.81777  0.63880  0.03395  Biso   1.000  O
  O1262    1.0000 0.77900  0.68098  0.08902  Biso   1.000  O
  O1263    1.0000 0.75787  0.73460  0.03381  Biso   1.000  O
  Mg284    1.0000 0.74536  0.65985  0.95132  Biso   1.000  Mg
  O1264    1.0000 0.69939  0.80610  0.00000  Biso   1.000  O
  O1265    1.0000 0.75787  0.73460  0.96619  Biso   1.000  O
  O1266    1.0000 0.64408  0.72557  0.97045  Biso   1.000  O
  O1267    1.0000 0.44299  0.85900  0.00000  Biso   1.000  O
  O1268    1.0000 0.36120  0.81777  0.96605  Biso   1.000  O
  O1269    1.0000 0.45991  0.76289  0.96933  Biso   1.000  O
  C3029    1.0000 0.13630  0.35469  0.04481  Biso   1.000  C
  S277     1.0000 0.17365  0.28951  0.09000  Biso   1.000  S
  C3030    1.0000 0.21640  0.22770  0.04469  Biso   1.000  C
  S278     1.0000 0.25479  0.16133  0.00000  Biso   1.000  S
  C3031    1.0000 0.21640  0.22770  0.95531  Biso   1.000  C
  O1270    1.0000 0.22100  0.31898  0.91098  Biso   1.000  O
  O1271    1.0000 0.32269  0.32568  0.93327  Biso   1.000  O
  O1272    1.0000 0.26880  0.41007  0.93343  Biso   1.000  O
  C3032    1.0000 0.35990  0.30049  0.94529  Biso   1.000  C
  S279     1.0000 0.58350  0.09259  0.00000  Biso   1.000  S
  C3033    1.0000 0.64527  0.13630  0.04481  Biso   1.000  C
  C3034    1.0000 0.64527  0.13630  0.95519  Biso   1.000  C
  C3035    1.0000 0.54798  0.26199  0.94499  Biso   1.000  C
  O1273    1.0000 0.68098  0.22100  0.91098  Biso   1.000  O
  O1274    1.0000 0.73460  0.24209  0.96619  Biso   1.000  O
  O1275    1.0000 0.58989  0.26880  0.93343  Biso   1.000  O
  O1276    1.0000 0.67428  0.32269  0.93327  Biso   1.000  O
  O1277    1.0000 0.80610  0.30061  0.00000  Biso   1.000  O
  O1278    1.0000 0.72557  0.35588  0.97045  Biso   1.000  O
  S280     1.0000 0.71049  0.17365  0.09000  Biso   1.000  S
  C3036    1.0000 0.77227  0.21640  0.04469  Biso   1.000  C
  O1279    1.0000 0.85900  0.55697  0.00000  Biso   1.000  O
  O1280    1.0000 0.81777  0.63880  0.96605  Biso   1.000  O
  O1281    1.0000 0.76289  0.54009  0.96933  Biso   1.000  O
  C3037    1.0000 0.35469  0.86367  0.04481  Biso   1.000  C
  S281     1.0000 0.28951  0.82635  0.09000  Biso   1.000  S
  C3038    1.0000 0.22770  0.78360  0.04469  Biso   1.000  C
  S282     1.0000 0.16133  0.74517  0.00000  Biso   1.000  S
  C3039    1.0000 0.22770  0.78360  0.95531  Biso   1.000  C
  O1282    1.0000 0.31898  0.77900  0.91098  Biso   1.000  O
  O1283    1.0000 0.41007  0.73120  0.93343  Biso   1.000  O
  O1284    1.0000 0.32568  0.67727  0.93327  Biso   1.000  O
  C3040    1.0000 0.30049  0.64010  0.94529  Biso   1.000  C
  S283     1.0000 0.09259  0.41650  0.00000  Biso   1.000  S
  C3041    1.0000 0.13630  0.35469  0.95519  Biso   1.000  C
  C3042    1.0000 0.26199  0.45198  0.94499  Biso   1.000  C
  C3043    1.0000 0.86367  0.64527  0.04481  Biso   1.000  C
  S284     1.0000 0.82635  0.71049  0.09000  Biso   1.000  S
  C3044    1.0000 0.78360  0.77227  0.04469  Biso   1.000  C
  O1285    1.0000 0.77900  0.68098  0.91098  Biso   1.000  O
  O1286    1.0000 0.67727  0.67428  0.93327  Biso   1.000  O
  O1287    1.0000 0.73120  0.58989  0.93343  Biso   1.000  O
  S285     1.0000 0.74517  0.83867  0.00000  Biso   1.000  S
  C3045    1.0000 0.78360  0.77227  0.95531  Biso   1.000  C
  C3046    1.0000 0.64010  0.69947  0.94529  Biso   1.000  C
  S286     1.0000 0.41650  0.90738  0.00000  Biso   1.000  S
  C3047    1.0000 0.35469  0.86367  0.95519  Biso   1.000  C
  C3048    1.0000 0.45198  0.73797  0.94499  Biso   1.000  C
  C3049    1.0000 0.08910  0.37628  0.03160  Biso   1.000  C
  C3050    1.0000 0.12500  0.32189  0.07081  Biso   1.000  C
  O1288    1.0000 0.15451  0.27550  0.11976  Biso   1.000  O
  C3051    1.0000 0.18299  0.23141  0.06901  Biso   1.000  C
  C3052    1.0000 0.21839  0.17851  0.03249  Biso   1.000  C
  O1289    1.0000 0.26249  0.10778  0.00000  Biso   1.000  O
  C3053    1.0000 0.21839  0.17851  0.96751  Biso   1.000  C
  C3054    1.0000 0.18299  0.23141  0.93099  Biso   1.000  C
  S287     1.0000 0.17365  0.28951  0.91000  Biso   1.000  S
  C3055    1.0000 0.41130  0.30440  0.93129  Biso   1.000  C
  O1290    1.0000 0.55261  0.04780  0.00000  Biso   1.000  O
  C3056    1.0000 0.62368  0.08910  0.03160  Biso   1.000  C
  C3057    1.0000 0.62368  0.08910  0.96840  Biso   1.000  C
  C3058    1.0000 0.67807  0.12500  0.07081  Biso   1.000  C
  C3059    1.0000 0.67807  0.12500  0.92919  Biso   1.000  C
  C3060    1.0000 0.50147  0.28530  0.93088  Biso   1.000  C
  S288     1.0000 0.71049  0.17365  0.91000  Biso   1.000  S
  C3061    1.0000 0.77227  0.21640  0.95531  Biso   1.000  C
  C3062    1.0000 0.69947  0.35990  0.94529  Biso   1.000  C
  S289     1.0000 0.83867  0.25479  0.00000  Biso   1.000  S
  O1291    1.0000 0.72450  0.15451  0.11976  Biso   1.000  O
  C3063    1.0000 0.76859  0.18299  0.06901  Biso   1.000  C
  C3064    1.0000 0.82149  0.21839  0.03249  Biso   1.000  C
  S290     1.0000 0.90738  0.58350  0.00000  Biso   1.000  S
  C3065    1.0000 0.86367  0.64527  0.95519  Biso   1.000  C
  C3066    1.0000 0.73797  0.54798  0.94499  Biso   1.000  C
  C3067    1.0000 0.37628  0.91090  0.03160  Biso   1.000  C
  C3068    1.0000 0.32189  0.87500  0.07081  Biso   1.000  C
  O1292    1.0000 0.27550  0.84549  0.11976  Biso   1.000  O
  C3069    1.0000 0.23141  0.81697  0.06901  Biso   1.000  C
  C3070    1.0000 0.17851  0.78157  0.03249  Biso   1.000  C
  O1293    1.0000 0.10778  0.73747  0.00000  Biso   1.000  O
  C3071    1.0000 0.17851  0.78157  0.96751  Biso   1.000  C
  C3072    1.0000 0.23141  0.81697  0.93099  Biso   1.000  C
  S291     1.0000 0.28951  0.82635  0.91000  Biso   1.000  S
  C3073    1.0000 0.30440  0.58866  0.93129  Biso   1.000  C
  O1294    1.0000 0.04780  0.44739  0.00000  Biso   1.000  O
  C3074    1.0000 0.08910  0.37628  0.96840  Biso   1.000  C
  C3075    1.0000 0.12500  0.32189  0.92919  Biso   1.000  C
  C3076    1.0000 0.28530  0.49849  0.93088  Biso   1.000  C
  C3077    1.0000 0.91090  0.62368  0.03160  Biso   1.000  C
  C3078    1.0000 0.87500  0.67807  0.07081  Biso   1.000  C
  O1295    1.0000 0.84549  0.72450  0.11976  Biso   1.000  O
  C3079    1.0000 0.81697  0.76859  0.06901  Biso   1.000  C
  C3080    1.0000 0.78157  0.82149  0.03249  Biso   1.000  C
  S292     1.0000 0.82635  0.71049  0.91000  Biso   1.000  S
  O1296    1.0000 0.73747  0.89218  0.00000  Biso   1.000  O
  C3081    1.0000 0.78157  0.82149  0.96751  Biso   1.000  C
  C3082    1.0000 0.81697  0.76859  0.93099  Biso   1.000  C
  C3083    1.0000 0.58866  0.69560  0.93129  Biso   1.000  C
  O1297    1.0000 0.44739  0.95220  0.00000  Biso   1.000  O
  C3084    1.0000 0.37628  0.91090  0.96840  Biso   1.000  C
  C3085    1.0000 0.32189  0.87500  0.92919  Biso   1.000  C
  C3086    1.0000 0.49849  0.71470  0.93088  Biso   1.000  C
  C3087    1.0000 0.04191  0.37057  0.04451  Biso   1.000  C
  C3088    1.0000 0.07751  0.31871  0.08269  Biso   1.000  C
  C3089    1.0000 0.15379  0.19118  0.08110  Biso   1.000  C
  C3090    1.0000 0.18808  0.13729  0.04430  Biso   1.000  C
  C3091    1.0000 0.18808  0.13729  0.95570  Biso   1.000  C
  C3092    1.0000 0.15379  0.19118  0.91890  Biso   1.000  C
  O1298    1.0000 0.15451  0.27550  0.88024  Biso   1.000  O
  C3093    1.0000 0.41719  0.33391  0.90520  Biso   1.000  C
  C3094    1.0000 0.45340  0.28009  0.94413  Biso   1.000  C
  C3095    1.0000 0.62939  0.04191  0.04451  Biso   1.000  C
  C3096    1.0000 0.62939  0.04191  0.95549  Biso   1.000  C
  C3097    1.0000 0.68129  0.07751  0.08269  Biso   1.000  C
  C3098    1.0000 0.68129  0.07751  0.91731  Biso   1.000  C
  C3099    1.0000 0.50737  0.31481  0.90479  Biso   1.000  C
  O1299    1.0000 0.72450  0.15451  0.88024  Biso   1.000  O
  C3100    1.0000 0.76859  0.18299  0.93099  Biso   1.000  C
  C3101    1.0000 0.82149  0.21839  0.96751  Biso   1.000  C
  C3102    1.0000 0.69560  0.41130  0.93129  Biso   1.000  C
  O1300    1.0000 0.89218  0.26249  0.00000  Biso   1.000  O
  C3103    1.0000 0.80878  0.15379  0.08110  Biso   1.000  C
  C3104    1.0000 0.86267  0.18808  0.04430  Biso   1.000  C
  O1301    1.0000 0.95220  0.55261  0.00000  Biso   1.000  O
  C3105    1.0000 0.91090  0.62368  0.96840  Biso   1.000  C
  C3106    1.0000 0.87500  0.67807  0.92919  Biso   1.000  C
  C3107    1.0000 0.71470  0.50147  0.93088  Biso   1.000  C
  C3108    1.0000 0.37057  0.95809  0.04451  Biso   1.000  C
  C3109    1.0000 0.31871  0.92249  0.08269  Biso   1.000  C
  C3110    1.0000 0.19118  0.84617  0.08110  Biso   1.000  C
  C3111    1.0000 0.13729  0.81188  0.04430  Biso   1.000  C
  C3112    1.0000 0.13729  0.81188  0.95570  Biso   1.000  C
  C3113    1.0000 0.19118  0.84617  0.91890  Biso   1.000  C
  O1302    1.0000 0.27550  0.84549  0.88024  Biso   1.000  O
  C3114    1.0000 0.33391  0.58281  0.90520  Biso   1.000  C
  C3115    1.0000 0.28009  0.54660  0.94413  Biso   1.000  C
  C3116    1.0000 0.04191  0.37057  0.95549  Biso   1.000  C
  C3117    1.0000 0.07751  0.31871  0.91731  Biso   1.000  C
  C3118    1.0000 0.31481  0.49259  0.90479  Biso   1.000  C
  C3119    1.0000 0.95809  0.62939  0.04451  Biso   1.000  C
  C3120    1.0000 0.92249  0.68129  0.08269  Biso   1.000  C
  C3121    1.0000 0.84617  0.80878  0.08110  Biso   1.000  C
  C3122    1.0000 0.81188  0.86267  0.04430  Biso   1.000  C
  O1303    1.0000 0.84549  0.72450  0.88024  Biso   1.000  O
  C3123    1.0000 0.81188  0.86267  0.95570  Biso   1.000  C
  C3124    1.0000 0.84617  0.80878  0.91890  Biso   1.000  C
  C3125    1.0000 0.58281  0.66609  0.90520  Biso   1.000  C
  C3126    1.0000 0.54660  0.71987  0.94413  Biso   1.000  C
  C3127    1.0000 0.37057  0.95809  0.95549  Biso   1.000  C
  C3128    1.0000 0.31871  0.92249  0.91731  Biso   1.000  C
  C3129    1.0000 0.49259  0.68519  0.90479  Biso   1.000  C
  H2769    1.0000 0.01359  0.38768  0.03549  Biso   1.000  H
  C3130    1.0000 0.03368  0.34099  0.07010  Biso   1.000  C
  H2770    1.0000 0.07360  0.29988  0.10099  Biso   1.000  H
  H2771    1.0000 0.13339  0.19650  0.09881  Biso   1.000  H
  C3131    1.0000 0.15501  0.14188  0.06671  Biso   1.000  C
  H2772    1.0000 0.19229  0.10441  0.03540  Biso   1.000  H
  C3132    1.0000 0.15501  0.14188  0.93329  Biso   1.000  C
  H2773    1.0000 0.19229  0.10441  0.96460  Biso   1.000  H
  H2774    1.0000 0.13339  0.19650  0.90119  Biso   1.000  H
  H2775    1.0000 0.38841  0.35048  0.89641  Biso   1.000  H
  C3133    1.0000 0.46530  0.33907  0.89195  Biso   1.000  C
  H2776    1.0000 0.44938  0.25988  0.96200  Biso   1.000  H
  H2777    1.0000 0.61228  0.01359  0.03549  Biso   1.000  H
  C3134    1.0000 0.65897  0.03368  0.07010  Biso   1.000  C
  H2778    1.0000 0.61228  0.01359  0.96451  Biso   1.000  H
  C3135    1.0000 0.65897  0.03368  0.92990  Biso   1.000  C
  H2779    1.0000 0.70008  0.07360  0.10099  Biso   1.000  H
  H2780    1.0000 0.70008  0.07360  0.89901  Biso   1.000  H
  H2781    1.0000 0.54021  0.31841  0.89570  Biso   1.000  H
  C3136    1.0000 0.80878  0.15379  0.91890  Biso   1.000  C
  C3137    1.0000 0.86267  0.18808  0.95570  Biso   1.000  C
  C3138    1.0000 0.66609  0.41719  0.90520  Biso   1.000  C
  C3139    1.0000 0.71987  0.45340  0.94413  Biso   1.000  C
  H2782    1.0000 0.80350  0.13339  0.09881  Biso   1.000  H
  C3140    1.0000 0.85808  0.15501  0.06671  Biso   1.000  C
  H2783    1.0000 0.89559  0.19229  0.03540  Biso   1.000  H
  C3141    1.0000 0.95809  0.62939  0.95549  Biso   1.000  C
  C3142    1.0000 0.92249  0.68129  0.91731  Biso   1.000  C
  C3143    1.0000 0.68519  0.50737  0.90479  Biso   1.000  C
  H2784    1.0000 0.38768  0.98637  0.03549  Biso   1.000  H
  C3144    1.0000 0.34099  0.96628  0.07010  Biso   1.000  C
  H2785    1.0000 0.29988  0.92640  0.10099  Biso   1.000  H
  H2786    1.0000 0.19650  0.86657  0.09881  Biso   1.000  H
  C3145    1.0000 0.14188  0.84499  0.06671  Biso   1.000  C
  H2787    1.0000 0.10441  0.80767  0.03540  Biso   1.000  H
  C3146    1.0000 0.14188  0.84499  0.93329  Biso   1.000  C
  H2788    1.0000 0.10441  0.80767  0.96460  Biso   1.000  H
  H2789    1.0000 0.19650  0.86657  0.90119  Biso   1.000  H
  H2790    1.0000 0.35048  0.61159  0.89641  Biso   1.000  H
  C3147    1.0000 0.33907  0.53470  0.89195  Biso   1.000  C
  H2791    1.0000 0.25988  0.55058  0.96200  Biso   1.000  H
  H2792    1.0000 0.01359  0.38768  0.96451  Biso   1.000  H
  C3148    1.0000 0.03368  0.34099  0.92990  Biso   1.000  C
  H2793    1.0000 0.07360  0.29988  0.89901  Biso   1.000  H
  H2794    1.0000 0.31841  0.45979  0.89570  Biso   1.000  H
  H2795    1.0000 0.98637  0.61228  0.03549  Biso   1.000  H
  C3149    1.0000 0.96628  0.65897  0.07010  Biso   1.000  C
  H2796    1.0000 0.92640  0.70008  0.10099  Biso   1.000  H
  H2797    1.0000 0.86657  0.80350  0.09881  Biso   1.000  H
  C3150    1.0000 0.84499  0.85808  0.06671  Biso   1.000  C
  H2798    1.0000 0.80767  0.89559  0.03540  Biso   1.000  H
  C3151    1.0000 0.84499  0.85808  0.93329  Biso   1.000  C
  H2799    1.0000 0.80767  0.89559  0.96460  Biso   1.000  H
  H2800    1.0000 0.86657  0.80350  0.90119  Biso   1.000  H
  H2801    1.0000 0.61159  0.64948  0.89641  Biso   1.000  H
  C3152    1.0000 0.53470  0.66089  0.89195  Biso   1.000  C
  H2802    1.0000 0.55058  0.74008  0.96200  Biso   1.000  H
  H2803    1.0000 0.38768  0.98637  0.96451  Biso   1.000  H
  C3153    1.0000 0.34099  0.96628  0.92990  Biso   1.000  C
  H2804    1.0000 0.29988  0.92640  0.89901  Biso   1.000  H
  H2805    1.0000 0.45979  0.68159  0.89570  Biso   1.000  H
  C3154    1.0000 0.98021  0.33751  0.08560  Biso   1.000  C
  C3155    1.0000 0.11911  0.09599  0.07661  Biso   1.000  C
  C3156    1.0000 0.11911  0.09599  0.92339  Biso   1.000  C
  C3157    1.0000 0.47568  0.37459  0.86399  Biso   1.000  C
  C3158    1.0000 0.66249  0.98021  0.08560  Biso   1.000  C
  C3159    1.0000 0.66249  0.98021  0.91440  Biso   1.000  C
  H2806    1.0000 0.80350  0.13339  0.90119  Biso   1.000  H
  C3160    1.0000 0.85808  0.15501  0.93329  Biso   1.000  C
  H2807    1.0000 0.89559  0.19229  0.96460  Biso   1.000  H
  H2808    1.0000 0.64948  0.38841  0.89641  Biso   1.000  H
  C3161    1.0000 0.66089  0.46530  0.89195  Biso   1.000  C
  H2809    1.0000 0.74008  0.44938  0.96200  Biso   1.000  H
  C3162    1.0000 0.90397  0.11911  0.07661  Biso   1.000  C
  H2810    1.0000 0.98637  0.61228  0.96451  Biso   1.000  H
  C3163    1.0000 0.96628  0.65897  0.92990  Biso   1.000  C
  H2811    1.0000 0.92640  0.70008  0.89901  Biso   1.000  H
  H2812    1.0000 0.68159  0.54021  0.89570  Biso   1.000  H
  C3164    1.0000 0.33751  0.01979  0.08560  Biso   1.000  C
  C3165    1.0000 0.09599  0.88089  0.07661  Biso   1.000  C
  C3166    1.0000 0.09599  0.88089  0.92339  Biso   1.000  C
  C3167    1.0000 0.37459  0.52429  0.86399  Biso   1.000  C
  C3168    1.0000 0.98021  0.33751  0.91440  Biso   1.000  C
  C3169    1.0000 0.01979  0.66249  0.08560  Biso   1.000  C
  C3170    1.0000 0.88089  0.90397  0.07661  Biso   1.000  C
  C3171    1.0000 0.88089  0.90397  0.92339  Biso   1.000  C
  C3172    1.0000 0.52429  0.62541  0.86399  Biso   1.000  C
  C3173    1.0000 0.33751  0.01979  0.91440  Biso   1.000  C
  C3174    1.0000 0.94155  0.32181  0.06090  Biso   1.000  C
  C3175    1.0000 0.96976  0.39300  0.09701  Biso   1.000  C
  C3176    1.0000 0.98396  0.29869  0.11160  Biso   1.000  C
  C3177    1.0000 0.08738  0.10889  0.10370  Biso   1.000  C
  C3178    1.0000 0.08210  0.08141  0.04879  Biso   1.000  C
  C3179    1.0000 0.15551  0.05048  0.08130  Biso   1.000  C
  C3180    1.0000 0.08738  0.10889  0.89630  Biso   1.000  C
  C3181    1.0000 0.08210  0.08141  0.95121  Biso   1.000  C
  C3182    1.0000 0.15551  0.05048  0.91870  Biso   1.000  C
  O1304    1.0000 0.43430  0.39587  0.85486  Biso   1.000  O
  O1305    1.0000 0.51828  0.37961  0.85445  Biso   1.000  O
  C3183    1.0000 0.67819  0.94155  0.06090  Biso   1.000  C
  C3184    1.0000 0.60700  0.96976  0.09701  Biso   1.000  C
  C3185    1.0000 0.70131  0.98396  0.11160  Biso   1.000  C
  C3186    1.0000 0.67819  0.94155  0.93910  Biso   1.000  C
  C3187    1.0000 0.60700  0.96976  0.90299  Biso   1.000  C
  C3188    1.0000 0.70131  0.98396  0.88840  Biso   1.000  C
  C3189    1.0000 0.90397  0.11911  0.92339  Biso   1.000  C
  C3190    1.0000 0.62541  0.47568  0.86399  Biso   1.000  C
  C3191    1.0000 0.89107  0.08738  0.10370  Biso   1.000  C
  C3192    1.0000 0.91859  0.08210  0.04879  Biso   1.000  C
  C3193    1.0000 0.94948  0.15551  0.08130  Biso   1.000  C
  C3194    1.0000 0.01979  0.66249  0.91440  Biso   1.000  C
  C3195    1.0000 0.32181  0.05841  0.06090  Biso   1.000  C
  C3196    1.0000 0.39300  0.03020  0.09701  Biso   1.000  C
  C3197    1.0000 0.29869  0.01600  0.11160  Biso   1.000  C
  C3198    1.0000 0.10889  0.91258  0.10370  Biso   1.000  C
  C3199    1.0000 0.08141  0.91790  0.04879  Biso   1.000  C
  C3200    1.0000 0.05048  0.84449  0.08130  Biso   1.000  C
  C3201    1.0000 0.10889  0.91258  0.89630  Biso   1.000  C
  C3202    1.0000 0.08141  0.91790  0.95121  Biso   1.000  C
  C3203    1.0000 0.05048  0.84449  0.91870  Biso   1.000  C
  O1306    1.0000 0.39587  0.56570  0.85486  Biso   1.000  O
  O1307    1.0000 0.37961  0.48169  0.85445  Biso   1.000  O
  C3204    1.0000 0.94155  0.32181  0.93910  Biso   1.000  C
  C3205    1.0000 0.96976  0.39300  0.90299  Biso   1.000  C
  C3206    1.0000 0.98396  0.29869  0.88840  Biso   1.000  C
  C3207    1.0000 0.05841  0.67819  0.06090  Biso   1.000  C
  C3208    1.0000 0.03020  0.60700  0.09701  Biso   1.000  C
  C3209    1.0000 0.01600  0.70131  0.11160  Biso   1.000  C
  C3210    1.0000 0.91258  0.89107  0.10370  Biso   1.000  C
  C3211    1.0000 0.91790  0.91859  0.04879  Biso   1.000  C
  C3212    1.0000 0.84449  0.94948  0.08130  Biso   1.000  C
  C3213    1.0000 0.91258  0.89107  0.89630  Biso   1.000  C
  C3214    1.0000 0.91790  0.91859  0.95121  Biso   1.000  C
  C3215    1.0000 0.84449  0.94948  0.91870  Biso   1.000  C
  O1308    1.0000 0.56570  0.60409  0.85486  Biso   1.000  O
  O1309    1.0000 0.48169  0.62039  0.85445  Biso   1.000  O
  C3216    1.0000 0.32181  0.05841  0.93910  Biso   1.000  C
  C3217    1.0000 0.39300  0.03020  0.90299  Biso   1.000  C
  C3218    1.0000 0.29869  0.01600  0.88840  Biso   1.000  C
  H2813    1.0000 0.90894  0.31240  0.07051  Biso   1.000  H
  H2814    1.0000 0.95495  0.29238  0.04950  Biso   1.000  H
  H2815    1.0000 0.93608  0.35048  0.04690  Biso   1.000  H
  H2816    1.0000 0.97906  0.41750  0.08110  Biso   1.000  H
  H2817    1.0000 0.99028  0.39959  0.11529  Biso   1.000  H
  H2818    1.0000 0.93336  0.39668  0.10200  Biso   1.000  H
  H2819    1.0000 0.01030  0.27320  0.10671  Biso   1.000  H
  H2820    1.0000 0.99326  0.31638  0.13041  Biso   1.000  H
  H2821    1.0000 0.95097  0.28151  0.11420  Biso   1.000  H
  H2822    1.0000 0.05841  0.08520  0.10500  Biso   1.000  H
  H2823    1.0000 0.07471  0.14410  0.10170  Biso   1.000  H
  H2824    1.0000 0.10828  0.10598  0.12210  Biso   1.000  H
  H2825    1.0000 0.05209  0.06300  0.05651  Biso   1.000  H
  H2826    1.0000 0.10059  0.05959  0.03431  Biso   1.000  H
  H2827    1.0000 0.07100  0.11280  0.03850  Biso   1.000  H
  H2828    1.0000 0.18230  0.06009  0.09590  Biso   1.000  H
  H2829    1.0000 0.17120  0.04130  0.06179  Biso   1.000  H
  H2830    1.0000 0.13618  0.02128  0.08929  Biso   1.000  H
  H2831    1.0000 0.05841  0.08520  0.89500  Biso   1.000  H
  H2832    1.0000 0.07471  0.14410  0.89830  Biso   1.000  H
  H2833    1.0000 0.10828  0.10598  0.87790  Biso   1.000  H
  H2834    1.0000 0.05209  0.06300  0.94349  Biso   1.000  H
  H2835    1.0000 0.10059  0.05959  0.96569  Biso   1.000  H
  H2836    1.0000 0.07100  0.11280  0.96150  Biso   1.000  H
  H2837    1.0000 0.18230  0.06009  0.90410  Biso   1.000  H
  H2838    1.0000 0.17120  0.04130  0.93821  Biso   1.000  H
  H2839    1.0000 0.13618  0.02128  0.91071  Biso   1.000  H
  Mg285    1.0000 0.43124  0.45554  0.82510  Biso   1.000  Mg
  Mg286    1.0000 0.54442  0.43124  0.82510  Biso   1.000  Mg
  H2840    1.0000 0.68760  0.90894  0.07051  Biso   1.000  H
  H2841    1.0000 0.70758  0.95495  0.04950  Biso   1.000  H
  H2842    1.0000 0.64948  0.93608  0.04690  Biso   1.000  H
  H2843    1.0000 0.58250  0.97906  0.08110  Biso   1.000  H
  H2844    1.0000 0.60038  0.99028  0.11529  Biso   1.000  H
  H2845    1.0000 0.60328  0.93336  0.10200  Biso   1.000  H
  H2846    1.0000 0.72680  0.01030  0.10671  Biso   1.000  H
  H2847    1.0000 0.68358  0.99326  0.13041  Biso   1.000  H
  H2848    1.0000 0.71849  0.95097  0.11420  Biso   1.000  H
  H2849    1.0000 0.68760  0.90894  0.92949  Biso   1.000  H
  H2850    1.0000 0.70758  0.95495  0.95050  Biso   1.000  H
  H2851    1.0000 0.64948  0.93608  0.95310  Biso   1.000  H
  H2852    1.0000 0.58250  0.97906  0.91890  Biso   1.000  H
  H2853    1.0000 0.60038  0.99028  0.88471  Biso   1.000  H
  H2854    1.0000 0.60328  0.93336  0.89800  Biso   1.000  H
  H2855    1.0000 0.68358  0.99326  0.86959  Biso   1.000  H
  H2856    1.0000 0.71849  0.95097  0.88580  Biso   1.000  H
  H2857    1.0000 0.72680  0.01030  0.89329  Biso   1.000  H
  C3219    1.0000 0.89107  0.08738  0.89630  Biso   1.000  C
  C3220    1.0000 0.91859  0.08210  0.95121  Biso   1.000  C
  C3221    1.0000 0.94948  0.15551  0.91870  Biso   1.000  C
  O1310    1.0000 0.60409  0.43430  0.85486  Biso   1.000  O
  O1311    1.0000 0.62039  0.51828  0.85445  Biso   1.000  O
  H2858    1.0000 0.91480  0.05841  0.10500  Biso   1.000  H
  H2859    1.0000 0.85590  0.07471  0.10170  Biso   1.000  H
  H2860    1.0000 0.89398  0.10828  0.12210  Biso   1.000  H
  H2861    1.0000 0.93700  0.05209  0.05651  Biso   1.000  H
  H2862    1.0000 0.94037  0.10059  0.03431  Biso   1.000  H
  H2863    1.0000 0.88717  0.07100  0.03850  Biso   1.000  H
  H2864    1.0000 0.93987  0.18230  0.09590  Biso   1.000  H
  H2865    1.0000 0.95866  0.17120  0.06179  Biso   1.000  H
  H2866    1.0000 0.97868  0.13618  0.08929  Biso   1.000  H
  C3222    1.0000 0.05841  0.67819  0.93910  Biso   1.000  C
  C3223    1.0000 0.03020  0.60700  0.90299  Biso   1.000  C
  C3224    1.0000 0.01600  0.70131  0.88840  Biso   1.000  C
  H2867    1.0000 0.31240  0.09098  0.07051  Biso   1.000  H
  H2868    1.0000 0.29238  0.04497  0.04950  Biso   1.000  H
  H2869    1.0000 0.35048  0.06392  0.04690  Biso   1.000  H
  H2870    1.0000 0.41750  0.02090  0.08110  Biso   1.000  H
  H2871    1.0000 0.39959  0.00972  0.11529  Biso   1.000  H
  H2872    1.0000 0.39668  0.06660  0.10200  Biso   1.000  H
  H2873    1.0000 0.27320  0.98967  0.10671  Biso   1.000  H
  H2874    1.0000 0.31638  0.00670  0.13041  Biso   1.000  H
  H2875    1.0000 0.28151  0.04899  0.11420  Biso   1.000  H
  H2876    1.0000 0.08520  0.94159  0.10500  Biso   1.000  H
  H2877    1.0000 0.14410  0.92529  0.10170  Biso   1.000  H
  H2878    1.0000 0.10598  0.89168  0.12210  Biso   1.000  H
  H2879    1.0000 0.06300  0.94787  0.05651  Biso   1.000  H
  H2880    1.0000 0.05959  0.89938  0.03431  Biso   1.000  H
  H2881    1.0000 0.11280  0.92900  0.03850  Biso   1.000  H
  H2882    1.0000 0.06009  0.81770  0.09590  Biso   1.000  H
  H2883    1.0000 0.04130  0.82880  0.06179  Biso   1.000  H
  H2884    1.0000 0.02128  0.86378  0.08929  Biso   1.000  H
  H2885    1.0000 0.08520  0.94159  0.89500  Biso   1.000  H
  H2886    1.0000 0.14410  0.92529  0.89830  Biso   1.000  H
  H2887    1.0000 0.10598  0.89168  0.87790  Biso   1.000  H
  H2888    1.0000 0.06300  0.94787  0.94349  Biso   1.000  H
  H2889    1.0000 0.05959  0.89938  0.96569  Biso   1.000  H
  H2890    1.0000 0.11280  0.92900  0.96150  Biso   1.000  H
  H2891    1.0000 0.06009  0.81770  0.90410  Biso   1.000  H
  H2892    1.0000 0.04130  0.82880  0.93821  Biso   1.000  H
  H2893    1.0000 0.02128  0.86378  0.91071  Biso   1.000  H
  Mg287    1.0000 0.45554  0.56872  0.82510  Biso   1.000  Mg
  H2894    1.0000 0.90894  0.31240  0.92949  Biso   1.000  H
  H2895    1.0000 0.95495  0.29238  0.95050  Biso   1.000  H
  H2896    1.0000 0.93608  0.35048  0.95310  Biso   1.000  H
  H2897    1.0000 0.97906  0.41750  0.91890  Biso   1.000  H
  H2898    1.0000 0.99028  0.39959  0.88471  Biso   1.000  H
  H2899    1.0000 0.93336  0.39668  0.89800  Biso   1.000  H
  H2900    1.0000 0.99326  0.31638  0.86959  Biso   1.000  H
  H2901    1.0000 0.95097  0.28151  0.88580  Biso   1.000  H
  H2902    1.0000 0.01030  0.27320  0.89329  Biso   1.000  H
  H2903    1.0000 0.09098  0.68760  0.07051  Biso   1.000  H
  H2904    1.0000 0.04497  0.70758  0.04950  Biso   1.000  H
  H2905    1.0000 0.06392  0.64948  0.04690  Biso   1.000  H
  H2906    1.0000 0.02090  0.58250  0.08110  Biso   1.000  H
  H2907    1.0000 0.00972  0.60038  0.11529  Biso   1.000  H
  H2908    1.0000 0.06660  0.60328  0.10200  Biso   1.000  H
  H2909    1.0000 0.98967  0.72680  0.10671  Biso   1.000  H
  H2910    1.0000 0.00670  0.68358  0.13041  Biso   1.000  H
  H2911    1.0000 0.04899  0.71849  0.11420  Biso   1.000  H
  H2912    1.0000 0.94159  0.91480  0.10500  Biso   1.000  H
  H2913    1.0000 0.92529  0.85590  0.10170  Biso   1.000  H
  H2914    1.0000 0.89168  0.89398  0.12210  Biso   1.000  H
  H2915    1.0000 0.94787  0.93700  0.05651  Biso   1.000  H
  H2916    1.0000 0.89938  0.94037  0.03431  Biso   1.000  H
  H2917    1.0000 0.92900  0.88717  0.03850  Biso   1.000  H
  H2918    1.0000 0.81770  0.93987  0.09590  Biso   1.000  H
  H2919    1.0000 0.82880  0.95866  0.06179  Biso   1.000  H
  H2920    1.0000 0.86378  0.97868  0.08929  Biso   1.000  H
  H2921    1.0000 0.94159  0.91480  0.89500  Biso   1.000  H
  H2922    1.0000 0.92529  0.85590  0.89830  Biso   1.000  H
  H2923    1.0000 0.89168  0.89398  0.87790  Biso   1.000  H
  H2924    1.0000 0.94787  0.93700  0.94349  Biso   1.000  H
  H2925    1.0000 0.89938  0.94037  0.96569  Biso   1.000  H
  H2926    1.0000 0.92900  0.88717  0.96150  Biso   1.000  H
  H2927    1.0000 0.81770  0.93987  0.90410  Biso   1.000  H
  H2928    1.0000 0.82880  0.95866  0.93821  Biso   1.000  H
  H2929    1.0000 0.86378  0.97868  0.91071  Biso   1.000  H
  Mg288    1.0000 0.56872  0.54442  0.82510  Biso   1.000  Mg
  H2930    1.0000 0.31240  0.09098  0.92949  Biso   1.000  H
  H2931    1.0000 0.29238  0.04497  0.95050  Biso   1.000  H
  H2932    1.0000 0.35048  0.06392  0.95310  Biso   1.000  H
  H2933    1.0000 0.41750  0.02090  0.91890  Biso   1.000  H
  H2934    1.0000 0.39959  0.00972  0.88471  Biso   1.000  H
  H2935    1.0000 0.39668  0.06660  0.89800  Biso   1.000  H
  H2936    1.0000 0.27320  0.98967  0.89329  Biso   1.000  H
  H2937    1.0000 0.31638  0.00670  0.86959  Biso   1.000  H
  H2938    1.0000 0.28151  0.04899  0.88580  Biso   1.000  H
  O1312    1.0000 0.49998  0.49998  0.83849  Biso   1.000  O
  O1313    1.0000 0.48318  0.42171  0.79498  Biso   1.000  O
  O1314    1.0000 0.37471  0.41849  0.80033  Biso   1.000  O
  O1315    1.0000 0.42171  0.51678  0.79498  Biso   1.000  O
  O1316    1.0000 0.57829  0.48318  0.79498  Biso   1.000  O
  O1317    1.0000 0.58151  0.37471  0.80033  Biso   1.000  O
  H2939    1.0000 0.91480  0.05841  0.89500  Biso   1.000  H
  H2940    1.0000 0.85590  0.07471  0.89830  Biso   1.000  H
  H2941    1.0000 0.89398  0.10828  0.87790  Biso   1.000  H
  H2942    1.0000 0.93700  0.05209  0.94349  Biso   1.000  H
  H2943    1.0000 0.94037  0.10059  0.96569  Biso   1.000  H
  H2944    1.0000 0.88717  0.07100  0.96150  Biso   1.000  H
  H2945    1.0000 0.93987  0.18230  0.90410  Biso   1.000  H
  H2946    1.0000 0.95866  0.17120  0.93821  Biso   1.000  H
  H2947    1.0000 0.97868  0.13618  0.91071  Biso   1.000  H
  H2948    1.0000 0.09098  0.68760  0.92949  Biso   1.000  H
  H2949    1.0000 0.04497  0.70758  0.95050  Biso   1.000  H
  H2950    1.0000 0.06392  0.64948  0.95310  Biso   1.000  H
  H2951    1.0000 0.02090  0.58250  0.91890  Biso   1.000  H
  H2952    1.0000 0.00972  0.60038  0.88471  Biso   1.000  H
  H2953    1.0000 0.06660  0.60328  0.89800  Biso   1.000  H
  H2954    1.0000 0.98967  0.72680  0.89329  Biso   1.000  H
  H2955    1.0000 0.00670  0.68358  0.86959  Biso   1.000  H
  H2956    1.0000 0.04899  0.71849  0.88580  Biso   1.000  H
  O1318    1.0000 0.41849  0.62529  0.80033  Biso   1.000  O
  O1319    1.0000 0.51678  0.57829  0.79498  Biso   1.000  O
  O1320    1.0000 0.62529  0.58151  0.80033  Biso   1.000  O
  C3225    1.0000 0.47901  0.39400  0.76989  Biso   1.000  C
  S293     1.0000 0.37279  0.41738  0.76825  Biso   1.000  S
  C3226    1.0000 0.39400  0.52099  0.76989  Biso   1.000  C
  C3227    1.0000 0.60600  0.47901  0.76989  Biso   1.000  C
  S294     1.0000 0.58262  0.37279  0.76825  Biso   1.000  S
  S295     1.0000 0.41738  0.62721  0.76825  Biso   1.000  S
  C3228    1.0000 0.52099  0.60600  0.76989  Biso   1.000  C
  S296     1.0000 0.62721  0.58262  0.76825  Biso   1.000  S
  C3229    1.0000 0.42948  0.38990  0.75480  Biso   1.000  C
  C3230    1.0000 0.52008  0.37038  0.75560  Biso   1.000  C
  O1321    1.0000 0.33119  0.39021  0.75537  Biso   1.000  O
  C3231    1.0000 0.37038  0.47989  0.75560  Biso   1.000  C
  C3232    1.0000 0.38990  0.57048  0.75480  Biso   1.000  C
  C3233    1.0000 0.61010  0.42948  0.75480  Biso   1.000  C
  C3234    1.0000 0.62958  0.52008  0.75560  Biso   1.000  C
  O1322    1.0000 0.60979  0.33119  0.75537  Biso   1.000  O
  O1323    1.0000 0.39021  0.66877  0.75537  Biso   1.000  O
  C3235    1.0000 0.47989  0.62958  0.75560  Biso   1.000  C
  C3236    1.0000 0.57048  0.61010  0.75480  Biso   1.000  C
  O1324    1.0000 0.66877  0.60979  0.75537  Biso   1.000  O
  C3237    1.0000 0.42320  0.35660  0.73010  Biso   1.000  C
  C3238    1.0000 0.51158  0.33858  0.72930  Biso   1.000  C
  C3239    1.0000 0.33858  0.48838  0.72930  Biso   1.000  C
  C3240    1.0000 0.35660  0.57680  0.73010  Biso   1.000  C
  C3241    1.0000 0.64340  0.42320  0.73010  Biso   1.000  C
  C3242    1.0000 0.66138  0.51158  0.72930  Biso   1.000  C
  C3243    1.0000 0.48838  0.66138  0.72930  Biso   1.000  C
  C3244    1.0000 0.57680  0.64340  0.73010  Biso   1.000  C
  H2957    1.0000 0.39021  0.35148  0.72160  Biso   1.000  H
  C3245    1.0000 0.46339  0.33199  0.71819  Biso   1.000  C
  H2958    1.0000 0.53967  0.32231  0.71969  Biso   1.000  H
  C3246    1.0000 0.33199  0.53657  0.71819  Biso   1.000  C
  H2959    1.0000 0.32231  0.46029  0.71969  Biso   1.000  H
  H2960    1.0000 0.35148  0.60979  0.72160  Biso   1.000  H
  H2961    1.0000 0.64849  0.39021  0.72160  Biso   1.000  H
  C3247    1.0000 0.66801  0.46339  0.71819  Biso   1.000  C
  H2962    1.0000 0.67769  0.53967  0.71969  Biso   1.000  H
  C3248    1.0000 0.53657  0.66801  0.71819  Biso   1.000  C
  H2963    1.0000 0.46029  0.67769  0.71969  Biso   1.000  H
  H2964    1.0000 0.60979  0.64849  0.72160  Biso   1.000  H
  C3249    1.0000 0.45390  0.30218  0.68600  Biso   1.000  C
  C3250    1.0000 0.30218  0.54610  0.68600  Biso   1.000  C
  C3251    1.0000 0.69778  0.45390  0.68600  Biso   1.000  C
  C3252    1.0000 0.54610  0.69778  0.68600  Biso   1.000  C
  C3253    1.0000 0.39989  0.30199  0.67559  Biso   1.000  C
  C3254    1.0000 0.48609  0.33088  0.66271  Biso   1.000  C
  C3255    1.0000 0.47698  0.25169  0.69419  Biso   1.000  C
  C3256    1.0000 0.30199  0.60011  0.67559  Biso   1.000  C
  C3257    1.0000 0.33088  0.51387  0.66271  Biso   1.000  C
  C3258    1.0000 0.25169  0.52298  0.69419  Biso   1.000  C
  C3259    1.0000 0.69798  0.39989  0.67559  Biso   1.000  C
  C3260    1.0000 0.66908  0.48609  0.66271  Biso   1.000  C
  C3261    1.0000 0.74827  0.47698  0.69419  Biso   1.000  C
  C3262    1.0000 0.60011  0.69798  0.67559  Biso   1.000  C
  C3263    1.0000 0.51387  0.66908  0.66271  Biso   1.000  C
  C3264    1.0000 0.52298  0.74827  0.69419  Biso   1.000  C
  H2965    1.0000 0.39798  0.28828  0.65490  Biso   1.000  H
  H2966    1.0000 0.37938  0.28040  0.68930  Biso   1.000  H
  H2967    1.0000 0.38638  0.33701  0.67591  Biso   1.000  H
  H2968    1.0000 0.48100  0.36778  0.66521  Biso   1.000  H
  H2969    1.0000 0.52229  0.32258  0.66571  Biso   1.000  H
  H2970    1.0000 0.47560  0.32078  0.64210  Biso   1.000  H
  H2971    1.0000 0.50817  0.24630  0.68219  Biso   1.000  H
  H2972    1.0000 0.48547  0.25139  0.71589  Biso   1.000  H
  H2973    1.0000 0.45248  0.22429  0.68980  Biso   1.000  H
  H2974    1.0000 0.28828  0.60198  0.65490  Biso   1.000  H
  H2975    1.0000 0.28040  0.62058  0.68930  Biso   1.000  H
  H2976    1.0000 0.33701  0.61358  0.67591  Biso   1.000  H
  H2977    1.0000 0.36778  0.51900  0.66521  Biso   1.000  H
  H2978    1.0000 0.32258  0.47771  0.66571  Biso   1.000  H
  H2979    1.0000 0.32078  0.52440  0.64210  Biso   1.000  H
  H2980    1.0000 0.24630  0.49179  0.68219  Biso   1.000  H
  H2981    1.0000 0.25139  0.51449  0.71589  Biso   1.000  H
  H2982    1.0000 0.22429  0.54748  0.68980  Biso   1.000  H
  H2983    1.0000 0.71168  0.39798  0.65490  Biso   1.000  H
  H2984    1.0000 0.71960  0.37938  0.68930  Biso   1.000  H
  H2985    1.0000 0.66299  0.38638  0.67591  Biso   1.000  H
  H2986    1.0000 0.63218  0.48100  0.66521  Biso   1.000  H
  H2987    1.0000 0.67738  0.52229  0.66571  Biso   1.000  H
  H2988    1.0000 0.67918  0.47560  0.64210  Biso   1.000  H
  H2989    1.0000 0.75370  0.50817  0.68219  Biso   1.000  H
  H2990    1.0000 0.74857  0.48547  0.71589  Biso   1.000  H
  H2991    1.0000 0.77567  0.45248  0.68980  Biso   1.000  H
  H2992    1.0000 0.60198  0.71168  0.65490  Biso   1.000  H
  H2993    1.0000 0.62058  0.71960  0.68930  Biso   1.000  H
  H2994    1.0000 0.61358  0.66299  0.67591  Biso   1.000  H
  H2995    1.0000 0.51900  0.63218  0.66521  Biso   1.000  H
  H2996    1.0000 0.47771  0.67738  0.66571  Biso   1.000  H
  H2997    1.0000 0.52440  0.67918  0.64210  Biso   1.000  H
  H2998    1.0000 0.49179  0.75370  0.68219  Biso   1.000  H
  H2999    1.0000 0.51449  0.74857  0.71589  Biso   1.000  H
  H3000    1.0000 0.54748  0.77567  0.68980  Biso   1.000  H
