data_image0
_cell_length_a       29.153
_cell_length_b       29.153
_cell_length_c       26.747
_cell_angle_alpha    90
_cell_angle_beta     90
_cell_angle_gamma    120

_symmetry_space_group_name_H-M    "P 1"
_symmetry_int_tables_number       1

loop_
  _symmetry_equiv_pos_as_xyz
  'x, y, z'

loop_
  _atom_site_label
  _atom_site_occupancy
  _atom_site_fract_x
  _atom_site_fract_y
  _atom_site_fract_z
  _atom_site_thermal_displace_type
  _atom_site_B_iso_or_equiv
  _atom_site_type_symbol
  C1       1.0000 0.38555  0.42809  0.37208  Biso   1.000  C
  N1       1.0000 0.39408  0.43308  0.32176  Biso   1.000  N
  O1       1.0000 0.37059  0.38725  0.39649  Biso   1.000  O
  N2       1.0000 0.39600  0.47621  0.39070  Biso   1.000  N
  C2       1.0000 0.40182  0.39525  0.29308  Biso   1.000  C
  C3       1.0000 0.41472  0.48746  0.30489  Biso   1.000  C
  C4       1.0000 0.41461  0.51681  0.35264  Biso   1.000  C
  C5       1.0000 0.39822  0.48746  0.44338  Biso   1.000  C
  N3       1.0000 0.36396  0.37133  0.25259  Biso   1.000  N
  H1       1.0000 0.39886  0.36709  0.31577  Biso   1.000  H
  H2       1.0000 0.43814  0.41347  0.27906  Biso   1.000  H
  N4       1.0000 0.37930  0.49380  0.27158  Biso   1.000  N
  H3       1.0000 0.45104  0.50267  0.29035  Biso   1.000  H
  N5       1.0000 0.37735  0.53483  0.34108  Biso   1.000  N
  H4       1.0000 0.45074  0.54707  0.36056  Biso   1.000  H
  N6       1.0000 0.35414  0.49300  0.46043  Biso   1.000  N
  H5       1.0000 0.39875  0.45866  0.46237  Biso   1.000  H
  H6       1.0000 0.43165  0.52069  0.45067  Biso   1.000  H
  C6       1.0000 0.33349  0.31730  0.24829  Biso   1.000  C
  C7       1.0000 0.37209  0.39739  0.20440  Biso   1.000  C
  C8       1.0000 0.38060  0.48762  0.21797  Biso   1.000  C
  C9       1.0000 0.36173  0.52513  0.29233  Biso   1.000  C
  C10      1.0000 0.37546  0.57666  0.36920  Biso   1.000  C
  C11      1.0000 0.32133  0.46092  0.49755  Biso   1.000  C
  C12      1.0000 0.35684  0.54410  0.45949  Biso   1.000  C
  O2       1.0000 0.32493  0.28538  0.28183  Biso   1.000  O
  N7       1.0000 0.31422  0.30510  0.20096  Biso   1.000  N
  C13      1.0000 0.33602  0.35152  0.16895  Biso   1.000  C
  N8       1.0000 0.35088  0.43284  0.20182  Biso   1.000  N
  H7       1.0000 0.41002  0.41521  0.19382  Biso   1.000  H
  H8       1.0000 0.36618  0.50790  0.20129  Biso   1.000  H
  H9       1.0000 0.41799  0.50271  0.20731  Biso   1.000  H
  O3       1.0000 0.33512  0.54093  0.27076  Biso   1.000  O
  N9       1.0000 0.34164  0.55725  0.41253  Biso   1.000  N
  H10      1.0000 0.36251  0.59496  0.34695  Biso   1.000  H
  H11      1.0000 0.41172  0.60296  0.38008  Biso   1.000  H
  O4       1.0000 0.31680  0.41941  0.51165  Biso   1.000  O
  N10      1.0000 0.29421  0.48449  0.51666  Biso   1.000  N
  C14      1.0000 0.31194  0.53634  0.49583  Biso   1.000  C
  H12      1.0000 0.39214  0.57305  0.47097  Biso   1.000  H
  C15      1.0000 0.29139  0.25191  0.18099  Biso   1.000  C
  N11      1.0000 0.29670  0.36570  0.15288  Biso   1.000  N
  H13      1.0000 0.35612  0.34851  0.14009  Biso   1.000  H
  C16      1.0000 0.30780  0.41410  0.17052  Biso   1.000  C
  C17      1.0000 0.29373  0.55507  0.41549  Biso   1.000  C
  C18      1.0000 0.25924  0.46346  0.55928  Biso   1.000  C
  N12      1.0000 0.27420  0.53954  0.46271  Biso   1.000  N
  H14      1.0000 0.32503  0.56438  0.52226  Biso   1.000  H
  N13      1.0000 0.23535  0.22818  0.17008  Biso   1.000  N
  H15      1.0000 0.29661  0.22941  0.20541  Biso   1.000  H
  H16      1.0000 0.31040  0.25302  0.14989  Biso   1.000  H
  C19      1.0000 0.26030  0.33921  0.11190  Biso   1.000  C
  O5       1.0000 0.28368  0.43755  0.16013  Biso   1.000  O
  O6       1.0000 0.27197  0.56576  0.38184  Biso   1.000  O
  N14      1.0000 0.20349  0.43949  0.54687  Biso   1.000  N
  H17      1.0000 0.26534  0.43656  0.57577  Biso   1.000  H
  H18      1.0000 0.26854  0.49249  0.58347  Biso   1.000  H
  C20      1.0000 0.23073  0.54529  0.48106  Biso   1.000  C
  C21      1.0000 0.21608  0.23959  0.12480  Biso   1.000  C
  C22      1.0000 0.19702  0.18671  0.19640  Biso   1.000  C
  N15      1.0000 0.21478  0.28898  0.12607  Biso   1.000  N
  H19      1.0000 0.27962  0.33291  0.08468  Biso   1.000  H
  H20      1.0000 0.24779  0.36269  0.09870  Biso   1.000  H
  C23      1.0000 0.16904  0.38618  0.54810  Biso   1.000  C
  C24      1.0000 0.17683  0.46968  0.54186  Biso   1.000  C
  N16      1.0000 0.18395  0.49522  0.49314  Biso   1.000  N
  H21      1.0000 0.24243  0.56767  0.51146  Biso   1.000  H
  H22      1.0000 0.22132  0.56367  0.45557  Biso   1.000  H
  H23      1.0000 0.23480  0.23710  0.09452  Biso   1.000  H
  C25      1.0000 0.15651  0.19701  0.12484  Biso   1.000  C
  O7       1.0000 0.20383  0.16651  0.23363  Biso   1.000  O
  N17      1.0000 0.14938  0.17142  0.17351  Biso   1.000  N
  C26      1.0000 0.16430  0.28051  0.11859  Biso   1.000  C
  O8       1.0000 0.18077  0.35180  0.55434  Biso   1.000  O
  N18      1.0000 0.11857  0.37770  0.54058  Biso   1.000  N
  C27      1.0000 0.11724  0.42706  0.54186  Biso   1.000  C
  H24      1.0000 0.18582  0.49546  0.56997  Biso   1.000  H
  C28      1.0000 0.13633  0.47997  0.47026  Biso   1.000  C
  N19      1.0000 0.12984  0.22715  0.11983  Biso   1.000  N
  H25      1.0000 0.14751  0.17119  0.09668  Biso   1.000  H
  C29      1.0000 0.10262  0.12140  0.18559  Biso   1.000  C
  O9       1.0000 0.15257  0.31489  0.11231  Biso   1.000  O
  C30      1.0000 0.07305  0.32748  0.55475  Biso   1.000  C
  N20      1.0000 0.09799  0.43850  0.49658  Biso   1.000  N
  H26      1.0000 0.09853  0.42955  0.57218  Biso   1.000  H
  O10      1.0000 0.12950  0.50013  0.43302  Biso   1.000  O
  C31      1.0000 0.07409  0.20319  0.10741  Biso   1.000  C
  N21      1.0000 0.05915  0.12714  0.20399  Biso   1.000  N
  H27      1.0000 0.09091  0.09902  0.15519  Biso   1.000  H
  H28      1.0000 0.11200  0.10298  0.21109  Biso   1.000  H
  N22      1.0000 0.03664  0.30098  0.51378  Biso   1.000  N
  H29      1.0000 0.05373  0.33378  0.58197  Biso   1.000  H
  H30      1.0000 0.08553  0.30395  0.56795  Biso   1.000  H
  C32      1.0000 0.04195  0.41478  0.48566  Biso   1.000  C
  N23      1.0000 0.03913  0.18220  0.15004  Biso   1.000  N
  H31      1.0000 0.06798  0.23008  0.09089  Biso   1.000  H
  H32      1.0000 0.06480  0.17420  0.08319  Biso   1.000  H
  C33      1.0000 0.02139  0.13031  0.17082  Biso   1.000  C
  C34      1.0000 0.03962  0.11162  0.25117  Biso   1.000  C
  C35      1.0000 0.02555  0.25258  0.49613  Biso   1.000  C
  C36      1.0000 0.99732  0.31516  0.49770  Biso   1.000  C
  N24      1.0000 0.01913  0.36158  0.46573  Biso   1.000  N
  H33      1.0000 0.03674  0.43728  0.46129  Biso   1.000  H
  H34      1.0000 0.02294  0.41367  0.51677  Biso   1.000  H
  C37      1.0000 0.01200  0.20573  0.16910  Biso   1.000  C
  H35      1.0000 0.00831  0.10231  0.14439  Biso   1.000  H
  C38      1.0000 0.97648  0.12255  0.20716  Biso   1.000  C
  O11      1.0000 0.06135  0.10088  0.28482  Biso   1.000  O
  N25      1.0000 0.99174  0.10944  0.25412  Biso   1.000  N
  N26      1.0000 0.98246  0.23385  0.46484  Biso   1.000  N
  O12      1.0000 0.04965  0.22909  0.50652  Biso   1.000  O
  C39      1.0000 0.96125  0.26930  0.46226  Biso   1.000  C
  H36      1.0000 0.97725  0.31817  0.52656  Biso   1.000  H
  C40      1.0000 0.99986  0.34938  0.41836  Biso   1.000  C
  O13      1.0000 0.01653  0.24723  0.15501  Biso   1.000  O
  N27      1.0000 0.97920  0.17368  0.20623  Biso   1.000  N
  H37      1.0000 0.94122  0.09359  0.19569  Biso   1.000  H
  C41      1.0000 0.95792  0.09003  0.29745  Biso   1.000  C
  C42      1.0000 0.95274  0.17907  0.44872  Biso   1.000  C
  N28      1.0000 0.96938  0.29536  0.41407  Biso   1.000  N
  H38      1.0000 0.92336  0.25147  0.47288  Biso   1.000  H
  O14      1.0000 0.00841  0.38131  0.38487  Biso   1.000  O
  C43      1.0000 0.93510  0.17919  0.22331  Biso   1.000  C
  N29      1.0000 0.95599  0.13186  0.32557  Biso   1.000  N
  H39      1.0000 0.97081  0.07169  0.31970  Biso   1.000  H
  H40      1.0000 0.92160  0.06369  0.28661  Biso   1.000  H
  N30      1.0000 0.95407  0.17289  0.39511  Biso   1.000  N
  H41      1.0000 0.96714  0.15875  0.46536  Biso   1.000  H
  H42      1.0000 0.91535  0.16398  0.45938  Biso   1.000  H
  C44      1.0000 0.93150  0.27140  0.37361  Biso   1.000  C
  N31      1.0000 0.93738  0.19048  0.27599  Biso   1.000  N
  H43      1.0000 0.93461  0.20798  0.20428  Biso   1.000  H
  H44      1.0000 0.90169  0.14600  0.21599  Biso   1.000  H
  C45      1.0000 0.91871  0.14984  0.31402  Biso   1.000  C
  C46      1.0000 0.97165  0.14156  0.37432  Biso   1.000  C
  C47      1.0000 0.91860  0.17919  0.36176  Biso   1.000  C
  N32      1.0000 0.93924  0.23357  0.34494  Biso   1.000  N
  H45      1.0000 0.93452  0.29960  0.35092  Biso   1.000  H
  H46      1.0000 0.89521  0.25322  0.38759  Biso   1.000  H
  C48      1.0000 0.94783  0.23860  0.29461  Biso   1.000  C
  H47      1.0000 0.88261  0.11962  0.30609  Biso   1.000  H
  O15      1.0000 0.99825  0.12576  0.39593  Biso   1.000  O
  H48      1.0000 0.88230  0.16402  0.37630  Biso   1.000  H
  O16      1.0000 0.96276  0.27944  0.27020  Biso   1.000  O
  O17      1.0000 0.50435  0.48587  0.22100  Biso   1.000  O
  C49      1.0000 0.55047  0.49764  0.21475  Biso   1.000  C
  N33      1.0000 0.56936  0.46318  0.21352  Biso   1.000  N
  N34      1.0000 0.59244  0.54810  0.20728  Biso   1.000  N
  C50      1.0000 0.53758  0.40745  0.22593  Biso   1.000  C
  C51      1.0000 0.62618  0.48984  0.20851  Biso   1.000  C
  C52      1.0000 0.64319  0.54945  0.20851  Biso   1.000  C
  C53      1.0000 0.58777  0.59365  0.22145  Biso   1.000  C
  N35      1.0000 0.52360  0.37248  0.18331  Biso   1.000  N
  H49      1.0000 0.50459  0.40135  0.24242  Biso   1.000  H
  H50      1.0000 0.55728  0.39814  0.25012  Biso   1.000  H
  N36      1.0000 0.64460  0.48271  0.15983  Biso   1.000  N
  H51      1.0000 0.64299  0.48084  0.23662  Biso   1.000  H
  N37      1.0000 0.67384  0.56870  0.16323  Biso   1.000  N
  H52      1.0000 0.66437  0.56814  0.23883  Biso   1.000  H
  N38      1.0000 0.59765  0.63001  0.18047  Biso   1.000  N
  H53      1.0000 0.61337  0.61294  0.24863  Biso   1.000  H
  H54      1.0000 0.55177  0.58113  0.23464  Biso   1.000  H
  C54      1.0000 0.47295  0.34534  0.16424  Biso   1.000  C
  C55      1.0000 0.55774  0.35473  0.16249  Biso   1.000  C
  C56      1.0000 0.64787  0.43593  0.14772  Biso   1.000  C
  C57      1.0000 0.67697  0.53036  0.13695  Biso   1.000  C
  C58      1.0000 0.70619  0.62474  0.15232  Biso   1.000  C
  C59      1.0000 0.56037  0.64114  0.16278  Biso   1.000  C
  C60      1.0000 0.65117  0.66934  0.16439  Biso   1.000  C
  O18      1.0000 0.43597  0.34986  0.17830  Biso   1.000  O
  N39      1.0000 0.47219  0.31255  0.12708  Biso   1.000  N
  C61      1.0000 0.52060  0.30982  0.12614  Biso   1.000  C
  N40      1.0000 0.59867  0.39248  0.12936  Biso   1.000  N
  H55      1.0000 0.57266  0.34162  0.18892  Biso   1.000  H
  H56      1.0000 0.65856  0.42424  0.17815  Biso   1.000  H
  H57      1.0000 0.67567  0.44536  0.12222  Biso   1.000  H
  O19      1.0000 0.70398  0.53717  0.09971  Biso   1.000  O
  N41      1.0000 0.67576  0.64752  0.13239  Biso   1.000  N
  H58      1.0000 0.73386  0.62993  0.12794  Biso   1.000  H
  H59      1.0000 0.72407  0.64375  0.18342  Biso   1.000  H
  O20      1.0000 0.51281  0.61702  0.17322  Biso   1.000  O
  N42      1.0000 0.58471  0.68419  0.13153  Biso   1.000  N
  C62      1.0000 0.64140  0.70542  0.12891  Biso   1.000  C
  H60      1.0000 0.67425  0.68942  0.19322  Biso   1.000  H
  C63      1.0000 0.42255  0.26843  0.11003  Biso   1.000  C
  N43      1.0000 0.54894  0.32507  0.07922  Biso   1.000  N
  H61      1.0000 0.51427  0.27453  0.13762  Biso   1.000  H
  C64      1.0000 0.59467  0.37295  0.08214  Biso   1.000  C
  C65      1.0000 0.68289  0.66685  0.08502  Biso   1.000  C
  C66      1.0000 0.55966  0.71394  0.11538  Biso   1.000  C
  N44      1.0000 0.65929  0.69730  0.08076  Biso   1.000  N
  H62      1.0000 0.66148  0.74333  0.13953  Biso   1.000  H
  N45      1.0000 0.41356  0.27068  0.05735  Biso   1.000  N
  H63      1.0000 0.39326  0.26795  0.12902  Biso   1.000  H
  H64      1.0000 0.42236  0.23504  0.11732  Biso   1.000  H
  C67      1.0000 0.53453  0.29124  0.03589  Biso   1.000  C
  O21      1.0000 0.62715  0.39470  0.04853  Biso   1.000  O
  O22      1.0000 0.70626  0.65829  0.05152  Biso   1.000  O
  N46      1.0000 0.55218  0.71263  0.06176  Biso   1.000  N
  H65      1.0000 0.52497  0.69952  0.13205  Biso   1.000  H
  H66      1.0000 0.58196  0.75133  0.12603  Biso   1.000  H
  C68      1.0000 0.67325  0.73517  0.04027  Biso   1.000  C
  C69      1.0000 0.37588  0.28114  0.03873  Biso   1.000  C
  C70      1.0000 0.43552  0.25203  0.01929  Biso   1.000  C
  N47      1.0000 0.49079  0.28930  0.00778  Biso   1.000  N
  H67      1.0000 0.56579  0.30415  0.01365  Biso   1.000  H
  H68      1.0000 0.52457  0.25492  0.04673  Biso   1.000  H
  C71      1.0000 0.59395  0.74808  0.02845  Biso   1.000  C
  C72      1.0000 0.50325  0.69505  0.04101  Biso   1.000  C
  N48      1.0000 0.62766  0.72741  0.01159  Biso   1.000  N
  H69      1.0000 0.69843  0.73216  0.01757  Biso   1.000  H
  H70      1.0000 0.69134  0.77149  0.05425  Biso   1.000  H
  O23      1.0000 0.34997  0.29607  0.06315  Biso   1.000  O
  N49      1.0000 0.37232  0.27258  0.98841  Biso   1.000  N
  H71      1.0000 0.42969  0.21594  0.02722  Biso   1.000  H
  C73      1.0000 0.40608  0.25195  0.97159  Biso   1.000  C
  C74      1.0000 0.49674  0.30498  0.95902  Biso   1.000  C
  H72      1.0000 0.61504  0.78436  0.04296  Biso   1.000  H
  C75      1.0000 0.56449  0.74796  0.98071  Biso   1.000  C
  O24      1.0000 0.46088  0.66847  0.06259  Biso   1.000  O
  N50      1.0000 0.50919  0.71069  0.99222  Biso   1.000  N
  C76      1.0000 0.62415  0.71889  0.96127  Biso   1.000  C
  C77      1.0000 0.32676  0.26482  0.95973  Biso   1.000  C
  N51      1.0000 0.44783  0.28736  0.93824  Biso   1.000  N
  H73      1.0000 0.38497  0.21563  0.95704  Biso   1.000  H
  O25      1.0000 0.53916  0.33156  0.93741  Biso   1.000  O
  N52      1.0000 0.58645  0.72931  0.94265  Biso   1.000  N
  H74      1.0000 0.57034  0.78409  0.97278  Biso   1.000  H
  C78      1.0000 0.46546  0.70879  0.96415  Biso   1.000  C
  O26      1.0000 0.65004  0.70392  0.93685  Biso   1.000  O
  N53      1.0000 0.34071  0.30273  0.91924  Biso   1.000  N
  H75      1.0000 0.30158  0.26783  0.98243  Biso   1.000  H
  H76      1.0000 0.30866  0.22854  0.94575  Biso   1.000  H
  C79      1.0000 0.44032  0.28605  0.88462  Biso   1.000  C
  C80      1.0000 0.57742  0.73157  0.88997  Biso   1.000  C
  N54      1.0000 0.45106  0.67496  0.92078  Biso   1.000  N
  H77      1.0000 0.43424  0.69588  0.98635  Biso   1.000  H
  H78      1.0000 0.47544  0.74507  0.95327  Biso   1.000  H
  C81      1.0000 0.35862  0.29457  0.87109  Biso   1.000  C
  C82      1.0000 0.31714  0.33318  0.91498  Biso   1.000  C
  N55      1.0000 0.41530  0.31580  0.86847  Biso   1.000  N
  H79      1.0000 0.47504  0.30047  0.86799  Biso   1.000  H
  H80      1.0000 0.41802  0.24866  0.87397  Biso   1.000  H
  N56      1.0000 0.52784  0.68748  0.87292  Biso   1.000  N
  H81      1.0000 0.60674  0.73208  0.87098  Biso   1.000  H
  H82      1.0000 0.57762  0.76495  0.88268  Biso   1.000  H
  C83      1.0000 0.47941  0.69017  0.87386  Biso   1.000  C
  C84      1.0000 0.40533  0.62708  0.91786  Biso   1.000  C
  H83      1.0000 0.33853  0.25666  0.86047  Biso   1.000  H
  C85      1.0000 0.34884  0.33065  0.83565  Biso   1.000  C
  O27      1.0000 0.29375  0.34170  0.94848  Biso   1.000  O
  N57      1.0000 0.32422  0.35247  0.86761  Biso   1.000  N
  C86      1.0000 0.43964  0.35885  0.83722  Biso   1.000  C
  C87      1.0000 0.52708  0.65469  0.83576  Biso   1.000  C
  C88      1.0000 0.44224  0.64526  0.83751  Biso   1.000  C
  H84      1.0000 0.48574  0.72547  0.86238  Biso   1.000  H
  N58      1.0000 0.40131  0.60751  0.87064  Biso   1.000  N
  O28      1.0000 0.37286  0.60529  0.95151  Biso   1.000  O
  N59      1.0000 0.40233  0.36998  0.81953  Biso   1.000  N
  H85      1.0000 0.32573  0.31057  0.80678  Biso   1.000  H
  C89      1.0000 0.29384  0.37529  0.84768  Biso   1.000  C
  O29      1.0000 0.48720  0.38297  0.82678  Biso   1.000  O
  N60      1.0000 0.47638  0.62751  0.81669  Biso   1.000  N
  O30      1.0000 0.56405  0.65013  0.82170  Biso   1.000  O
  H86      1.0000 0.42732  0.65837  0.81108  Biso   1.000  H
  C90      1.0000 0.35214  0.56406  0.85228  Biso   1.000  C
  C91      1.0000 0.41223  0.40638  0.77855  Biso   1.000  C
  N61      1.0000 0.32615  0.43133  0.83677  Biso   1.000  N
  H87      1.0000 0.26612  0.37006  0.87206  Biso   1.000  H
  H88      1.0000 0.27593  0.35628  0.81658  Biso   1.000  H
  C92      1.0000 0.46245  0.59258  0.77407  Biso   1.000  C
  N62      1.0000 0.35541  0.51728  0.84021  Biso   1.000  N
  H89      1.0000 0.34144  0.57579  0.82189  Biso   1.000  H
  H90      1.0000 0.32433  0.55467  0.87778  Biso   1.000  H
  N63      1.0000 0.40756  0.45193  0.79272  Biso   1.000  N
  H91      1.0000 0.38665  0.38705  0.75137  Biso   1.000  H
  H92      1.0000 0.44824  0.41886  0.76536  Biso   1.000  H
  C93      1.0000 0.35684  0.45058  0.79149  Biso   1.000  C
  C94      1.0000 0.32303  0.46968  0.86309  Biso   1.000  C
  N64      1.0000 0.43067  0.53685  0.78648  Biso   1.000  N
  H93      1.0000 0.49544  0.59868  0.75758  Biso   1.000  H
  H94      1.0000 0.44275  0.60189  0.74988  Biso   1.000  H
  C95      1.0000 0.37383  0.51015  0.79149  Biso   1.000  C
  C96      1.0000 0.44956  0.50239  0.78525  Biso   1.000  C
  H95      1.0000 0.33566  0.43189  0.76117  Biso   1.000  H
  O31      1.0000 0.29600  0.46282  0.90029  Biso   1.000  O
  H96      1.0000 0.35704  0.51919  0.76338  Biso   1.000  H
  O32      1.0000 0.49566  0.51412  0.77900  Biso   1.000  O
  C97      1.0000 0.41476  0.37283  0.51434  Biso   1.000  C
  N65      1.0000 0.36160  0.34245  0.53430  Biso   1.000  N
  N66      1.0000 0.43850  0.34051  0.50342  Biso   1.000  N
  H97      1.0000 0.43725  0.40052  0.53875  Biso   1.000  H
  H98      1.0000 0.41366  0.39074  0.48323  Biso   1.000  H
  C98      1.0000 0.31517  0.31786  0.50230  Biso   1.000  C
  C99      1.0000 0.34937  0.34954  0.58164  Biso   1.000  C
  C100     1.0000 0.42708  0.30986  0.45814  Biso   1.000  C
  C101     1.0000 0.47999  0.34364  0.52974  Biso   1.000  C
  N67      1.0000 0.30101  0.26435  0.48622  Biso   1.000  N
  C102     1.0000 0.26929  0.30807  0.53774  Biso   1.000  C
  H99      1.0000 0.31818  0.34095  0.47344  Biso   1.000  H
  N68      1.0000 0.29536  0.32598  0.58593  Biso   1.000  N
  O33      1.0000 0.38129  0.37291  0.61513  Biso   1.000  O
  N69      1.0000 0.37770  0.25912  0.45942  Biso   1.000  N
  H100     1.0000 0.42958  0.33105  0.42782  Biso   1.000  H
  C103     1.0000 0.46967  0.29282  0.45818  Biso   1.000  C
  N70      1.0000 0.49523  0.31128  0.50686  Biso   1.000  N
  O34      1.0000 0.50015  0.37065  0.56698  Biso   1.000  O
  C104     1.0000 0.32748  0.25444  0.44525  Biso   1.000  C
  C105     1.0000 0.25258  0.22703  0.50387  Biso   1.000  C
  N71      1.0000 0.23385  0.25139  0.53516  Biso   1.000  N
  H101     1.0000 0.25148  0.32815  0.52712  Biso   1.000  H
  C106     1.0000 0.27142  0.33992  0.62639  Biso   1.000  C
  C107     1.0000 0.38617  0.21713  0.45190  Biso   1.000  C
  N72      1.0000 0.43950  0.23599  0.45317  Biso   1.000  N
  H102     1.0000 0.49546  0.30962  0.43003  Biso   1.000  H
  C108     1.0000 0.54525  0.31453  0.51894  Biso   1.000  C
  H103     1.0000 0.33375  0.28003  0.41803  Biso   1.000  H
  H104     1.0000 0.30399  0.21844  0.43205  Biso   1.000  H
  O35      1.0000 0.22910  0.17947  0.49348  Biso   1.000  O
  C109     1.0000 0.17905  0.22632  0.55128  Biso   1.000  C
  N73      1.0000 0.23357  0.29433  0.65506  Biso   1.000  N
  H105     1.0000 0.29959  0.36511  0.64912  Biso   1.000  H
  H106     1.0000 0.25320  0.35802  0.61241  Biso   1.000  H
  O36      1.0000 0.35180  0.17103  0.44566  Biso   1.000  O
  C110     1.0000 0.46348  0.20422  0.44072  Biso   1.000  C
  N74      1.0000 0.53952  0.26534  0.53733  Biso   1.000  N
  H107     1.0000 0.56768  0.32522  0.48854  Biso   1.000  H
  H108     1.0000 0.56368  0.34233  0.54443  Biso   1.000  H
  N75      1.0000 0.17288  0.21884  0.60489  Biso   1.000  N
  H109     1.0000 0.15876  0.19162  0.53464  Biso   1.000  H
  H110     1.0000 0.16396  0.24862  0.54062  Biso   1.000  H
  C111     1.0000 0.17921  0.26058  0.63824  Biso   1.000  C
  C112     1.0000 0.23860  0.29080  0.70539  Biso   1.000  C
  N76      1.0000 0.48446  0.19028  0.48338  Biso   1.000  N
  H111     1.0000 0.43655  0.17123  0.42423  Biso   1.000  H
  H112     1.0000 0.49248  0.22395  0.41653  Biso   1.000  H
  C113     1.0000 0.53635  0.22442  0.50417  Biso   1.000  C
  C114     1.0000 0.55508  0.26134  0.58451  Biso   1.000  C
  C115     1.0000 0.14156  0.16992  0.62568  Biso   1.000  C
  C116     1.0000 0.14984  0.23115  0.68598  Biso   1.000  C
  H113     1.0000 0.16400  0.28169  0.62370  Biso   1.000  H
  N77      1.0000 0.19045  0.25310  0.72401  Biso   1.000  N
  O37      1.0000 0.27944  0.31671  0.72984  Biso   1.000  O
  C117     1.0000 0.46093  0.13958  0.50245  Biso   1.000  C
  H114     1.0000 0.56436  0.23935  0.47774  Biso   1.000  H
  C118     1.0000 0.54412  0.18727  0.54051  Biso   1.000  C
  N78      1.0000 0.55724  0.21563  0.58747  Biso   1.000  N
  O38      1.0000 0.56577  0.29381  0.61816  Biso   1.000  O
  O39      1.0000 0.12575  0.12754  0.60407  Biso   1.000  O
  N79      1.0000 0.13184  0.17586  0.67443  Biso   1.000  N
  H115     1.0000 0.11961  0.23702  0.69391  Biso   1.000  H
  C119     1.0000 0.17920  0.24411  0.77669  Biso   1.000  C
  O40      1.0000 0.41944  0.10263  0.48835  Biso   1.000  O
  N80      1.0000 0.49299  0.13887  0.53957  Biso   1.000  N
  H116     1.0000 0.57306  0.18093  0.52903  Biso   1.000  H
  C120     1.0000 0.57665  0.20121  0.63080  Biso   1.000  C
  C121     1.0000 0.09004  0.13213  0.70255  Biso   1.000  C
  N81      1.0000 0.17366  0.19448  0.79377  Biso   1.000  N
  H117     1.0000 0.20802  0.27342  0.79572  Biso   1.000  H
  H118     1.0000 0.14599  0.24430  0.78401  Biso   1.000  H
  C122     1.0000 0.48749  0.08924  0.55662  Biso   1.000  C
  N82      1.0000 0.53485  0.15748  0.65892  Biso   1.000  N
  H119     1.0000 0.59496  0.23242  0.65305  Biso   1.000  H
  H120     1.0000 0.60297  0.19123  0.61992  Biso   1.000  H
  N83      1.0000 0.10945  0.11772  0.74588  Biso   1.000  N
  H121     1.0000 0.07171  0.10088  0.68030  Biso   1.000  H
  H122     1.0000 0.06372  0.14211  0.71339  Biso   1.000  H
  C123     1.0000 0.12257  0.14608  0.79284  Biso   1.000  C
  C124     1.0000 0.20574  0.19372  0.83090  Biso   1.000  C
  N84      1.0000 0.47622  0.08021  0.60930  Biso   1.000  N
  H123     1.0000 0.45867  0.05993  0.53763  Biso   1.000  H
  H124     1.0000 0.52066  0.08904  0.54933  Biso   1.000  H
  C125     1.0000 0.51681  0.10219  0.64736  Biso   1.000  C
  C126     1.0000 0.52513  0.16342  0.70767  Biso   1.000  C
  C127     1.0000 0.11161  0.07201  0.74883  Biso   1.000  C
  C128     1.0000 0.13034  0.10892  0.82918  Biso   1.000  C
  H125     1.0000 0.09360  0.15241  0.80431  Biso   1.000  H
  O41      1.0000 0.24725  0.23072  0.84499  Biso   1.000  O
  N85      1.0000 0.18219  0.14307  0.84996  Biso   1.000  N
  C129     1.0000 0.42809  0.04254  0.62792  Biso   1.000  C
  H126     1.0000 0.54708  0.09633  0.63944  Biso   1.000  H
  C130     1.0000 0.48746  0.07272  0.69511  Biso   1.000  C
  N86      1.0000 0.49381  0.11451  0.72842  Biso   1.000  N
  O42      1.0000 0.54094  0.20580  0.72924  Biso   1.000  O
  O43      1.0000 0.10089  0.03953  0.71518  Biso   1.000  O
  N87      1.0000 0.12713  0.06801  0.79601  Biso   1.000  N
  H127     1.0000 0.10229  0.09399  0.85561  Biso   1.000  H
  C131     1.0000 0.20319  0.12908  0.89259  Biso   1.000  C
  O44      1.0000 0.38722  0.01664  0.60351  Biso   1.000  O
  N88      1.0000 0.43308  0.03901  0.67824  Biso   1.000  N
  H128     1.0000 0.50269  0.05165  0.70965  Biso   1.000  H
  C132     1.0000 0.48758  0.10698  0.78203  Biso   1.000  C
  C133     1.0000 0.12140  0.01881  0.81441  Biso   1.000  C
  N89      1.0000 0.22717  0.09732  0.88017  Biso   1.000  N
  H129     1.0000 0.23010  0.16212  0.90911  Biso   1.000  H
  H130     1.0000 0.17421  0.10940  0.91681  Biso   1.000  H
  C134     1.0000 0.39525  0.99346  0.70692  Biso   1.000  C
  N90      1.0000 0.43284  0.08195  0.79818  Biso   1.000  N
  H131     1.0000 0.50790  0.14172  0.79871  Biso   1.000  H
  H132     1.0000 0.50271  0.08468  0.79269  Biso   1.000  H
  N91      1.0000 0.17143  0.02206  0.82649  Biso   1.000  N
  H133     1.0000 0.09901  0.00812  0.84481  Biso   1.000  H
  H134     1.0000 0.10301  0.99101  0.78891  Biso   1.000  H
  C135     1.0000 0.19702  0.04052  0.87516  Biso   1.000  C
  C136     1.0000 0.28052  0.11621  0.88141  Biso   1.000  C
  N92      1.0000 0.37133  0.00737  0.74741  Biso   1.000  N
  H135     1.0000 0.36710  0.96823  0.68423  Biso   1.000  H
  H136     1.0000 0.41350  0.97536  0.72094  Biso   1.000  H
  C137     1.0000 0.39736  0.02527  0.79560  Biso   1.000  C
  C138     1.0000 0.41411  0.10631  0.82948  Biso   1.000  C
  C139     1.0000 0.18670  0.98970  0.80360  Biso   1.000  C
  C140     1.0000 0.23961  0.02349  0.87520  Biso   1.000  C
  H137     1.0000 0.17121  0.02369  0.90332  Biso   1.000  H
  O45      1.0000 0.31486  0.16231  0.88769  Biso   1.000  O
  N93      1.0000 0.28899  0.07423  0.87393  Biso   1.000  N
  C141     1.0000 0.31729  0.98380  0.75171  Biso   1.000  C
  H138     1.0000 0.41521  0.00519  0.80622  Biso   1.000  H
  C142     1.0000 0.35152  0.01549  0.83105  Biso   1.000  C
  N94      1.0000 0.36568  0.06900  0.84712  Biso   1.000  N
  O46      1.0000 0.43755  0.15388  0.83987  Biso   1.000  O
  O47      1.0000 0.16654  0.96269  0.76637  Biso   1.000  O
  N95      1.0000 0.22816  0.99283  0.82992  Biso   1.000  N
  H139     1.0000 0.23711  0.00230  0.90548  Biso   1.000  H
  C143     1.0000 0.33921  0.07890  0.88810  Biso   1.000  C
  O48      1.0000 0.28536  0.96043  0.71817  Biso   1.000  O
  N96      1.0000 0.30509  0.99089  0.79904  Biso   1.000  N
  H140     1.0000 0.34853  0.99243  0.85991  Biso   1.000  H
  C144     1.0000 0.25193  0.96051  0.81901  Biso   1.000  C
  H141     1.0000 0.33290  0.05331  0.91532  Biso   1.000  H
  H142     1.0000 0.36270  0.11490  0.90130  Biso   1.000  H
  H143     1.0000 0.22944  0.93282  0.79459  Biso   1.000  H
  H144     1.0000 0.25302  0.94261  0.85011  Biso   1.000  H
  O49      1.0000 0.49986  0.62934  0.43302  Biso   1.000  O
  C145     1.0000 0.52004  0.65639  0.47026  Biso   1.000  C
  N97      1.0000 0.56150  0.65952  0.49658  Biso   1.000  N
  N98      1.0000 0.50477  0.68875  0.49314  Biso   1.000  N
  C146     1.0000 0.57295  0.69017  0.54186  Biso   1.000  C
  C147     1.0000 0.58521  0.62716  0.48566  Biso   1.000  C
  C148     1.0000 0.53034  0.70717  0.54186  Biso   1.000  C
  C149     1.0000 0.45473  0.68546  0.48106  Biso   1.000  C
  N99      1.0000 0.62233  0.74091  0.54058  Biso   1.000  N
  H145     1.0000 0.57045  0.66898  0.57218  Biso   1.000  H
  N100     1.0000 0.63843  0.65758  0.46573  Biso   1.000  N
  H146     1.0000 0.56273  0.59947  0.46129  Biso   1.000  H
  H147     1.0000 0.58631  0.60925  0.51677  Biso   1.000  H
  N101     1.0000 0.56051  0.76400  0.54687  Biso   1.000  N
  H148     1.0000 0.50455  0.69037  0.56997  Biso   1.000  H
  N102     1.0000 0.46046  0.73465  0.46271  Biso   1.000  N
  H149     1.0000 0.43233  0.67477  0.51146  Biso   1.000  H
  H150     1.0000 0.43633  0.65766  0.45557  Biso   1.000  H
  C150     1.0000 0.67256  0.74559  0.55475  Biso   1.000  C
  C151     1.0000 0.61384  0.78286  0.54810  Biso   1.000  C
  C152     1.0000 0.68486  0.68217  0.49770  Biso   1.000  C
  C153     1.0000 0.65063  0.65049  0.41836  Biso   1.000  C
  C154     1.0000 0.53653  0.79577  0.55928  Biso   1.000  C
  C155     1.0000 0.46368  0.77561  0.49583  Biso   1.000  C
  C156     1.0000 0.44493  0.73866  0.41549  Biso   1.000  C
  N103     1.0000 0.69903  0.73568  0.51378  Biso   1.000  N
  H151     1.0000 0.66623  0.71996  0.58197  Biso   1.000  H
  H152     1.0000 0.69605  0.78159  0.56795  Biso   1.000  H
  O50      1.0000 0.64820  0.82900  0.55434  Biso   1.000  O
  C157     1.0000 0.73071  0.69196  0.46226  Biso   1.000  C
  H153     1.0000 0.68185  0.65908  0.52656  Biso   1.000  H
  O51      1.0000 0.61874  0.62712  0.38487  Biso   1.000  O
  N104     1.0000 0.70467  0.67405  0.41407  Biso   1.000  N
  N105     1.0000 0.51553  0.80975  0.51666  Biso   1.000  N
  H154     1.0000 0.56342  0.82876  0.57577  Biso   1.000  H
  H155     1.0000 0.50755  0.77608  0.58347  Biso   1.000  H
  H156     1.0000 0.43563  0.76068  0.52226  Biso   1.000  H
  C158     1.0000 0.45591  0.81276  0.45949  Biso   1.000  C
  O52      1.0000 0.43423  0.70622  0.38184  Biso   1.000  O
  N106     1.0000 0.44280  0.78440  0.41253  Biso   1.000  N
  C159     1.0000 0.74744  0.77296  0.49613  Biso   1.000  C
  N107     1.0000 0.76618  0.74864  0.46484  Biso   1.000  N
  H157     1.0000 0.74855  0.67188  0.47288  Biso   1.000  H
  C160     1.0000 0.72861  0.66011  0.37361  Biso   1.000  C
  C161     1.0000 0.53908  0.86041  0.49755  Biso   1.000  C
  N108     1.0000 0.50701  0.86116  0.46043  Biso   1.000  N
  H158     1.0000 0.42692  0.81906  0.47097  Biso   1.000  H
  C162     1.0000 0.42339  0.79882  0.36920  Biso   1.000  C
  O53      1.0000 0.77088  0.82053  0.50652  Biso   1.000  O
  C163     1.0000 0.82092  0.77367  0.44872  Biso   1.000  C
  N109     1.0000 0.76641  0.70566  0.34494  Biso   1.000  N
  H159     1.0000 0.70041  0.63492  0.35092  Biso   1.000  H
  H160     1.0000 0.74679  0.64201  0.38759  Biso   1.000  H
  O54      1.0000 0.58059  0.89741  0.51165  Biso   1.000  O
  C164     1.0000 0.51254  0.91079  0.44338  Biso   1.000  C
  N110     1.0000 0.46518  0.84255  0.34108  Biso   1.000  N
  H161     1.0000 0.40505  0.76757  0.34695  Biso   1.000  H
  H162     1.0000 0.39704  0.80876  0.38008  Biso   1.000  H
  N111     1.0000 0.82716  0.78119  0.39511  Biso   1.000  N
  H163     1.0000 0.84122  0.80837  0.46536  Biso   1.000  H
  H164     1.0000 0.83605  0.75137  0.45938  Biso   1.000  H
  C165     1.0000 0.76143  0.70923  0.29461  Biso   1.000  C
  C166     1.0000 0.82081  0.73941  0.36176  Biso   1.000  C
  N112     1.0000 0.52380  0.91978  0.39070  Biso   1.000  N
  H165     1.0000 0.54135  0.94006  0.46237  Biso   1.000  H
  H166     1.0000 0.47934  0.91099  0.45067  Biso   1.000  H
  C167     1.0000 0.48319  0.89784  0.35264  Biso   1.000  C
  C168     1.0000 0.47490  0.83661  0.29233  Biso   1.000  C
  C169     1.0000 0.85845  0.83007  0.37432  Biso   1.000  C
  O55      1.0000 0.72056  0.68332  0.27020  Biso   1.000  O
  N113     1.0000 0.80956  0.74689  0.27599  Biso   1.000  N
  C170     1.0000 0.85015  0.76888  0.31402  Biso   1.000  C
  H167     1.0000 0.83601  0.71830  0.37630  Biso   1.000  H
  C171     1.0000 0.57194  0.95749  0.37208  Biso   1.000  C
  H168     1.0000 0.45293  0.90366  0.36056  Biso   1.000  H
  C172     1.0000 0.51255  0.92727  0.30489  Biso   1.000  C
  O56      1.0000 0.45908  0.79419  0.27076  Biso   1.000  O
  N114     1.0000 0.50622  0.88552  0.27158  Biso   1.000  N
  O57      1.0000 0.87428  0.87249  0.39593  Biso   1.000  O
  N115     1.0000 0.86818  0.82413  0.32557  Biso   1.000  N
  C173     1.0000 0.82083  0.75592  0.22331  Biso   1.000  C
  H169     1.0000 0.88043  0.76301  0.30609  Biso   1.000  H
  O58      1.0000 0.61276  0.98336  0.39649  Biso   1.000  O
  N116     1.0000 0.56691  0.96102  0.32176  Biso   1.000  N
  H170     1.0000 0.49734  0.94838  0.29035  Biso   1.000  H
  C174     1.0000 0.51240  0.89301  0.21797  Biso   1.000  C
  C175     1.0000 0.90999  0.86790  0.29745  Biso   1.000  C
  N117     1.0000 0.82632  0.80551  0.20623  Biso   1.000  N
  H171     1.0000 0.79201  0.72661  0.20428  Biso   1.000  H
  H172     1.0000 0.85401  0.75573  0.21599  Biso   1.000  H
  C176     1.0000 0.60475  0.00657  0.29308  Biso   1.000  C
  N118     1.0000 0.56717  0.91804  0.20182  Biso   1.000  N
  H173     1.0000 0.49210  0.85831  0.20129  Biso   1.000  H
  H174     1.0000 0.49731  0.91531  0.20731  Biso   1.000  H
  N119     1.0000 0.89056  0.88227  0.25412  Biso   1.000  N
  H175     1.0000 0.92830  0.89911  0.31970  Biso   1.000  H
  H176     1.0000 0.93632  0.85792  0.28661  Biso   1.000  H
  C177     1.0000 0.79428  0.80627  0.16910  Biso   1.000  C
  C178     1.0000 0.87744  0.85392  0.20716  Biso   1.000  C
  N120     1.0000 0.62868  0.99262  0.25259  Biso   1.000  N
  H177     1.0000 0.63295  0.03176  0.31577  Biso   1.000  H
  H178     1.0000 0.58653  0.02467  0.27906  Biso   1.000  H
  C179     1.0000 0.58592  0.89372  0.17052  Biso   1.000  C
  C180     1.0000 0.60261  0.97472  0.20440  Biso   1.000  C
  C181     1.0000 0.88843  0.92802  0.25117  Biso   1.000  C
  O59      1.0000 0.75278  0.76931  0.15501  Biso   1.000  O
  N121     1.0000 0.81781  0.85697  0.15004  Biso   1.000  N
  C182     1.0000 0.86970  0.89111  0.17082  Biso   1.000  C
  H179     1.0000 0.90640  0.84762  0.19569  Biso   1.000  H
  C183     1.0000 0.68269  0.01619  0.24829  Biso   1.000  C
  O60      1.0000 0.56244  0.84615  0.16013  Biso   1.000  O
  N122     1.0000 0.63433  0.93099  0.15288  Biso   1.000  N
  H180     1.0000 0.58480  0.99480  0.19382  Biso   1.000  H
  C184     1.0000 0.64850  0.98450  0.16895  Biso   1.000  C
  O61      1.0000 0.89909  0.96046  0.28482  Biso   1.000  O
  N123     1.0000 0.87286  0.93202  0.20399  Biso   1.000  N
  C185     1.0000 0.79682  0.87091  0.10741  Biso   1.000  C
  H181     1.0000 0.89769  0.90600  0.14439  Biso   1.000  H
  O62      1.0000 0.71465  0.03956  0.28183  Biso   1.000  O
  N124     1.0000 0.69493  0.00910  0.20096  Biso   1.000  N
  C186     1.0000 0.66080  0.92109  0.11190  Biso   1.000  C
  H182     1.0000 0.65150  0.00760  0.14009  Biso   1.000  H
  C187     1.0000 0.87860  0.98122  0.18559  Biso   1.000  C
  N125     1.0000 0.77285  0.90267  0.11983  Biso   1.000  N
  H183     1.0000 0.76990  0.83791  0.09089  Biso   1.000  H
  H184     1.0000 0.82581  0.89059  0.08319  Biso   1.000  H
  C188     1.0000 0.74809  0.03948  0.18099  Biso   1.000  C
  N126     1.0000 0.71104  0.92580  0.12607  Biso   1.000  N
  H185     1.0000 0.66710  0.94672  0.08468  Biso   1.000  H
  H186     1.0000 0.63733  0.88513  0.09870  Biso   1.000  H
  N127     1.0000 0.82855  0.97793  0.17351  Biso   1.000  N
  H187     1.0000 0.90103  0.99191  0.15519  Biso   1.000  H
  H188     1.0000 0.89701  0.00898  0.21109  Biso   1.000  H
  C189     1.0000 0.71951  0.88382  0.11859  Biso   1.000  C
  C190     1.0000 0.80302  0.95951  0.12484  Biso   1.000  C
  N128     1.0000 0.77185  0.00716  0.17008  Biso   1.000  N
  H189     1.0000 0.77063  0.06721  0.20541  Biso   1.000  H
  H190     1.0000 0.74699  0.05738  0.14989  Biso   1.000  H
  C191     1.0000 0.76040  0.97650  0.12480  Biso   1.000  C
  C192     1.0000 0.81328  0.01029  0.19640  Biso   1.000  C
  O63      1.0000 0.68512  0.83768  0.11231  Biso   1.000  O
  H191     1.0000 0.82880  0.97630  0.09668  Biso   1.000  H
  H192     1.0000 0.76290  0.99769  0.09452  Biso   1.000  H
  O64      1.0000 0.83347  0.03730  0.23363  Biso   1.000  O
  C193     1.0000 0.24133  0.39806  0.30187  Biso   1.000  C
  N129     1.0000 0.19323  0.37877  0.26945  Biso   1.000  N
  C194     1.0000 0.23734  0.43078  0.34325  Biso   1.000  C
  H193     1.0000 0.24312  0.36756  0.31589  Biso   1.000  H
  H194     1.0000 0.27372  0.41977  0.28186  Biso   1.000  H
  C195     1.0000 0.18521  0.33612  0.23311  Biso   1.000  C
  H195     1.0000 0.16382  0.36606  0.28975  Biso   1.000  H
  H196     1.0000 0.19564  0.40705  0.25188  Biso   1.000  H
  N130     1.0000 0.18913  0.40076  0.37238  Biso   1.000  N
  H197     1.0000 0.23803  0.46227  0.32878  Biso   1.000  H
  H198     1.0000 0.26842  0.44306  0.36557  Biso   1.000  H
  C196     1.0000 0.13770  0.28459  0.24702  Biso   1.000  C
  H199     1.0000 0.21701  0.33200  0.23300  Biso   1.000  H
  H200     1.0000 0.18059  0.34630  0.19901  Biso   1.000  H
  C197     1.0000 0.19563  0.38206  0.41967  Biso   1.000  C
  H201     1.0000 0.16543  0.37216  0.35368  Biso   1.000  H
  H202     1.0000 0.17433  0.42187  0.37758  Biso   1.000  H
  N131     1.0000 0.14420  0.26589  0.29431  Biso   1.000  N
  H203     1.0000 0.10629  0.28922  0.24829  Biso   1.000  H
  H204     1.0000 0.13131  0.25781  0.22100  Biso   1.000  H
  C198     1.0000 0.14813  0.33057  0.43358  Biso   1.000  C
  H205     1.0000 0.22705  0.37747  0.41836  Biso   1.000  H
  H206     1.0000 0.20204  0.40888  0.44566  Biso   1.000  H
  H207     1.0000 0.16789  0.29449  0.31301  Biso   1.000  H
  H208     1.0000 0.15901  0.24482  0.28912  Biso   1.000  H
  C199     1.0000 0.09600  0.23591  0.32340  Biso   1.000  C
  N132     1.0000 0.14011  0.28791  0.39720  Biso   1.000  N
  H209     1.0000 0.11632  0.33465  0.43366  Biso   1.000  H
  H210     1.0000 0.15273  0.32035  0.46768  Biso   1.000  H
  H211     1.0000 0.09531  0.20442  0.33791  Biso   1.000  H
  H212     1.0000 0.06490  0.22359  0.30112  Biso   1.000  H
  C200     1.0000 0.09200  0.26858  0.36479  Biso   1.000  C
  H213     1.0000 0.16950  0.30059  0.37690  Biso   1.000  H
  H214     1.0000 0.13769  0.25959  0.41481  Biso   1.000  H
  H215     1.0000 0.09022  0.29912  0.35081  Biso   1.000  H
  H216     1.0000 0.05962  0.24692  0.38479  Biso   1.000  H
  C201     1.0000 0.60175  0.51253  0.55662  Biso   1.000  C
  N133     1.0000 0.64589  0.50703  0.53957  Biso   1.000  N
  N134     1.0000 0.60402  0.52378  0.60930  Biso   1.000  N
  H217     1.0000 0.60126  0.54133  0.53763  Biso   1.000  H
  H218     1.0000 0.56838  0.47934  0.54933  Biso   1.000  H
  C202     1.0000 0.67865  0.53907  0.50245  Biso   1.000  C
  C203     1.0000 0.64313  0.45589  0.54051  Biso   1.000  C
  C204     1.0000 0.61448  0.57194  0.62792  Biso   1.000  C
  C205     1.0000 0.58536  0.48318  0.64736  Biso   1.000  C
  O65      1.0000 0.68322  0.58058  0.48835  Biso   1.000  O
  N135     1.0000 0.70582  0.51554  0.48338  Biso   1.000  N
  N136     1.0000 0.65840  0.44278  0.58747  Biso   1.000  N
  C206     1.0000 0.68808  0.46365  0.50417  Biso   1.000  C
  H219     1.0000 0.60787  0.42694  0.52903  Biso   1.000  H
  O66      1.0000 0.62941  0.61278  0.60351  Biso   1.000  O
  N137     1.0000 0.60593  0.56691  0.67824  Biso   1.000  N
  N138     1.0000 0.62263  0.46516  0.65892  Biso   1.000  N
  H220     1.0000 0.54927  0.45292  0.63944  Biso   1.000  H
  C207     1.0000 0.58525  0.51253  0.69511  Biso   1.000  C
  C208     1.0000 0.74077  0.53653  0.44072  Biso   1.000  C
  C209     1.0000 0.70625  0.44492  0.58451  Biso   1.000  C
  C210     1.0000 0.62458  0.42337  0.63080  Biso   1.000  C
  N139     1.0000 0.72584  0.46049  0.53733  Biso   1.000  N
  H221     1.0000 0.67497  0.43565  0.47774  Biso   1.000  H
  C211     1.0000 0.59819  0.60474  0.70692  Biso   1.000  C
  C212     1.0000 0.63830  0.47490  0.70767  Biso   1.000  C
  N140     1.0000 0.62071  0.50619  0.72842  Biso   1.000  N
  H222     1.0000 0.54897  0.49732  0.70965  Biso   1.000  H
  N141     1.0000 0.79649  0.56050  0.45317  Biso   1.000  N
  H223     1.0000 0.73467  0.56343  0.42423  Biso   1.000  H
  H224     1.0000 0.73149  0.50754  0.41653  Biso   1.000  H
  O67      1.0000 0.72804  0.43423  0.61816  Biso   1.000  O
  H225     1.0000 0.63746  0.40503  0.65305  Biso   1.000  H
  H226     1.0000 0.58825  0.39703  0.61992  Biso   1.000  H
  C213     1.0000 0.76927  0.45474  0.51894  Biso   1.000  C
  N142     1.0000 0.63605  0.62866  0.74741  Biso   1.000  N
  H227     1.0000 0.60118  0.63294  0.68423  Biso   1.000  H
  H228     1.0000 0.56188  0.58652  0.72094  Biso   1.000  H
  O68      1.0000 0.66489  0.45906  0.72924  Biso   1.000  O
  C214     1.0000 0.61939  0.51241  0.78203  Biso   1.000  C
  C215     1.0000 0.83099  0.61385  0.45190  Biso   1.000  C
  C216     1.0000 0.82320  0.53036  0.45818  Biso   1.000  C
  N143     1.0000 0.81603  0.50477  0.50686  Biso   1.000  N
  H229     1.0000 0.75758  0.43232  0.48854  Biso   1.000  H
  H230     1.0000 0.77865  0.43632  0.54443  Biso   1.000  H
  C217     1.0000 0.62791  0.60264  0.79560  Biso   1.000  C
  C218     1.0000 0.66649  0.68269  0.75171  Biso   1.000  C
  N144     1.0000 0.64915  0.56719  0.79818  Biso   1.000  N
  H231     1.0000 0.63379  0.49209  0.79871  Biso   1.000  H
  H232     1.0000 0.58201  0.49732  0.79269  Biso   1.000  H
  O69      1.0000 0.81923  0.64823  0.44566  Biso   1.000  O
  N145     1.0000 0.88143  0.62233  0.45942  Biso   1.000  N
  C219     1.0000 0.88277  0.57293  0.45814  Biso   1.000  C
  H233     1.0000 0.81416  0.50453  0.43003  Biso   1.000  H
  C220     1.0000 0.86367  0.52006  0.52974  Biso   1.000  C
  H234     1.0000 0.59001  0.58482  0.80622  Biso   1.000  H
  C221     1.0000 0.66398  0.64851  0.83105  Biso   1.000  C
  O70      1.0000 0.67504  0.71461  0.71817  Biso   1.000  O
  N146     1.0000 0.68582  0.69493  0.79904  Biso   1.000  N
  C222     1.0000 0.69220  0.58593  0.82948  Biso   1.000  C
  C223     1.0000 0.92699  0.67255  0.44525  Biso   1.000  C
  N147     1.0000 0.90204  0.56153  0.50342  Biso   1.000  N
  H235     1.0000 0.90149  0.57044  0.42782  Biso   1.000  H
  O71      1.0000 0.87052  0.49986  0.56698  Biso   1.000  O
  N148     1.0000 0.70333  0.63433  0.84712  Biso   1.000  N
  H236     1.0000 0.64391  0.65152  0.85991  Biso   1.000  H
  C224     1.0000 0.70861  0.74812  0.81901  Biso   1.000  C
  O72      1.0000 0.71630  0.56244  0.83987  Biso   1.000  O
  N149     1.0000 0.96333  0.69901  0.48622  Biso   1.000  N
  H237     1.0000 0.94627  0.66625  0.41803  Biso   1.000  H
  H238     1.0000 0.91448  0.69604  0.43205  Biso   1.000  H
  C225     1.0000 0.95808  0.58525  0.51434  Biso   1.000  C
  C226     1.0000 0.73970  0.66082  0.88810  Biso   1.000  C
  N150     1.0000 0.76468  0.77185  0.82992  Biso   1.000  N
  H239     1.0000 0.70342  0.77062  0.79459  Biso   1.000  H
  H240     1.0000 0.68960  0.74701  0.85011  Biso   1.000  H
  C227     1.0000 0.97449  0.74745  0.50387  Biso   1.000  C
  C228     1.0000 0.00271  0.68487  0.50230  Biso   1.000  C
  N151     1.0000 0.98085  0.63841  0.53430  Biso   1.000  N
  H241     1.0000 0.96330  0.56275  0.53875  Biso   1.000  H
  H242     1.0000 0.97707  0.58632  0.48323  Biso   1.000  H
  N152     1.0000 0.78524  0.71101  0.87393  Biso   1.000  N
  H243     1.0000 0.72042  0.66712  0.91532  Biso   1.000  H
  H244     1.0000 0.75219  0.63730  0.90130  Biso   1.000  H
  C229     1.0000 0.78390  0.76040  0.87520  Biso   1.000  C
  C230     1.0000 0.80302  0.81332  0.80360  Biso   1.000  C
  O73      1.0000 0.95036  0.77090  0.49348  Biso   1.000  O
  N153     1.0000 0.01754  0.76618  0.53516  Biso   1.000  N
  C231     1.0000 0.03878  0.73073  0.53774  Biso   1.000  C
  H245     1.0000 0.02278  0.68186  0.47344  Biso   1.000  H
  C232     1.0000 0.00018  0.65065  0.58164  Biso   1.000  C
  C233     1.0000 0.83573  0.71952  0.88141  Biso   1.000  C
  H246     1.0000 0.76522  0.76290  0.90548  Biso   1.000  H
  C234     1.0000 0.84352  0.80302  0.87516  Biso   1.000  C
  O74      1.0000 0.79615  0.83348  0.76637  Biso   1.000  O
  N154     1.0000 0.85064  0.82857  0.82649  Biso   1.000  N
  C235     1.0000 0.04729  0.82096  0.55128  Biso   1.000  C
  N155     1.0000 0.03062  0.70467  0.58593  Biso   1.000  N
  H247     1.0000 0.07668  0.74856  0.52712  Biso   1.000  H
  O75      1.0000 0.99162  0.61872  0.61513  Biso   1.000  O
  O76      1.0000 0.84746  0.68514  0.88769  Biso   1.000  O
  N156     1.0000 0.87018  0.77284  0.88017  Biso   1.000  N
  H248     1.0000 0.85250  0.82880  0.90332  Biso   1.000  H
  C236     1.0000 0.89740  0.87859  0.81441  Biso   1.000  C
  N157     1.0000 0.04596  0.82714  0.60489  Biso   1.000  N
  H249     1.0000 0.03287  0.84124  0.53464  Biso   1.000  H
  H250     1.0000 0.08468  0.83605  0.54062  Biso   1.000  H
  C237     1.0000 0.06848  0.72859  0.62639  Biso   1.000  C
  C238     1.0000 0.92589  0.79680  0.89259  Biso   1.000  C
  N158     1.0000 0.94089  0.87289  0.79601  Biso   1.000  N
  H251     1.0000 0.90912  0.90101  0.84481  Biso   1.000  H
  H252     1.0000 0.88801  0.89701  0.78891  Biso   1.000  H
  C239     1.0000 0.08141  0.82080  0.63824  Biso   1.000  C
  C240     1.0000 0.02836  0.85843  0.62568  Biso   1.000  C
  N159     1.0000 0.06074  0.76642  0.65506  Biso   1.000  N
  H253     1.0000 0.06549  0.70039  0.64912  Biso   1.000  H
  H254     1.0000 0.10479  0.74681  0.61241  Biso   1.000  H
  N160     1.0000 0.96085  0.81779  0.84996  Biso   1.000  N
  H255     1.0000 0.93200  0.76991  0.90911  Biso   1.000  H
  H256     1.0000 0.93521  0.82579  0.91681  Biso   1.000  H
  C241     1.0000 0.97859  0.86968  0.82918  Biso   1.000  C
  C242     1.0000 0.96041  0.88841  0.74883  Biso   1.000  C
  C243     1.0000 0.08130  0.85015  0.68598  Biso   1.000  C
  H257     1.0000 0.11769  0.83601  0.62370  Biso   1.000  H
  O77      1.0000 0.00178  0.87427  0.60407  Biso   1.000  O
  N161     1.0000 0.04404  0.86817  0.67443  Biso   1.000  N
  C244     1.0000 0.05219  0.76139  0.70539  Biso   1.000  C
  C245     1.0000 0.98802  0.79427  0.83090  Biso   1.000  C
  H258     1.0000 0.99172  0.89772  0.85561  Biso   1.000  H
  C246     1.0000 0.02353  0.87744  0.79284  Biso   1.000  C
  O78      1.0000 0.93866  0.89911  0.71518  Biso   1.000  O
  N162     1.0000 0.00827  0.89055  0.74588  Biso   1.000  N
  N163     1.0000 0.06265  0.80955  0.72401  Biso   1.000  N
  H259     1.0000 0.11739  0.88041  0.69391  Biso   1.000  H
  C247     1.0000 0.04209  0.90996  0.70255  Biso   1.000  C
  O79      1.0000 0.03726  0.72055  0.72984  Biso   1.000  O
  O80      1.0000 0.98349  0.75276  0.84499  Biso   1.000  O
  N164     1.0000 0.02080  0.82635  0.79377  Biso   1.000  N
  H260     1.0000 0.05880  0.90640  0.80431  Biso   1.000  H
  C248     1.0000 0.06491  0.82080  0.77669  Biso   1.000  C
  H261     1.0000 0.02920  0.92830  0.68030  Biso   1.000  H
  H262     1.0000 0.07841  0.93630  0.71339  Biso   1.000  H
  H263     1.0000 0.06540  0.79201  0.79572  Biso   1.000  H
  H264     1.0000 0.09828  0.85399  0.78401  Biso   1.000  H
  C249     1.0000 0.51578  0.51855  0.10024  Biso   1.000  C
  C250     1.0000 0.51977  0.47102  0.08633  Biso   1.000  C
  N165     1.0000 0.48113  0.52655  0.06386  Biso   1.000  N
  H265     1.0000 0.55169  0.55036  0.10035  Biso   1.000  H
  H266     1.0000 0.50097  0.51396  0.13433  Biso   1.000  H
  N166     1.0000 0.54499  0.47756  0.03903  Biso   1.000  N
  H267     1.0000 0.48378  0.43965  0.08502  Biso   1.000  H
  H268     1.0000 0.54018  0.46464  0.11235  Biso   1.000  H
  H269     1.0000 0.46444  0.49716  0.04356  Biso   1.000  H
  H270     1.0000 0.45524  0.52897  0.08147  Biso   1.000  H
  C251     1.0000 0.50996  0.57468  0.03148  Biso   1.000  C
  H271     1.0000 0.54006  0.50124  0.02034  Biso   1.000  H
  H272     1.0000 0.58088  0.49233  0.04423  Biso   1.000  H
  C252     1.0000 0.52679  0.42935  0.00995  Biso   1.000  C
  H273     1.0000 0.54223  0.57646  0.01746  Biso   1.000  H
  H274     1.0000 0.52063  0.60708  0.05148  Biso   1.000  H
  C253     1.0000 0.47324  0.57068  0.99005  Biso   1.000  C
  H275     1.0000 0.50796  0.39822  0.03223  Biso   1.000  H
  H276     1.0000 0.55758  0.42864  0.99544  Biso   1.000  H
  C254     1.0000 0.49008  0.42535  0.96852  Biso   1.000  C
  H277     1.0000 0.44245  0.57139  0.00456  Biso   1.000  H
  N167     1.0000 0.45504  0.52247  0.96097  Biso   1.000  N
  H278     1.0000 0.49205  0.60177  0.96777  Biso   1.000  H
  N168     1.0000 0.51889  0.47344  0.93614  Biso   1.000  N
  H279     1.0000 0.45778  0.42353  0.98254  Biso   1.000  H
  H280     1.0000 0.47936  0.39295  0.94855  Biso   1.000  H
  C255     1.0000 0.48024  0.52897  0.91367  Biso   1.000  C
  H281     1.0000 0.45994  0.49879  0.97966  Biso   1.000  H
  H282     1.0000 0.41913  0.50766  0.95577  Biso   1.000  H
  H283     1.0000 0.53557  0.50283  0.95644  Biso   1.000  H
  H284     1.0000 0.54478  0.47102  0.91853  Biso   1.000  H
  C256     1.0000 0.48425  0.48148  0.89976  Biso   1.000  C
  H285     1.0000 0.51625  0.56038  0.91498  Biso   1.000  H
  H286     1.0000 0.45985  0.53539  0.88769  Biso   1.000  H
  H287     1.0000 0.44835  0.44967  0.89965  Biso   1.000  H
  H288     1.0000 0.49903  0.48607  0.86567  Biso   1.000  H
  N169     1.0000 0.59924  0.78836  0.37238  Biso   1.000  N
  H289     1.0000 0.62783  0.79327  0.35368  Biso   1.000  H
  H290     1.0000 0.57814  0.75248  0.37758  Biso   1.000  H
  C257     1.0000 0.61796  0.81359  0.41967  Biso   1.000  C
  C258     1.0000 0.56924  0.80658  0.34325  Biso   1.000  C
  H291     1.0000 0.62253  0.84956  0.41836  Biso   1.000  H
  H292     1.0000 0.59114  0.79316  0.44566  Biso   1.000  H
  C259     1.0000 0.66946  0.81759  0.43358  Biso   1.000  C
  H293     1.0000 0.53775  0.77577  0.32878  Biso   1.000  H
  H294     1.0000 0.55692  0.82536  0.36557  Biso   1.000  H
  C260     1.0000 0.60192  0.84326  0.30187  Biso   1.000  C
  N170     1.0000 0.71211  0.85221  0.39720  Biso   1.000  N
  H295     1.0000 0.66535  0.78167  0.43366  Biso   1.000  H
  H296     1.0000 0.67962  0.83237  0.46768  Biso   1.000  H
  N171     1.0000 0.62124  0.81447  0.26945  Biso   1.000  N
  H297     1.0000 0.63245  0.87558  0.31589  Biso   1.000  H
  H298     1.0000 0.58026  0.85399  0.28186  Biso   1.000  H
  H299     1.0000 0.69941  0.86893  0.37690  Biso   1.000  H
  H300     1.0000 0.74040  0.87812  0.41481  Biso   1.000  H
  C261     1.0000 0.73140  0.82342  0.36479  Biso   1.000  C
  H301     1.0000 0.63393  0.79779  0.28975  Biso   1.000  H
  H302     1.0000 0.59292  0.78856  0.25188  Biso   1.000  H
  C262     1.0000 0.66392  0.84912  0.23311  Biso   1.000  C
  C263     1.0000 0.76411  0.86009  0.32340  Biso   1.000  C
  H303     1.0000 0.70090  0.79110  0.35081  Biso   1.000  H
  H304     1.0000 0.75312  0.81272  0.38479  Biso   1.000  H
  C264     1.0000 0.71542  0.85312  0.24702  Biso   1.000  C
  H305     1.0000 0.66800  0.88501  0.23300  Biso   1.000  H
  H306     1.0000 0.65370  0.83431  0.19901  Biso   1.000  H
  N172     1.0000 0.73412  0.87831  0.29431  Biso   1.000  N
  H307     1.0000 0.79561  0.89091  0.33791  Biso   1.000  H
  H308     1.0000 0.77640  0.84132  0.30112  Biso   1.000  H
  H309     1.0000 0.71083  0.81712  0.24829  Biso   1.000  H
  H310     1.0000 0.74222  0.87352  0.22100  Biso   1.000  H
  H311     1.0000 0.70549  0.87340  0.31301  Biso   1.000  H
  H312     1.0000 0.75522  0.91420  0.28912  Biso   1.000  H
  C265     1.0000 0.33058  0.18244  0.56642  Biso   1.000  C
  N173     1.0000 0.28792  0.14782  0.60280  Biso   1.000  N
  C266     1.0000 0.38207  0.18644  0.58033  Biso   1.000  C
  H313     1.0000 0.33466  0.21832  0.56634  Biso   1.000  H
  H314     1.0000 0.32036  0.16762  0.53232  Biso   1.000  H
  H315     1.0000 0.30059  0.13110  0.62310  Biso   1.000  H
  H316     1.0000 0.25960  0.12191  0.58519  Biso   1.000  H
  C267     1.0000 0.26860  0.17661  0.63521  Biso   1.000  C
  N174     1.0000 0.40077  0.21163  0.62762  Biso   1.000  N
  H317     1.0000 0.37748  0.15043  0.58164  Biso   1.000  H
  H318     1.0000 0.40887  0.20683  0.55434  Biso   1.000  H
  C268     1.0000 0.23590  0.13990  0.67660  Biso   1.000  C
  H319     1.0000 0.29911  0.20889  0.64919  Biso   1.000  H
  H320     1.0000 0.24691  0.18731  0.61521  Biso   1.000  H
  H321     1.0000 0.37215  0.20672  0.64635  Biso   1.000  H
  H322     1.0000 0.42189  0.24755  0.62242  Biso   1.000  H
  C269     1.0000 0.43079  0.19345  0.65675  Biso   1.000  C
  N175     1.0000 0.26591  0.12172  0.70569  Biso   1.000  N
  H323     1.0000 0.20442  0.10912  0.66209  Biso   1.000  H
  H324     1.0000 0.22359  0.15871  0.69892  Biso   1.000  H
  H325     1.0000 0.46226  0.22422  0.67125  Biso   1.000  H
  H326     1.0000 0.44306  0.17463  0.63443  Biso   1.000  H
  C270     1.0000 0.39806  0.15673  0.69813  Biso   1.000  C
  H327     1.0000 0.29449  0.12659  0.68699  Biso   1.000  H
  H328     1.0000 0.24480  0.08579  0.71092  Biso   1.000  H
  C271     1.0000 0.28462  0.14691  0.75302  Biso   1.000  C
  N176     1.0000 0.37877  0.18553  0.73055  Biso   1.000  N
  H329     1.0000 0.36758  0.12445  0.68415  Biso   1.000  H
  H330     1.0000 0.41977  0.14604  0.71814  Biso   1.000  H
  H331     1.0000 0.28921  0.18291  0.75171  Biso   1.000  H
  H332     1.0000 0.25781  0.12651  0.77900  Biso   1.000  H
  C272     1.0000 0.33611  0.15091  0.76689  Biso   1.000  C
  H333     1.0000 0.36607  0.20224  0.71025  Biso   1.000  H
  H334     1.0000 0.40706  0.21143  0.74812  Biso   1.000  H
  H335     1.0000 0.33201  0.11498  0.76700  Biso   1.000  H
  H336     1.0000 0.34630  0.16572  0.80099  Biso   1.000  H
  C273     1.0000 0.80439  0.61793  0.58033  Biso   1.000  C
  N177     1.0000 0.81089  0.59923  0.62762  Biso   1.000  N
  H337     1.0000 0.77296  0.62252  0.58164  Biso   1.000  H
  H338     1.0000 0.79800  0.59115  0.55434  Biso   1.000  H
  C274     1.0000 0.85190  0.66946  0.56642  Biso   1.000  C
  H339     1.0000 0.83458  0.62783  0.64635  Biso   1.000  H
  H340     1.0000 0.82568  0.57812  0.62242  Biso   1.000  H
  C275     1.0000 0.76269  0.56925  0.65675  Biso   1.000  C
  N178     1.0000 0.85992  0.71212  0.60280  Biso   1.000  N
  H341     1.0000 0.88366  0.66534  0.56634  Biso   1.000  H
  H342     1.0000 0.84728  0.67964  0.53232  Biso   1.000  H
  H343     1.0000 0.76195  0.53772  0.67125  Biso   1.000  H
  H344     1.0000 0.73156  0.55693  0.63443  Biso   1.000  H
  C276     1.0000 0.75865  0.60193  0.69813  Biso   1.000  C
  H345     1.0000 0.83051  0.69940  0.62310  Biso   1.000  H
  H346     1.0000 0.86229  0.74040  0.58519  Biso   1.000  H
  C277     1.0000 0.90801  0.73141  0.63521  Biso   1.000  C
  N179     1.0000 0.80677  0.62126  0.73055  Biso   1.000  N
  H347     1.0000 0.75685  0.63243  0.68415  Biso   1.000  H
  H348     1.0000 0.72626  0.58022  0.71814  Biso   1.000  H
  C278     1.0000 0.90403  0.76412  0.67660  Biso   1.000  C
  H349     1.0000 0.90981  0.70091  0.64919  Biso   1.000  H
  H350     1.0000 0.94041  0.75311  0.61521  Biso   1.000  H
  H351     1.0000 0.83616  0.63393  0.71025  Biso   1.000  H
  H352     1.0000 0.80437  0.59294  0.74812  Biso   1.000  H
  C279     1.0000 0.81482  0.66391  0.76689  Biso   1.000  C
  N180     1.0000 0.85582  0.73410  0.70569  Biso   1.000  N
  H353     1.0000 0.90472  0.79561  0.66209  Biso   1.000  H
  H354     1.0000 0.93511  0.77640  0.69892  Biso   1.000  H
  C280     1.0000 0.86232  0.71540  0.75302  Biso   1.000  C
  H355     1.0000 0.78301  0.66799  0.76700  Biso   1.000  H
  H356     1.0000 0.81939  0.65370  0.80099  Biso   1.000  H
  H357     1.0000 0.83212  0.70550  0.68699  Biso   1.000  H
  H358     1.0000 0.84102  0.75521  0.71092  Biso   1.000  H
  H359     1.0000 0.89370  0.71081  0.75171  Biso   1.000  H
  H360     1.0000 0.86873  0.74222  0.77900  Biso   1.000  H
  C281     1.0000 0.20122  0.62458  0.36920  Biso   1.000  C
  N181     1.0000 0.21563  0.65841  0.41253  Biso   1.000  N
  N182     1.0000 0.15748  0.62264  0.34108  Biso   1.000  N
  H361     1.0000 0.23242  0.63746  0.34695  Biso   1.000  H
  H362     1.0000 0.19123  0.58826  0.38008  Biso   1.000  H
  C282     1.0000 0.18725  0.64316  0.45949  Biso   1.000  C
  C283     1.0000 0.26134  0.70626  0.41549  Biso   1.000  C
  C284     1.0000 0.10217  0.58537  0.35264  Biso   1.000  C
  C285     1.0000 0.16341  0.63829  0.29233  Biso   1.000  C
  N183     1.0000 0.13885  0.64589  0.46043  Biso   1.000  N
  C286     1.0000 0.22443  0.68808  0.49583  Biso   1.000  C
  H363     1.0000 0.18093  0.60787  0.47097  Biso   1.000  H
  O81      1.0000 0.29380  0.72804  0.38184  Biso   1.000  O
  N184     1.0000 0.26536  0.72582  0.46271  Biso   1.000  N
  N185     1.0000 0.08022  0.60403  0.39070  Biso   1.000  N
  H364     1.0000 0.09634  0.54929  0.36056  Biso   1.000  H
  C287     1.0000 0.07274  0.58529  0.30489  Biso   1.000  C
  O82      1.0000 0.20581  0.66490  0.27076  Biso   1.000  O
  N186     1.0000 0.11449  0.62070  0.27158  Biso   1.000  N
  C288     1.0000 0.13960  0.67869  0.49755  Biso   1.000  C
  C289     1.0000 0.08924  0.60177  0.44338  Biso   1.000  C
  N187     1.0000 0.19029  0.70582  0.51666  Biso   1.000  N
  H365     1.0000 0.23935  0.67496  0.52226  Biso   1.000  H
  C290     1.0000 0.31452  0.76927  0.48106  Biso   1.000  C
  C291     1.0000 0.04253  0.61448  0.37208  Biso   1.000  C
  N188     1.0000 0.03901  0.60593  0.32176  Biso   1.000  N
  H366     1.0000 0.05163  0.54897  0.29035  Biso   1.000  H
  C292     1.0000 0.10701  0.61939  0.21797  Biso   1.000  C
  O83      1.0000 0.10262  0.68320  0.51165  Biso   1.000  O
  H367     1.0000 0.05993  0.60125  0.46237  Biso   1.000  H
  H368     1.0000 0.08905  0.56838  0.45067  Biso   1.000  H
  C293     1.0000 0.20424  0.74079  0.55928  Biso   1.000  C
  N189     1.0000 0.31126  0.81605  0.49314  Biso   1.000  N
  H369     1.0000 0.32525  0.75759  0.51146  Biso   1.000  H
  H370     1.0000 0.34234  0.77866  0.45557  Biso   1.000  H
  O84      1.0000 0.01663  0.62942  0.39649  Biso   1.000  O
  C294     1.0000 0.99345  0.59816  0.29308  Biso   1.000  C
  N190     1.0000 0.08195  0.64914  0.20182  Biso   1.000  N
  H371     1.0000 0.14169  0.63381  0.20129  Biso   1.000  H
  H372     1.0000 0.08471  0.58200  0.20731  Biso   1.000  H
  N191     1.0000 0.23601  0.79652  0.54687  Biso   1.000  N
  H373     1.0000 0.17122  0.73465  0.57577  Biso   1.000  H
  H374     1.0000 0.22394  0.73149  0.58347  Biso   1.000  H
  C295     1.0000 0.29284  0.82318  0.54186  Biso   1.000  C
  C296     1.0000 0.34364  0.86366  0.47026  Biso   1.000  C
  N192     1.0000 0.00738  0.63603  0.25259  Biso   1.000  N
  H375     1.0000 0.96824  0.60117  0.31577  Biso   1.000  H
  H376     1.0000 0.97535  0.56188  0.27906  Biso   1.000  H
  C297     1.0000 0.10629  0.69219  0.17052  Biso   1.000  C
  C298     1.0000 0.02527  0.62791  0.20440  Biso   1.000  C
  C299     1.0000 0.21712  0.83098  0.54810  Biso   1.000  C
  C300     1.0000 0.30985  0.88279  0.54186  Biso   1.000  C
  H377     1.0000 0.30964  0.81419  0.56997  Biso   1.000  H
  O85      1.0000 0.37067  0.87051  0.43302  Biso   1.000  O
  N193     1.0000 0.34051  0.90200  0.49658  Biso   1.000  N
  C301     1.0000 0.98381  0.66649  0.24829  Biso   1.000  C
  O86      1.0000 0.15386  0.71632  0.16013  Biso   1.000  O
  N194     1.0000 0.06902  0.70332  0.15288  Biso   1.000  N
  H378     1.0000 0.00519  0.59001  0.19382  Biso   1.000  H
  C302     1.0000 0.01549  0.66399  0.16895  Biso   1.000  C
  O87      1.0000 0.17101  0.81922  0.55434  Biso   1.000  O
  N195     1.0000 0.25913  0.88144  0.54058  Biso   1.000  N
  H379     1.0000 0.33103  0.90148  0.57218  Biso   1.000  H
  C303     1.0000 0.37284  0.95808  0.48566  Biso   1.000  C
  O88      1.0000 0.96044  0.67504  0.28183  Biso   1.000  O
  N196     1.0000 0.99090  0.68582  0.20096  Biso   1.000  N
  C304     1.0000 0.07891  0.73972  0.11190  Biso   1.000  C
  H380     1.0000 0.99242  0.64391  0.14009  Biso   1.000  H
  C305     1.0000 0.25446  0.92699  0.55475  Biso   1.000  C
  N197     1.0000 0.34245  0.98086  0.46573  Biso   1.000  N
  H381     1.0000 0.40055  0.96327  0.46129  Biso   1.000  H
  H382     1.0000 0.39073  0.97706  0.51677  Biso   1.000  H
  C306     1.0000 0.96051  0.70859  0.18099  Biso   1.000  C
  N198     1.0000 0.07423  0.78523  0.12607  Biso   1.000  N
  H383     1.0000 0.05330  0.72040  0.08468  Biso   1.000  H
  H384     1.0000 0.11489  0.75220  0.09870  Biso   1.000  H
  N199     1.0000 0.26434  0.96335  0.51378  Biso   1.000  N
  H385     1.0000 0.28002  0.94628  0.58197  Biso   1.000  H
  H386     1.0000 0.21843  0.91448  0.56795  Biso   1.000  H
  C307     1.0000 0.31786  0.00268  0.49770  Biso   1.000  C
  C308     1.0000 0.34956  0.00015  0.41836  Biso   1.000  C
  N200     1.0000 0.99284  0.76468  0.17008  Biso   1.000  N
  H387     1.0000 0.93281  0.70340  0.20541  Biso   1.000  H
  H388     1.0000 0.94262  0.68962  0.14989  Biso   1.000  H
  C309     1.0000 0.11620  0.83570  0.11859  Biso   1.000  C
  C310     1.0000 0.02349  0.78393  0.12480  Biso   1.000  C
  C311     1.0000 0.22703  0.97448  0.49613  Biso   1.000  C
  C312     1.0000 0.30808  0.03877  0.46226  Biso   1.000  C
  H389     1.0000 0.34090  0.02277  0.52656  Biso   1.000  H
  O89      1.0000 0.37291  0.99163  0.38487  Biso   1.000  O
  N201     1.0000 0.32592  0.03061  0.41407  Biso   1.000  N
  C313     1.0000 0.98972  0.80302  0.19640  Biso   1.000  C
  O90      1.0000 0.16232  0.84746  0.11231  Biso   1.000  O
  N202     1.0000 0.09733  0.87019  0.11983  Biso   1.000  N
  H390     1.0000 0.00229  0.76519  0.09452  Biso   1.000  H
  C314     1.0000 0.04048  0.84350  0.12484  Biso   1.000  C
  O91      1.0000 0.17946  0.95036  0.50652  Biso   1.000  O
  N203     1.0000 0.25140  0.01754  0.46484  Biso   1.000  N
  H391     1.0000 0.32813  0.07667  0.47288  Biso   1.000  H
  C315     1.0000 0.33992  0.06847  0.37361  Biso   1.000  C
  N204     1.0000 0.02206  0.85063  0.17351  Biso   1.000  N
  O92      1.0000 0.96269  0.79617  0.23363  Biso   1.000  O
  C316     1.0000 0.12910  0.92592  0.10741  Biso   1.000  C
  H392     1.0000 0.02368  0.85249  0.09668  Biso   1.000  H
  C317     1.0000 0.22629  0.04724  0.44872  Biso   1.000  C
  N205     1.0000 0.29434  0.06075  0.34494  Biso   1.000  N
  H393     1.0000 0.36508  0.06550  0.35092  Biso   1.000  H
  H394     1.0000 0.35797  0.10479  0.38759  Biso   1.000  H
  C318     1.0000 0.01880  0.89741  0.18559  Biso   1.000  C
  N206     1.0000 0.14307  0.96086  0.15004  Biso   1.000  N
  H395     1.0000 0.16210  0.93202  0.09089  Biso   1.000  H
  H396     1.0000 0.10938  0.93519  0.08319  Biso   1.000  H
  N207     1.0000 0.21881  0.04594  0.39511  Biso   1.000  N
  H397     1.0000 0.19163  0.03287  0.46536  Biso   1.000  H
  H398     1.0000 0.24864  0.08467  0.45938  Biso   1.000  H
  C319     1.0000 0.29082  0.05219  0.29461  Biso   1.000  C
  C320     1.0000 0.26062  0.08139  0.36176  Biso   1.000  C
  N208     1.0000 0.06800  0.94086  0.20399  Biso   1.000  N
  H399     1.0000 0.00813  0.90913  0.15519  Biso   1.000  H
  H400     1.0000 0.99102  0.88802  0.21109  Biso   1.000  H
  C321     1.0000 0.19374  0.98803  0.16910  Biso   1.000  C
  C322     1.0000 0.10893  0.97860  0.17082  Biso   1.000  C
  C323     1.0000 0.16989  0.02835  0.37432  Biso   1.000  C
  O93      1.0000 0.31671  0.03722  0.27020  Biso   1.000  O
  N209     1.0000 0.25310  0.06265  0.27599  Biso   1.000  N
  C324     1.0000 0.23115  0.08131  0.31402  Biso   1.000  C
  H401     1.0000 0.28173  0.11771  0.37630  Biso   1.000  H
  C325     1.0000 0.07202  0.96042  0.25117  Biso   1.000  C
  O94      1.0000 0.23070  0.98347  0.15501  Biso   1.000  O
  N210     1.0000 0.19447  0.02078  0.20623  Biso   1.000  N
  H402     1.0000 0.09401  0.99171  0.14439  Biso   1.000  H
  C326     1.0000 0.14607  0.02352  0.20716  Biso   1.000  C
  O95      1.0000 0.12755  0.00177  0.39593  Biso   1.000  O
  N211     1.0000 0.17588  0.04403  0.32557  Biso   1.000  N
  C327     1.0000 0.24411  0.06491  0.22331  Biso   1.000  C
  H403     1.0000 0.23698  0.11739  0.30609  Biso   1.000  H
  O96      1.0000 0.03952  0.93864  0.28482  Biso   1.000  O
  N212     1.0000 0.11772  0.00827  0.25412  Biso   1.000  N
  H404     1.0000 0.15239  0.05881  0.19569  Biso   1.000  H
  C328     1.0000 0.13213  0.04209  0.29745  Biso   1.000  C
  H405     1.0000 0.27340  0.06538  0.20428  Biso   1.000  H
  H406     1.0000 0.24431  0.09830  0.21599  Biso   1.000  H
  H407     1.0000 0.10091  0.02918  0.31970  Biso   1.000  H
  H408     1.0000 0.14211  0.07838  0.28661  Biso   1.000  H
  C329     1.0000 0.56407  0.21194  0.14772  Biso   1.000  C
  N213     1.0000 0.51729  0.16188  0.15983  Biso   1.000  N
  N214     1.0000 0.60754  0.20620  0.12936  Biso   1.000  N
  H409     1.0000 0.57578  0.23432  0.17815  Biso   1.000  H
  H410     1.0000 0.55467  0.23032  0.12222  Biso   1.000  H
  C330     1.0000 0.46967  0.14663  0.13695  Biso   1.000  C
  C331     1.0000 0.51018  0.13633  0.20851  Biso   1.000  C
  C332     1.0000 0.64527  0.20303  0.16249  Biso   1.000  C
  C333     1.0000 0.62707  0.22173  0.08214  Biso   1.000  C
  N215     1.0000 0.43134  0.10516  0.16323  Biso   1.000  N
  O97      1.0000 0.46283  0.16683  0.09971  Biso   1.000  O
  C334     1.0000 0.45057  0.09375  0.20851  Biso   1.000  C
  N216     1.0000 0.53685  0.10619  0.21352  Biso   1.000  N
  H411     1.0000 0.51916  0.16212  0.23662  Biso   1.000  H
  N217     1.0000 0.62752  0.15115  0.18331  Biso   1.000  N
  H412     1.0000 0.65838  0.23104  0.18892  Biso   1.000  H
  C335     1.0000 0.69019  0.21076  0.12614  Biso   1.000  C
  O98      1.0000 0.60532  0.23242  0.04853  Biso   1.000  O
  N218     1.0000 0.67495  0.22391  0.07922  Biso   1.000  N
  C336     1.0000 0.37526  0.08143  0.15232  Biso   1.000  C
  N219     1.0000 0.45191  0.04436  0.20728  Biso   1.000  N
  H413     1.0000 0.43189  0.09625  0.23883  Biso   1.000  H
  C337     1.0000 0.50239  0.05284  0.21475  Biso   1.000  C
  C338     1.0000 0.59257  0.13015  0.22593  Biso   1.000  C
  C339     1.0000 0.65467  0.12758  0.16424  Biso   1.000  C
  N220     1.0000 0.68749  0.15966  0.12708  Biso   1.000  N
  H414     1.0000 0.72547  0.23975  0.13762  Biso   1.000  H
  C340     1.0000 0.70877  0.24331  0.03589  Biso   1.000  C
  N221     1.0000 0.35247  0.02824  0.13239  Biso   1.000  N
  H415     1.0000 0.37008  0.10393  0.12794  Biso   1.000  H
  H416     1.0000 0.35625  0.08033  0.18342  Biso   1.000  H
  C341     1.0000 0.40636  0.99414  0.22145  Biso   1.000  C
  O99      1.0000 0.51412  0.01846  0.22100  Biso   1.000  O
  H417     1.0000 0.59865  0.10322  0.24242  Biso   1.000  H
  H418     1.0000 0.60189  0.15915  0.25012  Biso   1.000  H
  O100     1.0000 0.65016  0.08611  0.17830  Biso   1.000  O
  C342     1.0000 0.73157  0.15412  0.11003  Biso   1.000  C
  N222     1.0000 0.71070  0.20149  0.00778  Biso   1.000  N
  H419     1.0000 0.69588  0.26165  0.01365  Biso   1.000  H
  H420     1.0000 0.74509  0.26965  0.04673  Biso   1.000  H
  C343     1.0000 0.33317  0.01604  0.08502  Biso   1.000  C
  C344     1.0000 0.33069  0.98186  0.16439  Biso   1.000  C
  N223     1.0000 0.37001  0.96768  0.18047  Biso   1.000  N
  H421     1.0000 0.38707  0.00044  0.24863  Biso   1.000  H
  H422     1.0000 0.41887  0.97065  0.23464  Biso   1.000  H
  N224     1.0000 0.72931  0.14287  0.05735  Biso   1.000  N
  H423     1.0000 0.73206  0.12532  0.12902  Biso   1.000  H
  H424     1.0000 0.76499  0.18735  0.11732  Biso   1.000  H
  C345     1.0000 0.74796  0.18347  0.01929  Biso   1.000  C
  C346     1.0000 0.69504  0.19178  0.95902  Biso   1.000  C
  O101     1.0000 0.34172  0.04797  0.05152  Biso   1.000  O
  N225     1.0000 0.30272  0.96202  0.08076  Biso   1.000  N
  C347     1.0000 0.29456  0.93595  0.12891  Biso   1.000  C
  H425     1.0000 0.31055  0.98487  0.19322  Biso   1.000  H
  C348     1.0000 0.35886  0.91924  0.16278  Biso   1.000  C
  C349     1.0000 0.71886  0.09474  0.03873  Biso   1.000  C
  H426     1.0000 0.78408  0.21373  0.02722  Biso   1.000  H
  C350     1.0000 0.74807  0.15412  0.97159  Biso   1.000  C
  O102     1.0000 0.66844  0.20759  0.93741  Biso   1.000  O
  N226     1.0000 0.71261  0.16045  0.93824  Biso   1.000  N
  C351     1.0000 0.26483  0.93809  0.04027  Biso   1.000  C
  N227     1.0000 0.31577  0.90050  0.13153  Biso   1.000  N
  H427     1.0000 0.25665  0.91817  0.13953  Biso   1.000  H
  O103     1.0000 0.38298  0.89579  0.17322  Biso   1.000  O
  O104     1.0000 0.70393  0.05391  0.06315  Biso   1.000  O
  N228     1.0000 0.72745  0.09977  0.98841  Biso   1.000  N
  H428     1.0000 0.78438  0.16933  0.95704  Biso   1.000  H
  C352     1.0000 0.71395  0.15427  0.88462  Biso   1.000  C
  N229     1.0000 0.27257  0.90027  0.01159  Biso   1.000  N
  H429     1.0000 0.26785  0.96629  0.01757  Biso   1.000  H
  H430     1.0000 0.22852  0.91987  0.05425  Biso   1.000  H
  C353     1.0000 0.28607  0.84577  0.11538  Biso   1.000  C
  C354     1.0000 0.73519  0.06195  0.95973  Biso   1.000  C
  N230     1.0000 0.68419  0.09950  0.86847  Biso   1.000  N
  H431     1.0000 0.69953  0.17455  0.86799  Biso   1.000  H
  H432     1.0000 0.75134  0.16937  0.87397  Biso   1.000  H
  C355     1.0000 0.28112  0.90530  0.96127  Biso   1.000  C
  C356     1.0000 0.25193  0.84588  0.02845  Biso   1.000  C
  N231     1.0000 0.28735  0.83955  0.06176  Biso   1.000  N
  H433     1.0000 0.30050  0.82545  0.13205  Biso   1.000  H
  H434     1.0000 0.24870  0.83063  0.12603  Biso   1.000  H
  N232     1.0000 0.69731  0.03798  0.91924  Biso   1.000  N
  H435     1.0000 0.73217  0.03375  0.98243  Biso   1.000  H
  H436     1.0000 0.77148  0.08013  0.94575  Biso   1.000  H
  C357     1.0000 0.64114  0.08076  0.83722  Biso   1.000  C
  C358     1.0000 0.70544  0.06405  0.87109  Biso   1.000  C
  O105     1.0000 0.29612  0.94613  0.93685  Biso   1.000  O
  N233     1.0000 0.27066  0.85713  0.94265  Biso   1.000  N
  C359     1.0000 0.25207  0.81653  0.98071  Biso   1.000  C
  H437     1.0000 0.21565  0.83067  0.04296  Biso   1.000  H
  C360     1.0000 0.30494  0.80826  0.04101  Biso   1.000  C
  C361     1.0000 0.66685  0.98400  0.91498  Biso   1.000  C
  O106     1.0000 0.61702  0.10421  0.82678  Biso   1.000  O
  N234     1.0000 0.63001  0.03236  0.81953  Biso   1.000  N
  H438     1.0000 0.74333  0.08187  0.86047  Biso   1.000  H
  C362     1.0000 0.66937  0.01818  0.83565  Biso   1.000  C
  C363     1.0000 0.26843  0.84588  0.88997  Biso   1.000  C
  N235     1.0000 0.28930  0.79851  0.99222  Biso   1.000  N
  H439     1.0000 0.21595  0.78627  0.97278  Biso   1.000  H
  O107     1.0000 0.33153  0.79241  0.06259  Biso   1.000  O
  O108     1.0000 0.65830  0.95207  0.94848  Biso   1.000  O
  N236     1.0000 0.64756  0.97176  0.86761  Biso   1.000  N
  C364     1.0000 0.59364  0.00586  0.77855  Biso   1.000  C
  H440     1.0000 0.68944  0.01517  0.80678  Biso   1.000  H
  N237     1.0000 0.31253  0.84038  0.87292  Biso   1.000  N
  H441     1.0000 0.26791  0.87468  0.87098  Biso   1.000  H
  H442     1.0000 0.23503  0.81269  0.88268  Biso   1.000  H
  C365     1.0000 0.29125  0.75673  0.96415  Biso   1.000  C
  C366     1.0000 0.62472  0.91860  0.84768  Biso   1.000  C
  N238     1.0000 0.54811  0.95568  0.79272  Biso   1.000  N
  H443     1.0000 0.61295  0.99960  0.75137  Biso   1.000  H
  H444     1.0000 0.58113  0.02935  0.76536  Biso   1.000  H
  C367     1.0000 0.34536  0.87242  0.83576  Biso   1.000  C
  C368     1.0000 0.30981  0.78924  0.87386  Biso   1.000  C
  N239     1.0000 0.32504  0.77613  0.92078  Biso   1.000  N
  H445     1.0000 0.30417  0.73839  0.98635  Biso   1.000  H
  H446     1.0000 0.25496  0.73039  0.95327  Biso   1.000  H
  N240     1.0000 0.56866  0.89484  0.83677  Biso   1.000  N
  H447     1.0000 0.62995  0.89607  0.87206  Biso   1.000  H
  H448     1.0000 0.64375  0.91967  0.81658  Biso   1.000  H
  C369     1.0000 0.49763  0.94720  0.78525  Biso   1.000  C
  C370     1.0000 0.54945  0.90629  0.79149  Biso   1.000  C
  O109     1.0000 0.34986  0.91393  0.82170  Biso   1.000  O
  N241     1.0000 0.37250  0.84889  0.81669  Biso   1.000  N
  C371     1.0000 0.35472  0.79701  0.83751  Biso   1.000  C
  H449     1.0000 0.27455  0.76029  0.86238  Biso   1.000  H
  C372     1.0000 0.37293  0.77827  0.91786  Biso   1.000  C
  C373     1.0000 0.53036  0.85337  0.86309  Biso   1.000  C
  N242     1.0000 0.46317  0.89385  0.78648  Biso   1.000  N
  O110     1.0000 0.48588  0.98154  0.77900  Biso   1.000  O
  C374     1.0000 0.48982  0.86367  0.79149  Biso   1.000  C
  H450     1.0000 0.56813  0.90379  0.76117  Biso   1.000  H
  C375     1.0000 0.40742  0.86989  0.77407  Biso   1.000  C
  N243     1.0000 0.39248  0.79384  0.87064  Biso   1.000  N
  H451     1.0000 0.34166  0.76896  0.81108  Biso   1.000  H
  O111     1.0000 0.39471  0.76758  0.95151  Biso   1.000  O
  N244     1.0000 0.48274  0.83812  0.84021  Biso   1.000  N
  O112     1.0000 0.53716  0.83321  0.90029  Biso   1.000  O
  H452     1.0000 0.48084  0.83788  0.76338  Biso   1.000  H
  H453     1.0000 0.40131  0.89678  0.75758  Biso   1.000  H
  H454     1.0000 0.39817  0.84089  0.74988  Biso   1.000  H
  C376     1.0000 0.43598  0.78810  0.85228  Biso   1.000  C
  H455     1.0000 0.42426  0.76568  0.82189  Biso   1.000  H
  H456     1.0000 0.44533  0.76968  0.87778  Biso   1.000  H
  C377     1.0000 0.15427  0.44033  0.11538  Biso   1.000  C
  N245     1.0000 0.09949  0.41529  0.13153  Biso   1.000  N
  N246     1.0000 0.16047  0.44785  0.06176  Biso   1.000  N
  H457     1.0000 0.17457  0.47502  0.13205  Biso   1.000  H
  H458     1.0000 0.16936  0.41803  0.12603  Biso   1.000  H
  C378     1.0000 0.08077  0.43965  0.16278  Biso   1.000  C
  C379     1.0000 0.06405  0.35861  0.12891  Biso   1.000  C
  C380     1.0000 0.15412  0.40606  0.02845  Biso   1.000  C
  C381     1.0000 0.19177  0.49673  0.04101  Biso   1.000  C
  O113     1.0000 0.10424  0.48722  0.17322  Biso   1.000  O
  N247     1.0000 0.03234  0.40234  0.18047  Biso   1.000  N
  N248     1.0000 0.03798  0.34071  0.08076  Biso   1.000  N
  H459     1.0000 0.08187  0.33853  0.13953  Biso   1.000  H
  C382     1.0000 0.01817  0.34883  0.16439  Biso   1.000  C
  N249     1.0000 0.09977  0.37236  0.01159  Biso   1.000  N
  H460     1.0000 0.16932  0.38495  0.04296  Biso   1.000  H
  C383     1.0000 0.18350  0.43553  0.98071  Biso   1.000  C
  O114     1.0000 0.20759  0.53915  0.06259  Biso   1.000  O
  N250     1.0000 0.20149  0.49079  0.99222  Biso   1.000  N
  C384     1.0000 0.00587  0.41224  0.22145  Biso   1.000  C
  C385     1.0000 0.06192  0.32677  0.04027  Biso   1.000  C
  C386     1.0000 0.98398  0.31714  0.08502  Biso   1.000  C
  H461     1.0000 0.01517  0.32574  0.19322  Biso   1.000  H
  N251     1.0000 0.97178  0.32423  0.13239  Biso   1.000  N
  C387     1.0000 0.09474  0.37588  0.96127  Biso   1.000  C
  N252     1.0000 0.14287  0.41355  0.94265  Biso   1.000  N
  H462     1.0000 0.21374  0.42967  0.97278  Biso   1.000  H
  C388     1.0000 0.24330  0.53455  0.96415  Biso   1.000  C
  H463     1.0000 0.02936  0.44825  0.23464  Biso   1.000  H
  N253     1.0000 0.95565  0.40757  0.20728  Biso   1.000  N
  H464     1.0000 0.99959  0.38666  0.24863  Biso   1.000  H
  H465     1.0000 0.03375  0.30158  0.01757  Biso   1.000  H
  H466     1.0000 0.08014  0.30867  0.05425  Biso   1.000  H
  O115     1.0000 0.95205  0.29377  0.05152  Biso   1.000  O
  C389     1.0000 0.91858  0.29385  0.15232  Biso   1.000  C
  O116     1.0000 0.05390  0.34998  0.93685  Biso   1.000  O
  C390     1.0000 0.15414  0.42258  0.88997  Biso   1.000  C
  N254     1.0000 0.22389  0.54897  0.92078  Biso   1.000  N
  H467     1.0000 0.26162  0.56576  0.98635  Biso   1.000  H
  H468     1.0000 0.26963  0.52457  0.95327  Biso   1.000  H
  C391     1.0000 0.94717  0.44955  0.21475  Biso   1.000  C
  C392     1.0000 0.90627  0.35683  0.20851  Biso   1.000  C
  N255     1.0000 0.89485  0.32617  0.16323  Biso   1.000  N
  H469     1.0000 0.89607  0.26613  0.12794  Biso   1.000  H
  H470     1.0000 0.91968  0.27595  0.18342  Biso   1.000  H
  N256     1.0000 0.15968  0.47221  0.87292  Biso   1.000  N
  H471     1.0000 0.12532  0.39327  0.87098  Biso   1.000  H
  H472     1.0000 0.18735  0.42238  0.88268  Biso   1.000  H
  C393     1.0000 0.21077  0.52061  0.87386  Biso   1.000  C
  C394     1.0000 0.22174  0.59468  0.91786  Biso   1.000  C
  O117     1.0000 0.98154  0.49566  0.22100  Biso   1.000  O
  N257     1.0000 0.89382  0.43066  0.21352  Biso   1.000  N
  H473     1.0000 0.90377  0.33564  0.23883  Biso   1.000  H
  C395     1.0000 0.86365  0.37382  0.20851  Biso   1.000  C
  C396     1.0000 0.85339  0.32305  0.13695  Biso   1.000  C
  C397     1.0000 0.12759  0.47292  0.83576  Biso   1.000  C
  C398     1.0000 0.20301  0.55776  0.83751  Biso   1.000  C
  H474     1.0000 0.23975  0.51427  0.86238  Biso   1.000  H
  O118     1.0000 0.23244  0.62712  0.95151  Biso   1.000  O
  N258     1.0000 0.20621  0.59868  0.87064  Biso   1.000  N
  C399     1.0000 0.86988  0.46243  0.22593  Biso   1.000  C
  N259     1.0000 0.83811  0.35541  0.15983  Biso   1.000  N
  H475     1.0000 0.83786  0.35703  0.23662  Biso   1.000  H
  O119     1.0000 0.83319  0.29603  0.09971  Biso   1.000  O
  O120     1.0000 0.08609  0.43597  0.82170  Biso   1.000  O
  N260     1.0000 0.15115  0.52362  0.81669  Biso   1.000  N
  H476     1.0000 0.23103  0.57266  0.81108  Biso   1.000  H
  C400     1.0000 0.21194  0.64787  0.85228  Biso   1.000  C
  N261     1.0000 0.84888  0.47641  0.18331  Biso   1.000  N
  H477     1.0000 0.89677  0.49542  0.24242  Biso   1.000  H
  H478     1.0000 0.84086  0.44274  0.25012  Biso   1.000  H
  C401     1.0000 0.78807  0.35212  0.14772  Biso   1.000  C
  C402     1.0000 0.13013  0.53756  0.77407  Biso   1.000  C
  N262     1.0000 0.16190  0.64459  0.84021  Biso   1.000  N
  H479     1.0000 0.23434  0.65857  0.82189  Biso   1.000  H
  H480     1.0000 0.23034  0.67568  0.87778  Biso   1.000  H
  C403     1.0000 0.87242  0.52707  0.16424  Biso   1.000  C
  C404     1.0000 0.79699  0.44227  0.16249  Biso   1.000  C
  N263     1.0000 0.79380  0.40131  0.12936  Biso   1.000  N
  H481     1.0000 0.76568  0.34142  0.17815  Biso   1.000  H
  H482     1.0000 0.76970  0.32435  0.12222  Biso   1.000  H
  N264     1.0000 0.10616  0.56933  0.78648  Biso   1.000  N
  H483     1.0000 0.10324  0.50457  0.75758  Biso   1.000  H
  H484     1.0000 0.15914  0.55729  0.74988  Biso   1.000  H
  C405     1.0000 0.13633  0.62617  0.79149  Biso   1.000  C
  C406     1.0000 0.14664  0.67698  0.86309  Biso   1.000  C
  O121     1.0000 0.91394  0.56406  0.17830  Biso   1.000  O
  N265     1.0000 0.84035  0.52782  0.12708  Biso   1.000  N
  H485     1.0000 0.76898  0.42733  0.18892  Biso   1.000  H
  C407     1.0000 0.78922  0.47942  0.12614  Biso   1.000  C
  C408     1.0000 0.77829  0.40535  0.08214  Biso   1.000  C
  C409     1.0000 0.05283  0.55048  0.78525  Biso   1.000  C
  C410     1.0000 0.09371  0.64316  0.79149  Biso   1.000  C
  H486     1.0000 0.16211  0.64296  0.76338  Biso   1.000  H
  O122     1.0000 0.16680  0.70400  0.90029  Biso   1.000  O
  N266     1.0000 0.10519  0.67386  0.83677  Biso   1.000  N
  C411     1.0000 0.84589  0.57745  0.11003  Biso   1.000  C
  N267     1.0000 0.77611  0.45106  0.07922  Biso   1.000  N
  H487     1.0000 0.76029  0.48576  0.13762  Biso   1.000  H
  O123     1.0000 0.76758  0.37287  0.04853  Biso   1.000  O
  O124     1.0000 0.01847  0.50433  0.77900  Biso   1.000  O
  N268     1.0000 0.04435  0.59246  0.79272  Biso   1.000  N
  H488     1.0000 0.09623  0.66439  0.76117  Biso   1.000  H
  C412     1.0000 0.08145  0.70618  0.84768  Biso   1.000  C
  N269     1.0000 0.85714  0.58644  0.05735  Biso   1.000  N
  H489     1.0000 0.87466  0.60672  0.12902  Biso   1.000  H
  H490     1.0000 0.81268  0.57765  0.11732  Biso   1.000  H
  C413     1.0000 0.75670  0.46548  0.03589  Biso   1.000  C
  C414     1.0000 0.99416  0.58779  0.77855  Biso   1.000  C
  N270     1.0000 0.02826  0.67580  0.86761  Biso   1.000  N
  H491     1.0000 0.10394  0.73386  0.87206  Biso   1.000  H
  H492     1.0000 0.08035  0.72408  0.81658  Biso   1.000  H
  C415     1.0000 0.90529  0.62415  0.03873  Biso   1.000  C
  C416     1.0000 0.81653  0.56450  0.01929  Biso   1.000  C
  N271     1.0000 0.79853  0.50920  0.00778  Biso   1.000  N
  H493     1.0000 0.73836  0.43423  0.01365  Biso   1.000  H
  H494     1.0000 0.73037  0.47546  0.04673  Biso   1.000  H
  N272     1.0000 0.96764  0.59765  0.81953  Biso   1.000  N
  H495     1.0000 0.97064  0.55178  0.76536  Biso   1.000  H
  H496     1.0000 0.00044  0.61337  0.75137  Biso   1.000  H
  C417     1.0000 0.98183  0.65120  0.83565  Biso   1.000  C
  C418     1.0000 0.01606  0.68289  0.91498  Biso   1.000  C
  N273     1.0000 0.90026  0.62767  0.98841  Biso   1.000  N
  O125     1.0000 0.94611  0.65001  0.06315  Biso   1.000  O
  C419     1.0000 0.84586  0.59393  0.97159  Biso   1.000  C
  H497     1.0000 0.78627  0.57032  0.02722  Biso   1.000  H
  C420     1.0000 0.80825  0.50326  0.95902  Biso   1.000  C
  C421     1.0000 0.91923  0.56038  0.83722  Biso   1.000  C
  C422     1.0000 0.93596  0.64138  0.87109  Biso   1.000  C
  H498     1.0000 0.98487  0.67429  0.80678  Biso   1.000  H
  N274     1.0000 0.96201  0.65932  0.91924  Biso   1.000  N
  O126     1.0000 0.04794  0.70626  0.94848  Biso   1.000  O
  C423     1.0000 0.93806  0.67322  0.95973  Biso   1.000  C
  N275     1.0000 0.83957  0.55218  0.93824  Biso   1.000  N
  H499     1.0000 0.83069  0.61504  0.95704  Biso   1.000  H
  O127     1.0000 0.79242  0.46084  0.93741  Biso   1.000  O
  O128     1.0000 0.89579  0.51281  0.82678  Biso   1.000  O
  N276     1.0000 0.90052  0.58470  0.86847  Biso   1.000  N
  H500     1.0000 0.91815  0.66146  0.86047  Biso   1.000  H
  H501     1.0000 0.96628  0.69845  0.98243  Biso   1.000  H
  H502     1.0000 0.91987  0.69132  0.94575  Biso   1.000  H
  C424     1.0000 0.84574  0.55967  0.88462  Biso   1.000  C
  H503     1.0000 0.82545  0.52497  0.86799  Biso   1.000  H
  H504     1.0000 0.83065  0.58196  0.87397  Biso   1.000  H
  C425     1.0000 0.68545  0.23072  0.51894  Biso   1.000  C
  N277     1.0000 0.68874  0.18398  0.50686  Biso   1.000  N
  N278     1.0000 0.73466  0.27417  0.53733  Biso   1.000  N
  H505     1.0000 0.67478  0.24244  0.48854  Biso   1.000  H
  H506     1.0000 0.65768  0.22133  0.54443  Biso   1.000  H
  C426     1.0000 0.70720  0.17685  0.45818  Biso   1.000  C
  C427     1.0000 0.65637  0.13633  0.52974  Biso   1.000  C
  C428     1.0000 0.77560  0.31195  0.50417  Biso   1.000  C
  C429     1.0000 0.73868  0.29374  0.58451  Biso   1.000  C
  N279     1.0000 0.76402  0.20351  0.45317  Biso   1.000  N
  C430     1.0000 0.69018  0.11724  0.45814  Biso   1.000  C
  H507     1.0000 0.69039  0.18584  0.43003  Biso   1.000  H
  O129     1.0000 0.62935  0.12948  0.56698  Biso   1.000  O
  N280     1.0000 0.65950  0.09799  0.50342  Biso   1.000  N
  N281     1.0000 0.80975  0.29421  0.48338  Biso   1.000  N
  H508     1.0000 0.76067  0.32503  0.47774  Biso   1.000  H
  C431     1.0000 0.81278  0.35687  0.54051  Biso   1.000  C
  O130     1.0000 0.70623  0.27199  0.61816  Biso   1.000  O
  N282     1.0000 0.78440  0.34162  0.58747  Biso   1.000  N
  C432     1.0000 0.78287  0.16905  0.45190  Biso   1.000  C
  C433     1.0000 0.79576  0.25924  0.44072  Biso   1.000  C
  N283     1.0000 0.74090  0.11859  0.45942  Biso   1.000  N
  H509     1.0000 0.66897  0.09855  0.42782  Biso   1.000  H
  C434     1.0000 0.62719  0.04195  0.51434  Biso   1.000  C
  C435     1.0000 0.86043  0.32134  0.50245  Biso   1.000  C
  N284     1.0000 0.86115  0.35414  0.53957  Biso   1.000  N
  H510     1.0000 0.81908  0.39212  0.52903  Biso   1.000  H
  C436     1.0000 0.79881  0.37545  0.63080  Biso   1.000  C
  O131     1.0000 0.82897  0.18077  0.44566  Biso   1.000  O
  H511     1.0000 0.82879  0.26534  0.42423  Biso   1.000  H
  H512     1.0000 0.77609  0.26854  0.41653  Biso   1.000  H
  C437     1.0000 0.74557  0.07304  0.44525  Biso   1.000  C
  N285     1.0000 0.65756  0.01913  0.53430  Biso   1.000  N
  H513     1.0000 0.59947  0.03672  0.53875  Biso   1.000  H
  H514     1.0000 0.60928  0.02293  0.48323  Biso   1.000  H
  O132     1.0000 0.89739  0.31679  0.48835  Biso   1.000  O
  C438     1.0000 0.91077  0.39822  0.55662  Biso   1.000  C
  N286     1.0000 0.84253  0.37735  0.65892  Biso   1.000  N
  H515     1.0000 0.76759  0.36253  0.65305  Biso   1.000  H
  H516     1.0000 0.80879  0.41173  0.61992  Biso   1.000  H
  N287     1.0000 0.73569  0.03668  0.48622  Biso   1.000  N
  H517     1.0000 0.71998  0.05375  0.41803  Biso   1.000  H
  H518     1.0000 0.78157  0.08555  0.43205  Biso   1.000  H
  C439     1.0000 0.68220  0.99735  0.50230  Biso   1.000  C
  C440     1.0000 0.65045  0.99984  0.58164  Biso   1.000  C
  N288     1.0000 0.91978  0.39600  0.60930  Biso   1.000  N
  H519     1.0000 0.94008  0.39874  0.53763  Biso   1.000  H
  H520     1.0000 0.91099  0.43165  0.54933  Biso   1.000  H
  C441     1.0000 0.89780  0.41462  0.64736  Biso   1.000  C
  C442     1.0000 0.83660  0.36170  0.70767  Biso   1.000  C
  C443     1.0000 0.77297  0.02555  0.50387  Biso   1.000  C
  C444     1.0000 0.69198  0.96126  0.53774  Biso   1.000  C
  H521     1.0000 0.65910  0.97726  0.47344  Biso   1.000  H
  O133     1.0000 0.62712  0.00840  0.61513  Biso   1.000  O
  N289     1.0000 0.67402  0.96938  0.58593  Biso   1.000  N
  C445     1.0000 0.95750  0.38555  0.62792  Biso   1.000  C
  H522     1.0000 0.90369  0.45074  0.63944  Biso   1.000  H
  C446     1.0000 0.92726  0.41474  0.69511  Biso   1.000  C
  O134     1.0000 0.79419  0.33513  0.72924  Biso   1.000  O
  N290     1.0000 0.88549  0.37929  0.72842  Biso   1.000  N
  O135     1.0000 0.82055  0.04963  0.49348  Biso   1.000  O
  N291     1.0000 0.74866  0.98249  0.53516  Biso   1.000  N
  H523     1.0000 0.67186  0.92336  0.52712  Biso   1.000  H
  C447     1.0000 0.66010  0.93152  0.62639  Biso   1.000  C
  O136     1.0000 0.98335  0.37058  0.60351  Biso   1.000  O
  N292     1.0000 0.96102  0.39410  0.67824  Biso   1.000  N
  H524     1.0000 0.94835  0.45102  0.70965  Biso   1.000  H
  C448     1.0000 0.89300  0.38060  0.78203  Biso   1.000  C
  C449     1.0000 0.77368  0.95275  0.55128  Biso   1.000  C
  N293     1.0000 0.70565  0.93928  0.65506  Biso   1.000  N
  H525     1.0000 0.63495  0.93453  0.64912  Biso   1.000  H
  H526     1.0000 0.64202  0.89524  0.61241  Biso   1.000  H
  C450     1.0000 0.00656  0.40183  0.70692  Biso   1.000  C
  N294     1.0000 0.91804  0.35089  0.79818  Biso   1.000  N
  H527     1.0000 0.85831  0.36622  0.79871  Biso   1.000  H
  H528     1.0000 0.91530  0.41799  0.79269  Biso   1.000  H
  N295     1.0000 0.78120  0.95405  0.60489  Biso   1.000  N
  H529     1.0000 0.80840  0.96716  0.53464  Biso   1.000  H
  H530     1.0000 0.75139  0.91536  0.54062  Biso   1.000  H
  C451     1.0000 0.70921  0.94784  0.70539  Biso   1.000  C
  C452     1.0000 0.73939  0.91860  0.63824  Biso   1.000  C
  N296     1.0000 0.99263  0.36396  0.74741  Biso   1.000  N
  H531     1.0000 0.03176  0.39886  0.68423  Biso   1.000  H
  H532     1.0000 0.02469  0.43815  0.72094  Biso   1.000  H
  C453     1.0000 0.89372  0.30780  0.82948  Biso   1.000  C
  C454     1.0000 0.97473  0.37212  0.79560  Biso   1.000  C
  C455     1.0000 0.83009  0.97164  0.62568  Biso   1.000  C
  O137     1.0000 0.68330  0.96277  0.72984  Biso   1.000  O
  N297     1.0000 0.74693  0.93738  0.72401  Biso   1.000  N
  C456     1.0000 0.76885  0.91872  0.68598  Biso   1.000  C
  H533     1.0000 0.71834  0.88232  0.62370  Biso   1.000  H
  C457     1.0000 0.01620  0.33350  0.75171  Biso   1.000  C
  O138     1.0000 0.84612  0.28367  0.83987  Biso   1.000  O
  N298     1.0000 0.93100  0.29667  0.84712  Biso   1.000  N
  H534     1.0000 0.99479  0.40999  0.80622  Biso   1.000  H
  C458     1.0000 0.98454  0.33604  0.83105  Biso   1.000  C
  O139     1.0000 0.87252  0.99826  0.60407  Biso   1.000  O
  N299     1.0000 0.82415  0.95600  0.67443  Biso   1.000  N
  C459     1.0000 0.75592  0.93512  0.77669  Biso   1.000  C
  H535     1.0000 0.76303  0.88260  0.69391  Biso   1.000  H
  O140     1.0000 0.03957  0.32495  0.71817  Biso   1.000  O
  N300     1.0000 0.00913  0.31421  0.79904  Biso   1.000  N
  C460     1.0000 0.92112  0.26031  0.88810  Biso   1.000  C
  H536     1.0000 0.00761  0.35612  0.85991  Biso   1.000  H
  C461     1.0000 0.86790  0.95794  0.70255  Biso   1.000  C
  N301     1.0000 0.80554  0.97921  0.79377  Biso   1.000  N
  H537     1.0000 0.72661  0.93461  0.79572  Biso   1.000  H
  H538     1.0000 0.75569  0.90173  0.78401  Biso   1.000  H
  C462     1.0000 0.03950  0.29140  0.81901  Biso   1.000  C
  N302     1.0000 0.92578  0.21476  0.87393  Biso   1.000  N
  H539     1.0000 0.94671  0.27959  0.91532  Biso   1.000  H
  H540     1.0000 0.88509  0.24779  0.90130  Biso   1.000  H
  N303     1.0000 0.88225  0.99172  0.74588  Biso   1.000  N
  H541     1.0000 0.89910  0.97081  0.68030  Biso   1.000  H
  H542     1.0000 0.85794  0.92162  0.71339  Biso   1.000  H
  C463     1.0000 0.80626  0.01200  0.83090  Biso   1.000  C
  C464     1.0000 0.85396  0.97651  0.79284  Biso   1.000  C
  N304     1.0000 0.00719  0.23535  0.82992  Biso   1.000  N
  H543     1.0000 0.06720  0.29659  0.79459  Biso   1.000  H
  H544     1.0000 0.05741  0.31041  0.85011  Biso   1.000  H
  C465     1.0000 0.88381  0.16430  0.88141  Biso   1.000  C
  C466     1.0000 0.97650  0.21610  0.87520  Biso   1.000  C
  C467     1.0000 0.92801  0.03961  0.74883  Biso   1.000  C
  O141     1.0000 0.76928  0.01652  0.84499  Biso   1.000  O
  N305     1.0000 0.85694  0.03913  0.84996  Biso   1.000  N
  C468     1.0000 0.89108  0.02139  0.82918  Biso   1.000  C
  H545     1.0000 0.84760  0.94122  0.80431  Biso   1.000  H
  C469     1.0000 0.01032  0.19701  0.80360  Biso   1.000  C
  O142     1.0000 0.83768  0.15257  0.88769  Biso   1.000  O
  N306     1.0000 0.90267  0.12984  0.88017  Biso   1.000  N
  H546     1.0000 0.99772  0.23480  0.90548  Biso   1.000  H
  C470     1.0000 0.95949  0.15649  0.87516  Biso   1.000  C
  O143     1.0000 0.96046  0.06135  0.71518  Biso   1.000  O
  N307     1.0000 0.93201  0.05914  0.79601  Biso   1.000  N
  C471     1.0000 0.87090  0.07411  0.89259  Biso   1.000  C
  H547     1.0000 0.90602  0.00832  0.85561  Biso   1.000  H
  N308     1.0000 0.97795  0.14936  0.82649  Biso   1.000  N
  O144     1.0000 0.03732  0.20382  0.76637  Biso   1.000  O
  H548     1.0000 0.97630  0.14750  0.90332  Biso   1.000  H
  C472     1.0000 0.98121  0.10259  0.81441  Biso   1.000  C
  H549     1.0000 0.83790  0.06801  0.90911  Biso   1.000  H
  H550     1.0000 0.89060  0.06480  0.91681  Biso   1.000  H
  H551     1.0000 0.99191  0.09090  0.84481  Biso   1.000  H
  H552     1.0000 0.00901  0.11201  0.78891  Biso   1.000  H
  C473     1.0000 0.19342  0.76266  0.34325  Biso   1.000  C
  N309     1.0000 0.21163  0.81086  0.37238  Biso   1.000  N
  H553     1.0000 0.22423  0.76198  0.32878  Biso   1.000  H
  H554     1.0000 0.17462  0.73157  0.36557  Biso   1.000  H
  C474     1.0000 0.15671  0.75866  0.30187  Biso   1.000  C
  H555     1.0000 0.20675  0.83459  0.35368  Biso   1.000  H
  H556     1.0000 0.24754  0.82567  0.37758  Biso   1.000  H
  C475     1.0000 0.18642  0.80437  0.41967  Biso   1.000  C
  N310     1.0000 0.18554  0.80678  0.26945  Biso   1.000  N
  H557     1.0000 0.12443  0.75687  0.31589  Biso   1.000  H
  H558     1.0000 0.14603  0.72626  0.28186  Biso   1.000  H
  H559     1.0000 0.15041  0.77296  0.41836  Biso   1.000  H
  H560     1.0000 0.20684  0.79799  0.44566  Biso   1.000  H
  C476     1.0000 0.18244  0.85190  0.43358  Biso   1.000  C
  H561     1.0000 0.20222  0.83617  0.28975  Biso   1.000  H
  H562     1.0000 0.21143  0.80437  0.25188  Biso   1.000  H
  C477     1.0000 0.15090  0.81482  0.23311  Biso   1.000  C
  N311     1.0000 0.14778  0.85990  0.39720  Biso   1.000  N
  H563     1.0000 0.21832  0.88366  0.43366  Biso   1.000  H
  H564     1.0000 0.16764  0.84726  0.46768  Biso   1.000  H
  C478     1.0000 0.14690  0.86231  0.24702  Biso   1.000  C
  H565     1.0000 0.11500  0.78302  0.23300  Biso   1.000  H
  H566     1.0000 0.16572  0.81942  0.19901  Biso   1.000  H
  H567     1.0000 0.13110  0.83051  0.37690  Biso   1.000  H
  H568     1.0000 0.12189  0.86231  0.41481  Biso   1.000  H
  C479     1.0000 0.17661  0.90802  0.36479  Biso   1.000  C
  N312     1.0000 0.12170  0.85582  0.29431  Biso   1.000  N
  H569     1.0000 0.18291  0.89372  0.24829  Biso   1.000  H
  H570     1.0000 0.12651  0.86873  0.22100  Biso   1.000  H
  C480     1.0000 0.13990  0.90402  0.32340  Biso   1.000  C
  H571     1.0000 0.20889  0.90980  0.35081  Biso   1.000  H
  H572     1.0000 0.18732  0.94042  0.38479  Biso   1.000  H
  H573     1.0000 0.12661  0.83209  0.31301  Biso   1.000  H
  H574     1.0000 0.08578  0.84100  0.28912  Biso   1.000  H
  H575     1.0000 0.10909  0.90469  0.33791  Biso   1.000  H
  H576     1.0000 0.15870  0.93511  0.30112  Biso   1.000  H
  C481     1.0000 0.06475  0.49007  0.03148  Biso   1.000  C
  N313     1.0000 0.04543  0.51887  0.06386  Biso   1.000  N
  H577     1.0000 0.03421  0.45775  0.01746  Biso   1.000  H
  H578     1.0000 0.08643  0.47938  0.05148  Biso   1.000  H
  C482     1.0000 0.09744  0.52679  0.99005  Biso   1.000  C
  H579     1.0000 0.03276  0.53558  0.04356  Biso   1.000  H
  H580     1.0000 0.07374  0.54477  0.08147  Biso   1.000  H
  C483     1.0000 0.00277  0.48425  0.10024  Biso   1.000  C
  H581     1.0000 0.12892  0.55757  0.00456  Biso   1.000  H
  N314     1.0000 0.06743  0.54497  0.96097  Biso   1.000  N
  H582     1.0000 0.10975  0.50798  0.96777  Biso   1.000  H
  H583     1.0000 0.01297  0.49902  0.13433  Biso   1.000  H
  C484     1.0000 0.95127  0.48025  0.08633  Biso   1.000  C
  H584     1.0000 0.99866  0.44833  0.10035  Biso   1.000  H
  H585     1.0000 0.03884  0.54006  0.97966  Biso   1.000  H
  H586     1.0000 0.08853  0.58086  0.95577  Biso   1.000  H
  C485     1.0000 0.04873  0.51978  0.91367  Biso   1.000  C
  N315     1.0000 0.93258  0.45502  0.03903  Biso   1.000  N
  H587     1.0000 0.95589  0.51625  0.08502  Biso   1.000  H
  H588     1.0000 0.92447  0.45985  0.11235  Biso   1.000  H
  C486     1.0000 0.99723  0.51578  0.89976  Biso   1.000  C
  H589     1.0000 0.04414  0.48378  0.91498  Biso   1.000  H
  H590     1.0000 0.07553  0.54018  0.88769  Biso   1.000  H
  H591     1.0000 0.96118  0.45993  0.02034  Biso   1.000  H
  H592     1.0000 0.91148  0.41913  0.04423  Biso   1.000  H
  C487     1.0000 0.90259  0.47324  0.00995  Biso   1.000  C
  N316     1.0000 0.95455  0.48112  0.93614  Biso   1.000  N
  H593     1.0000 0.98705  0.50097  0.86567  Biso   1.000  H
  H594     1.0000 0.00131  0.55166  0.89965  Biso   1.000  H
  H595     1.0000 0.87106  0.44242  0.99544  Biso   1.000  H
  C488     1.0000 0.93529  0.50996  0.96852  Biso   1.000  C
  H596     1.0000 0.89028  0.49205  0.03223  Biso   1.000  H
  H597     1.0000 0.96728  0.46445  0.95644  Biso   1.000  H
  H598     1.0000 0.92629  0.45526  0.91853  Biso   1.000  H
  H599     1.0000 0.96576  0.54224  0.98254  Biso   1.000  H
  H600     1.0000 0.91357  0.52065  0.94855  Biso   1.000  H
  C489     1.0000 0.52897  0.04872  0.08633  Biso   1.000  C
  N317     1.0000 0.52249  0.06745  0.03903  Biso   1.000  N
  H601     1.0000 0.56036  0.04412  0.08502  Biso   1.000  H
  H602     1.0000 0.53538  0.07553  0.11235  Biso   1.000  H
  C490     1.0000 0.48147  0.99727  0.10024  Biso   1.000  C
  H603     1.0000 0.49878  0.03882  0.02034  Biso   1.000  H
  H604     1.0000 0.50768  0.08852  0.04423  Biso   1.000  H
  C491     1.0000 0.57069  0.09744  0.00995  Biso   1.000  C
  H605     1.0000 0.44968  0.00135  0.10035  Biso   1.000  H
  N318     1.0000 0.47343  0.95457  0.06386  Biso   1.000  N
  H606     1.0000 0.48610  0.98705  0.13433  Biso   1.000  H
  H607     1.0000 0.60177  0.10971  0.03223  Biso   1.000  H
  H608     1.0000 0.57137  0.12892  0.99544  Biso   1.000  H
  C492     1.0000 0.57467  0.06472  0.96852  Biso   1.000  C
  H609     1.0000 0.50283  0.96728  0.04356  Biso   1.000  H
  H610     1.0000 0.47102  0.92629  0.08147  Biso   1.000  H
  C493     1.0000 0.42536  0.93528  0.03148  Biso   1.000  C
  N319     1.0000 0.52657  0.04543  0.93614  Biso   1.000  N
  H611     1.0000 0.57647  0.03422  0.98254  Biso   1.000  H
  H612     1.0000 0.60707  0.08643  0.94855  Biso   1.000  H
  C494     1.0000 0.42937  0.90260  0.99005  Biso   1.000  C
  H613     1.0000 0.42356  0.96578  0.01746  Biso   1.000  H
  H614     1.0000 0.39297  0.91357  0.05148  Biso   1.000  H
  H615     1.0000 0.49717  0.03272  0.95644  Biso   1.000  H
  H616     1.0000 0.52897  0.07375  0.91853  Biso   1.000  H
  C495     1.0000 0.51855  0.00277  0.89976  Biso   1.000  C
  N320     1.0000 0.47756  0.93259  0.96097  Biso   1.000  N
  H617     1.0000 0.39827  0.89029  0.96777  Biso   1.000  H
  H618     1.0000 0.42866  0.87108  0.00456  Biso   1.000  H
  C496     1.0000 0.47106  0.95128  0.91367  Biso   1.000  C
  H619     1.0000 0.55037  0.99869  0.89965  Biso   1.000  H
  H620     1.0000 0.51394  0.01295  0.86567  Biso   1.000  H
  H621     1.0000 0.50122  0.96118  0.97966  Biso   1.000  H
  H622     1.0000 0.49232  0.91148  0.95577  Biso   1.000  H
  H623     1.0000 0.43964  0.95588  0.91498  Biso   1.000  H
  H624     1.0000 0.46462  0.92447  0.88769  Biso   1.000  H
  C497     1.0000 0.80659  0.23733  0.65675  Biso   1.000  C
  N321     1.0000 0.78839  0.18913  0.62762  Biso   1.000  N
  H625     1.0000 0.77576  0.23805  0.67125  Biso   1.000  H
  H626     1.0000 0.82536  0.26843  0.63443  Biso   1.000  H
  C498     1.0000 0.84327  0.24133  0.69813  Biso   1.000  C
  C499     1.0000 0.81355  0.19563  0.58033  Biso   1.000  C
  H627     1.0000 0.79328  0.16544  0.64635  Biso   1.000  H
  H628     1.0000 0.75248  0.17432  0.62242  Biso   1.000  H
  N322     1.0000 0.81449  0.19325  0.73055  Biso   1.000  N
  H629     1.0000 0.87560  0.24316  0.68415  Biso   1.000  H
  H630     1.0000 0.85398  0.27373  0.71814  Biso   1.000  H
  H631     1.0000 0.84957  0.22703  0.58164  Biso   1.000  H
  H632     1.0000 0.79316  0.20204  0.55434  Biso   1.000  H
  C500     1.0000 0.81756  0.14814  0.56642  Biso   1.000  C
  H633     1.0000 0.79775  0.16382  0.71025  Biso   1.000  H
  H634     1.0000 0.78858  0.19563  0.74812  Biso   1.000  H
  C501     1.0000 0.84910  0.18521  0.76689  Biso   1.000  C
  N323     1.0000 0.85220  0.14009  0.60280  Biso   1.000  N
  H635     1.0000 0.78166  0.11633  0.56634  Biso   1.000  H
  H636     1.0000 0.83238  0.15273  0.53232  Biso   1.000  H
  C502     1.0000 0.85310  0.13772  0.75302  Biso   1.000  C
  H637     1.0000 0.88503  0.21701  0.76700  Biso   1.000  H
  H638     1.0000 0.83431  0.18061  0.80099  Biso   1.000  H
  H639     1.0000 0.86892  0.16948  0.62310  Biso   1.000  H
  H640     1.0000 0.87811  0.13772  0.58519  Biso   1.000  H
  C503     1.0000 0.82342  0.09201  0.63521  Biso   1.000  C
  N324     1.0000 0.87830  0.14421  0.70569  Biso   1.000  N
  H641     1.0000 0.81712  0.10631  0.75171  Biso   1.000  H
  H642     1.0000 0.87349  0.13130  0.77900  Biso   1.000  H
  C504     1.0000 0.86010  0.09601  0.67660  Biso   1.000  C
  H643     1.0000 0.79109  0.09019  0.64919  Biso   1.000  H
  H644     1.0000 0.81271  0.05961  0.61521  Biso   1.000  H
  H645     1.0000 0.87341  0.16790  0.68699  Biso   1.000  H
  H646     1.0000 0.91419  0.15899  0.71092  Biso   1.000  H
  H647     1.0000 0.89092  0.09530  0.66209  Biso   1.000  H
  H648     1.0000 0.84133  0.06492  0.69892  Biso   1.000  H
  Ne1      1.0000 0.16667  0.33334  0.33333  Biso   1.000  Ne
  He1      1.0000 0.18365  0.24663  0.39398  Biso   1.000  He
  He2      1.0000 0.14482  0.43585  0.25954  Biso   1.000  He
  Ar1      1.0000 0.16667  0.33334  0.33333  Biso   1.000  Ar
  Ne2      1.0000 0.16667  0.33333  0.33334  Biso   1.000  Ne
  He3      1.0000 0.17572  0.34099  0.32661  Biso   1.000  He
  He4      1.0000 0.15349  0.32620  0.33387  Biso   1.000  He
  Ar2      1.0000 0.16667  0.33333  0.33333  Biso   1.000  Ar
  Ne3      1.0000 0.50000  0.50000  0.00000  Biso   1.000  Ne
  He5      1.0000 0.38741  0.48093  0.06630  Biso   1.000  He
  He6      1.0000 0.60322  0.52271  0.93454  Biso   1.000  He
  Ar3      1.0000 0.50001  0.50001  0.00001  Biso   1.000  Ar
  Ne4      1.0000 0.33334  0.16667  0.66667  Biso   1.000  Ne
  He7      1.0000 0.40889  0.26343  0.72801  Biso   1.000  He
  He8      1.0000 0.25180  0.06252  0.60087  Biso   1.000  He
  Ar4      1.0000 0.33334  0.16667  0.66667  Biso   1.000  Ar
  Ne5      1.0000 0.50000  0.00001  0.00000  Biso   1.000  Ne
  He9      1.0000 0.51697  0.91330  0.06063  Biso   1.000  He
  He10     1.0000 0.47813  0.10246  0.92618  Biso   1.000  He
  Ar5      1.0000 0.50001  0.00001  0.00000  Biso   1.000  Ar
  Ne6      1.0000 0.50001  0.50001  0.00000  Biso   1.000  Ne
  He11     1.0000 0.48290  0.47007  0.01840  Biso   1.000  He
  He12     1.0000 0.50987  0.51340  0.99195  Biso   1.000  He
  Ar6      1.0000 0.50000  0.50000  0.99999  Biso   1.000  Ar
  Ne7      1.0000 0.00001  0.50001  0.00000  Biso   1.000  Ne
  He13     1.0000 0.07560  0.59677  0.06133  Biso   1.000  He
  He14     1.0000 0.91184  0.39439  0.93811  Biso   1.000  He
  Ar7      1.0000 0.00001  0.50001  0.00000  Biso   1.000  Ar
  Ne8      1.0000 0.33334  0.16667  0.66667  Biso   1.000  Ne
  He15     1.0000 0.33880  0.16871  0.67518  Biso   1.000  He
  He16     1.0000 0.34020  0.15891  0.66488  Biso   1.000  He
  Ar8      1.0000 0.33332  0.16666  0.66668  Biso   1.000  Ar
  Ne9      1.0000 0.66667  0.83334  0.33333  Biso   1.000  Ne
  He17     1.0000 0.74220  0.93009  0.39472  Biso   1.000  He
  He18     1.0000 0.57850  0.72773  0.27146  Biso   1.000  He
  Ar9      1.0000 0.66667  0.83335  0.33333  Biso   1.000  Ar
  Ne10     1.0000 0.83334  0.66667  0.66667  Biso   1.000  Ne
  He19     1.0000 0.85032  0.57997  0.72730  Biso   1.000  He
  He20     1.0000 0.81148  0.76916  0.59286  Biso   1.000  He
  Ar10     1.0000 0.83334  0.66667  0.66667  Biso   1.000  Ar
  Ne11     1.0000 0.16667  0.83334  0.33333  Biso   1.000  Ne
  He21     1.0000 0.05409  0.81425  0.39964  Biso   1.000  He
  He22     1.0000 0.26988  0.85601  0.26792  Biso   1.000  He
  Ar11     1.0000 0.16667  0.83334  0.33333  Biso   1.000  Ar
  Ne12     1.0000 0.00000  0.50001  0.00000  Biso   1.000  Ne
  He23     1.0000 0.00547  0.50206  0.00848  Biso   1.000  He
  He24     1.0000 0.00689  0.49226  0.99822  Biso   1.000  He
  Ar12     1.0000 1.00000  0.50000  0.00000  Biso   1.000  Ar
  Ne13     1.0000 0.50002  0.00001  0.00000  Biso   1.000  Ne
  He25     1.0000 0.50908  0.00768  0.99325  Biso   1.000  He
  He26     1.0000 0.48683  0.99287  0.00055  Biso   1.000  He
  Ar13     1.0000 0.50002  0.00001  1.00000  Biso   1.000  Ar
  Ne14     1.0000 0.66668  0.83334  0.33334  Biso   1.000  Ne
  He27     1.0000 0.67212  0.83540  0.34183  Biso   1.000  He
  He28     1.0000 0.67353  0.82560  0.33155  Biso   1.000  He
  Ar14     1.0000 0.66666  0.83334  0.33335  Biso   1.000  Ar
  Ne15     1.0000 0.83334  0.16667  0.66667  Biso   1.000  Ne
  He29     1.0000 0.72073  0.14760  0.73296  Biso   1.000  He
  He30     1.0000 0.93654  0.18938  0.60120  Biso   1.000  He
  Ar15     1.0000 0.83334  0.16667  0.66667  Biso   1.000  Ar
  Ne16     1.0000 0.16666  0.83334  0.33334  Biso   1.000  Ne
  He31     1.0000 0.14954  0.80341  0.35173  Biso   1.000  He
  He32     1.0000 0.17656  0.84675  0.32529  Biso   1.000  He
  Ar16     1.0000 0.16668  0.83335  0.33335  Biso   1.000  Ar
  Ne17     1.0000 0.83335  0.66668  0.66667  Biso   1.000  Ne
  He33     1.0000 0.84241  0.67433  0.65992  Biso   1.000  He
  He34     1.0000 0.82016  0.65953  0.66722  Biso   1.000  He
  Ar17     1.0000 0.83335  0.66667  0.66666  Biso   1.000  Ar
  Ne18     1.0000 0.83334  0.16667  0.66667  Biso   1.000  Ne
  He35     1.0000 0.81619  0.13672  0.68507  Biso   1.000  He
  He36     1.0000 0.84322  0.18005  0.65860  Biso   1.000  He
  Ar18     1.0000 0.83335  0.16667  0.66667  Biso   1.000  Ar
