data_image0
_cell_length_a       29.337
_cell_length_b       29.337
_cell_length_c       26.695
_cell_angle_alpha    90
_cell_angle_beta     90
_cell_angle_gamma    120

_symmetry_space_group_name_H-M    "P 1"
_symmetry_int_tables_number       1

loop_
  _symmetry_equiv_pos_as_xyz
  'x, y, z'

loop_
  _atom_site_label
  _atom_site_occupancy
  _atom_site_fract_x
  _atom_site_fract_y
  _atom_site_fract_z
  _atom_site_thermal_displace_type
  _atom_site_B_iso_or_equiv
  _atom_site_type_symbol
  O1       1.0000 0.37908  0.37073  0.61364  Biso   1.000  O
  C1       1.0000 0.34811  0.34751  0.57910  Biso   1.000  C
  N1       1.0000 0.36132  0.34121  0.53186  Biso   1.000  N
  N2       1.0000 0.29399  0.32381  0.58232  Biso   1.000  N
  C2       1.0000 0.31588  0.31645  0.49893  Biso   1.000  C
  C3       1.0000 0.41459  0.37140  0.51328  Biso   1.000  C
  C4       1.0000 0.26928  0.30724  0.53302  Biso   1.000  C
  C5       1.0000 0.26915  0.33822  0.62233  Biso   1.000  C
  N3       1.0000 0.30164  0.26324  0.48282  Biso   1.000  N
  H1       1.0000 0.31977  0.33924  0.47001  Biso   1.000  H
  N4       1.0000 0.43874  0.33952  0.50245  Biso   1.000  N
  H2       1.0000 0.41451  0.38970  0.48260  Biso   1.000  H
  H3       1.0000 0.43618  0.39809  0.53819  Biso   1.000  H
  N5       1.0000 0.23283  0.25084  0.52875  Biso   1.000  N
  H4       1.0000 0.25308  0.32822  0.52201  Biso   1.000  H
  N6       1.0000 0.23120  0.29319  0.65095  Biso   1.000  N
  H5       1.0000 0.29657  0.36325  0.64491  Biso   1.000  H
  H6       1.0000 0.25159  0.35585  0.60742  Biso   1.000  H
  C6       1.0000 0.32918  0.25403  0.44203  Biso   1.000  C
  C7       1.0000 0.25155  0.22652  0.49762  Biso   1.000  C
  C8       1.0000 0.42811  0.30831  0.45739  Biso   1.000  C
  C9       1.0000 0.48011  0.34271  0.52879  Biso   1.000  C
  C10      1.0000 0.17837  0.22585  0.54553  Biso   1.000  C
  C11      1.0000 0.17817  0.25954  0.63334  Biso   1.000  C
  C12      1.0000 0.23557  0.29055  0.70182  Biso   1.000  C
  N7       1.0000 0.37873  0.25816  0.45761  Biso   1.000  N
  H7       1.0000 0.30628  0.21892  0.42821  Biso   1.000  H
  H8       1.0000 0.33627  0.27973  0.41543  Biso   1.000  H
  O2       1.0000 0.22776  0.17984  0.48541  Biso   1.000  O
  C13      1.0000 0.47090  0.29150  0.45829  Biso   1.000  C
  H9       1.0000 0.43130  0.32921  0.42708  Biso   1.000  H
  N8       1.0000 0.49654  0.31114  0.50676  Biso   1.000  N
  O3       1.0000 0.49999  0.36979  0.56689  Biso   1.000  O
  N9       1.0000 0.17223  0.21786  0.59955  Biso   1.000  N
  H10      1.0000 0.15827  0.19164  0.52894  Biso   1.000  H
  H11      1.0000 0.16327  0.24753  0.53523  Biso   1.000  H
  H12      1.0000 0.16276  0.28005  0.61922  Biso   1.000  H
  C14      1.0000 0.14827  0.22864  0.68151  Biso   1.000  C
  N10      1.0000 0.18817  0.25253  0.72028  Biso   1.000  N
  O4       1.0000 0.27557  0.31779  0.72692  Biso   1.000  O
  C15      1.0000 0.38710  0.21620  0.45170  Biso   1.000  C
  N11      1.0000 0.44062  0.23510  0.45473  Biso   1.000  N
  H13      1.0000 0.49601  0.30709  0.43019  Biso   1.000  H
  C16      1.0000 0.54610  0.31449  0.51939  Biso   1.000  C
  C17      1.0000 0.14197  0.16874  0.61970  Biso   1.000  C
  N12      1.0000 0.13289  0.17436  0.66979  Biso   1.000  N
  H14      1.0000 0.11737  0.23262  0.68871  Biso   1.000  H
  C18      1.0000 0.17655  0.24293  0.77310  Biso   1.000  C
  O5       1.0000 0.35274  0.17011  0.44589  Biso   1.000  O
  C19      1.0000 0.46392  0.20302  0.44300  Biso   1.000  C
  N13      1.0000 0.54068  0.26607  0.53886  Biso   1.000  N
  H15      1.0000 0.56828  0.32448  0.48931  Biso   1.000  H
  H16      1.0000 0.56428  0.34239  0.54430  Biso   1.000  H
  O6       1.0000 0.12646  0.12666  0.59783  Biso   1.000  O
  C20      1.0000 0.09096  0.13032  0.69781  Biso   1.000  C
  N14      1.0000 0.17171  0.19432  0.79071  Biso   1.000  N
  H17      1.0000 0.20458  0.27213  0.79213  Biso   1.000  H
  H18      1.0000 0.14359  0.24265  0.78011  Biso   1.000  H
  N15      1.0000 0.48498  0.18952  0.48642  Biso   1.000  N
  H19      1.0000 0.43721  0.17039  0.42708  Biso   1.000  H
  H20      1.0000 0.49239  0.22179  0.41869  Biso   1.000  H
  C21      1.0000 0.53722  0.22412  0.50669  Biso   1.000  C
  C22      1.0000 0.55541  0.26241  0.58689  Biso   1.000  C
  N16      1.0000 0.10935  0.11651  0.74235  Biso   1.000  N
  H21      1.0000 0.06427  0.13945  0.70732  Biso   1.000  H
  H22      1.0000 0.07405  0.09942  0.67582  Biso   1.000  H
  C23      1.0000 0.12157  0.14524  0.78974  Biso   1.000  C
  C24      1.0000 0.20399  0.19385  0.82791  Biso   1.000  C
  C25      1.0000 0.46270  0.13949  0.50538  Biso   1.000  C
  C26      1.0000 0.54512  0.18810  0.54358  Biso   1.000  C
  H23      1.0000 0.56441  0.23801  0.48009  Biso   1.000  H
  O7       1.0000 0.56509  0.29512  0.62034  Biso   1.000  O
  N17      1.0000 0.55730  0.21683  0.59093  Biso   1.000  N
  C27      1.0000 0.11127  0.07093  0.74643  Biso   1.000  C
  H24      1.0000 0.09236  0.15063  0.80052  Biso   1.000  H
  C28      1.0000 0.12947  0.10922  0.82663  Biso   1.000  C
  N18      1.0000 0.18167  0.14382  0.84690  Biso   1.000  N
  O8       1.0000 0.24573  0.23171  0.84158  Biso   1.000  O
  O9       1.0000 0.42096  0.10163  0.49170  Biso   1.000  O
  N19      1.0000 0.49498  0.13902  0.54261  Biso   1.000  N
  H25      1.0000 0.57429  0.18271  0.53280  Biso   1.000  H
  C29      1.0000 0.57572  0.20302  0.63547  Biso   1.000  C
  O10      1.0000 0.10156  0.03822  0.71294  Biso   1.000  O
  N20      1.0000 0.12601  0.06727  0.79446  Biso   1.000  N
  H26      1.0000 0.10227  0.09533  0.85323  Biso   1.000  H
  C30      1.0000 0.20277  0.13032  0.89032  Biso   1.000  C
  C31      1.0000 0.49010  0.09041  0.56018  Biso   1.000  C
  N21      1.0000 0.53379  0.15897  0.66353  Biso   1.000  N
  H27      1.0000 0.60238  0.19389  0.62600  Biso   1.000  H
  H28      1.0000 0.59260  0.23392  0.65750  Biso   1.000  H
  C32      1.0000 0.12056  0.01881  0.81394  Biso   1.000  C
  N22      1.0000 0.22603  0.09824  0.87859  Biso   1.000  N
  H29      1.0000 0.22948  0.16295  0.90620  Biso   1.000  H
  H30      1.0000 0.17426  0.11155  0.91463  Biso   1.000  H
  N23      1.0000 0.47852  0.08081  0.61300  Biso   1.000  N
  H31      1.0000 0.46211  0.06120  0.54119  Biso   1.000  H
  H32      1.0000 0.52310  0.09069  0.55317  Biso   1.000  H
  C33      1.0000 0.51842  0.10470  0.65177  Biso   1.000  C
  C34      1.0000 0.52471  0.16460  0.71358  Biso   1.000  C
  N24      1.0000 0.17015  0.02220  0.82656  Biso   1.000  N
  H33      1.0000 0.09835  0.00882  0.84402  Biso   1.000  H
  H34      1.0000 0.10235  0.99091  0.78902  Biso   1.000  H
  C35      1.0000 0.19578  0.04184  0.87503  Biso   1.000  C
  C36      1.0000 0.27959  0.11713  0.88163  Biso   1.000  C
  C37      1.0000 0.43108  0.04278  0.63150  Biso   1.000  C
  C38      1.0000 0.48851  0.07380  0.69998  Biso   1.000  C
  H35      1.0000 0.54930  0.10068  0.64458  Biso   1.000  H
  O11      1.0000 0.54019  0.20668  0.73546  Biso   1.000  O
  N25      1.0000 0.49444  0.11544  0.73377  Biso   1.000  N
  C39      1.0000 0.18658  0.99063  0.80453  Biso   1.000  C
  H36      1.0000 0.17068  0.02625  0.90313  Biso   1.000  H
  C40      1.0000 0.23858  0.02503  0.87593  Biso   1.000  C
  N26      1.0000 0.28796  0.07518  0.87567  Biso   1.000  N
  O12      1.0000 0.31395  0.16323  0.88743  Biso   1.000  O
  O13      1.0000 0.39111  0.01555  0.60637  Biso   1.000  O
  N27      1.0000 0.43549  0.04015  0.68234  Biso   1.000  N
  H37      1.0000 0.50389  0.05329  0.71410  Biso   1.000  H
  C41      1.0000 0.48828  0.10749  0.78779  Biso   1.000  C
  O14      1.0000 0.16670  0.96355  0.76644  Biso   1.000  O
  N28      1.0000 0.22792  0.99382  0.83083  Biso   1.000  N
  H38      1.0000 0.23536  0.00413  0.90620  Biso   1.000  H
  C42      1.0000 0.33750  0.07931  0.89129  Biso   1.000  C
  C43      1.0000 0.39748  0.99508  0.71099  Biso   1.000  C
  N29      1.0000 0.43386  0.08250  0.80457  Biso   1.000  N
  H39      1.0000 0.50838  0.14170  0.80438  Biso   1.000  H
  H40      1.0000 0.50341  0.08580  0.79809  Biso   1.000  H
  C44      1.0000 0.25209  0.96194  0.82000  Biso   1.000  C
  N30      1.0000 0.36504  0.07010  0.85046  Biso   1.000  N
  H41      1.0000 0.36041  0.11442  0.90508  Biso   1.000  H
  H42      1.0000 0.33041  0.05361  0.91789  Biso   1.000  H
  N31      1.0000 0.37269  0.00953  0.75100  Biso   1.000  N
  H43      1.0000 0.37009  0.97009  0.68837  Biso   1.000  H
  H44      1.0000 0.41510  0.97749  0.72590  Biso   1.000  H
  C45      1.0000 0.39741  0.02610  0.80030  Biso   1.000  C
  C46      1.0000 0.41509  0.10678  0.83570  Biso   1.000  C
  N32      1.0000 0.30533  0.99213  0.80142  Biso   1.000  N
  H45      1.0000 0.25218  0.94364  0.85072  Biso   1.000  H
  H46      1.0000 0.23048  0.93521  0.79513  Biso   1.000  H
  C47      1.0000 0.35081  0.01689  0.83439  Biso   1.000  C
  C48      1.0000 0.31854  0.98583  0.75422  Biso   1.000  C
  H47      1.0000 0.41361  0.00512  0.81128  Biso   1.000  H
  O15      1.0000 0.43892  0.15350  0.84787  Biso   1.000  O
  H48      1.0000 0.34691  0.99410  0.86327  Biso   1.000  H
  O16      1.0000 0.28761  0.96261  0.71969  Biso   1.000  O
  C49      1.0000 0.58631  0.48161  0.65177  Biso   1.000  C
  N33      1.0000 0.60229  0.52148  0.61300  Biso   1.000  N
  N34      1.0000 0.62517  0.46622  0.66353  Biso   1.000  N
  C50      1.0000 0.58531  0.51152  0.69998  Biso   1.000  C
  H49      1.0000 0.55139  0.45071  0.64458  Biso   1.000  H
  C51      1.0000 0.60032  0.50991  0.56018  Biso   1.000  C
  C52      1.0000 0.61172  0.56891  0.63150  Biso   1.000  C
  C53      1.0000 0.63991  0.47531  0.71358  Biso   1.000  C
  C54      1.0000 0.62729  0.42430  0.63547  Biso   1.000  C
  N35      1.0000 0.60469  0.56454  0.68234  Biso   1.000  N
  N36      1.0000 0.62103  0.50558  0.73377  Biso   1.000  N
  H50      1.0000 0.54941  0.49609  0.71410  Biso   1.000  H
  N37      1.0000 0.64407  0.50503  0.54261  Biso   1.000  N
  H51      1.0000 0.59911  0.53789  0.54119  Biso   1.000  H
  H52      1.0000 0.56758  0.47688  0.55317  Biso   1.000  H
  O17      1.0000 0.62445  0.60890  0.60637  Biso   1.000  O
  O18      1.0000 0.66648  0.45980  0.73546  Biso   1.000  O
  N38      1.0000 0.65952  0.44268  0.59093  Biso   1.000  N
  H53      1.0000 0.59152  0.39761  0.62600  Biso   1.000  H
  H54      1.0000 0.64131  0.40741  0.65750  Biso   1.000  H
  C55      1.0000 0.59761  0.60252  0.71099  Biso   1.000  C
  C56      1.0000 0.61922  0.51172  0.78779  Biso   1.000  C
  C57      1.0000 0.64301  0.45492  0.54358  Biso   1.000  C
  C58      1.0000 0.67680  0.53730  0.50538  Biso   1.000  C
  C59      1.0000 0.70702  0.44461  0.58689  Biso   1.000  C
  N39      1.0000 0.63683  0.62732  0.75100  Biso   1.000  N
  H55      1.0000 0.60002  0.62992  0.68837  Biso   1.000  H
  H56      1.0000 0.56241  0.58489  0.72590  Biso   1.000  H
  N40      1.0000 0.64866  0.56615  0.80457  Biso   1.000  N
  H57      1.0000 0.63330  0.49160  0.80438  Biso   1.000  H
  H58      1.0000 0.58242  0.49660  0.79809  Biso   1.000  H
  H59      1.0000 0.60840  0.42572  0.53280  Biso   1.000  H
  C60      1.0000 0.68690  0.46279  0.50669  Biso   1.000  C
  O19      1.0000 0.68068  0.57906  0.49170  Biso   1.000  O
  N41      1.0000 0.70452  0.51502  0.48642  Biso   1.000  N
  N42      1.0000 0.72539  0.45933  0.53886  Biso   1.000  N
  O20      1.0000 0.73000  0.43489  0.62034  Biso   1.000  O
  C61      1.0000 0.62870  0.60260  0.80030  Biso   1.000  C
  C62      1.0000 0.66727  0.68144  0.75422  Biso   1.000  C
  C63      1.0000 0.69170  0.58489  0.83570  Biso   1.000  C
  H60      1.0000 0.67360  0.43560  0.48009  Biso   1.000  H
  C64      1.0000 0.73910  0.53612  0.44300  Biso   1.000  C
  C65      1.0000 0.76842  0.45390  0.51939  Biso   1.000  C
  C66      1.0000 0.66611  0.64920  0.83439  Biso   1.000  C
  H61      1.0000 0.59150  0.58642  0.81128  Biso   1.000  H
  O21      1.0000 0.67502  0.71241  0.71969  Biso   1.000  O
  N43      1.0000 0.68680  0.69466  0.80142  Biso   1.000  N
  O22      1.0000 0.71460  0.56107  0.84787  Biso   1.000  O
  N44      1.0000 0.70508  0.63495  0.85046  Biso   1.000  N
  N45      1.0000 0.79447  0.55938  0.45473  Biso   1.000  N
  H62      1.0000 0.73322  0.56281  0.42708  Biso   1.000  H
  H63      1.0000 0.72940  0.50758  0.41869  Biso   1.000  H
  N46      1.0000 0.81462  0.50349  0.50676  Biso   1.000  N
  H64      1.0000 0.75619  0.43170  0.48931  Biso   1.000  H
  H65      1.0000 0.77811  0.43571  0.54430  Biso   1.000  H
  H66      1.0000 0.64720  0.65310  0.86327  Biso   1.000  H
  C67      1.0000 0.70987  0.74796  0.82000  Biso   1.000  C
  C68      1.0000 0.74179  0.66251  0.89129  Biso   1.000  C
  C69      1.0000 0.82061  0.52911  0.45829  Biso   1.000  C
  C70      1.0000 0.82911  0.61291  0.45170  Biso   1.000  C
  C71      1.0000 0.86260  0.51990  0.52879  Biso   1.000  C
  N47      1.0000 0.76590  0.77208  0.83083  Biso   1.000  N
  H67      1.0000 0.69147  0.74784  0.85072  Biso   1.000  H
  H68      1.0000 0.70477  0.76952  0.79513  Biso   1.000  H
  N48      1.0000 0.78723  0.71206  0.87567  Biso   1.000  N
  H69      1.0000 0.75399  0.63960  0.90508  Biso   1.000  H
  H70      1.0000 0.72321  0.66959  0.91789  Biso   1.000  H
  H71      1.0000 0.81109  0.50400  0.43019  Biso   1.000  H
  C72      1.0000 0.88022  0.57190  0.45739  Biso   1.000  C
  O23      1.0000 0.81738  0.64727  0.44589  Biso   1.000  O
  N49      1.0000 0.87945  0.62130  0.45761  Biso   1.000  N
  O24      1.0000 0.86981  0.50003  0.56689  Biso   1.000  O
  N50      1.0000 0.90077  0.56127  0.50245  Biso   1.000  N
  C73      1.0000 0.80407  0.81345  0.80453  Biso   1.000  C
  C74      1.0000 0.78650  0.76146  0.87593  Biso   1.000  C
  C75      1.0000 0.83757  0.72044  0.88163  Biso   1.000  C
  H72      1.0000 0.89792  0.56871  0.42708  Biso   1.000  H
  C76      1.0000 0.92489  0.67085  0.44203  Biso   1.000  C
  C77      1.0000 0.95681  0.58540  0.51328  Biso   1.000  C
  O25      1.0000 0.79687  0.83333  0.76644  Biso   1.000  O
  N51      1.0000 0.85206  0.82986  0.82656  Biso   1.000  N
  C78      1.0000 0.84606  0.80424  0.87503  Biso   1.000  C
  H73      1.0000 0.76876  0.76464  0.90620  Biso   1.000  H
  O26      1.0000 0.84930  0.68608  0.88743  Biso   1.000  O
  N52      1.0000 0.87221  0.77397  0.87859  Biso   1.000  N
  N53      1.0000 0.96162  0.69836  0.48282  Biso   1.000  N
  H74      1.0000 0.91268  0.69376  0.42821  Biso   1.000  H
  H75      1.0000 0.94348  0.66373  0.41543  Biso   1.000  H
  N54      1.0000 0.97988  0.63869  0.53186  Biso   1.000  N
  H76      1.0000 0.97521  0.58552  0.48260  Biso   1.000  H
  H77      1.0000 0.96189  0.56379  0.53819  Biso   1.000  H
  C79      1.0000 0.89830  0.87946  0.81394  Biso   1.000  C
  H78      1.0000 0.85559  0.82935  0.90313  Biso   1.000  H
  C80      1.0000 0.92757  0.79723  0.89032  Biso   1.000  C
  C81      1.0000 0.97496  0.74843  0.49762  Biso   1.000  C
  C82      1.0000 0.00056  0.68415  0.49893  Biso   1.000  C
  C83      1.0000 0.99941  0.65192  0.57910  Biso   1.000  C
  N55      1.0000 0.94127  0.87399  0.79446  Biso   1.000  N
  H79      1.0000 0.91049  0.90166  0.84402  Biso   1.000  H
  H80      1.0000 0.88857  0.89764  0.78902  Biso   1.000  H
  N56      1.0000 0.96215  0.81833  0.84690  Biso   1.000  N
  H81      1.0000 0.93349  0.77055  0.90620  Biso   1.000  H
  H82      1.0000 0.93725  0.82573  0.91463  Biso   1.000  H
  O27      1.0000 0.95210  0.77224  0.48541  Biso   1.000  O
  N57      1.0000 0.01800  0.76716  0.52875  Biso   1.000  N
  H83      1.0000 0.01948  0.68026  0.47001  Biso   1.000  H
  C84      1.0000 0.03798  0.73076  0.53302  Biso   1.000  C
  O28      1.0000 0.99166  0.62094  0.61364  Biso   1.000  O
  N58      1.0000 0.02984  0.70604  0.58232  Biso   1.000  N
  C85      1.0000 0.95966  0.88875  0.74643  Biso   1.000  C
  C86      1.0000 0.97976  0.87052  0.82663  Biso   1.000  C
  C87      1.0000 0.98987  0.79605  0.82791  Biso   1.000  C
  C88      1.0000 0.04745  0.82164  0.54553  Biso   1.000  C
  H84      1.0000 0.07517  0.74693  0.52201  Biso   1.000  H
  C89      1.0000 0.06907  0.73083  0.62233  Biso   1.000  C
  O29      1.0000 0.93665  0.89843  0.71294  Biso   1.000  O
  N59      1.0000 0.00713  0.89064  0.74235  Biso   1.000  N
  H85      1.0000 0.99305  0.89772  0.85323  Biso   1.000  H
  C90      1.0000 0.02367  0.87843  0.78974  Biso   1.000  C
  O30      1.0000 0.98600  0.75429  0.84158  Biso   1.000  O
  N60      1.0000 0.02261  0.82833  0.79071  Biso   1.000  N
  N61      1.0000 0.04565  0.82778  0.59955  Biso   1.000  N
  H86      1.0000 0.03338  0.84175  0.52894  Biso   1.000  H
  H87      1.0000 0.08426  0.83675  0.53523  Biso   1.000  H
  N62      1.0000 0.06198  0.76882  0.65095  Biso   1.000  N
  H88      1.0000 0.06665  0.70344  0.64491  Biso   1.000  H
  H89      1.0000 0.10425  0.74843  0.60742  Biso   1.000  H
  C91      1.0000 0.03939  0.90906  0.69781  Biso   1.000  C
  H90      1.0000 0.05828  0.90764  0.80052  Biso   1.000  H
  C92      1.0000 0.06636  0.82345  0.77310  Biso   1.000  C
  C93      1.0000 0.02677  0.85805  0.61970  Biso   1.000  C
  C94      1.0000 0.08137  0.82183  0.63334  Biso   1.000  C
  C95      1.0000 0.05496  0.76445  0.70182  Biso   1.000  C
  N63      1.0000 0.04150  0.86714  0.66979  Biso   1.000  N
  H91      1.0000 0.07516  0.93574  0.70732  Biso   1.000  H
  H92      1.0000 0.02537  0.92594  0.67582  Biso   1.000  H
  N64      1.0000 0.06437  0.81184  0.72028  Biso   1.000  N
  H93      1.0000 0.06755  0.79542  0.79213  Biso   1.000  H
  H94      1.0000 0.09908  0.85643  0.78011  Biso   1.000  H
  O31      1.0000 0.00018  0.87351  0.59783  Biso   1.000  O
  H95      1.0000 0.11725  0.83722  0.61922  Biso   1.000  H
  C96      1.0000 0.08037  0.85175  0.68151  Biso   1.000  C
  O32      1.0000 0.04222  0.72446  0.72692  Biso   1.000  O
  H96      1.0000 0.11528  0.88265  0.68871  Biso   1.000  H
  C97      1.0000 0.41264  0.40848  0.77535  Biso   1.000  C
  N65      1.0000 0.40343  0.37171  0.81615  Biso   1.000  N
  N66      1.0000 0.40853  0.45390  0.79093  Biso   1.000  N
  H97      1.0000 0.44775  0.42068  0.76157  Biso   1.000  H
  H98      1.0000 0.38694  0.38986  0.74875  Biso   1.000  H
  C98      1.0000 0.44015  0.35837  0.83094  Biso   1.000  C
  C99      1.0000 0.35026  0.33279  0.83225  Biso   1.000  C
  C100     1.0000 0.35839  0.45315  0.79071  Biso   1.000  C
  C101     1.0000 0.45047  0.50424  0.78502  Biso   1.000  C
  O33      1.0000 0.48683  0.38124  0.81877  Biso   1.000  O
  N67      1.0000 0.41583  0.31531  0.86207  Biso   1.000  N
  N68      1.0000 0.32545  0.35345  0.86518  Biso   1.000  N
  H99      1.0000 0.32743  0.31386  0.80333  Biso   1.000  H
  C102     1.0000 0.35942  0.29536  0.86634  Biso   1.000  C
  N69      1.0000 0.32717  0.43256  0.83581  Biso   1.000  N
  C103     1.0000 0.37516  0.51274  0.79161  Biso   1.000  C
  H100     1.0000 0.33747  0.43544  0.76040  Biso   1.000  H
  O34      1.0000 0.49656  0.51597  0.77921  Biso   1.000  O
  N70      1.0000 0.43155  0.53888  0.78805  Biso   1.000  N
  C104     1.0000 0.44085  0.28587  0.87885  Biso   1.000  C
  C105     1.0000 0.29526  0.37652  0.84660  Biso   1.000  C
  C106     1.0000 0.31916  0.33393  0.91242  Biso   1.000  C
  N71      1.0000 0.34284  0.30350  0.91564  Biso   1.000  N
  H101     1.0000 0.33844  0.25816  0.85537  Biso   1.000  H
  C107     1.0000 0.32396  0.47074  0.86211  Biso   1.000  C
  N72      1.0000 0.35552  0.51872  0.84008  Biso   1.000  N
  H102     1.0000 0.35956  0.52223  0.76351  Biso   1.000  H
  C108     1.0000 0.46368  0.59426  0.77633  Biso   1.000  C
  N73      1.0000 0.44878  0.28768  0.93287  Biso   1.000  N
  H103     1.0000 0.47503  0.29996  0.86226  Biso   1.000  H
  H104     1.0000 0.41915  0.24907  0.86855  Biso   1.000  H
  H105     1.0000 0.27696  0.35814  0.81592  Biso   1.000  H
  H106     1.0000 0.26858  0.37144  0.87151  Biso   1.000  H
  O35      1.0000 0.29594  0.34168  0.94696  Biso   1.000  O
  C109     1.0000 0.32844  0.26426  0.95565  Biso   1.000  C
  O36      1.0000 0.29688  0.46354  0.90021  Biso   1.000  O
  C110     1.0000 0.35217  0.56493  0.85271  Biso   1.000  C
  N74      1.0000 0.47717  0.62881  0.81974  Biso   1.000  N
  H107     1.0000 0.49626  0.60012  0.76040  Biso   1.000  H
  H108     1.0000 0.44486  0.60394  0.75201  Biso   1.000  H
  C111     1.0000 0.49794  0.30657  0.95306  Biso   1.000  C
  C112     1.0000 0.40714  0.25198  0.96666  Biso   1.000  C
  N75      1.0000 0.37350  0.27135  0.98430  Biso   1.000  N
  H109     1.0000 0.30342  0.26666  0.97824  Biso   1.000  H
  H110     1.0000 0.31084  0.22907  0.94074  Biso   1.000  H
  N76      1.0000 0.40061  0.60795  0.87219  Biso   1.000  N
  H111     1.0000 0.34215  0.57713  0.82263  Biso   1.000  H
  H112     1.0000 0.32429  0.55525  0.87762  Biso   1.000  H
  C113     1.0000 0.44256  0.64645  0.84001  Biso   1.000  C
  C114     1.0000 0.52716  0.65652  0.83873  Biso   1.000  C
  O37      1.0000 0.53999  0.33314  0.93119  Biso   1.000  O
  N77      1.0000 0.49232  0.29185  0.00311  Biso   1.000  N
  H113     1.0000 0.38663  0.21609  0.95254  Biso   1.000  H
  C115     1.0000 0.43803  0.25297  0.01487  Biso   1.000  C
  C116     1.0000 0.37611  0.27835  0.03518  Biso   1.000  C
  C117     1.0000 0.40428  0.62633  0.92021  Biso   1.000  C
  C118     1.0000 0.47858  0.69033  0.87691  Biso   1.000  C
  H114     1.0000 0.42869  0.65975  0.81341  Biso   1.000  H
  O38      1.0000 0.56504  0.65267  0.82506  Biso   1.000  O
  N78      1.0000 0.52765  0.68927  0.87593  Biso   1.000  N
  C119     1.0000 0.53633  0.29398  0.03117  Biso   1.000  C
  N79      1.0000 0.41414  0.26899  0.05364  Biso   1.000  N
  H115     1.0000 0.43404  0.21805  0.02206  Biso   1.000  H
  O39      1.0000 0.34888  0.29111  0.06027  Biso   1.000  O
  O40      1.0000 0.37153  0.60331  0.95370  Biso   1.000  O
  N80      1.0000 0.44985  0.67384  0.92429  Biso   1.000  N
  H116     1.0000 0.48395  0.72493  0.86612  Biso   1.000  H
  C120     1.0000 0.57625  0.73304  0.89350  Biso   1.000  C
  N81      1.0000 0.55014  0.32618  0.07571  Biso   1.000  N
  H117     1.0000 0.52725  0.25816  0.04068  Biso   1.000  H
  H118     1.0000 0.56724  0.30795  0.00918  Biso   1.000  H
  C121     1.0000 0.42374  0.26698  0.10646  Biso   1.000  C
  C122     1.0000 0.46366  0.70604  0.96883  Biso   1.000  C
  N82      1.0000 0.58585  0.73103  0.94632  Biso   1.000  N
  H119     1.0000 0.60548  0.73422  0.87451  Biso   1.000  H
  H120     1.0000 0.57597  0.76575  0.88653  Biso   1.000  H
  C123     1.0000 0.59574  0.37368  0.07975  Biso   1.000  C
  C124     1.0000 0.52144  0.30968  0.12306  Biso   1.000  C
  N83      1.0000 0.47236  0.31071  0.12403  Biso   1.000  N
  H121     1.0000 0.39453  0.26576  0.12545  Biso   1.000  H
  H122     1.0000 0.42405  0.23427  0.11347  Biso   1.000  H
  N84      1.0000 0.50771  0.70816  0.99685  Biso   1.000  N
  H123     1.0000 0.47278  0.74185  0.95932  Biso   1.000  H
  H124     1.0000 0.43276  0.69203  0.99082  Biso   1.000  H
  C125     1.0000 0.56199  0.74705  0.98513  Biso   1.000  C
  C126     1.0000 0.62386  0.72162  0.96482  Biso   1.000  C
  O41      1.0000 0.62846  0.39671  0.04630  Biso   1.000  O
  N85      1.0000 0.59938  0.39206  0.12778  Biso   1.000  N
  H125     1.0000 0.51604  0.27509  0.13388  Biso   1.000  H
  C127     1.0000 0.55743  0.35357  0.15996  Biso   1.000  C
  C128     1.0000 0.47281  0.34345  0.16127  Biso   1.000  C
  C129     1.0000 0.50209  0.69344  0.04694  Biso   1.000  C
  H126     1.0000 0.56596  0.78192  0.97790  Biso   1.000  H
  C130     1.0000 0.59285  0.74803  0.03334  Biso   1.000  C
  O42      1.0000 0.65113  0.70887  0.93969  Biso   1.000  O
  N86      1.0000 0.62653  0.72867  0.01570  Biso   1.000  N
  C131     1.0000 0.64785  0.43508  0.14726  Biso   1.000  C
  N87      1.0000 0.52285  0.37120  0.18026  Biso   1.000  N
  H127     1.0000 0.57133  0.34027  0.18655  Biso   1.000  H
  O43      1.0000 0.43498  0.34735  0.17494  Biso   1.000  O
  O44      1.0000 0.46000  0.66687  0.06881  Biso   1.000  O
  N88      1.0000 0.55121  0.71233  0.06709  Biso   1.000  N
  H128     1.0000 0.61336  0.78393  0.04742  Biso   1.000  H
  C132     1.0000 0.67159  0.73575  0.04432  Biso   1.000  C
  N89      1.0000 0.64450  0.48129  0.15992  Biso   1.000  N
  H129     1.0000 0.65784  0.42288  0.17737  Biso   1.000  H
  H130     1.0000 0.67574  0.44477  0.12238  Biso   1.000  H
  C133     1.0000 0.53632  0.40576  0.22367  Biso   1.000  C
  C134     1.0000 0.55917  0.71415  0.12115  Biso   1.000  C
  N90      1.0000 0.65715  0.69651  0.08436  Biso   1.000  N
  H131     1.0000 0.69657  0.73335  0.02173  Biso   1.000  H
  H132     1.0000 0.68918  0.77094  0.05922  Biso   1.000  H
  C135     1.0000 0.67603  0.52927  0.13785  Biso   1.000  C
  C136     1.0000 0.62483  0.48728  0.20835  Biso   1.000  C
  N91      1.0000 0.56844  0.46114  0.21191  Biso   1.000  N
  H133     1.0000 0.50374  0.39986  0.23956  Biso   1.000  H
  H134     1.0000 0.55513  0.39608  0.24795  Biso   1.000  H
  N92      1.0000 0.58420  0.68470  0.13793  Biso   1.000  N
  H135     1.0000 0.52499  0.70005  0.13774  Biso   1.000  H
  H136     1.0000 0.58088  0.75095  0.13145  Biso   1.000  H
  C137     1.0000 0.64055  0.70462  0.13362  Biso   1.000  C
  C138     1.0000 0.68083  0.66609  0.08758  Biso   1.000  C
  O45      1.0000 0.70311  0.53648  0.09979  Biso   1.000  O
  N93      1.0000 0.67286  0.56745  0.16419  Biso   1.000  N
  H137     1.0000 0.64044  0.47779  0.23645  Biso   1.000  H
  C139     1.0000 0.64164  0.54687  0.20925  Biso   1.000  C
  C140     1.0000 0.54956  0.49578  0.21495  Biso   1.000  C
  C141     1.0000 0.55987  0.64164  0.16902  Biso   1.000  C
  C142     1.0000 0.64977  0.66723  0.16775  Biso   1.000  C
  H138     1.0000 0.66158  0.74185  0.14463  Biso   1.000  H
  O46      1.0000 0.70405  0.65833  0.05304  Biso   1.000  O
  N94      1.0000 0.67453  0.64653  0.13478  Biso   1.000  N
  C143     1.0000 0.70475  0.62346  0.15336  Biso   1.000  C
  N95      1.0000 0.59150  0.54612  0.20903  Biso   1.000  N
  H139     1.0000 0.66253  0.56458  0.23956  Biso   1.000  H
  O47      1.0000 0.50343  0.48405  0.22079  Biso   1.000  O
  O48      1.0000 0.51319  0.61878  0.18123  Biso   1.000  O
  N96      1.0000 0.59657  0.62826  0.18382  Biso   1.000  N
  H140     1.0000 0.67258  0.68612  0.19663  Biso   1.000  H
  H141     1.0000 0.72303  0.64188  0.18408  Biso   1.000  H
  H142     1.0000 0.73144  0.62858  0.12845  Biso   1.000  H
  C144     1.0000 0.58738  0.59154  0.22461  Biso   1.000  C
  H143     1.0000 0.55227  0.57934  0.23843  Biso   1.000  H
  H144     1.0000 0.61309  0.61016  0.25125  Biso   1.000  H
  O49      1.0000 0.31932  0.42095  0.50826  Biso   1.000  O
  C145     1.0000 0.32322  0.46271  0.49459  Biso   1.000  C
  N97      1.0000 0.35596  0.49499  0.45739  Biso   1.000  N
  N98      1.0000 0.29547  0.48499  0.51358  Biso   1.000  N
  C146     1.0000 0.39971  0.49011  0.43978  Biso   1.000  C
  C147     1.0000 0.35701  0.54509  0.45638  Biso   1.000  C
  C148     1.0000 0.31313  0.53722  0.49328  Biso   1.000  C
  C149     1.0000 0.26089  0.46390  0.55700  Biso   1.000  C
  N99      1.0000 0.39768  0.47850  0.38696  Biso   1.000  N
  H145     1.0000 0.40090  0.46208  0.45878  Biso   1.000  H
  H146     1.0000 0.43239  0.52309  0.44679  Biso   1.000  H
  N100     1.0000 0.34048  0.55730  0.40903  Biso   1.000  N
  H147     1.0000 0.39159  0.57430  0.46720  Biso   1.000  H
  N101     1.0000 0.27458  0.54065  0.46110  Biso   1.000  N
  H148     1.0000 0.32642  0.56442  0.51987  Biso   1.000  H
  N102     1.0000 0.20552  0.44063  0.54523  Biso   1.000  N
  H149     1.0000 0.26680  0.43721  0.57288  Biso   1.000  H
  H150     1.0000 0.27060  0.49239  0.58131  Biso   1.000  H
  C150     1.0000 0.38831  0.43111  0.36850  Biso   1.000  C
  C151     1.0000 0.41372  0.51841  0.34819  Biso   1.000  C
  C152     1.0000 0.37270  0.57572  0.36449  Biso   1.000  C
  C153     1.0000 0.29301  0.55541  0.41307  Biso   1.000  C
  C154     1.0000 0.23161  0.54612  0.48058  Biso   1.000  C
  C155     1.0000 0.17941  0.47090  0.54167  Biso   1.000  C
  C156     1.0000 0.17092  0.38710  0.54830  Biso   1.000  C
  N103     1.0000 0.39533  0.43548  0.31763  Biso   1.000  N
  O50      1.0000 0.37557  0.39112  0.39359  Biso   1.000  O
  C157     1.0000 0.41472  0.48850  0.29998  Biso   1.000  C
  N104     1.0000 0.37482  0.53380  0.33647  Biso   1.000  N
  H151     1.0000 0.44860  0.54931  0.35538  Biso   1.000  H
  H152     1.0000 0.40851  0.60240  0.37400  Biso   1.000  H
  H153     1.0000 0.35871  0.59260  0.34250  Biso   1.000  H
  O51      1.0000 0.26997  0.56509  0.37962  Biso   1.000  O
  N105     1.0000 0.18537  0.49652  0.49324  Biso   1.000  N
  H154     1.0000 0.24380  0.56832  0.51069  Biso   1.000  H
  H155     1.0000 0.22189  0.56430  0.45570  Biso   1.000  H
  H156     1.0000 0.18890  0.49601  0.56981  Biso   1.000  H
  C158     1.0000 0.11981  0.42812  0.54257  Biso   1.000  C
  O52      1.0000 0.18264  0.35274  0.55411  Biso   1.000  O
  N106     1.0000 0.12057  0.37872  0.54235  Biso   1.000  N
  C159     1.0000 0.40242  0.39750  0.28901  Biso   1.000  C
  N107     1.0000 0.37896  0.49444  0.26623  Biso   1.000  N
  H157     1.0000 0.45060  0.50389  0.28590  Biso   1.000  H
  C160     1.0000 0.36011  0.52471  0.28638  Biso   1.000  C
  C161     1.0000 0.13742  0.48011  0.47117  Biso   1.000  C
  N108     1.0000 0.09925  0.43874  0.49751  Biso   1.000  N
  H158     1.0000 0.10211  0.43131  0.57288  Biso   1.000  H
  C162     1.0000 0.07514  0.32917  0.55797  Biso   1.000  C
  N109     1.0000 0.36319  0.37270  0.24900  Biso   1.000  N
  H159     1.0000 0.40000  0.37010  0.31159  Biso   1.000  H
  H160     1.0000 0.43760  0.41509  0.27410  Biso   1.000  H
  C163     1.0000 0.38080  0.48830  0.21221  Biso   1.000  C
  O53      1.0000 0.33352  0.54017  0.26451  Biso   1.000  O
  O54      1.0000 0.13021  0.49999  0.43311  Biso   1.000  O
  C164     1.0000 0.04322  0.41462  0.48668  Biso   1.000  C
  N110     1.0000 0.03839  0.30161  0.51714  Biso   1.000  N
  H161     1.0000 0.08734  0.30626  0.57176  Biso   1.000  H
  H162     1.0000 0.05653  0.33625  0.58457  Biso   1.000  H
  C165     1.0000 0.33276  0.31858  0.24578  Biso   1.000  C
  C166     1.0000 0.37132  0.39742  0.19970  Biso   1.000  C
  N111     1.0000 0.35135  0.43382  0.19543  Biso   1.000  N
  H163     1.0000 0.36669  0.50841  0.19558  Biso   1.000  H
  H164     1.0000 0.41761  0.50341  0.20191  Biso   1.000  H
  N112     1.0000 0.02011  0.36132  0.46810  Biso   1.000  N
  H165     1.0000 0.02478  0.41450  0.51740  Biso   1.000  H
  H166     1.0000 0.03808  0.43619  0.46181  Biso   1.000  H
  C167     1.0000 0.02501  0.25155  0.50234  Biso   1.000  C
  C168     1.0000 0.99943  0.31586  0.50107  Biso   1.000  C
  O55      1.0000 0.32497  0.28760  0.28031  Biso   1.000  O
  N113     1.0000 0.31323  0.30535  0.19854  Biso   1.000  N
  C169     1.0000 0.33391  0.35081  0.16561  Biso   1.000  C
  H167     1.0000 0.40849  0.41359  0.18869  Biso   1.000  H
  C170     1.0000 0.30830  0.41509  0.16430  Biso   1.000  C
  C171     1.0000 0.00058  0.34810  0.42090  Biso   1.000  C
  N114     1.0000 0.98197  0.23281  0.47125  Biso   1.000  N
  O56      1.0000 0.04791  0.22774  0.51455  Biso   1.000  O
  C172     1.0000 0.96205  0.26926  0.46694  Biso   1.000  C
  H168     1.0000 0.98055  0.31976  0.52995  Biso   1.000  H
  C173     1.0000 0.29012  0.25206  0.17996  Biso   1.000  C
  N115     1.0000 0.29493  0.36502  0.14950  Biso   1.000  N
  H169     1.0000 0.35282  0.34692  0.13669  Biso   1.000  H
  O57      1.0000 0.28543  0.43894  0.15209  Biso   1.000  O
  N116     1.0000 0.97018  0.29398  0.41768  Biso   1.000  N
  O58      1.0000 0.00837  0.37907  0.38636  Biso   1.000  O
  C174     1.0000 0.95254  0.17838  0.45447  Biso   1.000  C
  H170     1.0000 0.92485  0.25308  0.47795  Biso   1.000  H
  N117     1.0000 0.23409  0.22793  0.16913  Biso   1.000  N
  H171     1.0000 0.30856  0.25218  0.14928  Biso   1.000  H
  H172     1.0000 0.29524  0.23045  0.20487  Biso   1.000  H
  C175     1.0000 0.25820  0.33751  0.10871  Biso   1.000  C
  C176     1.0000 0.93096  0.26918  0.37767  Biso   1.000  C
  N118     1.0000 0.95437  0.17224  0.40041  Biso   1.000  N
  H173     1.0000 0.96665  0.15827  0.47106  Biso   1.000  H
  H174     1.0000 0.91573  0.16326  0.46477  Biso   1.000  H
  C177     1.0000 0.19592  0.18657  0.19547  Biso   1.000  C
  C178     1.0000 0.21353  0.23856  0.12407  Biso   1.000  C
  N119     1.0000 0.21277  0.28796  0.12429  Biso   1.000  N
  H175     1.0000 0.24600  0.36042  0.09489  Biso   1.000  H
  H176     1.0000 0.27679  0.33039  0.08211  Biso   1.000  H
  N120     1.0000 0.93801  0.23120  0.34902  Biso   1.000  N
  H177     1.0000 0.93334  0.29658  0.35505  Biso   1.000  H
  H178     1.0000 0.89572  0.25155  0.39255  Biso   1.000  H
  C179     1.0000 0.97323  0.14197  0.38026  Biso   1.000  C
  C180     1.0000 0.91866  0.17818  0.36666  Biso   1.000  C
  O59      1.0000 0.20313  0.16669  0.23353  Biso   1.000  O
  N121     1.0000 0.14797  0.17015  0.17344  Biso   1.000  N
  C181     1.0000 0.15393  0.19578  0.12497  Biso   1.000  C
  H179     1.0000 0.23123  0.23537  0.09376  Biso   1.000  H
  C182     1.0000 0.16242  0.27957  0.11837  Biso   1.000  C
  C183     1.0000 0.94503  0.23557  0.29815  Biso   1.000  C
  N122     1.0000 0.95852  0.13288  0.33021  Biso   1.000  N
  O60      1.0000 0.99980  0.12646  0.40214  Biso   1.000  O
  C184     1.0000 0.91965  0.14827  0.31845  Biso   1.000  C
  H180     1.0000 0.88272  0.16275  0.38075  Biso   1.000  H
  C185     1.0000 0.10173  0.12056  0.18606  Biso   1.000  C
  N123     1.0000 0.12782  0.22604  0.12141  Biso   1.000  N
  H181     1.0000 0.14444  0.17066  0.09687  Biso   1.000  H
  O61      1.0000 0.15070  0.31393  0.11253  Biso   1.000  O
  N124     1.0000 0.93564  0.18814  0.27968  Biso   1.000  N
  O62      1.0000 0.95780  0.27556  0.27305  Biso   1.000  O
  C186     1.0000 0.96064  0.09096  0.30215  Biso   1.000  C
  H182     1.0000 0.88474  0.11737  0.31126  Biso   1.000  H
  N125     1.0000 0.05873  0.12599  0.20554  Biso   1.000  N
  H183     1.0000 0.08954  0.09836  0.15595  Biso   1.000  H
  H184     1.0000 0.11145  0.10238  0.21098  Biso   1.000  H
  C187     1.0000 0.07245  0.20278  0.10965  Biso   1.000  C
  C188     1.0000 0.93363  0.17657  0.22686  Biso   1.000  C
  N126     1.0000 0.99284  0.10934  0.25761  Biso   1.000  N
  H185     1.0000 0.92483  0.06427  0.29268  Biso   1.000  H
  H186     1.0000 0.97466  0.07408  0.32414  Biso   1.000  H
  C189     1.0000 0.04033  0.11127  0.25357  Biso   1.000  C
  C190     1.0000 0.02021  0.12945  0.17337  Biso   1.000  C
  N127     1.0000 0.03787  0.18169  0.15310  Biso   1.000  N
  H187     1.0000 0.06654  0.22947  0.09376  Biso   1.000  H
  H188     1.0000 0.06274  0.17429  0.08537  Biso   1.000  H
  N128     1.0000 0.97738  0.17169  0.20929  Biso   1.000  N
  H189     1.0000 0.93242  0.20455  0.20787  Biso   1.000  H
  H190     1.0000 0.90095  0.14358  0.21985  Biso   1.000  H
  C191     1.0000 0.97636  0.12158  0.21026  Biso   1.000  C
  O63      1.0000 0.06335  0.10155  0.28702  Biso   1.000  O
  H191     1.0000 0.00692  0.10226  0.14677  Biso   1.000  H
  C192     1.0000 0.01012  0.20396  0.17205  Biso   1.000  C
  H192     1.0000 0.94175  0.09238  0.19948  Biso   1.000  H
  O64      1.0000 0.01402  0.24572  0.15838  Biso   1.000  O
  C193     1.0000 0.58540  0.62862  0.48668  Biso   1.000  C
  N129     1.0000 0.56125  0.66050  0.49751  Biso   1.000  N
  N130     1.0000 0.63867  0.65881  0.46810  Biso   1.000  N
  H193     1.0000 0.58552  0.61031  0.51740  Biso   1.000  H
  H194     1.0000 0.56379  0.60189  0.46181  Biso   1.000  H
  C194     1.0000 0.51992  0.65731  0.47117  Biso   1.000  C
  C195     1.0000 0.57192  0.69171  0.54257  Biso   1.000  C
  C196     1.0000 0.68415  0.68356  0.50107  Biso   1.000  C
  C197     1.0000 0.65192  0.65251  0.42090  Biso   1.000  C
  O65      1.0000 0.50000  0.63023  0.43311  Biso   1.000  O
  N131     1.0000 0.50347  0.68884  0.49324  Biso   1.000  N
  C198     1.0000 0.52912  0.70852  0.54167  Biso   1.000  C
  N132     1.0000 0.62129  0.74185  0.54235  Biso   1.000  N
  H195     1.0000 0.56869  0.67081  0.57288  Biso   1.000  H
  N133     1.0000 0.69838  0.73678  0.51714  Biso   1.000  N
  H196     1.0000 0.68025  0.66077  0.52995  Biso   1.000  H
  C199     1.0000 0.73075  0.69277  0.46694  Biso   1.000  C
  O66      1.0000 0.62095  0.62929  0.38636  Biso   1.000  O
  N134     1.0000 0.70603  0.67620  0.41768  Biso   1.000  N
  C200     1.0000 0.45390  0.68549  0.48058  Biso   1.000  C
  N135     1.0000 0.55935  0.76488  0.54523  Biso   1.000  N
  H197     1.0000 0.50399  0.69289  0.56981  Biso   1.000  H
  C201     1.0000 0.61292  0.78381  0.54830  Biso   1.000  C
  C202     1.0000 0.67084  0.74599  0.55797  Biso   1.000  C
  C203     1.0000 0.74842  0.77346  0.50234  Biso   1.000  C
  N136     1.0000 0.76720  0.74918  0.47125  Biso   1.000  N
  H198     1.0000 0.74693  0.67175  0.47795  Biso   1.000  H
  C204     1.0000 0.73082  0.66176  0.37767  Biso   1.000  C
  N137     1.0000 0.45935  0.73394  0.46110  Biso   1.000  N
  H199     1.0000 0.43169  0.67549  0.51069  Biso   1.000  H
  H200     1.0000 0.43569  0.65759  0.45570  Biso   1.000  H
  C205     1.0000 0.53611  0.79700  0.55700  Biso   1.000  C
  O67      1.0000 0.64729  0.82990  0.55411  Biso   1.000  O
  H201     1.0000 0.69373  0.78106  0.57176  Biso   1.000  H
  H202     1.0000 0.66375  0.72029  0.58457  Biso   1.000  H
  O68      1.0000 0.77226  0.82018  0.51455  Biso   1.000  O
  C206     1.0000 0.82162  0.77417  0.45447  Biso   1.000  C
  N138     1.0000 0.76883  0.70682  0.34902  Biso   1.000  N
  H203     1.0000 0.70342  0.63676  0.35505  Biso   1.000  H
  H204     1.0000 0.74844  0.64416  0.39255  Biso   1.000  H
  C207     1.0000 0.44461  0.73760  0.41307  Biso   1.000  C
  C208     1.0000 0.46280  0.77590  0.49328  Biso   1.000  C
  N139     1.0000 0.51501  0.81050  0.51358  Biso   1.000  N
  H205     1.0000 0.56280  0.82959  0.57288  Biso   1.000  H
  H206     1.0000 0.50760  0.77822  0.58131  Biso   1.000  H
  N140     1.0000 0.82778  0.78212  0.40041  Biso   1.000  N
  H207     1.0000 0.84172  0.80837  0.47106  Biso   1.000  H
  H208     1.0000 0.83675  0.75248  0.46477  Biso   1.000  H
  C209     1.0000 0.82185  0.74048  0.36666  Biso   1.000  C
  C210     1.0000 0.76442  0.70946  0.29815  Biso   1.000  C
  O69      1.0000 0.43490  0.70490  0.37962  Biso   1.000  O
  N141     1.0000 0.44269  0.78318  0.40903  Biso   1.000  N
  C211     1.0000 0.45491  0.81192  0.45638  Biso   1.000  C
  H209     1.0000 0.43561  0.76201  0.51987  Biso   1.000  H
  C212     1.0000 0.53733  0.86052  0.49459  Biso   1.000  C
  C213     1.0000 0.85805  0.83128  0.38026  Biso   1.000  C
  H210     1.0000 0.83723  0.71997  0.38075  Biso   1.000  H
  C214     1.0000 0.85175  0.77137  0.31845  Biso   1.000  C
  O70      1.0000 0.72445  0.68222  0.27305  Biso   1.000  O
  N142     1.0000 0.81186  0.74748  0.27968  Biso   1.000  N
  C215     1.0000 0.42430  0.79700  0.36449  Biso   1.000  C
  N143     1.0000 0.50503  0.86096  0.45739  Biso   1.000  N
  H211     1.0000 0.42570  0.81731  0.46720  Biso   1.000  H
  O71      1.0000 0.57906  0.89839  0.50826  Biso   1.000  O
  O72      1.0000 0.87351  0.87332  0.40214  Biso   1.000  O
  N144     1.0000 0.86713  0.82565  0.33021  Biso   1.000  N
  H212     1.0000 0.88264  0.76736  0.31126  Biso   1.000  H
  C216     1.0000 0.82344  0.75709  0.22686  Biso   1.000  C
  N145     1.0000 0.46623  0.84104  0.33647  Biso   1.000  N
  H213     1.0000 0.39759  0.80609  0.37400  Biso   1.000  H
  H214     1.0000 0.40739  0.76610  0.34250  Biso   1.000  H
  C217     1.0000 0.50989  0.90961  0.43978  Biso   1.000  C
  C218     1.0000 0.90904  0.86966  0.30215  Biso   1.000  C
  N146     1.0000 0.82832  0.80570  0.20929  Biso   1.000  N
  H215     1.0000 0.79544  0.72788  0.20787  Biso   1.000  H
  H216     1.0000 0.85644  0.75736  0.21985  Biso   1.000  H
  C219     1.0000 0.47531  0.83541  0.28638  Biso   1.000  C
  C220     1.0000 0.48161  0.89532  0.34819  Biso   1.000  C
  N147     1.0000 0.52151  0.91921  0.38696  Biso   1.000  N
  H217     1.0000 0.53792  0.93881  0.45878  Biso   1.000  H
  H218     1.0000 0.47690  0.90929  0.44679  Biso   1.000  H
  N148     1.0000 0.89064  0.88351  0.25761  Biso   1.000  N
  H219     1.0000 0.93572  0.86056  0.29268  Biso   1.000  H
  H220     1.0000 0.92592  0.90055  0.32414  Biso   1.000  H
  C221     1.0000 0.87846  0.85478  0.21026  Biso   1.000  C
  C222     1.0000 0.79604  0.80617  0.17205  Biso   1.000  C
  O73      1.0000 0.45980  0.79334  0.26451  Biso   1.000  O
  N149     1.0000 0.50557  0.88453  0.26623  Biso   1.000  N
  C223     1.0000 0.51151  0.92622  0.29998  Biso   1.000  C
  H221     1.0000 0.45070  0.89929  0.35538  Biso   1.000  H
  C224     1.0000 0.56889  0.95719  0.36850  Biso   1.000  C
  C225     1.0000 0.88875  0.92909  0.25357  Biso   1.000  C
  H222     1.0000 0.90763  0.84939  0.19948  Biso   1.000  H
  C226     1.0000 0.87054  0.89075  0.17337  Biso   1.000  C
  O74      1.0000 0.75430  0.76830  0.15838  Biso   1.000  O
  N150     1.0000 0.81832  0.85620  0.15310  Biso   1.000  N
  C227     1.0000 0.51171  0.89252  0.21221  Biso   1.000  C
  N151     1.0000 0.56454  0.95987  0.31763  Biso   1.000  N
  H223     1.0000 0.49610  0.94672  0.28590  Biso   1.000  H
  O75      1.0000 0.60891  0.98447  0.39359  Biso   1.000  O
  O76      1.0000 0.89843  0.96180  0.28702  Biso   1.000  O
  N152     1.0000 0.87402  0.93275  0.20554  Biso   1.000  N
  H224     1.0000 0.89775  0.90469  0.14677  Biso   1.000  H
  C228     1.0000 0.79724  0.86966  0.10965  Biso   1.000  C
  N153     1.0000 0.56617  0.91752  0.19543  Biso   1.000  N
  H225     1.0000 0.49161  0.85832  0.19558  Biso   1.000  H
  H226     1.0000 0.49661  0.91421  0.20191  Biso   1.000  H
  C229     1.0000 0.60253  0.00490  0.28901  Biso   1.000  C
  C230     1.0000 0.87944  0.98116  0.18606  Biso   1.000  C
  N154     1.0000 0.77396  0.90177  0.12141  Biso   1.000  N
  H227     1.0000 0.77055  0.83707  0.09376  Biso   1.000  H
  H228     1.0000 0.82573  0.88847  0.08537  Biso   1.000  H
  C231     1.0000 0.58489  0.89319  0.16430  Biso   1.000  C
  C232     1.0000 0.60262  0.97392  0.19970  Biso   1.000  C
  N155     1.0000 0.62733  0.99049  0.24900  Biso   1.000  N
  H229     1.0000 0.62994  0.02993  0.31159  Biso   1.000  H
  H230     1.0000 0.58489  0.02253  0.27410  Biso   1.000  H
  N156     1.0000 0.82988  0.97782  0.17344  Biso   1.000  N
  H231     1.0000 0.90162  0.99116  0.15595  Biso   1.000  H
  H232     1.0000 0.89766  0.00907  0.21098  Biso   1.000  H
  C233     1.0000 0.72044  0.88288  0.11837  Biso   1.000  C
  C234     1.0000 0.80424  0.95818  0.12497  Biso   1.000  C
  O77      1.0000 0.56110  0.84651  0.15209  Biso   1.000  O
  N157     1.0000 0.63498  0.92992  0.14950  Biso   1.000  N
  C235     1.0000 0.64920  0.98309  0.16561  Biso   1.000  C
  H233     1.0000 0.58642  0.99490  0.18869  Biso   1.000  H
  C236     1.0000 0.68145  0.01419  0.24578  Biso   1.000  C
  C237     1.0000 0.81341  0.00938  0.19547  Biso   1.000  C
  N158     1.0000 0.71207  0.92484  0.12429  Biso   1.000  N
  O78      1.0000 0.68608  0.83679  0.11253  Biso   1.000  O
  C238     1.0000 0.76145  0.97498  0.12407  Biso   1.000  C
  H234     1.0000 0.82935  0.97376  0.09687  Biso   1.000  H
  C239     1.0000 0.66252  0.92071  0.10871  Biso   1.000  C
  N159     1.0000 0.69469  0.00789  0.19854  Biso   1.000  N
  H235     1.0000 0.65311  0.00592  0.13669  Biso   1.000  H
  O79      1.0000 0.71245  0.03741  0.28031  Biso   1.000  O
  N160     1.0000 0.77208  0.00620  0.16913  Biso   1.000  N
  O80      1.0000 0.83336  0.03646  0.23353  Biso   1.000  O
  H236     1.0000 0.76464  0.99588  0.09376  Biso   1.000  H
  H237     1.0000 0.63961  0.88560  0.09489  Biso   1.000  H
  H238     1.0000 0.66961  0.94641  0.08211  Biso   1.000  H
  C240     1.0000 0.74793  0.03808  0.17996  Biso   1.000  C
  H239     1.0000 0.74784  0.05638  0.14928  Biso   1.000  H
  H240     1.0000 0.76954  0.06480  0.20487  Biso   1.000  H
  N161     1.0000 0.41307  0.22675  0.65971  Biso   1.000  N
  C241     1.0000 0.41976  0.21274  0.60802  Biso   1.000  C
  C242     1.0000 0.44528  0.21864  0.69762  Biso   1.000  C
  C243     1.0000 0.38399  0.18495  0.58003  Biso   1.000  C
  H241     1.0000 0.44085  0.24612  0.59034  Biso   1.000  H
  H242     1.0000 0.44186  0.19652  0.61071  Biso   1.000  H
  H243     1.0000 0.43988  0.18302  0.69421  Biso   1.000  H
  H244     1.0000 0.48266  0.24364  0.69152  Biso   1.000  H
  C244     1.0000 0.43136  0.22604  0.75003  Biso   1.000  C
  N162     1.0000 0.33139  0.14685  0.59794  Biso   1.000  N
  H245     1.0000 0.37965  0.20853  0.55692  Biso   1.000  H
  H246     1.0000 0.39628  0.16523  0.55992  Biso   1.000  H
  C245     1.0000 0.37636  0.18464  0.76644  Biso   1.000  C
  H247     1.0000 0.43438  0.26072  0.75231  Biso   1.000  H
  H248     1.0000 0.45697  0.22553  0.77322  Biso   1.000  H
  C246     1.0000 0.29029  0.14870  0.56689  Biso   1.000  C
  N163     1.0000 0.33529  0.18649  0.73538  Biso   1.000  N
  H249     1.0000 0.37277  0.14965  0.76363  Biso   1.000  H
  H250     1.0000 0.37128  0.19042  0.80161  Biso   1.000  H
  C247     1.0000 0.23530  0.10730  0.58329  Biso   1.000  C
  H251     1.0000 0.29391  0.18369  0.56969  Biso   1.000  H
  H252     1.0000 0.29541  0.14292  0.53167  Biso   1.000  H
  C248     1.0000 0.28270  0.14839  0.75329  Biso   1.000  C
  C249     1.0000 0.22141  0.11469  0.63570  Biso   1.000  C
  H253     1.0000 0.23231  0.07262  0.58101  Biso   1.000  H
  H254     1.0000 0.20971  0.10781  0.56010  Biso   1.000  H
  C250     1.0000 0.24689  0.12060  0.72530  Biso   1.000  C
  H255     1.0000 0.28700  0.12481  0.77640  Biso   1.000  H
  H256     1.0000 0.27040  0.16811  0.77340  Biso   1.000  H
  H257     1.0000 0.22681  0.15032  0.63907  Biso   1.000  H
  H258     1.0000 0.18399  0.08970  0.64181  Biso   1.000  H
  N164     1.0000 0.25359  0.10659  0.67357  Biso   1.000  N
  H259     1.0000 0.22578  0.08718  0.74299  Biso   1.000  H
  H260     1.0000 0.22480  0.13681  0.72257  Biso   1.000  H
  C251     1.0000 0.51798  0.47496  0.90021  Biso   1.000  C
  C252     1.0000 0.55937  0.46134  0.91661  Biso   1.000  C
  H261     1.0000 0.48298  0.44355  0.90302  Biso   1.000  H
  H262     1.0000 0.52375  0.48582  0.86503  Biso   1.000  H
  N165     1.0000 0.51983  0.51786  0.93126  Biso   1.000  N
  C253     1.0000 0.55196  0.44004  0.96902  Biso   1.000  C
  H263     1.0000 0.59406  0.49302  0.91433  Biso   1.000  H
  H264     1.0000 0.55886  0.43524  0.89343  Biso   1.000  H
  C254     1.0000 0.48175  0.53238  0.91335  Biso   1.000  C
  H265     1.0000 0.51638  0.40985  0.97243  Biso   1.000  H
  H266     1.0000 0.57698  0.42764  0.97513  Biso   1.000  H
  N166     1.0000 0.56008  0.48035  0.00693  Biso   1.000  N
  C255     1.0000 0.45395  0.54037  0.94134  Biso   1.000  C
  H267     1.0000 0.45816  0.50448  0.89024  Biso   1.000  H
  H268     1.0000 0.50144  0.56438  0.89324  Biso   1.000  H
  C256     1.0000 0.54608  0.45964  0.05863  Biso   1.000  C
  H269     1.0000 0.42052  0.52805  0.92366  Biso   1.000  H
  H270     1.0000 0.47013  0.57867  0.94403  Biso   1.000  H
  N167     1.0000 0.43995  0.51967  0.99303  Biso   1.000  N
  H271     1.0000 0.57945  0.47192  0.07634  Biso   1.000  H
  H272     1.0000 0.52986  0.42135  0.05593  Biso   1.000  H
  C257     1.0000 0.51827  0.46763  0.08665  Biso   1.000  C
  C258     1.0000 0.44803  0.55997  0.03098  Biso   1.000  C
  H273     1.0000 0.54187  0.49554  0.10972  Biso   1.000  H
  H274     1.0000 0.49856  0.43564  0.10672  Biso   1.000  H
  N168     1.0000 0.48018  0.48212  0.06874  Biso   1.000  N
  H275     1.0000 0.48365  0.59016  0.02757  Biso   1.000  H
  H276     1.0000 0.42304  0.57237  0.02487  Biso   1.000  H
  C259     1.0000 0.44063  0.53868  0.08335  Biso   1.000  C
  C260     1.0000 0.48205  0.52506  0.09976  Biso   1.000  C
  H277     1.0000 0.40591  0.50696  0.08567  Biso   1.000  H
  H278     1.0000 0.44113  0.56477  0.10657  Biso   1.000  H
  H279     1.0000 0.51705  0.55647  0.09695  Biso   1.000  H
  H280     1.0000 0.47622  0.51416  0.13497  Biso   1.000  H
  C261     1.0000 0.77336  0.55474  0.69762  Biso   1.000  C
  N169     1.0000 0.81366  0.58693  0.65971  Biso   1.000  N
  H281     1.0000 0.74317  0.56013  0.69421  Biso   1.000  H
  H282     1.0000 0.76097  0.51735  0.69152  Biso   1.000  H
  C262     1.0000 0.79466  0.56863  0.75003  Biso   1.000  C
  C263     1.0000 0.79297  0.58024  0.60802  Biso   1.000  C
  H283     1.0000 0.82637  0.56564  0.75231  Biso   1.000  H
  H284     1.0000 0.76858  0.54305  0.77322  Biso   1.000  H
  C264     1.0000 0.80827  0.62366  0.76644  Biso   1.000  C
  C265     1.0000 0.80097  0.61602  0.58003  Biso   1.000  C
  H285     1.0000 0.80529  0.55915  0.59034  Biso   1.000  H
  H286     1.0000 0.75467  0.55812  0.61071  Biso   1.000  H
  H287     1.0000 0.77686  0.62724  0.76363  Biso   1.000  H
  H288     1.0000 0.81916  0.62873  0.80161  Biso   1.000  H
  N170     1.0000 0.85122  0.66471  0.73538  Biso   1.000  N
  H289     1.0000 0.82887  0.62035  0.55692  Biso   1.000  H
  H290     1.0000 0.76896  0.60374  0.55992  Biso   1.000  H
  N171     1.0000 0.81549  0.66865  0.59794  Biso   1.000  N
  C266     1.0000 0.86569  0.71729  0.75329  Biso   1.000  C
  C267     1.0000 0.85841  0.70970  0.56689  Biso   1.000  C
  C268     1.0000 0.87371  0.75311  0.72530  Biso   1.000  C
  H291     1.0000 0.83781  0.71300  0.77640  Biso   1.000  H
  H292     1.0000 0.89772  0.72961  0.77340  Biso   1.000  H
  C269     1.0000 0.87202  0.76472  0.58329  Biso   1.000  C
  H293     1.0000 0.88982  0.70612  0.56969  Biso   1.000  H
  H294     1.0000 0.84752  0.70462  0.53167  Biso   1.000  H
  N172     1.0000 0.85301  0.74642  0.67357  Biso   1.000  N
  H295     1.0000 0.86142  0.77421  0.74299  Biso   1.000  H
  H296     1.0000 0.91199  0.77519  0.72257  Biso   1.000  H
  C270     1.0000 0.89331  0.77862  0.63570  Biso   1.000  C
  H297     1.0000 0.84031  0.76771  0.58101  Biso   1.000  H
  H298     1.0000 0.89810  0.79031  0.56010  Biso   1.000  H
  H299     1.0000 0.92351  0.77322  0.63907  Biso   1.000  H
  H300     1.0000 0.90570  0.81601  0.64181  Biso   1.000  H
  C271     1.0000 0.19903  0.38396  0.41997  Biso   1.000  C
  N173     1.0000 0.18454  0.33137  0.40206  Biso   1.000  N
  C272     1.0000 0.20702  0.41977  0.39195  Biso   1.000  C
  H301     1.0000 0.17112  0.37967  0.44304  Biso   1.000  H
  H302     1.0000 0.23103  0.39628  0.44004  Biso   1.000  H
  C273     1.0000 0.14161  0.29032  0.43308  Biso   1.000  C
  N174     1.0000 0.18633  0.41308  0.34025  Biso   1.000  N
  H303     1.0000 0.19473  0.44087  0.40966  Biso   1.000  H
  H304     1.0000 0.24533  0.44185  0.38925  Biso   1.000  H
  C274     1.0000 0.12801  0.23529  0.41671  Biso   1.000  C
  H305     1.0000 0.11020  0.29390  0.43031  Biso   1.000  H
  H306     1.0000 0.15250  0.29540  0.46829  Biso   1.000  H
  C275     1.0000 0.22663  0.44528  0.30238  Biso   1.000  C
  C276     1.0000 0.10671  0.22140  0.36430  Biso   1.000  C
  H307     1.0000 0.15971  0.23230  0.41899  Biso   1.000  H
  H308     1.0000 0.10189  0.20971  0.43990  Biso   1.000  H
  C277     1.0000 0.20533  0.43138  0.24997  Biso   1.000  C
  H309     1.0000 0.25686  0.43989  0.30575  Biso   1.000  H
  H310     1.0000 0.23905  0.48267  0.30845  Biso   1.000  H
  N175     1.0000 0.14701  0.25360  0.32639  Biso   1.000  N
  H311     1.0000 0.07648  0.22679  0.36089  Biso   1.000  H
  H312     1.0000 0.09429  0.18401  0.35819  Biso   1.000  H
  C278     1.0000 0.19172  0.37636  0.23356  Biso   1.000  C
  H313     1.0000 0.17363  0.43438  0.24765  Biso   1.000  H
  H314     1.0000 0.23145  0.45697  0.22675  Biso   1.000  H
  C279     1.0000 0.12632  0.24690  0.27470  Biso   1.000  C
  N176     1.0000 0.14880  0.33531  0.26458  Biso   1.000  N
  H315     1.0000 0.22313  0.37278  0.23637  Biso   1.000  H
  H316     1.0000 0.18083  0.37128  0.19835  Biso   1.000  H
  H317     1.0000 0.13861  0.22581  0.25698  Biso   1.000  H
  H318     1.0000 0.08799  0.22478  0.27739  Biso   1.000  H
  C280     1.0000 0.13429  0.28268  0.24671  Biso   1.000  C
  H319     1.0000 0.16222  0.28701  0.22360  Biso   1.000  H
  H320     1.0000 0.10231  0.27040  0.22660  Biso   1.000  H
  C281     1.0000 0.21177  0.52144  0.87691  Biso   1.000  C
  C282     1.0000 0.20387  0.55745  0.84001  Biso   1.000  C
  N177     1.0000 0.16163  0.47236  0.87593  Biso   1.000  N
  N178     1.0000 0.22399  0.55017  0.92429  Biso   1.000  N
  H321     1.0000 0.24098  0.51605  0.86612  Biso   1.000  H
  N179     1.0000 0.15167  0.52286  0.81974  Biso   1.000  N
  N180     1.0000 0.20733  0.59941  0.87219  Biso   1.000  N
  H322     1.0000 0.23107  0.57135  0.81341  Biso   1.000  H
  C283     1.0000 0.12935  0.47283  0.83873  Biso   1.000  C
  C284     1.0000 0.15679  0.42375  0.89350  Biso   1.000  C
  C285     1.0000 0.22207  0.59575  0.92021  Biso   1.000  C
  C286     1.0000 0.24236  0.53632  0.96883  Biso   1.000  C
  C287     1.0000 0.13055  0.53632  0.77633  Biso   1.000  C
  C288     1.0000 0.21276  0.64782  0.85271  Biso   1.000  C
  O81      1.0000 0.08761  0.43497  0.82506  Biso   1.000  O
  N181     1.0000 0.14517  0.41414  0.94632  Biso   1.000  N
  H323     1.0000 0.12876  0.39454  0.87451  Biso   1.000  H
  H324     1.0000 0.18975  0.42402  0.88653  Biso   1.000  H
  O82      1.0000 0.23177  0.62846  0.95370  Biso   1.000  O
  N182     1.0000 0.20045  0.49231  0.99685  Biso   1.000  N
  H325     1.0000 0.26907  0.52723  0.95932  Biso   1.000  H
  H326     1.0000 0.25929  0.56725  0.99082  Biso   1.000  H
  N183     1.0000 0.10731  0.56844  0.78805  Biso   1.000  N
  H327     1.0000 0.10386  0.50373  0.76040  Biso   1.000  H
  H328     1.0000 0.15908  0.55513  0.75201  Biso   1.000  H
  N184     1.0000 0.16319  0.64448  0.84008  Biso   1.000  N
  H329     1.0000 0.23497  0.65782  0.82263  Biso   1.000  H
  H330     1.0000 0.23097  0.67573  0.87762  Biso   1.000  H
  C289     1.0000 0.18507  0.43804  0.98513  Biso   1.000  C
  C290     1.0000 0.09777  0.37612  0.96482  Biso   1.000  C
  C291     1.0000 0.19136  0.49794  0.04694  Biso   1.000  C
  C292     1.0000 0.13755  0.62484  0.79161  Biso   1.000  C
  C293     1.0000 0.05375  0.54954  0.78502  Biso   1.000  C
  C294     1.0000 0.14676  0.67605  0.86211  Biso   1.000  C
  H331     1.0000 0.21595  0.43402  0.97790  Biso   1.000  H
  C295     1.0000 0.15517  0.40714  0.03334  Biso   1.000  C
  O83      1.0000 0.05776  0.34889  0.93969  Biso   1.000  O
  N185     1.0000 0.10214  0.37349  0.01570  Biso   1.000  N
  O84      1.0000 0.20686  0.53998  0.06881  Biso   1.000  O
  N186     1.0000 0.16109  0.44878  0.06709  Biso   1.000  N
  H332     1.0000 0.16266  0.64042  0.76351  Biso   1.000  H
  C296     1.0000 0.09476  0.64164  0.79071  Biso   1.000  C
  O85      1.0000 0.01939  0.50345  0.77921  Biso   1.000  O
  N187     1.0000 0.04538  0.59150  0.79093  Biso   1.000  N
  N188     1.0000 0.10542  0.67286  0.83581  Biso   1.000  N
  O86      1.0000 0.16668  0.70312  0.90021  Biso   1.000  O
  H333     1.0000 0.17058  0.38663  0.04742  Biso   1.000  H
  C297     1.0000 0.06417  0.32842  0.04432  Biso   1.000  C
  C298     1.0000 0.15497  0.44083  0.12115  Biso   1.000  C
  H334     1.0000 0.09798  0.66254  0.76040  Biso   1.000  H
  C299     1.0000 0.99583  0.58737  0.77535  Biso   1.000  C
  C300     1.0000 0.08128  0.70474  0.84660  Biso   1.000  C
  N189     1.0000 0.03935  0.34286  0.08436  Biso   1.000  N
  H335     1.0000 0.03677  0.30343  0.02173  Biso   1.000  H
  H336     1.0000 0.08175  0.31082  0.05922  Biso   1.000  H
  N190     1.0000 0.10051  0.41584  0.13793  Biso   1.000  N
  H337     1.0000 0.17507  0.47503  0.13774  Biso   1.000  H
  H338     1.0000 0.17007  0.41914  0.13145  Biso   1.000  H
  H339     1.0000 0.00292  0.61307  0.74875  Biso   1.000  H
  N191     1.0000 0.96830  0.59658  0.81615  Biso   1.000  N
  H340     1.0000 0.97293  0.55226  0.76157  Biso   1.000  H
  N192     1.0000 0.02801  0.67455  0.86518  Biso   1.000  N
  H341     1.0000 0.08116  0.72304  0.81592  Biso   1.000  H
  H342     1.0000 0.10287  0.73142  0.87151  Biso   1.000  H
  C301     1.0000 0.98523  0.31917  0.08758  Biso   1.000  C
  C302     1.0000 0.06406  0.35943  0.13362  Biso   1.000  C
  C303     1.0000 0.08177  0.44012  0.16902  Biso   1.000  C
  C304     1.0000 0.91823  0.55985  0.83094  Biso   1.000  C
  C305     1.0000 0.98254  0.64975  0.83225  Biso   1.000  C
  C306     1.0000 0.01476  0.68085  0.91242  Biso   1.000  C
  O87      1.0000 0.95426  0.29595  0.05304  Biso   1.000  O
  N193     1.0000 0.97202  0.32547  0.13478  Biso   1.000  N
  C307     1.0000 0.01746  0.35022  0.16775  Biso   1.000  C
  H343     1.0000 0.08024  0.33842  0.14463  Biso   1.000  H
  O88      1.0000 0.10557  0.48684  0.18123  Biso   1.000  O
  N194     1.0000 0.03170  0.40344  0.18382  Biso   1.000  N
  O89      1.0000 0.89442  0.51317  0.81877  Biso   1.000  O
  N195     1.0000 0.89951  0.58418  0.86207  Biso   1.000  N
  H344     1.0000 0.98646  0.67258  0.80333  Biso   1.000  H
  C308     1.0000 0.93593  0.64058  0.86634  Biso   1.000  C
  O90      1.0000 0.04573  0.70407  0.94696  Biso   1.000  O
  N196     1.0000 0.96064  0.65715  0.91564  Biso   1.000  N
  C309     1.0000 0.91875  0.29528  0.15336  Biso   1.000  C
  H345     1.0000 0.01357  0.32743  0.19663  Biso   1.000  H
  C310     1.0000 0.00416  0.41265  0.22461  Biso   1.000  C
  C311     1.0000 0.84506  0.55919  0.87885  Biso   1.000  C
  H346     1.0000 0.91973  0.66156  0.85537  Biso   1.000  H
  C312     1.0000 0.93584  0.67156  0.95565  Biso   1.000  C
  N197     1.0000 0.89460  0.32716  0.16419  Biso   1.000  N
  H347     1.0000 0.91883  0.27698  0.18408  Biso   1.000  H
  H348     1.0000 0.89714  0.26855  0.12845  Biso   1.000  H
  N198     1.0000 0.95461  0.40852  0.20903  Biso   1.000  N
  H349     1.0000 0.99707  0.38695  0.25125  Biso   1.000  H
  H350     1.0000 0.02704  0.44772  0.23843  Biso   1.000  H
  N199     1.0000 0.83888  0.55120  0.93287  Biso   1.000  N
  H351     1.0000 0.82495  0.52498  0.86226  Biso   1.000  H
  H352     1.0000 0.82993  0.58087  0.86855  Biso   1.000  H
  N200     1.0000 0.89789  0.62653  0.98430  Biso   1.000  N
  H353     1.0000 0.96325  0.69659  0.97824  Biso   1.000  H
  H354     1.0000 0.91822  0.68915  0.94074  Biso   1.000  H
  C313     1.0000 0.85323  0.32397  0.13785  Biso   1.000  C
  C314     1.0000 0.90523  0.35837  0.20925  Biso   1.000  C
  C315     1.0000 0.94624  0.45047  0.21495  Biso   1.000  C
  C316     1.0000 0.80863  0.50207  0.95306  Biso   1.000  C
  C317     1.0000 0.84486  0.59288  0.96666  Biso   1.000  C
  C318     1.0000 0.90224  0.62385  0.03518  Biso   1.000  C
  O91      1.0000 0.83335  0.29689  0.09979  Biso   1.000  O
  N201     1.0000 0.83683  0.35554  0.15992  Biso   1.000  N
  C319     1.0000 0.86244  0.37518  0.20835  Biso   1.000  C
  H355     1.0000 0.90204  0.33747  0.23956  Biso   1.000  H
  O92      1.0000 0.98060  0.49656  0.22079  Biso   1.000  O
  N202     1.0000 0.89270  0.43154  0.21191  Biso   1.000  N
  O93      1.0000 0.79314  0.46000  0.93119  Biso   1.000  O
  N203     1.0000 0.79954  0.50770  0.00311  Biso   1.000  N
  H356     1.0000 0.82944  0.61338  0.95254  Biso   1.000  H
  C320     1.0000 0.81496  0.56198  0.01487  Biso   1.000  C
  O94      1.0000 0.94226  0.65113  0.06027  Biso   1.000  O
  N204     1.0000 0.85482  0.58587  0.05364  Biso   1.000  N
  C321     1.0000 0.78722  0.35215  0.14726  Biso   1.000  C
  H357     1.0000 0.83734  0.35955  0.23645  Biso   1.000  H
  C322     1.0000 0.86942  0.46366  0.22367  Biso   1.000  C
  C323     1.0000 0.75762  0.46366  0.03117  Biso   1.000  C
  H358     1.0000 0.78402  0.56596  0.02206  Biso   1.000  H
  C324     1.0000 0.84324  0.57627  0.10646  Biso   1.000  C
  N205     1.0000 0.79266  0.40060  0.12778  Biso   1.000  N
  H359     1.0000 0.76504  0.34216  0.17737  Biso   1.000  H
  H360     1.0000 0.76906  0.32429  0.12238  Biso   1.000  H
  N206     1.0000 0.84836  0.47716  0.18026  Biso   1.000  N
  H361     1.0000 0.89617  0.49629  0.23956  Biso   1.000  H
  H362     1.0000 0.84094  0.44488  0.24795  Biso   1.000  H
  N207     1.0000 0.77603  0.44984  0.07571  Biso   1.000  N
  H363     1.0000 0.73094  0.47275  0.04068  Biso   1.000  H
  H364     1.0000 0.74074  0.43276  0.00918  Biso   1.000  H
  N208     1.0000 0.83836  0.52766  0.12403  Biso   1.000  N
  H365     1.0000 0.87123  0.60547  0.12545  Biso   1.000  H
  H366     1.0000 0.81022  0.57595  0.11347  Biso   1.000  H
  C325     1.0000 0.77792  0.40427  0.07975  Biso   1.000  C
  C326     1.0000 0.79612  0.44256  0.15996  Biso   1.000  C
  C327     1.0000 0.87064  0.52719  0.16127  Biso   1.000  C
  C328     1.0000 0.78825  0.47858  0.12306  Biso   1.000  C
  O95      1.0000 0.76825  0.37156  0.04630  Biso   1.000  O
  H367     1.0000 0.76892  0.42867  0.18655  Biso   1.000  H
  O96      1.0000 0.91238  0.56505  0.17494  Biso   1.000  O
  H368     1.0000 0.75904  0.48397  0.13388  Biso   1.000  H
  C329     1.0000 0.58023  0.78728  0.39195  Biso   1.000  C
  N209     1.0000 0.58693  0.77326  0.34025  Biso   1.000  N
  H369     1.0000 0.55912  0.75386  0.40966  Biso   1.000  H
  H370     1.0000 0.55812  0.80345  0.38925  Biso   1.000  H
  C330     1.0000 0.61604  0.81506  0.41997  Biso   1.000  C
  C331     1.0000 0.55475  0.78137  0.30238  Biso   1.000  C
  H371     1.0000 0.62034  0.79149  0.44304  Biso   1.000  H
  H372     1.0000 0.60374  0.83478  0.44004  Biso   1.000  H
  N210     1.0000 0.66863  0.85316  0.40206  Biso   1.000  N
  C332     1.0000 0.56863  0.77397  0.24997  Biso   1.000  C
  H373     1.0000 0.56013  0.81695  0.30575  Biso   1.000  H
  H374     1.0000 0.51733  0.75638  0.30845  Biso   1.000  H
  C333     1.0000 0.70970  0.85131  0.43308  Biso   1.000  C
  H375     1.0000 0.56563  0.73926  0.24765  Biso   1.000  H
  H376     1.0000 0.54305  0.77448  0.22675  Biso   1.000  H
  C334     1.0000 0.62363  0.81538  0.23356  Biso   1.000  C
  C335     1.0000 0.76470  0.89272  0.41671  Biso   1.000  C
  H377     1.0000 0.70611  0.81632  0.43031  Biso   1.000  H
  H378     1.0000 0.70462  0.85710  0.46829  Biso   1.000  H
  H379     1.0000 0.62725  0.85037  0.23637  Biso   1.000  H
  H380     1.0000 0.62873  0.80955  0.19835  Biso   1.000  H
  N211     1.0000 0.66471  0.81349  0.26458  Biso   1.000  N
  C336     1.0000 0.77862  0.88532  0.36430  Biso   1.000  C
  H381     1.0000 0.76772  0.92740  0.41899  Biso   1.000  H
  H382     1.0000 0.79031  0.89221  0.43990  Biso   1.000  H
  C337     1.0000 0.71730  0.85159  0.24671  Biso   1.000  C
  N212     1.0000 0.74638  0.89339  0.32639  Biso   1.000  N
  H383     1.0000 0.77322  0.84970  0.36089  Biso   1.000  H
  H384     1.0000 0.81600  0.91032  0.35819  Biso   1.000  H
  C338     1.0000 0.75310  0.87942  0.27470  Biso   1.000  C
  H385     1.0000 0.71299  0.87521  0.22360  Biso   1.000  H
  H386     1.0000 0.72962  0.83191  0.22660  Biso   1.000  H
  H387     1.0000 0.77419  0.91279  0.25698  Biso   1.000  H
  H388     1.0000 0.77519  0.86320  0.27739  Biso   1.000  H
  O97      1.0000 0.70488  0.26997  0.62034  Biso   1.000  O
  C339     1.0000 0.73759  0.29299  0.58689  Biso   1.000  C
  N213     1.0000 0.73396  0.27461  0.53886  Biso   1.000  N
  N214     1.0000 0.78320  0.34050  0.59093  Biso   1.000  N
  C340     1.0000 0.68549  0.23159  0.51939  Biso   1.000  C
  C341     1.0000 0.77591  0.31311  0.50669  Biso   1.000  C
  C342     1.0000 0.81190  0.35699  0.54358  Biso   1.000  C
  C343     1.0000 0.79701  0.37270  0.63547  Biso   1.000  C
  N215     1.0000 0.68887  0.18538  0.50676  Biso   1.000  N
  H389     1.0000 0.67550  0.24380  0.48931  Biso   1.000  H
  H390     1.0000 0.65760  0.22191  0.54430  Biso   1.000  H
  N216     1.0000 0.81048  0.29547  0.48642  Biso   1.000  N
  H391     1.0000 0.76201  0.32641  0.48009  Biso   1.000  H
  N217     1.0000 0.86098  0.35597  0.54261  Biso   1.000  N
  H392     1.0000 0.81730  0.39159  0.53280  Biso   1.000  H
  N218     1.0000 0.84102  0.37482  0.66353  Biso   1.000  N
  H393     1.0000 0.80613  0.40852  0.62600  Biso   1.000  H
  H394     1.0000 0.76611  0.35869  0.65750  Biso   1.000  H
  C344     1.0000 0.65731  0.13741  0.52879  Biso   1.000  C
  C345     1.0000 0.70851  0.17940  0.45829  Biso   1.000  C
  C346     1.0000 0.86050  0.32318  0.50538  Biso   1.000  C
  C347     1.0000 0.79702  0.26092  0.44300  Biso   1.000  C
  C348     1.0000 0.90960  0.39970  0.56018  Biso   1.000  C
  C349     1.0000 0.83540  0.36010  0.71358  Biso   1.000  C
  C350     1.0000 0.89530  0.41371  0.65177  Biso   1.000  C
  O98      1.0000 0.63022  0.13020  0.56689  Biso   1.000  O
  N219     1.0000 0.66051  0.09923  0.50245  Biso   1.000  N
  N220     1.0000 0.76490  0.20554  0.45473  Biso   1.000  N
  H395     1.0000 0.69290  0.18889  0.43019  Biso   1.000  H
  C351     1.0000 0.69170  0.11981  0.45739  Biso   1.000  C
  O99      1.0000 0.89839  0.31933  0.49170  Biso   1.000  O
  H396     1.0000 0.82963  0.26682  0.42708  Biso   1.000  H
  H397     1.0000 0.77821  0.27060  0.41869  Biso   1.000  H
  N221     1.0000 0.91920  0.39769  0.61300  Biso   1.000  N
  H398     1.0000 0.93881  0.40092  0.54119  Biso   1.000  H
  H399     1.0000 0.90932  0.43241  0.55317  Biso   1.000  H
  O100     1.0000 0.79335  0.33354  0.73546  Biso   1.000  O
  N222     1.0000 0.88456  0.37900  0.73377  Biso   1.000  N
  C352     1.0000 0.92620  0.41470  0.69998  Biso   1.000  C
  H400     1.0000 0.89931  0.44858  0.64458  Biso   1.000  H
  C353     1.0000 0.62862  0.04322  0.51328  Biso   1.000  C
  C354     1.0000 0.78382  0.17090  0.45170  Biso   1.000  C
  N223     1.0000 0.74184  0.12056  0.45761  Biso   1.000  N
  H401     1.0000 0.67081  0.10210  0.42708  Biso   1.000  H
  C355     1.0000 0.95721  0.38829  0.63150  Biso   1.000  C
  C356     1.0000 0.89252  0.38081  0.78779  Biso   1.000  C
  N224     1.0000 0.95988  0.39533  0.68234  Biso   1.000  N
  H402     1.0000 0.94671  0.45059  0.71410  Biso   1.000  H
  N225     1.0000 0.65879  0.02011  0.53186  Biso   1.000  N
  H403     1.0000 0.61031  0.02480  0.48260  Biso   1.000  H
  H404     1.0000 0.60190  0.03810  0.53819  Biso   1.000  H
  O101     1.0000 0.82990  0.18263  0.44589  Biso   1.000  O
  C357     1.0000 0.74596  0.07514  0.44203  Biso   1.000  C
  O102     1.0000 0.98446  0.37557  0.60637  Biso   1.000  O
  N226     1.0000 0.91751  0.35137  0.80457  Biso   1.000  N
  H405     1.0000 0.85831  0.36672  0.80438  Biso   1.000  H
  H406     1.0000 0.91419  0.41761  0.79809  Biso   1.000  H
  C358     1.0000 0.00490  0.40242  0.71099  Biso   1.000  C
  C359     1.0000 0.65251  0.00059  0.57910  Biso   1.000  C
  C360     1.0000 0.68355  0.99941  0.49893  Biso   1.000  C
  N227     1.0000 0.73675  0.03838  0.48282  Biso   1.000  N
  H407     1.0000 0.78107  0.08734  0.42821  Biso   1.000  H
  H408     1.0000 0.72025  0.05652  0.41543  Biso   1.000  H
  C361     1.0000 0.89322  0.30831  0.83570  Biso   1.000  C
  C362     1.0000 0.97391  0.37132  0.80030  Biso   1.000  C
  N228     1.0000 0.99050  0.36317  0.75100  Biso   1.000  N
  H409     1.0000 0.02991  0.40001  0.68837  Biso   1.000  H
  H410     1.0000 0.02250  0.43760  0.72590  Biso   1.000  H
  O103     1.0000 0.62929  0.00834  0.61364  Biso   1.000  O
  N229     1.0000 0.67616  0.97017  0.58232  Biso   1.000  N
  H411     1.0000 0.66078  0.98052  0.47001  Biso   1.000  H
  C363     1.0000 0.69277  0.96202  0.53302  Biso   1.000  C
  C364     1.0000 0.77347  0.02503  0.49762  Biso   1.000  C
  O104     1.0000 0.84651  0.28544  0.84787  Biso   1.000  O
  N230     1.0000 0.92989  0.29492  0.85046  Biso   1.000  N
  C365     1.0000 0.98312  0.33389  0.83439  Biso   1.000  C
  H412     1.0000 0.99490  0.40852  0.81128  Biso   1.000  H
  C366     1.0000 0.01418  0.33275  0.75422  Biso   1.000  C
  C367     1.0000 0.66175  0.93092  0.62233  Biso   1.000  C
  N231     1.0000 0.74914  0.98197  0.52875  Biso   1.000  N
  H413     1.0000 0.67179  0.92482  0.52201  Biso   1.000  H
  O105     1.0000 0.82018  0.04790  0.48541  Biso   1.000  O
  C368     1.0000 0.92069  0.25820  0.89129  Biso   1.000  C
  N232     1.0000 0.00787  0.31319  0.80142  Biso   1.000  N
  H414     1.0000 0.00591  0.35282  0.86327  Biso   1.000  H
  O106     1.0000 0.03740  0.32499  0.71969  Biso   1.000  O
  N233     1.0000 0.70681  0.93801  0.65095  Biso   1.000  N
  H415     1.0000 0.63677  0.93332  0.64491  Biso   1.000  H
  H416     1.0000 0.64416  0.89574  0.60742  Biso   1.000  H
  C369     1.0000 0.77420  0.95253  0.54553  Biso   1.000  C
  N234     1.0000 0.92484  0.21278  0.87567  Biso   1.000  N
  H417     1.0000 0.88562  0.24600  0.90508  Biso   1.000  H
  H418     1.0000 0.94640  0.27682  0.91789  Biso   1.000  H
  C370     1.0000 0.03806  0.29012  0.82000  Biso   1.000  C
  C371     1.0000 0.74043  0.91860  0.63334  Biso   1.000  C
  C372     1.0000 0.70943  0.94501  0.70182  Biso   1.000  C
  N235     1.0000 0.78209  0.95434  0.59955  Biso   1.000  N
  H419     1.0000 0.80834  0.96662  0.52894  Biso   1.000  H
  H420     1.0000 0.75246  0.91573  0.53523  Biso   1.000  H
  C373     1.0000 0.97498  0.21353  0.87593  Biso   1.000  C
  C374     1.0000 0.88287  0.16244  0.88163  Biso   1.000  C
  N236     1.0000 0.00617  0.23411  0.83083  Biso   1.000  N
  H421     1.0000 0.05637  0.30854  0.85072  Biso   1.000  H
  H422     1.0000 0.06475  0.29524  0.79513  Biso   1.000  H
  H423     1.0000 0.71993  0.88271  0.61922  Biso   1.000  H
  C375     1.0000 0.77135  0.91963  0.68151  Biso   1.000  C
  O107     1.0000 0.68223  0.95777  0.72692  Biso   1.000  O
  N237     1.0000 0.74743  0.93561  0.72028  Biso   1.000  N
  C376     1.0000 0.83125  0.97324  0.61970  Biso   1.000  C
  C377     1.0000 0.95818  0.15394  0.87503  Biso   1.000  C
  H424     1.0000 0.99587  0.23124  0.90620  Biso   1.000  H
  O108     1.0000 0.83678  0.15071  0.88743  Biso   1.000  O
  N238     1.0000 0.90178  0.12780  0.87859  Biso   1.000  N
  C378     1.0000 0.00938  0.19593  0.80453  Biso   1.000  C
  N239     1.0000 0.82566  0.95851  0.66979  Biso   1.000  N
  H425     1.0000 0.76736  0.88471  0.68871  Biso   1.000  H
  C379     1.0000 0.75705  0.93364  0.77310  Biso   1.000  C
  O109     1.0000 0.87330  0.99980  0.59783  Biso   1.000  O
  N240     1.0000 0.97782  0.14795  0.82656  Biso   1.000  N
  H426     1.0000 0.97378  0.14445  0.90313  Biso   1.000  H
  C380     1.0000 0.86966  0.07242  0.89032  Biso   1.000  C
  O110     1.0000 0.03646  0.20314  0.76644  Biso   1.000  O
  C381     1.0000 0.86964  0.96064  0.69781  Biso   1.000  C
  N241     1.0000 0.80567  0.97737  0.79071  Biso   1.000  N
  H427     1.0000 0.72788  0.93242  0.79213  Biso   1.000  H
  H428     1.0000 0.75736  0.90093  0.78011  Biso   1.000  H
  C382     1.0000 0.98117  0.10175  0.81394  Biso   1.000  C
  N242     1.0000 0.85617  0.03786  0.84690  Biso   1.000  N
  H429     1.0000 0.83706  0.06652  0.90620  Biso   1.000  H
  H430     1.0000 0.88848  0.06274  0.91463  Biso   1.000  H
  N243     1.0000 0.88346  0.99284  0.74235  Biso   1.000  N
  H431     1.0000 0.86056  0.92482  0.70732  Biso   1.000  H
  H432     1.0000 0.90059  0.97461  0.67582  Biso   1.000  H
  C383     1.0000 0.80616  0.01012  0.82791  Biso   1.000  C
  C384     1.0000 0.85477  0.97631  0.78974  Biso   1.000  C
  N244     1.0000 0.93273  0.05872  0.79446  Biso   1.000  N
  H433     1.0000 0.99119  0.08954  0.84402  Biso   1.000  H
  H434     1.0000 0.00905  0.11143  0.78902  Biso   1.000  H
  C385     1.0000 0.89078  0.02023  0.82663  Biso   1.000  C
  C386     1.0000 0.92909  0.04034  0.74643  Biso   1.000  C
  O111     1.0000 0.76830  0.01401  0.84158  Biso   1.000  O
  H435     1.0000 0.84937  0.94171  0.80052  Biso   1.000  H
  H436     1.0000 0.90468  0.00693  0.85323  Biso   1.000  H
  O112     1.0000 0.96181  0.06337  0.71294  Biso   1.000  O
  C387     1.0000 0.22412  0.68691  0.49328  Biso   1.000  C
  C388     1.0000 0.18810  0.64302  0.45638  Biso   1.000  C
  N245     1.0000 0.26607  0.72540  0.46110  Biso   1.000  N
  N246     1.0000 0.18951  0.70454  0.51358  Biso   1.000  N
  H437     1.0000 0.23799  0.67360  0.51987  Biso   1.000  H
  N247     1.0000 0.21683  0.65951  0.40903  Biso   1.000  N
  N248     1.0000 0.13901  0.64405  0.45739  Biso   1.000  N
  H438     1.0000 0.18271  0.60839  0.46720  Biso   1.000  H
  C389     1.0000 0.26240  0.70702  0.41307  Biso   1.000  C
  C390     1.0000 0.31450  0.76842  0.48058  Biso   1.000  C
  C391     1.0000 0.13950  0.67679  0.49459  Biso   1.000  C
  C392     1.0000 0.20300  0.73910  0.55700  Biso   1.000  C
  C393     1.0000 0.20301  0.62732  0.36449  Biso   1.000  C
  C394     1.0000 0.09042  0.60032  0.43978  Biso   1.000  C
  O113     1.0000 0.29513  0.73001  0.37962  Biso   1.000  O
  N249     1.0000 0.31116  0.81463  0.49324  Biso   1.000  N
  H439     1.0000 0.32453  0.75622  0.51069  Biso   1.000  H
  H440     1.0000 0.34239  0.77811  0.45570  Biso   1.000  H
  O114     1.0000 0.10164  0.68069  0.50826  Biso   1.000  O
  N250     1.0000 0.23512  0.79448  0.54523  Biso   1.000  N
  H441     1.0000 0.17040  0.73320  0.57288  Biso   1.000  H
  H442     1.0000 0.22182  0.72942  0.58131  Biso   1.000  H
  N251     1.0000 0.15897  0.62519  0.33647  Biso   1.000  N
  H443     1.0000 0.19390  0.59150  0.37400  Biso   1.000  H
  H444     1.0000 0.23389  0.64129  0.34250  Biso   1.000  H
  N252     1.0000 0.08081  0.60228  0.38696  Biso   1.000  N
  H445     1.0000 0.06118  0.59910  0.45878  Biso   1.000  H
  H446     1.0000 0.09070  0.56761  0.44679  Biso   1.000  H
  C395     1.0000 0.34271  0.86261  0.47117  Biso   1.000  C
  C396     1.0000 0.29152  0.82061  0.54167  Biso   1.000  C
  C397     1.0000 0.21621  0.82912  0.54830  Biso   1.000  C
  C398     1.0000 0.16459  0.63991  0.28638  Biso   1.000  C
  C399     1.0000 0.10469  0.58630  0.34819  Biso   1.000  C
  C400     1.0000 0.04280  0.61169  0.36850  Biso   1.000  C
  O115     1.0000 0.36980  0.86981  0.43311  Biso   1.000  O
  N253     1.0000 0.33951  0.90079  0.49751  Biso   1.000  N
  H447     1.0000 0.30710  0.81109  0.56981  Biso   1.000  H
  C401     1.0000 0.30829  0.88020  0.54257  Biso   1.000  C
  N254     1.0000 0.25813  0.87942  0.54235  Biso   1.000  N
  O116     1.0000 0.17012  0.81739  0.55411  Biso   1.000  O
  O117     1.0000 0.20668  0.66648  0.26451  Biso   1.000  O
  N255     1.0000 0.11547  0.62102  0.26623  Biso   1.000  N
  C402     1.0000 0.07382  0.58532  0.29998  Biso   1.000  C
  H448     1.0000 0.10070  0.55139  0.35538  Biso   1.000  H
  N256     1.0000 0.04015  0.60469  0.31763  Biso   1.000  N
  O118     1.0000 0.01553  0.62444  0.39359  Biso   1.000  O
  C403     1.0000 0.37140  0.95680  0.48668  Biso   1.000  C
  H449     1.0000 0.32921  0.89792  0.57288  Biso   1.000  H
  C404     1.0000 0.25403  0.92488  0.55797  Biso   1.000  C
  C405     1.0000 0.10751  0.61921  0.21221  Biso   1.000  C
  H450     1.0000 0.05330  0.54939  0.28590  Biso   1.000  H
  C406     1.0000 0.99509  0.59760  0.28901  Biso   1.000  C
  N257     1.0000 0.34121  0.97986  0.46810  Biso   1.000  N
  H451     1.0000 0.38971  0.97522  0.51740  Biso   1.000  H
  H452     1.0000 0.39809  0.96192  0.46181  Biso   1.000  H
  N258     1.0000 0.26323  0.96160  0.51714  Biso   1.000  N
  H453     1.0000 0.21892  0.91268  0.57176  Biso   1.000  H
  H454     1.0000 0.27972  0.94346  0.58457  Biso   1.000  H
  N259     1.0000 0.08248  0.64865  0.19543  Biso   1.000  N
  H455     1.0000 0.14168  0.63330  0.19558  Biso   1.000  H
  H456     1.0000 0.08580  0.58241  0.20191  Biso   1.000  H
  N260     1.0000 0.00953  0.63684  0.24900  Biso   1.000  N
  H457     1.0000 0.97011  0.60000  0.31159  Biso   1.000  H
  H458     1.0000 0.97749  0.56241  0.27410  Biso   1.000  H
  C407     1.0000 0.34752  0.99943  0.42090  Biso   1.000  C
  C408     1.0000 0.31642  0.00057  0.50107  Biso   1.000  C
  C409     1.0000 0.22652  0.97498  0.50234  Biso   1.000  C
  C410     1.0000 0.10681  0.69171  0.16430  Biso   1.000  C
  C411     1.0000 0.02611  0.62870  0.19970  Biso   1.000  C
  C412     1.0000 0.98585  0.66727  0.24578  Biso   1.000  C
  O119     1.0000 0.37074  0.99167  0.38636  Biso   1.000  O
  N261     1.0000 0.32384  0.02985  0.41768  Biso   1.000  N
  H459     1.0000 0.33925  0.01950  0.52995  Biso   1.000  H
  C413     1.0000 0.30722  0.03800  0.46694  Biso   1.000  C
  N262     1.0000 0.25085  0.01804  0.47125  Biso   1.000  N
  O120     1.0000 0.17982  0.95208  0.51455  Biso   1.000  O
  O121     1.0000 0.15349  0.71458  0.15209  Biso   1.000  O
  N263     1.0000 0.07008  0.70505  0.14950  Biso   1.000  N
  C414     1.0000 0.01689  0.66609  0.16561  Biso   1.000  C
  H460     1.0000 0.00509  0.59150  0.18869  Biso   1.000  H
  N264     1.0000 0.99213  0.68679  0.19854  Biso   1.000  N
  O122     1.0000 0.96263  0.67502  0.28031  Biso   1.000  O
  C415     1.0000 0.33828  0.06909  0.37767  Biso   1.000  C
  H461     1.0000 0.32827  0.07519  0.47795  Biso   1.000  H
  C416     1.0000 0.22586  0.04748  0.45447  Biso   1.000  C
  C417     1.0000 0.07930  0.74182  0.10871  Biso   1.000  C
  H462     1.0000 0.99412  0.64719  0.13669  Biso   1.000  H
  C418     1.0000 0.96194  0.70986  0.17996  Biso   1.000  C
  N265     1.0000 0.29322  0.06201  0.34902  Biso   1.000  N
  H463     1.0000 0.36325  0.06669  0.35505  Biso   1.000  H
  H464     1.0000 0.35587  0.10428  0.39255  Biso   1.000  H
  N266     1.0000 0.21786  0.04567  0.40041  Biso   1.000  N
  H465     1.0000 0.19165  0.03339  0.47106  Biso   1.000  H
  H466     1.0000 0.24753  0.08429  0.46477  Biso   1.000  H
  N267     1.0000 0.07518  0.78724  0.12429  Biso   1.000  N
  H467     1.0000 0.11440  0.75402  0.09489  Biso   1.000  H
  H468     1.0000 0.05359  0.72320  0.08211  Biso   1.000  H
  N268     1.0000 0.99385  0.76590  0.16913  Biso   1.000  N
  H469     1.0000 0.94365  0.69147  0.14928  Biso   1.000  H
  H470     1.0000 0.93524  0.70478  0.20487  Biso   1.000  H
  C419     1.0000 0.25954  0.08137  0.36666  Biso   1.000  C
  C420     1.0000 0.29053  0.05500  0.29815  Biso   1.000  C
  C421     1.0000 0.16874  0.02678  0.38026  Biso   1.000  C
  C422     1.0000 0.02504  0.78649  0.12407  Biso   1.000  C
  C423     1.0000 0.11712  0.83758  0.11837  Biso   1.000  C
  C424     1.0000 0.99065  0.80408  0.19547  Biso   1.000  C
  H471     1.0000 0.28001  0.11727  0.38075  Biso   1.000  H
  C425     1.0000 0.22868  0.08039  0.31845  Biso   1.000  C
  O123     1.0000 0.31780  0.04225  0.27305  Biso   1.000  O
  N269     1.0000 0.25254  0.06437  0.27968  Biso   1.000  N
  N270     1.0000 0.17436  0.04150  0.33021  Biso   1.000  N
  O124     1.0000 0.12665  0.00021  0.40214  Biso   1.000  O
  C426     1.0000 0.04185  0.84608  0.12497  Biso   1.000  C
  H472     1.0000 0.00415  0.76878  0.09376  Biso   1.000  H
  O125     1.0000 0.16324  0.84931  0.11253  Biso   1.000  O
  N271     1.0000 0.09824  0.87221  0.12141  Biso   1.000  N
  N272     1.0000 0.02217  0.85206  0.17344  Biso   1.000  N
  O126     1.0000 0.96356  0.79688  0.23353  Biso   1.000  O
  H473     1.0000 0.23267  0.11530  0.31126  Biso   1.000  H
  C427     1.0000 0.24294  0.06638  0.22686  Biso   1.000  C
  C428     1.0000 0.13035  0.03938  0.30215  Biso   1.000  C
  H474     1.0000 0.02624  0.85557  0.09687  Biso   1.000  H
  C429     1.0000 0.13034  0.92755  0.10965  Biso   1.000  C
  C430     1.0000 0.01883  0.89827  0.18606  Biso   1.000  C
  N273     1.0000 0.19432  0.02265  0.20929  Biso   1.000  N
  H475     1.0000 0.27215  0.06760  0.20787  Biso   1.000  H
  H476     1.0000 0.24263  0.09909  0.21985  Biso   1.000  H
  N274     1.0000 0.11654  0.00718  0.25761  Biso   1.000  N
  H477     1.0000 0.13943  0.07519  0.29268  Biso   1.000  H
  H478     1.0000 0.09945  0.02536  0.32414  Biso   1.000  H
  N275     1.0000 0.14382  0.96215  0.15310  Biso   1.000  N
  H479     1.0000 0.16292  0.93346  0.09376  Biso   1.000  H
  H480     1.0000 0.11155  0.93728  0.08537  Biso   1.000  H
  N276     1.0000 0.06730  0.94129  0.20554  Biso   1.000  N
  H481     1.0000 0.00884  0.91047  0.15595  Biso   1.000  H
  H482     1.0000 0.99094  0.88859  0.21098  Biso   1.000  H
  C431     1.0000 0.19384  0.98986  0.17205  Biso   1.000  C
  C432     1.0000 0.14523  0.02367  0.21026  Biso   1.000  C
  C433     1.0000 0.07093  0.95967  0.25357  Biso   1.000  C
  C434     1.0000 0.10925  0.97979  0.17337  Biso   1.000  C
  O127     1.0000 0.23169  0.98600  0.15838  Biso   1.000  O
  H483     1.0000 0.15064  0.05827  0.19948  Biso   1.000  H
  O128     1.0000 0.03822  0.93665  0.28702  Biso   1.000  O
  H484     1.0000 0.09534  0.99309  0.14677  Biso   1.000  H
  C435     1.0000 0.53868  0.09805  0.91661  Biso   1.000  C
  C436     1.0000 0.55997  0.11194  0.96902  Biso   1.000  C
  H485     1.0000 0.50697  0.10104  0.91433  Biso   1.000  H
  H486     1.0000 0.56476  0.12363  0.89343  Biso   1.000  H
  C437     1.0000 0.52507  0.04302  0.90021  Biso   1.000  C
  H487     1.0000 0.59017  0.10655  0.97243  Biso   1.000  H
  H488     1.0000 0.57236  0.14933  0.97513  Biso   1.000  H
  N277     1.0000 0.51968  0.07974  0.00693  Biso   1.000  N
  H489     1.0000 0.55648  0.03944  0.90302  Biso   1.000  H
  H490     1.0000 0.51418  0.03794  0.86503  Biso   1.000  H
  N278     1.0000 0.48215  0.00197  0.93126  Biso   1.000  N
  C438     1.0000 0.54037  0.08643  0.05863  Biso   1.000  C
  C439     1.0000 0.46760  0.94934  0.91335  Biso   1.000  C
  H491     1.0000 0.52808  0.10753  0.07634  Biso   1.000  H
  H492     1.0000 0.57865  0.10852  0.05593  Biso   1.000  H
  C440     1.0000 0.53235  0.05062  0.08665  Biso   1.000  C
  C441     1.0000 0.45963  0.91357  0.94134  Biso   1.000  C
  H493     1.0000 0.49553  0.95367  0.89024  Biso   1.000  H
  H494     1.0000 0.43566  0.93706  0.89324  Biso   1.000  H
  N279     1.0000 0.51788  0.99803  0.06874  Biso   1.000  N
  H495     1.0000 0.50447  0.04633  0.10972  Biso   1.000  H
  H496     1.0000 0.56438  0.06294  0.10672  Biso   1.000  H
  H497     1.0000 0.47192  0.89247  0.92366  Biso   1.000  H
  H498     1.0000 0.42133  0.89145  0.94403  Biso   1.000  H
  N280     1.0000 0.48032  0.92026  0.99303  Biso   1.000  N
  C442     1.0000 0.47494  0.95694  0.09976  Biso   1.000  C
  C443     1.0000 0.44006  0.88806  0.03098  Biso   1.000  C
  C444     1.0000 0.46136  0.90195  0.08335  Biso   1.000  C
  H499     1.0000 0.44355  0.96056  0.09695  Biso   1.000  H
  H500     1.0000 0.48582  0.96206  0.13497  Biso   1.000  H
  H501     1.0000 0.40979  0.89345  0.02757  Biso   1.000  H
  H502     1.0000 0.42764  0.85067  0.02487  Biso   1.000  H
  H503     1.0000 0.49306  0.89896  0.08567  Biso   1.000  H
  H504     1.0000 0.43524  0.87637  0.10657  Biso   1.000  H
  O129     1.0000 0.66689  0.20688  0.93119  Biso   1.000  O
  C445     1.0000 0.69343  0.19137  0.95306  Biso   1.000  C
  N281     1.0000 0.71231  0.16110  0.93287  Biso   1.000  N
  N282     1.0000 0.70817  0.20046  0.00311  Biso   1.000  N
  C446     1.0000 0.71415  0.15496  0.87885  Biso   1.000  C
  C447     1.0000 0.74803  0.15516  0.96666  Biso   1.000  C
  C448     1.0000 0.74703  0.18507  0.01487  Biso   1.000  C
  C449     1.0000 0.70605  0.24238  0.03117  Biso   1.000  C
  N283     1.0000 0.68468  0.10053  0.86207  Biso   1.000  N
  H505     1.0000 0.70004  0.17507  0.86226  Biso   1.000  H
  H506     1.0000 0.75095  0.17007  0.86855  Biso   1.000  H
  N284     1.0000 0.72864  0.10214  0.98430  Biso   1.000  N
  H507     1.0000 0.78393  0.17059  0.95254  Biso   1.000  H
  N285     1.0000 0.73103  0.14516  0.05364  Biso   1.000  N
  H508     1.0000 0.78195  0.21597  0.02206  Biso   1.000  H
  N286     1.0000 0.67385  0.22400  0.07571  Biso   1.000  N
  H509     1.0000 0.74182  0.26906  0.04068  Biso   1.000  H
  H510     1.0000 0.69203  0.25926  0.00918  Biso   1.000  H
  C450     1.0000 0.64162  0.08175  0.83094  Biso   1.000  C
  C451     1.0000 0.70464  0.06408  0.86634  Biso   1.000  C
  C452     1.0000 0.73573  0.06416  0.95565  Biso   1.000  C
  C453     1.0000 0.72165  0.09777  0.03518  Biso   1.000  C
  C454     1.0000 0.73305  0.15677  0.10646  Biso   1.000  C
  C455     1.0000 0.62632  0.22207  0.07975  Biso   1.000  C
  C456     1.0000 0.69033  0.21176  0.12306  Biso   1.000  C
  O130     1.0000 0.61878  0.10560  0.81877  Biso   1.000  O
  N287     1.0000 0.62830  0.03172  0.81615  Biso   1.000  N
  C457     1.0000 0.66726  0.01748  0.83225  Biso   1.000  C
  N288     1.0000 0.69650  0.03936  0.91564  Biso   1.000  N
  H511     1.0000 0.74184  0.08025  0.85537  Biso   1.000  H
  H512     1.0000 0.73335  0.03676  0.97824  Biso   1.000  H
  H513     1.0000 0.77094  0.08175  0.94074  Biso   1.000  H
  O131     1.0000 0.70888  0.05778  0.06027  Biso   1.000  O
  N289     1.0000 0.68931  0.16165  0.12403  Biso   1.000  N
  H514     1.0000 0.73426  0.12879  0.12545  Biso   1.000  H
  H515     1.0000 0.76574  0.18975  0.11347  Biso   1.000  H
  O132     1.0000 0.60331  0.23175  0.04630  Biso   1.000  O
  N290     1.0000 0.60793  0.20731  0.12778  Biso   1.000  N
  H516     1.0000 0.72494  0.24096  0.13388  Biso   1.000  H
  C458     1.0000 0.64644  0.20388  0.15996  Biso   1.000  C
  C459     1.0000 0.59155  0.00417  0.77535  Biso   1.000  C
  H517     1.0000 0.68614  0.01358  0.80333  Biso   1.000  H
  N291     1.0000 0.64652  0.97198  0.86518  Biso   1.000  N
  C460     1.0000 0.66610  0.98524  0.91242  Biso   1.000  C
  C461     1.0000 0.65653  0.12938  0.16127  Biso   1.000  C
  C462     1.0000 0.56496  0.21278  0.14726  Biso   1.000  C
  N292     1.0000 0.62881  0.15165  0.18026  Biso   1.000  N
  H518     1.0000 0.65973  0.23108  0.18655  Biso   1.000  H
  H519     1.0000 0.57934  0.02708  0.76157  Biso   1.000  H
  N293     1.0000 0.54608  0.95462  0.79093  Biso   1.000  N
  H520     1.0000 0.61011  0.99705  0.74875  Biso   1.000  H
  C463     1.0000 0.62347  0.91872  0.84660  Biso   1.000  C
  O133     1.0000 0.65829  0.95426  0.94696  Biso   1.000  O
  O134     1.0000 0.65266  0.08762  0.17494  Biso   1.000  O
  N294     1.0000 0.51872  0.16319  0.15992  Biso   1.000  N
  H521     1.0000 0.57715  0.23498  0.17737  Biso   1.000  H
  H522     1.0000 0.55523  0.23096  0.12238  Biso   1.000  H
  C464     1.0000 0.59423  0.13056  0.22367  Biso   1.000  C
  C465     1.0000 0.54684  0.90522  0.79071  Biso   1.000  C
  C466     1.0000 0.49573  0.94623  0.78502  Biso   1.000  C
  N295     1.0000 0.56740  0.89459  0.83581  Biso   1.000  N
  H523     1.0000 0.64187  0.91884  0.81592  Biso   1.000  H
  H524     1.0000 0.62859  0.89711  0.87151  Biso   1.000  H
  C467     1.0000 0.47073  0.14677  0.13785  Biso   1.000  C
  C468     1.0000 0.51273  0.13756  0.20835  Biso   1.000  C
  N296     1.0000 0.53887  0.10730  0.21191  Biso   1.000  N
  H525     1.0000 0.60015  0.10387  0.23956  Biso   1.000  H
  H526     1.0000 0.60392  0.15905  0.24795  Biso   1.000  H
  C469     1.0000 0.48724  0.86244  0.79161  Biso   1.000  C
  H527     1.0000 0.56458  0.90203  0.76040  Biso   1.000  H
  O135     1.0000 0.48404  0.98060  0.77921  Biso   1.000  O
  N297     1.0000 0.46111  0.89267  0.78805  Biso   1.000  N
  C470     1.0000 0.52927  0.85323  0.86211  Biso   1.000  C
  O136     1.0000 0.46353  0.16665  0.09979  Biso   1.000  O
  N298     1.0000 0.43256  0.10541  0.16419  Biso   1.000  N
  H528     1.0000 0.52225  0.16267  0.23645  Biso   1.000  H
  C471     1.0000 0.45316  0.09478  0.20925  Biso   1.000  C
  C472     1.0000 0.50423  0.05377  0.21495  Biso   1.000  C
  N299     1.0000 0.48129  0.83677  0.84008  Biso   1.000  N
  H529     1.0000 0.47775  0.83733  0.76351  Biso   1.000  H
  C473     1.0000 0.40575  0.86940  0.77633  Biso   1.000  C
  O137     1.0000 0.53647  0.83335  0.90021  Biso   1.000  O
  C474     1.0000 0.37653  0.08128  0.15336  Biso   1.000  C
  N300     1.0000 0.45389  0.04538  0.20903  Biso   1.000  N
  H530     1.0000 0.43542  0.09797  0.23956  Biso   1.000  H
  O138     1.0000 0.51596  0.01940  0.22079  Biso   1.000  O
  C475     1.0000 0.43504  0.78722  0.85271  Biso   1.000  C
  N301     1.0000 0.37119  0.84835  0.81974  Biso   1.000  N
  H531     1.0000 0.39988  0.89613  0.76040  Biso   1.000  H
  H532     1.0000 0.39606  0.84091  0.75201  Biso   1.000  H
  N302     1.0000 0.35346  0.02798  0.13478  Biso   1.000  N
  H533     1.0000 0.35813  0.08116  0.18408  Biso   1.000  H
  H534     1.0000 0.37145  0.10289  0.12845  Biso   1.000  H
  C476     1.0000 0.40845  0.99583  0.22461  Biso   1.000  C
  N303     1.0000 0.39205  0.79265  0.87219  Biso   1.000  N
  H535     1.0000 0.42285  0.76502  0.82263  Biso   1.000  H
  H536     1.0000 0.44477  0.76904  0.87762  Biso   1.000  H
  C477     1.0000 0.35356  0.79612  0.84001  Biso   1.000  C
  C478     1.0000 0.34343  0.87062  0.83873  Biso   1.000  C
  C479     1.0000 0.33393  0.01476  0.08758  Biso   1.000  C
  C480     1.0000 0.33274  0.98252  0.16775  Biso   1.000  C
  N304     1.0000 0.37170  0.96828  0.18382  Biso   1.000  N
  H537     1.0000 0.42069  0.97292  0.23843  Biso   1.000  H
  H538     1.0000 0.38989  0.00295  0.25125  Biso   1.000  H
  C481     1.0000 0.37368  0.77793  0.92021  Biso   1.000  C
  C482     1.0000 0.30965  0.78820  0.87691  Biso   1.000  C
  H539     1.0000 0.34023  0.76892  0.81341  Biso   1.000  H
  O139     1.0000 0.34735  0.91235  0.82506  Biso   1.000  O
  N305     1.0000 0.31069  0.83835  0.87593  Biso   1.000  N
  N306     1.0000 0.30346  0.96064  0.08436  Biso   1.000  N
  O140     1.0000 0.34168  0.04574  0.05304  Biso   1.000  O
  C483     1.0000 0.29533  0.93592  0.13362  Biso   1.000  C
  H540     1.0000 0.31383  0.98642  0.19663  Biso   1.000  H
  C484     1.0000 0.35836  0.91821  0.16902  Biso   1.000  C
  O141     1.0000 0.39667  0.76821  0.95370  Biso   1.000  O
  N307     1.0000 0.32615  0.77600  0.92429  Biso   1.000  N
  H541     1.0000 0.27506  0.75904  0.86612  Biso   1.000  H
  C485     1.0000 0.26698  0.84323  0.89350  Biso   1.000  C
  C486     1.0000 0.26425  0.93580  0.04432  Biso   1.000  C
  N308     1.0000 0.31532  0.89947  0.13793  Biso   1.000  N
  H542     1.0000 0.25818  0.91971  0.14463  Biso   1.000  H
  O142     1.0000 0.38122  0.89440  0.18123  Biso   1.000  O
  C487     1.0000 0.29399  0.75762  0.96883  Biso   1.000  C
  N309     1.0000 0.26898  0.85480  0.94632  Biso   1.000  N
  H543     1.0000 0.26574  0.87121  0.87451  Biso   1.000  H
  H544     1.0000 0.23424  0.81021  0.88653  Biso   1.000  H
  N310     1.0000 0.27136  0.89786  0.01570  Biso   1.000  N
  H545     1.0000 0.26669  0.96324  0.02173  Biso   1.000  H
  H546     1.0000 0.22907  0.91821  0.05922  Biso   1.000  H
  C488     1.0000 0.28585  0.84504  0.12115  Biso   1.000  C
  N311     1.0000 0.29183  0.79954  0.99685  Biso   1.000  N
  H547     1.0000 0.25818  0.73094  0.95932  Biso   1.000  H
  H548     1.0000 0.30797  0.74074  0.99082  Biso   1.000  H
  C489     1.0000 0.25297  0.81493  0.98513  Biso   1.000  C
  C490     1.0000 0.27838  0.90223  0.96482  Biso   1.000  C
  C491     1.0000 0.25195  0.84480  0.03334  Biso   1.000  C
  N312     1.0000 0.28769  0.83890  0.06709  Biso   1.000  N
  H549     1.0000 0.29996  0.82493  0.13774  Biso   1.000  H
  H550     1.0000 0.24908  0.82993  0.13145  Biso   1.000  H
  C492     1.0000 0.30654  0.80863  0.04694  Biso   1.000  C
  H551     1.0000 0.21809  0.78403  0.97790  Biso   1.000  H
  O143     1.0000 0.29108  0.94222  0.93969  Biso   1.000  O
  H552     1.0000 0.21607  0.82941  0.04742  Biso   1.000  H
  O144     1.0000 0.33311  0.79312  0.06881  Biso   1.000  O
  C493     1.0000 0.78138  0.22663  0.69762  Biso   1.000  C
  N313     1.0000 0.77326  0.18633  0.65971  Biso   1.000  N
  H553     1.0000 0.81696  0.25682  0.69421  Biso   1.000  H
  H554     1.0000 0.75636  0.23903  0.69152  Biso   1.000  H
  C494     1.0000 0.77397  0.20534  0.75003  Biso   1.000  C
  C495     1.0000 0.78726  0.20703  0.60802  Biso   1.000  C
  H555     1.0000 0.73926  0.17362  0.75231  Biso   1.000  H
  H556     1.0000 0.77448  0.23144  0.77322  Biso   1.000  H
  C496     1.0000 0.81536  0.19172  0.76644  Biso   1.000  C
  H557     1.0000 0.75389  0.19475  0.59034  Biso   1.000  H
  H558     1.0000 0.80348  0.24533  0.61071  Biso   1.000  H
  C497     1.0000 0.81507  0.19904  0.58003  Biso   1.000  C
  H559     1.0000 0.85036  0.22313  0.76363  Biso   1.000  H
  H560     1.0000 0.80957  0.18082  0.80161  Biso   1.000  H
  N314     1.0000 0.81351  0.14882  0.73538  Biso   1.000  N
  H561     1.0000 0.79147  0.17114  0.55692  Biso   1.000  H
  H562     1.0000 0.83478  0.23104  0.55992  Biso   1.000  H
  N315     1.0000 0.85318  0.18452  0.59794  Biso   1.000  N
  C498     1.0000 0.85162  0.13430  0.75329  Biso   1.000  C
  C499     1.0000 0.85132  0.14162  0.56689  Biso   1.000  C
  C500     1.0000 0.87939  0.12631  0.72530  Biso   1.000  C
  H563     1.0000 0.87522  0.16220  0.77640  Biso   1.000  H
  H564     1.0000 0.83190  0.10230  0.77340  Biso   1.000  H
  C501     1.0000 0.89271  0.12800  0.58329  Biso   1.000  C
  H565     1.0000 0.81629  0.11021  0.56969  Biso   1.000  H
  H566     1.0000 0.85712  0.15252  0.53167  Biso   1.000  H
  N316     1.0000 0.89342  0.14701  0.67357  Biso   1.000  N
  H567     1.0000 0.91280  0.13859  0.74299  Biso   1.000  H
  H568     1.0000 0.86321  0.08801  0.72257  Biso   1.000  H
  C502     1.0000 0.88531  0.10670  0.63570  Biso   1.000  C
  H569     1.0000 0.92741  0.15968  0.58101  Biso   1.000  H
  H570     1.0000 0.89221  0.10190  0.56010  Biso   1.000  H
  H571     1.0000 0.84972  0.07652  0.63907  Biso   1.000  H
  H572     1.0000 0.91030  0.09431  0.64181  Biso   1.000  H
  C503     1.0000 0.08645  0.54608  0.94134  Biso   1.000  C
  C504     1.0000 0.05062  0.51825  0.91335  Biso   1.000  C
  H573     1.0000 0.10753  0.57946  0.92366  Biso   1.000  H
  H574     1.0000 0.10854  0.52986  0.94403  Biso   1.000  H
  N317     1.0000 0.07973  0.56005  0.99303  Biso   1.000  N
  H575     1.0000 0.04634  0.54187  0.89024  Biso   1.000  H
  H576     1.0000 0.06293  0.49857  0.89324  Biso   1.000  H
  N318     1.0000 0.99803  0.48015  0.93126  Biso   1.000  N
  C505     1.0000 0.11193  0.55198  0.03098  Biso   1.000  C
  C506     1.0000 0.95698  0.48204  0.90021  Biso   1.000  C
  H577     1.0000 0.10653  0.51636  0.02757  Biso   1.000  H
  H578     1.0000 0.14935  0.57698  0.02487  Biso   1.000  H
  C507     1.0000 0.09804  0.55938  0.08335  Biso   1.000  C
  C508     1.0000 0.90198  0.44063  0.91661  Biso   1.000  C
  H579     1.0000 0.96056  0.51703  0.90302  Biso   1.000  H
  H580     1.0000 0.96209  0.47625  0.86503  Biso   1.000  H
  H581     1.0000 0.10103  0.59406  0.08567  Biso   1.000  H
  H582     1.0000 0.12363  0.55887  0.10657  Biso   1.000  H
  C509     1.0000 0.04305  0.51798  0.09976  Biso   1.000  C
  C510     1.0000 0.88806  0.44803  0.96902  Biso   1.000  C
  H583     1.0000 0.89897  0.40592  0.91433  Biso   1.000  H
  H584     1.0000 0.87637  0.44115  0.89343  Biso   1.000  H
  H585     1.0000 0.03943  0.48298  0.09695  Biso   1.000  H
  H586     1.0000 0.03793  0.52376  0.13497  Biso   1.000  H
  N319     1.0000 0.00195  0.51983  0.06874  Biso   1.000  N
  H587     1.0000 0.89350  0.48365  0.97243  Biso   1.000  H
  H588     1.0000 0.85068  0.42304  0.97513  Biso   1.000  H
  N320     1.0000 0.92027  0.43993  0.00693  Biso   1.000  N
  C511     1.0000 0.94935  0.48173  0.08665  Biso   1.000  C
  C512     1.0000 0.91358  0.45394  0.05863  Biso   1.000  C
  H589     1.0000 0.95369  0.45815  0.10972  Biso   1.000  H
  H590     1.0000 0.93709  0.50144  0.10672  Biso   1.000  H
  H591     1.0000 0.89247  0.42052  0.07634  Biso   1.000  H
  H592     1.0000 0.89148  0.47015  0.05593  Biso   1.000  H
  C513     1.0000 0.21273  0.79298  0.39195  Biso   1.000  C
  N321     1.0000 0.22673  0.81369  0.34025  Biso   1.000  N
  H593     1.0000 0.24614  0.80526  0.40966  Biso   1.000  H
  H594     1.0000 0.19655  0.75469  0.38925  Biso   1.000  H
  C514     1.0000 0.18492  0.80097  0.41997  Biso   1.000  C
  C515     1.0000 0.21864  0.77338  0.30238  Biso   1.000  C
  H595     1.0000 0.20852  0.82888  0.44304  Biso   1.000  H
  H596     1.0000 0.16524  0.76897  0.44004  Biso   1.000  H
  N322     1.0000 0.14683  0.81546  0.40206  Biso   1.000  N
  H597     1.0000 0.18301  0.74315  0.30575  Biso   1.000  H
  H598     1.0000 0.24363  0.76098  0.30845  Biso   1.000  H
  C516     1.0000 0.22605  0.79468  0.24997  Biso   1.000  C
  C517     1.0000 0.14870  0.85840  0.43308  Biso   1.000  C
  H599     1.0000 0.26074  0.82636  0.24765  Biso   1.000  H
  H600     1.0000 0.22555  0.76858  0.22675  Biso   1.000  H
  C518     1.0000 0.18461  0.80825  0.23356  Biso   1.000  C
  C519     1.0000 0.10731  0.87202  0.41671  Biso   1.000  C
  H601     1.0000 0.18370  0.88981  0.43031  Biso   1.000  H
  H602     1.0000 0.14291  0.84750  0.46829  Biso   1.000  H
  H603     1.0000 0.14963  0.77689  0.23637  Biso   1.000  H
  H604     1.0000 0.19044  0.81916  0.19835  Biso   1.000  H
  N323     1.0000 0.18648  0.85120  0.26458  Biso   1.000  N
  C520     1.0000 0.11472  0.89331  0.36430  Biso   1.000  C
  H605     1.0000 0.07260  0.84029  0.41899  Biso   1.000  H
  H606     1.0000 0.10782  0.89811  0.43990  Biso   1.000  H
  C521     1.0000 0.14841  0.86572  0.24671  Biso   1.000  C
  N324     1.0000 0.10660  0.85301  0.32639  Biso   1.000  N
  H607     1.0000 0.15030  0.92350  0.36089  Biso   1.000  H
  H608     1.0000 0.08970  0.90571  0.35819  Biso   1.000  H
  C522     1.0000 0.12060  0.87371  0.27470  Biso   1.000  C
  H609     1.0000 0.12481  0.83781  0.22360  Biso   1.000  H
  H610     1.0000 0.16812  0.89772  0.22660  Biso   1.000  H
  H611     1.0000 0.08720  0.86139  0.25698  Biso   1.000  H
  H612     1.0000 0.13682  0.91201  0.27739  Biso   1.000  H
